MODEL 1
REMARK VINA RESULT:    -5.349      0.000      0.000
REMARK INTER + INTRA:          -5.505
REMARK INTER:                  -5.505
REMARK INTRA:                   0.000
REMARK UNBOUND:                 0.000
REMARK SMILES O=c1ccc2ccc(O)cc2o1
REMARK SMILES IDX 6 1 7 2 8 3 10 4 11 5 5 6 4 7 3 8 2 9 1 10 12 11 9 12
REMARK H PARENT 9 13
REMARK Flexibility Score: inf
ROOT
ATOM      1  C   UNL     1      28.267  11.831 -32.182  1.00  0.00     0.016 A 
ATOM      2  C   UNL     1      27.159  11.253 -31.555  1.00  0.00     0.047 A 
ATOM      3  C   UNL     1      26.820   9.917 -31.804  1.00  0.00     0.119 A 
ATOM      4  C   UNL     1      27.598   9.152 -32.686  1.00  0.00     0.094 A 
ATOM      5  C   UNL     1      28.709   9.720 -33.317  1.00  0.00     0.142 A 
ATOM      6  C   UNL     1      29.046  11.069 -33.064  1.00  0.00     0.018 A 
ATOM      7  C   UNL     1      30.163  11.610 -33.710  1.00  0.00     0.019 A 
ATOM      8  C   UNL     1      30.904  10.809 -34.578  1.00  0.00     0.094 A 
ATOM      9  C   UNL     1      30.512   9.482 -34.781  1.00  0.00     0.336 A 
ATOM     10  O   UNL     1      31.169   8.744 -35.560  1.00  0.00    -0.246 OA
ATOM     11  O   UNL     1      29.446   8.992 -34.154  1.00  0.00    -0.423 OA
ENDROOT
BRANCH   3  12
ATOM     12  O   UNL     1      25.712   9.360 -31.170  1.00  0.00    -0.508 OA
ATOM     13  H   UNL     1      24.903   9.052 -31.694  1.00  0.00     0.293 HD
ENDBRANCH   3  12
TORSDOF 1
ENDMDL
MODEL 2
REMARK VINA RESULT:    -5.238      1.317      4.084
REMARK INTER + INTRA:          -5.391
REMARK INTER:                  -5.391
REMARK INTRA:                   0.000
REMARK UNBOUND:                 0.000
REMARK SMILES O=c1ccc2ccc(O)cc2o1
REMARK SMILES IDX 6 1 7 2 8 3 10 4 11 5 5 6 4 7 3 8 2 9 1 10 12 11 9 12
REMARK H PARENT 9 13
REMARK Flexibility Score: inf
ROOT
ATOM      1  C   UNL     1      28.959  12.035 -32.615  1.00  0.00     0.016 A 
ATOM      2  C   UNL     1      30.155  12.008 -33.338  1.00  0.00     0.047 A 
ATOM      3  C   UNL     1      30.516  10.869 -34.068  1.00  0.00     0.119 A 
ATOM      4  C   UNL     1      29.673   9.748 -34.076  1.00  0.00     0.094 A 
ATOM      5  C   UNL     1      28.473   9.766 -33.357  1.00  0.00     0.142 A 
ATOM      6  C   UNL     1      28.114  10.917 -32.622  1.00  0.00     0.018 A 
ATOM      7  C   UNL     1      26.908  10.906 -31.912  1.00  0.00     0.019 A 
ATOM      8  C   UNL     1      26.104   9.767 -31.950  1.00  0.00     0.094 A 
ATOM      9  C   UNL     1      26.523   8.664 -32.701  1.00  0.00     0.336 A 
ATOM     10  O   UNL     1      25.811   7.627 -32.747  1.00  0.00    -0.246 OA
ATOM     11  O   UNL     1      27.675   8.701 -33.366  1.00  0.00    -0.423 OA
ENDROOT
BRANCH   3  12
ATOM     12  O   UNL     1      31.713  10.862 -34.782  1.00  0.00    -0.508 OA
ATOM     13  H   UNL     1      32.538  10.397 -34.425  1.00  0.00     0.293 HD
ENDBRANCH   3  12
TORSDOF 1
ENDMDL
MODEL 3
REMARK VINA RESULT:    -5.082      0.866      4.238
REMARK INTER + INTRA:          -5.231
REMARK INTER:                  -5.231
REMARK INTRA:                   0.000
REMARK UNBOUND:                 0.000
REMARK SMILES O=c1ccc2ccc(O)cc2o1
REMARK SMILES IDX 6 1 7 2 8 3 10 4 11 5 5 6 4 7 3 8 2 9 1 10 12 11 9 12
REMARK H PARENT 9 13
REMARK Flexibility Score: inf
ROOT
ATOM      1  C   UNL     1      30.494  11.335 -34.076  1.00  0.00     0.016 A 
ATOM      2  C   UNL     1      31.213  10.404 -34.833  1.00  0.00     0.047 A 
ATOM      3  C   UNL     1      30.812   9.063 -34.873  1.00  0.00     0.119 A 
ATOM      4  C   UNL     1      29.682   8.649 -34.151  1.00  0.00     0.094 A 
ATOM      5  C   UNL     1      28.956   9.573 -33.392  1.00  0.00     0.142 A 
ATOM      6  C   UNL     1      29.365  10.925 -33.354  1.00  0.00     0.018 A 
ATOM      7  C   UNL     1      28.619  11.825 -32.586  1.00  0.00     0.019 A 
ATOM      8  C   UNL     1      27.504  11.366 -31.885  1.00  0.00     0.094 A 
ATOM      9  C   UNL     1      27.158  10.013 -31.970  1.00  0.00     0.336 A 
ATOM     10  O   UNL     1      26.156   9.580 -31.345  1.00  0.00    -0.246 OA
ATOM     11  O   UNL     1      27.885   9.178 -32.708  1.00  0.00    -0.423 OA
ENDROOT
BRANCH   3  12
ATOM     12  O   UNL     1      31.541   8.152 -35.633  1.00  0.00    -0.508 OA
ATOM     13  H   UNL     1      31.211   7.832 -36.536  1.00  0.00     0.293 HD
ENDBRANCH   3  12
TORSDOF 1
ENDMDL
MODEL 4
REMARK VINA RESULT:    -5.014     10.807     11.704
REMARK INTER + INTRA:          -5.161
REMARK INTER:                  -5.161
REMARK INTRA:                   0.000
REMARK UNBOUND:                 0.000
REMARK SMILES O=c1ccc2ccc(O)cc2o1
REMARK SMILES IDX 6 1 7 2 8 3 10 4 11 5 5 6 4 7 3 8 2 9 1 10 12 11 9 12
REMARK H PARENT 9 13
REMARK Flexibility Score: inf
ROOT
ATOM      1  C   UNL     1      32.979   7.677 -22.737  1.00  0.00     0.016 A 
ATOM      2  C   UNL     1      32.791   8.218 -21.461  1.00  0.00     0.047 A 
ATOM      3  C   UNL     1      31.659   7.880 -20.709  1.00  0.00     0.119 A 
ATOM      4  C   UNL     1      30.708   6.993 -21.236  1.00  0.00     0.094 A 
ATOM      5  C   UNL     1      30.888   6.447 -22.511  1.00  0.00     0.142 A 
ATOM      6  C   UNL     1      32.032   6.791 -23.267  1.00  0.00     0.018 A 
ATOM      7  C   UNL     1      32.184   6.229 -24.539  1.00  0.00     0.019 A 
ATOM      8  C   UNL     1      31.212   5.353 -25.020  1.00  0.00     0.094 A 
ATOM      9  C   UNL     1      30.106   5.058 -24.216  1.00  0.00     0.336 A 
ATOM     10  O   UNL     1      29.218   4.270 -24.633  1.00  0.00    -0.246 OA
ATOM     11  O   UNL     1      29.985   5.606 -23.010  1.00  0.00    -0.423 OA
ENDROOT
BRANCH   3  12
ATOM     12  O   UNL     1      31.490   8.429 -19.440  1.00  0.00    -0.508 OA
ATOM     13  H   UNL     1      30.897   9.236 -19.288  1.00  0.00     0.293 HD
ENDBRANCH   3  12
TORSDOF 1
ENDMDL
MODEL 5
REMARK VINA RESULT:    -4.927     10.782     11.527
REMARK INTER + INTRA:          -5.071
REMARK INTER:                  -5.071
REMARK INTRA:                   0.000
REMARK UNBOUND:                 0.000
REMARK SMILES O=c1ccc2ccc(O)cc2o1
REMARK SMILES IDX 6 1 7 2 8 3 10 4 11 5 5 6 4 7 3 8 2 9 1 10 12 11 9 12
REMARK H PARENT 9 13
REMARK Flexibility Score: inf
ROOT
ATOM      1  C   UNL     1      30.441   5.590 -21.408  1.00  0.00     0.016 A 
ATOM      2  C   UNL     1      30.801   6.529 -20.436  1.00  0.00     0.047 A 
ATOM      3  C   UNL     1      31.572   7.646 -20.781  1.00  0.00     0.119 A 
ATOM      4  C   UNL     1      31.986   7.826 -22.109  1.00  0.00     0.094 A 
ATOM      5  C   UNL     1      31.630   6.893 -23.089  1.00  0.00     0.142 A 
ATOM      6  C   UNL     1      30.853   5.768 -22.736  1.00  0.00     0.018 A 
ATOM      7  C   UNL     1      30.513   4.851 -23.737  1.00  0.00     0.019 A 
ATOM      8  C   UNL     1      30.948   5.074 -25.043  1.00  0.00     0.094 A 
ATOM      9  C   UNL     1      31.714   6.211 -25.319  1.00  0.00     0.336 A 
ATOM     10  O   UNL     1      32.116   6.428 -26.492  1.00  0.00    -0.246 OA
ATOM     11  O   UNL     1      32.024   7.066 -24.348  1.00  0.00    -0.423 OA
ENDROOT
BRANCH   3  12
ATOM     12  O   UNL     1      31.920   8.570 -19.798  1.00  0.00    -0.508 OA
ATOM     13  H   UNL     1      31.352   8.699 -18.969  1.00  0.00     0.293 HD
ENDBRANCH   3  12
TORSDOF 1
ENDMDL
MODEL 6
REMARK VINA RESULT:    -4.923     11.559     12.187
REMARK INTER + INTRA:          -5.066
REMARK INTER:                  -5.066
REMARK INTRA:                   0.000
REMARK UNBOUND:                 0.000
REMARK SMILES O=c1ccc2ccc(O)cc2o1
REMARK SMILES IDX 6 1 7 2 8 3 10 4 11 5 5 6 4 7 3 8 2 9 1 10 12 11 9 12
REMARK H PARENT 9 13
REMARK Flexibility Score: inf
ROOT
ATOM      1  C   UNL     1      30.193   7.617 -21.374  1.00  0.00     0.016 A 
ATOM      2  C   UNL     1      29.394   6.830 -22.210  1.00  0.00     0.047 A 
ATOM      3  C   UNL     1      29.980   5.977 -23.153  1.00  0.00     0.119 A 
ATOM      4  C   UNL     1      31.377   5.909 -23.261  1.00  0.00     0.094 A 
ATOM      5  C   UNL     1      32.185   6.692 -22.429  1.00  0.00     0.142 A 
ATOM      6  C   UNL     1      31.589   7.551 -21.480  1.00  0.00     0.018 A 
ATOM      7  C   UNL     1      32.423   8.322 -20.662  1.00  0.00     0.019 A 
ATOM      8  C   UNL     1      33.806   8.220 -20.807  1.00  0.00     0.094 A 
ATOM      9  C   UNL     1      34.326   7.347 -21.769  1.00  0.00     0.336 A 
ATOM     10  O   UNL     1      35.571   7.241 -21.914  1.00  0.00    -0.246 OA
ATOM     11  O   UNL     1      33.510   6.626 -22.533  1.00  0.00    -0.423 OA
ENDROOT
BRANCH   3  12
ATOM     12  O   UNL     1      29.166   5.201 -23.975  1.00  0.00    -0.508 OA
ATOM     13  H   UNL     1      29.191   4.190 -23.941  1.00  0.00     0.293 HD
ENDBRANCH   3  12
TORSDOF 1
ENDMDL
MODEL 7
REMARK VINA RESULT:    -4.849      1.888      4.767
REMARK INTER + INTRA:          -4.991
REMARK INTER:                  -4.991
REMARK INTRA:                   0.000
REMARK UNBOUND:                 0.000
REMARK SMILES O=c1ccc2ccc(O)cc2o1
REMARK SMILES IDX 6 1 7 2 8 3 10 4 11 5 5 6 4 7 3 8 2 9 1 10 12 11 9 12
REMARK H PARENT 9 13
REMARK Flexibility Score: inf
ROOT
ATOM      1  C   UNL     1      28.832   8.981 -33.615  1.00  0.00     0.016 A 
ATOM      2  C   UNL     1      30.088   9.270 -34.157  1.00  0.00     0.047 A 
ATOM      3  C   UNL     1      30.531  10.596 -34.251  1.00  0.00     0.119 A 
ATOM      4  C   UNL     1      29.711  11.640 -33.798  1.00  0.00     0.094 A 
ATOM      5  C   UNL     1      28.454  11.361 -33.253  1.00  0.00     0.142 A 
ATOM      6  C   UNL     1      28.011  10.022 -33.161  1.00  0.00     0.018 A 
ATOM      7  C   UNL     1      26.748   9.773 -32.611  1.00  0.00     0.019 A 
ATOM      8  C   UNL     1      25.970  10.845 -32.174  1.00  0.00     0.094 A 
ATOM      9  C   UNL     1      26.474  12.145 -32.296  1.00  0.00     0.336 A 
ATOM     10  O   UNL     1      25.786  13.124 -31.908  1.00  0.00    -0.246 OA
ATOM     11  O   UNL     1      27.678  12.353 -32.823  1.00  0.00    -0.423 OA
ENDROOT
BRANCH   3  12
ATOM     12  O   UNL     1      31.785  10.863 -34.795  1.00  0.00    -0.508 OA
ATOM     13  H   UNL     1      32.384  11.585 -34.413  1.00  0.00     0.293 HD
ENDBRANCH   3  12
TORSDOF 1
ENDMDL
MODEL 8
REMARK VINA RESULT:    -4.725      2.118      2.804
REMARK INTER + INTRA:          -4.863
REMARK INTER:                  -4.863
REMARK INTRA:                   0.000
REMARK UNBOUND:                 0.000
REMARK SMILES O=c1ccc2ccc(O)cc2o1
REMARK SMILES IDX 6 1 7 2 8 3 10 4 11 5 5 6 4 7 3 8 2 9 1 10 12 11 9 12
REMARK H PARENT 9 13
REMARK Flexibility Score: inf
ROOT
ATOM      1  C   UNL     1      27.284   8.716 -33.557  1.00  0.00     0.016 A 
ATOM      2  C   UNL     1      26.001   8.694 -33.001  1.00  0.00     0.047 A 
ATOM      3  C   UNL     1      25.532   9.785 -32.258  1.00  0.00     0.119 A 
ATOM      4  C   UNL     1      26.352  10.908 -32.071  1.00  0.00     0.094 A 
ATOM      5  C   UNL     1      27.636  10.940 -32.624  1.00  0.00     0.142 A 
ATOM      6  C   UNL     1      28.106   9.837 -33.372  1.00  0.00     0.018 A 
ATOM      7  C   UNL     1      29.395   9.897 -33.913  1.00  0.00     0.019 A 
ATOM      8  C   UNL     1      30.172  11.035 -33.699  1.00  0.00     0.094 A 
ATOM      9  C   UNL     1      29.641  12.090 -32.949  1.00  0.00     0.336 A 
ATOM     10  O   UNL     1      30.328  13.125 -32.746  1.00  0.00    -0.246 OA
ATOM     11  O   UNL     1      28.412  12.006 -32.446  1.00  0.00    -0.423 OA
ENDROOT
BRANCH   3  12
ATOM     12  O   UNL     1      24.251   9.743 -31.713  1.00  0.00    -0.508 OA
ATOM     13  H   UNL     1      24.062  10.092 -30.781  1.00  0.00     0.293 HD
ENDBRANCH   3  12
TORSDOF 1
ENDMDL
MODEL 9
REMARK VINA RESULT:    -4.709     13.064     13.284
REMARK INTER + INTRA:          -4.846
REMARK INTER:                  -4.846
REMARK INTRA:                   0.000
REMARK UNBOUND:                 0.000
REMARK SMILES O=c1ccc2ccc(O)cc2o1
REMARK SMILES IDX 6 1 7 2 8 3 10 4 11 5 5 6 4 7 3 8 2 9 1 10 12 11 9 12
REMARK H PARENT 9 13
REMARK Flexibility Score: inf
ROOT
ATOM      1  C   UNL     1      32.785   7.468 -22.861  1.00  0.00     0.016 A 
ATOM      2  C   UNL     1      31.958   7.929 -21.832  1.00  0.00     0.047 A 
ATOM      3  C   UNL     1      32.466   8.102 -20.538  1.00  0.00     0.119 A 
ATOM      4  C   UNL     1      33.813   7.812 -20.272  1.00  0.00     0.094 A 
ATOM      5  C   UNL     1      34.648   7.351 -21.295  1.00  0.00     0.142 A 
ATOM      6  C   UNL     1      34.131   7.178 -22.598  1.00  0.00     0.018 A 
ATOM      7  C   UNL     1      34.991   6.716 -23.601  1.00  0.00     0.019 A 
ATOM      8  C   UNL     1      36.321   6.441 -23.286  1.00  0.00     0.094 A 
ATOM      9  C   UNL     1      36.764   6.637 -21.974  1.00  0.00     0.336 A 
ATOM     10  O   UNL     1      37.961   6.394 -21.671  1.00  0.00    -0.246 OA
ATOM     11  O   UNL     1      35.925   7.077 -21.040  1.00  0.00    -0.423 OA
ENDROOT
BRANCH   3  12
ATOM     12  O   UNL     1      31.626   8.562 -19.527  1.00  0.00    -0.508 OA
ATOM     13  H   UNL     1      30.636   8.347 -19.523  1.00  0.00     0.293 HD
ENDBRANCH   3  12
TORSDOF 1
ENDMDL
