MODEL 1
REMARK VINA RESULT:    -5.813      0.000      0.000
REMARK INTER + INTRA:         -10.049
REMARK INTER:                  -7.682
REMARK INTRA:                  -2.368
REMARK UNBOUND:                -2.368
REMARK SMILES CC[C@@H](C=C[C@H](C)[C@@H]1CC[C@H]2[C@@H]3CC=C4C[C@H](O)CC[C@@]4(C)[C@H]3CC[C@@]21C)C(C)C
REMARK SMILES IDX 6 1 7 2 5 3 4 4 3 5 2 6 1 7 28 8 29 9 30 10 8 11 9 12 26 13
REMARK SMILES IDX 10 14 11 15 25 16 27 17 12 18 24 19 23 20 13 21 21 22 14 23
REMARK SMILES IDX 15 24 20 25 22 26 16 27 19 28 17 29 18 30
REMARK H PARENT 18 31
REMARK Flexibility Score: inf
ROOT
ATOM      1  C   UNL     1     160.914 163.647 187.470  1.00  0.00     0.012 C 
ATOM      2  C   UNL     1     159.899 164.023 188.573  1.00  0.00     0.012 C 
ENDROOT
BRANCH   1   3
ATOM      3  C   UNL     1     162.034 162.865 188.136  1.00  0.00    -0.028 C 
ATOM      4  C   UNL     1     163.326 163.241 188.056  1.00  0.00    -0.027 C 
BRANCH   4   5
ATOM      5  C   UNL     1     164.474 162.432 188.634  1.00  0.00     0.014 C 
BRANCH   5   6
ATOM      6  C   UNL     1     165.409 163.329 189.485  1.00  0.00     0.004 C 
ATOM      7  C   UNL     1     166.639 162.590 190.010  1.00  0.00     0.004 C 
ENDBRANCH   5   6
BRANCH   5   8
ATOM      8  C   UNL     1     165.204 161.541 187.578  1.00  0.00    -0.011 C 
ATOM      9  C   UNL     1     164.475 160.205 187.372  1.00  0.00     0.008 C 
ATOM     10  C   UNL     1     165.448 162.224 186.223  1.00  0.00     0.008 C 
ENDBRANCH   5   8
ENDBRANCH   4   5
ENDBRANCH   1   3
BRANCH   1  11
ATOM     11  C   UNL     1     160.257 162.864 186.271  1.00  0.00     0.002 C 
ATOM     12  C   UNL     1     160.132 161.329 186.545  1.00  0.00     0.005 C 
ATOM     13  C   UNL     1     160.997 162.919 184.887  1.00  0.00    -0.026 C 
ATOM     14  C   UNL     1     161.020 160.592 185.538  1.00  0.00     0.005 C 
ATOM     15  C   UNL     1     161.900 161.682 184.956  1.00  0.00    -0.001 C 
ATOM     16  C   UNL     1     161.912 164.133 184.584  1.00  0.00     0.007 C 
ATOM     17  C   UNL     1     159.897 162.818 183.778  1.00  0.00     0.012 C 
ATOM     18  C   UNL     1     162.634 161.375 183.627  1.00  0.00     0.000 C 
ATOM     19  C   UNL     1     162.708 163.938 183.273  1.00  0.00     0.005 C 
ATOM     20  C   UNL     1     163.511 162.598 183.233  1.00  0.00     0.003 C 
ATOM     21  C   UNL     1     163.554 160.159 183.800  1.00  0.00     0.031 C 
ATOM     22  C   UNL     1     164.304 162.355 181.880  1.00  0.00    -0.008 C 
ATOM     23  C   UNL     1     164.347 159.904 182.557  1.00  0.00    -0.027 C 
ATOM     24  C   UNL     1     164.725 160.883 181.707  1.00  0.00    -0.065 C 
ATOM     25  C   UNL     1     163.443 162.733 180.633  1.00  0.00     0.014 C 
ATOM     26  C   UNL     1     165.583 163.235 181.916  1.00  0.00     0.016 C 
ATOM     27  C   UNL     1     165.381 160.484 180.401  1.00  0.00     0.063 C 
ATOM     28  C   UNL     1     164.076 162.332 179.284  1.00  0.00     0.033 C 
ATOM     29  C   UNL     1     164.449 160.842 179.240  1.00  0.00     0.118 C 
BRANCH  29  30
ATOM     30  O   UNL     1     165.093 160.547 178.028  1.00  0.00    -0.393 OA
ATOM     31  H   UNL     1     164.579 159.813 177.601  1.00  0.00     0.210 HD
ENDBRANCH  29  30
ENDBRANCH   1  11
TORSDOF 6
ENDMDL
MODEL 2
REMARK VINA RESULT:    -5.651      2.131      4.422
REMARK INTER + INTRA:          -9.835
REMARK INTER:                  -7.885
REMARK INTRA:                  -1.950
REMARK UNBOUND:                -2.368
REMARK SMILES CC[C@@H](C=C[C@H](C)[C@@H]1CC[C@H]2[C@@H]3CC=C4C[C@H](O)CC[C@@]4(C)[C@H]3CC[C@@]21C)C(C)C
REMARK SMILES IDX 6 1 7 2 5 3 4 4 3 5 2 6 1 7 28 8 29 9 30 10 8 11 9 12 26 13
REMARK SMILES IDX 10 14 11 15 25 16 27 17 12 18 24 19 23 20 13 21 21 22 14 23
REMARK SMILES IDX 15 24 20 25 22 26 16 27 19 28 17 29 18 30
REMARK H PARENT 18 31
REMARK Flexibility Score: inf
ROOT
ATOM      1  C   UNL     1     160.771 163.260 188.126  1.00  0.00     0.012 C 
ATOM      2  C   UNL     1     159.935 162.860 189.363  1.00  0.00     0.012 C 
ENDROOT
BRANCH   1   3
ATOM      3  C   UNL     1     160.768 164.778 188.052  1.00  0.00    -0.028 C 
ATOM      4  C   UNL     1     160.397 165.448 186.943  1.00  0.00    -0.027 C 
BRANCH   4   5
ATOM      5  C   UNL     1     160.470 166.959 186.810  1.00  0.00     0.014 C 
BRANCH   5   6
ATOM      6  C   UNL     1     161.130 167.364 185.466  1.00  0.00     0.004 C 
ATOM      7  C   UNL     1     161.876 166.213 184.791  1.00  0.00     0.004 C 
ENDBRANCH   5   6
BRANCH   5   8
ATOM      8  C   UNL     1     161.060 167.669 188.070  1.00  0.00    -0.011 C 
ATOM      9  C   UNL     1     162.514 168.106 187.838  1.00  0.00     0.008 C 
ATOM     10  C   UNL     1     160.228 168.855 188.584  1.00  0.00     0.008 C 
ENDBRANCH   5   8
ENDBRANCH   4   5
ENDBRANCH   1   3
BRANCH   1  11
ATOM     11  C   UNL     1     162.225 162.657 188.147  1.00  0.00     0.002 C 
ATOM     12  C   UNL     1     163.321 163.725 188.470  1.00  0.00     0.005 C 
ATOM     13  C   UNL     1     162.749 162.001 186.820  1.00  0.00    -0.026 C 
ATOM     14  C   UNL     1     164.223 163.869 187.240  1.00  0.00     0.005 C 
ATOM     15  C   UNL     1     163.449 163.180 186.132  1.00  0.00    -0.001 C 
ATOM     16  C   UNL     1     161.713 161.439 185.812  1.00  0.00     0.007 C 
ATOM     17  C   UNL     1     163.732 160.857 187.233  1.00  0.00     0.012 C 
ATOM     18  C   UNL     1     164.229 162.780 184.856  1.00  0.00     0.000 C 
ATOM     19  C   UNL     1     162.378 161.008 184.485  1.00  0.00     0.005 C 
ATOM     20  C   UNL     1     163.246 162.135 183.837  1.00  0.00     0.003 C 
ATOM     21  C   UNL     1     164.850 164.023 184.204  1.00  0.00     0.031 C 
ATOM     22  C   UNL     1     163.973 161.704 182.494  1.00  0.00    -0.008 C 
ATOM     23  C   UNL     1     165.527 163.673 182.916  1.00  0.00    -0.027 C 
ATOM     24  C   UNL     1     165.121 162.662 182.119  1.00  0.00    -0.065 C 
ATOM     25  C   UNL     1     164.591 160.274 182.608  1.00  0.00     0.014 C 
ATOM     26  C   UNL     1     162.918 161.726 181.356  1.00  0.00     0.016 C 
ATOM     27  C   UNL     1     165.982 162.300 180.926  1.00  0.00     0.063 C 
ATOM     28  C   UNL     1     165.484 159.875 181.414  1.00  0.00     0.033 C 
ATOM     29  C   UNL     1     166.588 160.911 181.145  1.00  0.00     0.118 C 
BRANCH  29  30
ATOM     30  O   UNL     1     167.318 160.544 180.004  1.00  0.00    -0.393 OA
ATOM     31  H   UNL     1     167.509 161.381 179.504  1.00  0.00     0.210 HD
ENDBRANCH  29  30
ENDBRANCH   1  11
TORSDOF 6
ENDMDL
MODEL 3
REMARK VINA RESULT:    -5.602     12.454     16.063
REMARK INTER + INTRA:          -9.770
REMARK INTER:                  -8.622
REMARK INTRA:                  -1.148
REMARK UNBOUND:                -2.368
REMARK SMILES CC[C@@H](C=C[C@H](C)[C@@H]1CC[C@H]2[C@@H]3CC=C4C[C@H](O)CC[C@@]4(C)[C@H]3CC[C@@]21C)C(C)C
REMARK SMILES IDX 6 1 7 2 5 3 4 4 3 5 2 6 1 7 28 8 29 9 30 10 8 11 9 12 26 13
REMARK SMILES IDX 10 14 11 15 25 16 27 17 12 18 24 19 23 20 13 21 21 22 14 23
REMARK SMILES IDX 15 24 20 25 22 26 16 27 19 28 17 29 18 30
REMARK H PARENT 18 31
REMARK Flexibility Score: inf
ROOT
ATOM      1  C   UNL     1     178.538 169.886 188.083  1.00  0.00     0.012 C 
ATOM      2  C   UNL     1     179.894 170.467 187.619  1.00  0.00     0.012 C 
ENDROOT
BRANCH   1   3
ATOM      3  C   UNL     1     177.763 171.019 188.736  1.00  0.00    -0.028 C 
ATOM      4  C   UNL     1     178.032 172.316 188.489  1.00  0.00    -0.027 C 
BRANCH   4   5
ATOM      5  C   UNL     1     177.336 173.467 189.194  1.00  0.00     0.014 C 
BRANCH   5   6
ATOM      6  C   UNL     1     175.857 173.115 189.499  1.00  0.00     0.004 C 
ATOM      7  C   UNL     1     175.544 173.073 190.994  1.00  0.00     0.004 C 
ENDBRANCH   5   6
BRANCH   5   8
ATOM      8  C   UNL     1     177.551 174.848 188.497  1.00  0.00    -0.011 C 
ATOM      9  C   UNL     1     178.244 174.687 187.136  1.00  0.00     0.008 C 
ATOM     10  C   UNL     1     176.275 175.693 188.343  1.00  0.00     0.008 C 
ENDBRANCH   5   8
ENDBRANCH   4   5
ENDBRANCH   1   3
BRANCH   1  11
ATOM     11  C   UNL     1     177.737 169.195 186.917  1.00  0.00     0.002 C 
ATOM     12  C   UNL     1     176.255 169.686 186.825  1.00  0.00     0.005 C 
ATOM     13  C   UNL     1     177.590 167.632 186.976  1.00  0.00    -0.026 C 
ATOM     14  C   UNL     1     175.339 168.497 187.132  1.00  0.00     0.005 C 
ATOM     15  C   UNL     1     176.268 167.462 187.735  1.00  0.00    -0.001 C 
ATOM     16  C   UNL     1     178.662 166.816 187.743  1.00  0.00     0.007 C 
ATOM     17  C   UNL     1     177.521 167.124 185.498  1.00  0.00     0.012 C 
ATOM     18  C   UNL     1     175.769 165.997 187.791  1.00  0.00     0.000 C 
ATOM     19  C   UNL     1     178.268 165.327 187.868  1.00  0.00     0.005 C 
ATOM     20  C   UNL     1     176.847 165.115 188.483  1.00  0.00     0.003 C 
ATOM     21  C   UNL     1     174.476 165.909 188.612  1.00  0.00     0.031 C 
ATOM     22  C   UNL     1     176.402 163.595 188.584  1.00  0.00    -0.008 C 
ATOM     23  C   UNL     1     174.028 164.490 188.760  1.00  0.00    -0.027 C 
ATOM     24  C   UNL     1     174.882 163.444 188.790  1.00  0.00    -0.065 C 
ATOM     25  C   UNL     1     176.769 162.801 187.290  1.00  0.00     0.014 C 
ATOM     26  C   UNL     1     177.131 162.968 189.803  1.00  0.00     0.016 C 
ATOM     27  C   UNL     1     174.303 162.045 188.779  1.00  0.00     0.063 C 
ATOM     28  C   UNL     1     176.186 161.373 187.239  1.00  0.00     0.033 C 
ATOM     29  C   UNL     1     174.664 161.361 187.457  1.00  0.00     0.118 C 
BRANCH  29  30
ATOM     30  O   UNL     1     174.197 160.037 187.483  1.00  0.00    -0.393 OA
ATOM     31  H   UNL     1     174.960 159.469 187.767  1.00  0.00     0.210 HD
ENDBRANCH  29  30
ENDBRANCH   1  11
TORSDOF 6
ENDMDL
MODEL 4
REMARK VINA RESULT:    -5.583      1.542      4.527
REMARK INTER + INTRA:          -9.746
REMARK INTER:                  -7.383
REMARK INTRA:                  -2.363
REMARK UNBOUND:                -2.368
REMARK SMILES CC[C@@H](C=C[C@H](C)[C@@H]1CC[C@H]2[C@@H]3CC=C4C[C@H](O)CC[C@@]4(C)[C@H]3CC[C@@]21C)C(C)C
REMARK SMILES IDX 6 1 7 2 5 3 4 4 3 5 2 6 1 7 28 8 29 9 30 10 8 11 9 12 26 13
REMARK SMILES IDX 10 14 11 15 25 16 27 17 12 18 24 19 23 20 13 21 21 22 14 23
REMARK SMILES IDX 15 24 20 25 22 26 16 27 19 28 17 29 18 30
REMARK H PARENT 18 31
REMARK Flexibility Score: inf
ROOT
ATOM      1  C   UNL     1     165.305 160.623 188.411  1.00  0.00     0.012 C 
ATOM      2  C   UNL     1     165.895 160.336 189.811  1.00  0.00     0.012 C 
ENDROOT
BRANCH   1   3
ATOM      3  C   UNL     1     163.900 161.166 188.616  1.00  0.00    -0.028 C 
ATOM      4  C   UNL     1     162.894 160.909 187.758  1.00  0.00    -0.027 C 
BRANCH   4   5
ATOM      5  C   UNL     1     161.505 161.510 187.888  1.00  0.00     0.014 C 
BRANCH   5   6
ATOM      6  C   UNL     1     160.719 161.377 186.558  1.00  0.00     0.004 C 
ATOM      7  C   UNL     1     161.586 160.908 185.390  1.00  0.00     0.004 C 
ENDBRANCH   5   6
BRANCH   5   8
ATOM      8  C   UNL     1     161.500 162.942 188.511  1.00  0.00    -0.011 C 
ATOM      9  C   UNL     1     161.832 164.013 187.461  1.00  0.00     0.008 C 
ATOM     10  C   UNL     1     160.206 163.313 189.253  1.00  0.00     0.008 C 
ENDBRANCH   5   8
ENDBRANCH   4   5
ENDBRANCH   1   3
BRANCH   1  11
ATOM     11  C   UNL     1     166.208 161.586 187.551  1.00  0.00     0.002 C 
ATOM     12  C   UNL     1     165.897 163.098 187.807  1.00  0.00     0.005 C 
ATOM     13  C   UNL     1     166.105 161.461 185.990  1.00  0.00    -0.026 C 
ATOM     14  C   UNL     1     165.350 163.697 186.507  1.00  0.00     0.005 C 
ATOM     15  C   UNL     1     165.016 162.488 185.655  1.00  0.00    -0.001 C 
ATOM     16  C   UNL     1     165.654 160.107 185.382  1.00  0.00     0.007 C 
ATOM     17  C   UNL     1     167.507 161.840 185.408  1.00  0.00     0.012 C 
ATOM     18  C   UNL     1     164.822 162.714 184.136  1.00  0.00     0.000 C 
ATOM     19  C   UNL     1     165.420 160.211 183.858  1.00  0.00     0.005 C 
ATOM     20  C   UNL     1     164.443 161.364 183.462  1.00  0.00     0.003 C 
ATOM     21  C   UNL     1     163.681 163.711 183.891  1.00  0.00     0.031 C 
ATOM     22  C   UNL     1     164.219 161.518 181.898  1.00  0.00    -0.008 C 
ATOM     23  C   UNL     1     163.411 163.871 182.428  1.00  0.00    -0.027 C 
ATOM     24  C   UNL     1     163.609 162.885 181.528  1.00  0.00    -0.065 C 
ATOM     25  C   UNL     1     165.561 161.389 181.109  1.00  0.00     0.014 C 
ATOM     26  C   UNL     1     163.240 160.401 181.448  1.00  0.00     0.016 C 
ATOM     27  C   UNL     1     163.457 163.215 180.058  1.00  0.00     0.063 C 
ATOM     28  C   UNL     1     165.446 161.729 179.608  1.00  0.00     0.033 C 
ATOM     29  C   UNL     1     164.825 163.115 179.375  1.00  0.00     0.118 C 
BRANCH  29  30
ATOM     30  O   UNL     1     164.667 163.341 177.999  1.00  0.00    -0.393 OA
ATOM     31  H   UNL     1     163.722 163.611 177.859  1.00  0.00     0.210 HD
ENDBRANCH  29  30
ENDBRANCH   1  11
TORSDOF 6
ENDMDL
MODEL 5
REMARK VINA RESULT:    -5.579     16.583     18.962
REMARK INTER + INTRA:          -9.741
REMARK INTER:                  -7.572
REMARK INTRA:                  -2.169
REMARK UNBOUND:                -2.368
REMARK SMILES CC[C@@H](C=C[C@H](C)[C@@H]1CC[C@H]2[C@@H]3CC=C4C[C@H](O)CC[C@@]4(C)[C@H]3CC[C@@]21C)C(C)C
REMARK SMILES IDX 6 1 7 2 5 3 4 4 3 5 2 6 1 7 28 8 29 9 30 10 8 11 9 12 26 13
REMARK SMILES IDX 10 14 11 15 25 16 27 17 12 18 24 19 23 20 13 21 21 22 14 23
REMARK SMILES IDX 15 24 20 25 22 26 16 27 19 28 17 29 18 30
REMARK H PARENT 18 31
REMARK Flexibility Score: inf
ROOT
ATOM      1  C   UNL     1     168.351 178.961 186.129  1.00  0.00     0.012 C 
ATOM      2  C   UNL     1     167.028 179.760 186.154  1.00  0.00     0.012 C 
ENDROOT
BRANCH   1   3
ATOM      3  C   UNL     1     169.290 179.674 185.170  1.00  0.00    -0.028 C 
ATOM      4  C   UNL     1     169.663 179.140 183.991  1.00  0.00    -0.027 C 
BRANCH   4   5
ATOM      5  C   UNL     1     170.669 179.787 183.056  1.00  0.00     0.014 C 
BRANCH   5   6
ATOM      6  C   UNL     1     170.159 179.760 181.591  1.00  0.00     0.004 C 
ATOM      7  C   UNL     1     171.288 179.773 180.561  1.00  0.00     0.004 C 
ENDBRANCH   5   6
BRANCH   5   8
ATOM      8  C   UNL     1     172.129 179.266 183.251  1.00  0.00    -0.011 C 
ATOM      9  C   UNL     1     172.897 180.119 184.272  1.00  0.00     0.008 C 
ATOM     10  C   UNL     1     172.233 177.777 183.620  1.00  0.00     0.008 C 
ENDBRANCH   5   8
ENDBRANCH   4   5
ENDBRANCH   1   3
BRANCH   1  11
ATOM     11  C   UNL     1     168.977 178.767 187.561  1.00  0.00     0.002 C 
ATOM     12  C   UNL     1     169.632 180.073 188.119  1.00  0.00     0.005 C 
ATOM     13  C   UNL     1     170.125 177.705 187.703  1.00  0.00    -0.026 C 
ATOM     14  C   UNL     1     171.137 179.827 188.265  1.00  0.00     0.005 C 
ATOM     15  C   UNL     1     171.381 178.556 187.474  1.00  0.00    -0.001 C 
ATOM     16  C   UNL     1     170.181 176.533 186.690  1.00  0.00     0.007 C 
ATOM     17  C   UNL     1     170.032 177.124 189.153  1.00  0.00     0.012 C 
ATOM     18  C   UNL     1     172.703 177.793 187.734  1.00  0.00     0.000 C 
ATOM     19  C   UNL     1     171.470 175.696 186.850  1.00  0.00     0.005 C 
ATOM     20  C   UNL     1     172.774 176.556 186.794  1.00  0.00     0.003 C 
ATOM     21  C   UNL     1     173.905 178.698 187.429  1.00  0.00     0.031 C 
ATOM     22  C   UNL     1     174.110 175.725 186.997  1.00  0.00    -0.008 C 
ATOM     23  C   UNL     1     175.192 177.952 187.580  1.00  0.00    -0.027 C 
ATOM     24  C   UNL     1     175.309 176.626 187.351  1.00  0.00    -0.065 C 
ATOM     25  C   UNL     1     173.968 174.680 188.150  1.00  0.00     0.014 C 
ATOM     26  C   UNL     1     174.419 174.991 185.665  1.00  0.00     0.016 C 
ATOM     27  C   UNL     1     176.622 175.953 187.695  1.00  0.00     0.063 C 
ATOM     28  C   UNL     1     175.290 173.981 188.535  1.00  0.00     0.033 C 
ATOM     29  C   UNL     1     176.402 174.989 188.865  1.00  0.00     0.118 C 
BRANCH  29  30
ATOM     30  O   UNL     1     177.601 174.307 189.127  1.00  0.00    -0.393 OA
ATOM     31  H   UNL     1     178.290 174.696 188.528  1.00  0.00     0.210 HD
ENDBRANCH  29  30
ENDBRANCH   1  11
TORSDOF 6
ENDMDL
MODEL 6
REMARK VINA RESULT:    -5.575      6.104      9.815
REMARK INTER + INTRA:          -9.735
REMARK INTER:                  -8.588
REMARK INTRA:                  -1.148
REMARK UNBOUND:                -2.368
REMARK SMILES CC[C@@H](C=C[C@H](C)[C@@H]1CC[C@H]2[C@@H]3CC=C4C[C@H](O)CC[C@@]4(C)[C@H]3CC[C@@]21C)C(C)C
REMARK SMILES IDX 6 1 7 2 5 3 4 4 3 5 2 6 1 7 28 8 29 9 30 10 8 11 9 12 26 13
REMARK SMILES IDX 10 14 11 15 25 16 27 17 12 18 24 19 23 20 13 21 21 22 14 23
REMARK SMILES IDX 15 24 20 25 22 26 16 27 19 28 17 29 18 30
REMARK H PARENT 18 31
REMARK Flexibility Score: inf
ROOT
ATOM      1  C   UNL     1     172.612 161.026 188.132  1.00  0.00     0.012 C 
ATOM      2  C   UNL     1     173.563 159.888 187.693  1.00  0.00     0.012 C 
ENDROOT
BRANCH   1   3
ATOM      3  C   UNL     1     173.467 162.106 188.773  1.00  0.00    -0.028 C 
ATOM      4  C   UNL     1     174.790 162.212 188.544  1.00  0.00    -0.027 C 
BRANCH   4   5
ATOM      5  C   UNL     1     175.685 163.223 189.239  1.00  0.00     0.014 C 
BRANCH   5   6
ATOM      6  C   UNL     1     174.901 164.519 189.570  1.00  0.00     0.004 C 
ATOM      7  C   UNL     1     174.810 164.802 191.069  1.00  0.00     0.004 C 
ENDBRANCH   5   6
BRANCH   5   8
ATOM      8  C   UNL     1     177.051 163.450 188.516  1.00  0.00    -0.011 C 
ATOM      9  C   UNL     1     177.047 162.840 187.106  1.00  0.00     0.008 C 
ATOM     10  C   UNL     1     177.508 164.917 188.456  1.00  0.00     0.008 C 
ENDBRANCH   5   8
ENDBRANCH   4   5
ENDBRANCH   1   3
BRANCH   1  11
ATOM     11  C   UNL     1     171.725 161.574 186.951  1.00  0.00     0.002 C 
ATOM     12  C   UNL     1     171.737 163.135 186.858  1.00  0.00     0.005 C 
ATOM     13  C   UNL     1     170.193 161.231 186.985  1.00  0.00    -0.026 C 
ATOM     14  C   UNL     1     170.318 163.639 187.141  1.00  0.00     0.005 C 
ATOM     15  C   UNL     1     169.611 162.436 187.735  1.00  0.00    -0.001 C 
ATOM     16  C   UNL     1     169.735 159.960 187.746  1.00  0.00     0.007 C 
ATOM     17  C   UNL     1     169.713 161.139 185.499  1.00  0.00     0.012 C 
ATOM     18  C   UNL     1     168.063 162.459 187.764  1.00  0.00     0.000 C 
ATOM     19  C   UNL     1     168.195 159.875 187.846  1.00  0.00     0.005 C 
ATOM     20  C   UNL     1     167.545 161.162 188.449  1.00  0.00     0.003 C 
ATOM     21  C   UNL     1     167.567 163.663 188.577  1.00  0.00     0.031 C 
ATOM     22  C   UNL     1     165.961 161.116 188.525  1.00  0.00    -0.008 C 
ATOM     23  C   UNL     1     166.076 163.651 188.701  1.00  0.00    -0.027 C 
ATOM     24  C   UNL     1     165.345 162.515 188.720  1.00  0.00    -0.065 C 
ATOM     25  C   UNL     1     165.340 160.521 187.221  1.00  0.00     0.014 C 
ATOM     26  C   UNL     1     165.570 160.230 189.739  1.00  0.00     0.016 C 
ATOM     27  C   UNL     1     163.835 162.634 188.684  1.00  0.00     0.063 C 
ATOM     28  C   UNL     1     163.802 160.635 187.145  1.00  0.00     0.033 C 
ATOM     29  C   UNL     1     163.318 162.079 187.354  1.00  0.00     0.118 C 
BRANCH  29  30
ATOM     30  O   UNL     1     161.915 162.115 187.358  1.00  0.00    -0.393 OA
ATOM     31  H   UNL     1     161.630 162.291 186.423  1.00  0.00     0.210 HD
ENDBRANCH  29  30
ENDBRANCH   1  11
TORSDOF 6
ENDMDL
MODEL 7
REMARK VINA RESULT:    -5.568      3.828      7.560
REMARK INTER + INTRA:          -9.726
REMARK INTER:                  -7.774
REMARK INTRA:                  -1.952
REMARK UNBOUND:                -2.368
REMARK SMILES CC[C@@H](C=C[C@H](C)[C@@H]1CC[C@H]2[C@@H]3CC=C4C[C@H](O)CC[C@@]4(C)[C@H]3CC[C@@]21C)C(C)C
REMARK SMILES IDX 6 1 7 2 5 3 4 4 3 5 2 6 1 7 28 8 29 9 30 10 8 11 9 12 26 13
REMARK SMILES IDX 10 14 11 15 25 16 27 17 12 18 24 19 23 20 13 21 21 22 14 23
REMARK SMILES IDX 15 24 20 25 22 26 16 27 19 28 17 29 18 30
REMARK H PARENT 18 31
REMARK Flexibility Score: inf
ROOT
ATOM      1  C   UNL     1     165.127 161.221 186.171  1.00  0.00     0.012 C 
ATOM      2  C   UNL     1     165.967 159.923 186.214  1.00  0.00     0.012 C 
ENDROOT
BRANCH   1   3
ATOM      3  C   UNL     1     163.909 160.940 185.306  1.00  0.00    -0.028 C 
ATOM      4  C   UNL     1     163.467 161.809 184.376  1.00  0.00    -0.027 C 
BRANCH   4   5
ATOM      5  C   UNL     1     162.202 161.597 183.562  1.00  0.00     0.014 C 
BRANCH   5   6
ATOM      6  C   UNL     1     162.429 161.988 182.078  1.00  0.00     0.004 C 
ATOM      7  C   UNL     1     163.383 161.044 181.346  1.00  0.00     0.004 C 
ENDBRANCH   5   6
BRANCH   5   8
ATOM      8  C   UNL     1     160.927 162.219 184.215  1.00  0.00    -0.011 C 
ATOM      9  C   UNL     1     159.876 162.584 183.157  1.00  0.00     0.008 C 
ATOM     10  C   UNL     1     160.289 161.359 185.318  1.00  0.00     0.008 C 
ENDBRANCH   5   8
ENDBRANCH   4   5
ENDBRANCH   1   3
BRANCH   1  11
ATOM     11  C   UNL     1     164.745 161.752 187.603  1.00  0.00     0.002 C 
ATOM     12  C   UNL     1     163.473 161.055 188.190  1.00  0.00     0.005 C 
ATOM     13  C   UNL     1     164.405 163.279 187.734  1.00  0.00    -0.026 C 
ATOM     14  C   UNL     1     162.377 162.114 188.342  1.00  0.00     0.005 C 
ATOM     15  C   UNL     1     162.885 163.290 187.530  1.00  0.00    -0.001 C 
ATOM     16  C   UNL     1     165.009 164.265 186.700  1.00  0.00     0.007 C 
ATOM     17  C   UNL     1     164.835 163.721 189.172  1.00  0.00     0.012 C 
ATOM     18  C   UNL     1     162.234 164.671 187.785  1.00  0.00     0.000 C 
ATOM     19  C   UNL     1     164.425 165.687 186.854  1.00  0.00     0.005 C 
ATOM     20  C   UNL     1     162.863 165.719 186.823  1.00  0.00     0.003 C 
ATOM     21  C   UNL     1     160.726 164.605 187.506  1.00  0.00     0.031 C 
ATOM     22  C   UNL     1     162.238 167.164 187.021  1.00  0.00    -0.008 C 
ATOM     23  C   UNL     1     160.092 165.953 187.652  1.00  0.00    -0.027 C 
ATOM     24  C   UNL     1     160.745 167.108 187.400  1.00  0.00    -0.065 C 
ATOM     25  C   UNL     1     162.967 167.956 188.153  1.00  0.00     0.014 C 
ATOM     26  C   UNL     1     162.378 167.929 185.677  1.00  0.00     0.016 C 
ATOM     27  C   UNL     1     160.053 168.411 187.741  1.00  0.00     0.063 C 
ATOM     28  C   UNL     1     162.282 169.286 188.535  1.00  0.00     0.033 C 
ATOM     29  C   UNL     1     160.800 169.092 188.892  1.00  0.00     0.118 C 
BRANCH  29  30
ATOM     30  O   UNL     1     160.205 170.337 189.150  1.00  0.00    -0.393 OA
ATOM     31  H   UNL     1     160.942 170.969 189.361  1.00  0.00     0.210 HD
ENDBRANCH  29  30
ENDBRANCH   1  11
TORSDOF 6
ENDMDL
MODEL 8
REMARK VINA RESULT:    -5.559     16.165     18.372
REMARK INTER + INTRA:          -9.714
REMARK INTER:                  -8.623
REMARK INTRA:                  -1.091
REMARK UNBOUND:                -2.368
REMARK SMILES CC[C@@H](C=C[C@H](C)[C@@H]1CC[C@H]2[C@@H]3CC=C4C[C@H](O)CC[C@@]4(C)[C@H]3CC[C@@]21C)C(C)C
REMARK SMILES IDX 6 1 7 2 5 3 4 4 3 5 2 6 1 7 28 8 29 9 30 10 8 11 9 12 26 13
REMARK SMILES IDX 10 14 11 15 25 16 27 17 12 18 24 19 23 20 13 21 21 22 14 23
REMARK SMILES IDX 15 24 20 25 22 26 16 27 19 28 17 29 18 30
REMARK H PARENT 18 31
REMARK Flexibility Score: inf
ROOT
ATOM      1  C   UNL     1     172.082 178.404 188.090  1.00  0.00     0.012 C 
ATOM      2  C   UNL     1     171.903 179.860 187.601  1.00  0.00     0.012 C 
ENDROOT
BRANCH   1   3
ATOM      3  C   UNL     1     170.796 178.004 188.794  1.00  0.00    -0.028 C 
ATOM      4  C   UNL     1     169.599 178.528 188.466  1.00  0.00    -0.027 C 
BRANCH   4   5
ATOM      5  C   UNL     1     168.312 178.216 189.211  1.00  0.00     0.014 C 
BRANCH   5   6
ATOM      6  C   UNL     1     168.202 176.699 189.511  1.00  0.00     0.004 C 
ATOM      7  C   UNL     1     168.118 176.386 191.005  1.00  0.00     0.004 C 
ENDBRANCH   5   6
BRANCH   5   8
ATOM      8  C   UNL     1     167.042 178.849 188.557  1.00  0.00    -0.011 C 
ATOM      9  C   UNL     1     167.347 179.397 187.155  1.00  0.00     0.008 C 
ATOM     10  C   UNL     1     165.818 177.921 188.507  1.00  0.00     0.008 C 
ENDBRANCH   5   8
ENDBRANCH   4   5
ENDBRANCH   1   3
BRANCH   1  11
ATOM     11  C   UNL     1     172.473 177.412 186.931  1.00  0.00     0.002 C 
ATOM     12  C   UNL     1     171.513 176.181 186.837  1.00  0.00     0.005 C 
ATOM     13  C   UNL     1     173.895 176.750 187.003  1.00  0.00    -0.026 C 
ATOM     14  C   UNL     1     172.324 174.920 187.155  1.00  0.00     0.005 C 
ATOM     15  C   UNL     1     173.607 175.451 187.766  1.00  0.00    -0.001 C 
ATOM     16  C   UNL     1     175.018 177.489 187.775  1.00  0.00     0.007 C 
ATOM     17  C   UNL     1     174.361 176.508 185.529  1.00  0.00     0.012 C 
ATOM     18  C   UNL     1     174.819 174.490 187.834  1.00  0.00     0.000 C 
ATOM     19  C   UNL     1     176.288 176.619 187.914  1.00  0.00     0.005 C 
ATOM     20  C   UNL     1     176.006 175.212 188.532  1.00  0.00     0.003 C 
ATOM     21  C   UNL     1     174.461 173.245 188.658  1.00  0.00     0.031 C 
ATOM     22  C   UNL     1     177.288 174.283 188.647  1.00  0.00    -0.008 C 
ATOM     23  C   UNL     1     175.647 172.347 188.819  1.00  0.00    -0.027 C 
ATOM     24  C   UNL     1     176.918 172.802 188.856  1.00  0.00    -0.065 C 
ATOM     25  C   UNL     1     178.168 174.357 187.359  1.00  0.00     0.014 C 
ATOM     26  C   UNL     1     178.114 174.765 189.870  1.00  0.00     0.016 C 
ATOM     27  C   UNL     1     178.042 171.786 188.858  1.00  0.00     0.063 C 
ATOM     28  C   UNL     1     179.318 173.328 187.321  1.00  0.00     0.033 C 
ATOM     29  C   UNL     1     178.817 171.891 187.541  1.00  0.00     0.118 C 
BRANCH  29  30
ATOM     30  O   UNL     1     179.907 171.008 187.580  1.00  0.00    -0.393 OA
ATOM     31  H   UNL     1     180.729 171.563 187.531  1.00  0.00     0.210 HD
ENDBRANCH  29  30
ENDBRANCH   1  11
TORSDOF 6
ENDMDL
MODEL 9
REMARK VINA RESULT:    -5.475      8.642     11.192
REMARK INTER + INTRA:          -9.603
REMARK INTER:                  -8.776
REMARK INTRA:                  -0.827
REMARK UNBOUND:                -2.368
REMARK SMILES CC[C@@H](C=C[C@H](C)[C@@H]1CC[C@H]2[C@@H]3CC=C4C[C@H](O)CC[C@@]4(C)[C@H]3CC[C@@]21C)C(C)C
REMARK SMILES IDX 6 1 7 2 5 3 4 4 3 5 2 6 1 7 28 8 29 9 30 10 8 11 9 12 26 13
REMARK SMILES IDX 10 14 11 15 25 16 27 17 12 18 24 19 23 20 13 21 21 22 14 23
REMARK SMILES IDX 15 24 20 25 22 26 16 27 19 28 17 29 18 30
REMARK H PARENT 18 31
REMARK Flexibility Score: inf
ROOT
ATOM      1  C   UNL     1     161.723 167.985 187.278  1.00  0.00     0.012 C 
ATOM      2  C   UNL     1     163.082 167.362 186.886  1.00  0.00     0.012 C 
ENDROOT
BRANCH   1   3
ATOM      3  C   UNL     1     160.756 166.839 187.525  1.00  0.00    -0.028 C 
ATOM      4  C   UNL     1     161.098 165.550 187.331  1.00  0.00    -0.027 C 
BRANCH   4   5
ATOM      5  C   UNL     1     160.128 164.392 187.481  1.00  0.00     0.014 C 
BRANCH   5   6
ATOM      6  C   UNL     1     160.510 163.504 188.694  1.00  0.00     0.004 C 
ATOM      7  C   UNL     1     162.018 163.295 188.835  1.00  0.00     0.004 C 
ENDBRANCH   5   6
BRANCH   5   8
ATOM      8  C   UNL     1     159.876 163.611 186.152  1.00  0.00    -0.011 C 
ATOM      9  C   UNL     1     160.798 164.105 185.028  1.00  0.00     0.008 C 
ATOM     10  C   UNL     1     159.970 162.082 186.279  1.00  0.00     0.008 C 
ENDBRANCH   5   8
ENDBRANCH   4   5
ENDBRANCH   1   3
BRANCH   1  11
ATOM     11  C   UNL     1     161.829 168.965 188.507  1.00  0.00     0.002 C 
ATOM     12  C   UNL     1     160.452 169.206 189.210  1.00  0.00     0.005 C 
ATOM     13  C   UNL     1     162.342 170.421 188.221  1.00  0.00    -0.026 C 
ATOM     14  C   UNL     1     160.084 170.684 189.040  1.00  0.00     0.005 C 
ATOM     15  C   UNL     1     161.033 171.180 187.967  1.00  0.00    -0.001 C 
ATOM     16  C   UNL     1     163.250 170.658 186.987  1.00  0.00     0.007 C 
ATOM     17  C   UNL     1     163.092 170.901 189.507  1.00  0.00     0.012 C 
ATOM     18  C   UNL     1     161.221 172.710 187.828  1.00  0.00     0.000 C 
ATOM     19  C   UNL     1     163.505 172.162 186.742  1.00  0.00     0.005 C 
ATOM     20  C   UNL     1     162.191 173.002 186.648  1.00  0.00     0.003 C 
ATOM     21  C   UNL     1     159.875 173.382 187.522  1.00  0.00     0.031 C 
ATOM     22  C   UNL     1     162.427 174.557 186.438  1.00  0.00    -0.008 C 
ATOM     23  C   UNL     1     160.047 174.850 187.288  1.00  0.00    -0.027 C 
ATOM     24  C   UNL     1     161.170 175.388 186.765  1.00  0.00    -0.065 C 
ATOM     25  C   UNL     1     163.578 175.093 187.348  1.00  0.00     0.014 C 
ATOM     26  C   UNL     1     162.795 174.783 184.946  1.00  0.00     0.016 C 
ATOM     27  C   UNL     1     161.291 176.897 186.727  1.00  0.00     0.063 C 
ATOM     28  C   UNL     1     163.724 176.629 187.343  1.00  0.00     0.033 C 
ATOM     29  C   UNL     1     162.403 177.337 187.685  1.00  0.00     0.118 C 
BRANCH  29  30
ATOM     30  O   UNL     1     162.568 178.728 187.587  1.00  0.00    -0.393 OA
ATOM     31  H   UNL     1     163.230 178.888 186.863  1.00  0.00     0.210 HD
ENDBRANCH  29  30
ENDBRANCH   1  11
TORSDOF 6
ENDMDL
