MODEL 1
REMARK VINA RESULT:    -5.468      0.000      0.000
REMARK INTER + INTRA:          -6.702
REMARK INTER:                  -6.427
REMARK INTRA:                  -0.275
REMARK UNBOUND:                -0.275
REMARK SMILES O=c1c(O)c(-c2ccc(O)cc2)oc2cc(O)cc(O)c12
REMARK SMILES IDX 5 1 3 2 2 3 1 4 21 5 19 6 18 7 16 8 15 9 14 10 13 11 6 12
REMARK SMILES IDX 7 13 8 14 9 15 12 16 11 17 10 18 4 20 20 22 17 24
REMARK H PARENT 10 19 4 21 20 23 17 25
REMARK Flexibility Score: inf
ROOT
ATOM      1  C   UNL     1      53.655   7.631 -47.160  1.00  0.00     0.180 A 
ATOM      2  C   UNL     1      52.546   6.957 -46.619  1.00  0.00     0.208 A 
ATOM      3  C   UNL     1      52.494   6.734 -45.233  1.00  0.00     0.238 A 
ATOM      4  O   UNL     1      51.474   6.178 -44.749  1.00  0.00    -0.285 OA
ATOM      5  C   UNL     1      53.558   7.174 -44.409  1.00  0.00     0.111 A 
ATOM      6  C   UNL     1      53.628   6.966 -42.998  1.00  0.00     0.134 A 
ATOM      7  C   UNL     1      54.664   7.559 -42.264  1.00  0.00     0.093 A 
ATOM      8  C   UNL     1      55.666   8.296 -42.899  1.00  0.00     0.123 A 
ATOM      9  C   UNL     1      55.638   8.455 -44.282  1.00  0.00     0.094 A 
ATOM     10  C   UNL     1      54.599   7.906 -45.038  1.00  0.00     0.146 A 
ATOM     11  O   UNL     1      54.605   8.089 -46.353  1.00  0.00    -0.452 OA
ENDROOT
BRANCH   1  12
ATOM     12  C   UNL     1      53.794   7.882 -48.613  1.00  0.00     0.021 A 
ATOM     13  C   UNL     1      53.180   9.009 -49.183  1.00  0.00     0.016 A 
ATOM     14  C   UNL     1      53.317   9.276 -50.548  1.00  0.00     0.047 A 
ATOM     15  C   UNL     1      54.080   8.430 -51.357  1.00  0.00     0.115 A 
ATOM     16  C   UNL     1      54.578   7.045 -49.429  1.00  0.00     0.016 A 
ATOM     17  C   UNL     1      54.713   7.315 -50.794  1.00  0.00     0.047 A 
BRANCH  15  18
ATOM     18  O   UNL     1      54.209   8.708 -52.717  1.00  0.00    -0.508 OA
ATOM     19  H   UNL     1      55.067   8.511 -53.219  1.00  0.00     0.293 HD
ENDBRANCH  15  18
ENDBRANCH   1  12
BRANCH   2  20
ATOM     20  O   UNL     1      51.498   6.551 -47.448  1.00  0.00    -0.502 OA
ATOM     21  H   UNL     1      51.350   5.582 -47.704  1.00  0.00     0.293 HD
ENDBRANCH   2  20
BRANCH   6  22
ATOM     22  O   UNL     1      52.731   6.171 -42.281  1.00  0.00    -0.507 OA
ATOM     23  H   UNL     1      51.777   5.990 -42.556  1.00  0.00     0.293 HD
ENDBRANCH   6  22
BRANCH   8  24
ATOM     24  O   UNL     1      56.700   8.869 -42.163  1.00  0.00    -0.508 OA
ATOM     25  H   UNL     1      57.574   8.380 -42.006  1.00  0.00     0.293 HD
ENDBRANCH   8  24
TORSDOF 5
ENDMDL
MODEL 2
REMARK VINA RESULT:    -5.358      1.898      7.022
REMARK INTER + INTRA:          -6.572
REMARK INTER:                  -6.283
REMARK INTRA:                  -0.289
REMARK UNBOUND:                -0.275
REMARK SMILES O=c1c(O)c(-c2ccc(O)cc2)oc2cc(O)cc(O)c12
REMARK SMILES IDX 5 1 3 2 2 3 1 4 21 5 19 6 18 7 16 8 15 9 14 10 13 11 6 12
REMARK SMILES IDX 7 13 8 14 9 15 12 16 11 17 10 18 4 20 20 22 17 24
REMARK H PARENT 10 19 4 21 20 23 17 25
REMARK Flexibility Score: inf
ROOT
ATOM      1  C   UNL     1      54.651   7.270 -47.624  1.00  0.00     0.180 A 
ATOM      2  C   UNL     1      55.230   6.111 -48.168  1.00  0.00     0.208 A 
ATOM      3  C   UNL     1      55.169   5.906 -49.557  1.00  0.00     0.238 A 
ATOM      4  O   UNL     1      55.737   4.894 -50.043  1.00  0.00    -0.285 OA
ATOM      5  C   UNL     1      54.517   6.856 -50.380  1.00  0.00     0.111 A 
ATOM      6  C   UNL     1      54.361   6.729 -51.794  1.00  0.00     0.134 A 
ATOM      7  C   UNL     1      53.814   7.791 -52.525  1.00  0.00     0.093 A 
ATOM      8  C   UNL     1      53.358   8.946 -51.886  1.00  0.00     0.123 A 
ATOM      9  C   UNL     1      53.451   9.054 -50.500  1.00  0.00     0.094 A 
ATOM     10  C   UNL     1      54.025   8.026 -49.747  1.00  0.00     0.146 A 
ATOM     11  O   UNL     1      54.104   8.173 -48.430  1.00  0.00    -0.452 OA
ENDROOT
BRANCH   1  12
ATOM     12  C   UNL     1      54.653   7.544 -46.168  1.00  0.00     0.021 A 
ATOM     13  C   UNL     1      53.614   7.041 -45.368  1.00  0.00     0.016 A 
ATOM     14  C   UNL     1      53.608   7.269 -43.989  1.00  0.00     0.047 A 
ATOM     15  C   UNL     1      54.646   7.989 -43.391  1.00  0.00     0.115 A 
ATOM     16  C   UNL     1      55.706   8.250 -45.557  1.00  0.00     0.016 A 
ATOM     17  C   UNL     1      55.698   8.476 -44.177  1.00  0.00     0.047 A 
BRANCH  15  18
ATOM     18  O   UNL     1      54.629   8.209 -42.015  1.00  0.00    -0.508 OA
ATOM     19  H   UNL     1      54.465   7.453 -41.359  1.00  0.00     0.293 HD
ENDBRANCH  15  18
ENDBRANCH   1  12
BRANCH   2  20
ATOM     20  O   UNL     1      55.887   5.198 -47.340  1.00  0.00    -0.502 OA
ATOM     21  H   UNL     1      56.147   5.417 -46.386  1.00  0.00     0.293 HD
ENDBRANCH   2  20
BRANCH   6  22
ATOM     22  O   UNL     1      54.699   5.582 -52.517  1.00  0.00    -0.507 OA
ATOM     23  H   UNL     1      55.411   4.920 -52.245  1.00  0.00     0.293 HD
ENDBRANCH   6  22
BRANCH   8  24
ATOM     24  O   UNL     1      52.800   9.991 -52.619  1.00  0.00    -0.508 OA
ATOM     25  H   UNL     1      52.498  10.850 -52.173  1.00  0.00     0.293 HD
ENDBRANCH   8  24
TORSDOF 5
ENDMDL
MODEL 3
REMARK VINA RESULT:    -5.264      3.173      8.294
REMARK INTER + INTRA:          -6.462
REMARK INTER:                  -6.182
REMARK INTRA:                  -0.281
REMARK UNBOUND:                -0.275
REMARK SMILES O=c1c(O)c(-c2ccc(O)cc2)oc2cc(O)cc(O)c12
REMARK SMILES IDX 5 1 3 2 2 3 1 4 21 5 19 6 18 7 16 8 15 9 14 10 13 11 6 12
REMARK SMILES IDX 7 13 8 14 9 15 12 16 11 17 10 18 4 20 20 22 17 24
REMARK H PARENT 10 19 4 21 20 23 17 25
REMARK Flexibility Score: inf
ROOT
ATOM      1  C   UNL     1      53.167   7.790 -50.647  1.00  0.00     0.180 A 
ATOM      2  C   UNL     1      53.553   8.850 -51.486  1.00  0.00     0.208 A 
ATOM      3  C   UNL     1      52.779   9.136 -52.622  1.00  0.00     0.238 A 
ATOM      4  O   UNL     1      53.099  10.119 -53.340  1.00  0.00    -0.285 OA
ATOM      5  C   UNL     1      51.638   8.350 -52.912  1.00  0.00     0.111 A 
ATOM      6  C   UNL     1      50.804   8.525 -54.058  1.00  0.00     0.134 A 
ATOM      7  C   UNL     1      49.627   7.775 -54.177  1.00  0.00     0.093 A 
ATOM      8  C   UNL     1      49.289   6.811 -53.224  1.00  0.00     0.123 A 
ATOM      9  C   UNL     1      50.127   6.591 -52.134  1.00  0.00     0.094 A 
ATOM     10  C   UNL     1      51.289   7.349 -51.969  1.00  0.00     0.146 A 
ATOM     11  O   UNL     1      52.055   7.114 -50.911  1.00  0.00    -0.452 OA
ENDROOT
BRANCH   1  12
ATOM     12  C   UNL     1      53.945   7.412 -49.445  1.00  0.00     0.021 A 
ATOM     13  C   UNL     1      55.062   6.571 -49.580  1.00  0.00     0.016 A 
ATOM     14  C   UNL     1      55.823   6.219 -48.461  1.00  0.00     0.047 A 
ATOM     15  C   UNL     1      55.489   6.715 -47.198  1.00  0.00     0.115 A 
ATOM     16  C   UNL     1      53.626   7.925 -48.174  1.00  0.00     0.016 A 
ATOM     17  C   UNL     1      54.389   7.572 -47.057  1.00  0.00     0.047 A 
BRANCH  15  18
ATOM     18  O   UNL     1      56.256   6.358 -46.092  1.00  0.00    -0.508 OA
ATOM     19  H   UNL     1      56.706   5.452 -46.029  1.00  0.00     0.293 HD
ENDBRANCH  15  18
ENDBRANCH   1  12
BRANCH   2  20
ATOM     20  O   UNL     1      54.671   9.626 -51.169  1.00  0.00    -0.502 OA
ATOM     21  H   UNL     1      55.433   9.277 -50.602  1.00  0.00     0.293 HD
ENDBRANCH   2  20
BRANCH   6  22
ATOM     22  O   UNL     1      51.098   9.395 -55.111  1.00  0.00    -0.507 OA
ATOM     23  H   UNL     1      51.058   9.149 -56.089  1.00  0.00     0.293 HD
ENDBRANCH   6  22
BRANCH   8  24
ATOM     24  O   UNL     1      48.124   6.059 -53.358  1.00  0.00    -0.508 OA
ATOM     25  H   UNL     1      47.986   5.199 -52.839  1.00  0.00     0.293 HD
ENDBRANCH   8  24
TORSDOF 5
ENDMDL
MODEL 4
REMARK VINA RESULT:    -5.088      1.570      3.379
REMARK INTER + INTRA:          -6.256
REMARK INTER:                  -6.020
REMARK INTRA:                  -0.236
REMARK UNBOUND:                -0.275
REMARK SMILES O=c1c(O)c(-c2ccc(O)cc2)oc2cc(O)cc(O)c12
REMARK SMILES IDX 5 1 3 2 2 3 1 4 21 5 19 6 18 7 16 8 15 9 14 10 13 11 6 12
REMARK SMILES IDX 7 13 8 14 9 15 12 16 11 17 10 18 4 20 20 22 17 24
REMARK H PARENT 10 19 4 21 20 23 17 25
REMARK Flexibility Score: inf
ROOT
ATOM      1  C   UNL     1      54.515   7.346 -45.572  1.00  0.00     0.180 A 
ATOM      2  C   UNL     1      55.471   8.075 -44.844  1.00  0.00     0.208 A 
ATOM      3  C   UNL     1      55.367   8.126 -43.444  1.00  0.00     0.238 A 
ATOM      4  O   UNL     1      56.257   8.735 -42.794  1.00  0.00    -0.285 OA
ATOM      5  C   UNL     1      54.302   7.459 -42.793  1.00  0.00     0.111 A 
ATOM      6  C   UNL     1      54.078   7.477 -41.382  1.00  0.00     0.134 A 
ATOM      7  C   UNL     1      53.068   6.675 -40.834  1.00  0.00     0.093 A 
ATOM      8  C   UNL     1      52.234   5.908 -41.651  1.00  0.00     0.123 A 
ATOM      9  C   UNL     1      52.407   5.931 -43.033  1.00  0.00     0.094 A 
ATOM     10  C   UNL     1      53.429   6.692 -43.607  1.00  0.00     0.146 A 
ATOM     11  O   UNL     1      53.566   6.678 -44.927  1.00  0.00    -0.452 OA
ENDROOT
BRANCH   1  12
ATOM     12  C   UNL     1      54.543   7.266 -47.051  1.00  0.00     0.021 A 
ATOM     13  C   UNL     1      53.669   8.068 -47.804  1.00  0.00     0.016 A 
ATOM     14  C   UNL     1      53.694   8.024 -49.200  1.00  0.00     0.047 A 
ATOM     15  C   UNL     1      54.601   7.192 -49.863  1.00  0.00     0.115 A 
ATOM     16  C   UNL     1      55.468   6.446 -47.723  1.00  0.00     0.016 A 
ATOM     17  C   UNL     1      55.491   6.404 -49.121  1.00  0.00     0.047 A 
BRANCH  15  18
ATOM     18  O   UNL     1      54.616   7.158 -51.255  1.00  0.00    -0.508 OA
ATOM     19  H   UNL     1      55.276   7.708 -51.792  1.00  0.00     0.293 HD
ENDBRANCH  15  18
ENDBRANCH   1  12
BRANCH   2  20
ATOM     20  O   UNL     1      56.526   8.707 -45.506  1.00  0.00    -0.502 OA
ATOM     21  H   UNL     1      57.481   8.669 -45.169  1.00  0.00     0.293 HD
ENDBRANCH   2  20
BRANCH   6  22
ATOM     22  O   UNL     1      54.793   8.278 -40.489  1.00  0.00    -0.507 OA
ATOM     23  H   UNL     1      54.463   9.153 -40.110  1.00  0.00     0.293 HD
ENDBRANCH   6  22
BRANCH   8  24
ATOM     24  O   UNL     1      51.223   5.126 -41.099  1.00  0.00    -0.508 OA
ATOM     25  H   UNL     1      50.340   5.529 -40.808  1.00  0.00     0.293 HD
ENDBRANCH   8  24
TORSDOF 5
ENDMDL
MODEL 5
REMARK VINA RESULT:    -4.964     10.781     12.094
REMARK INTER + INTRA:          -6.110
REMARK INTER:                  -5.814
REMARK INTRA:                  -0.295
REMARK UNBOUND:                -0.275
REMARK SMILES O=c1c(O)c(-c2ccc(O)cc2)oc2cc(O)cc(O)c12
REMARK SMILES IDX 5 1 3 2 2 3 1 4 21 5 19 6 18 7 16 8 15 9 14 10 13 11 6 12
REMARK SMILES IDX 7 13 8 14 9 15 12 16 11 17 10 18 4 20 20 22 17 24
REMARK H PARENT 10 19 4 21 20 23 17 25
REMARK Flexibility Score: inf
ROOT
ATOM      1  C   UNL     1      56.640  -2.228 -51.654  1.00  0.00     0.180 A 
ATOM      2  C   UNL     1      56.458  -1.188 -50.728  1.00  0.00     0.208 A 
ATOM      3  C   UNL     1      57.456  -0.947 -49.768  1.00  0.00     0.238 A 
ATOM      4  O   UNL     1      57.312   0.020 -48.976  1.00  0.00    -0.285 OA
ATOM      5  C   UNL     1      58.615  -1.760 -49.740  1.00  0.00     0.111 A 
ATOM      6  C   UNL     1      59.670  -1.631 -48.787  1.00  0.00     0.134 A 
ATOM      7  C   UNL     1      60.830  -2.403 -48.932  1.00  0.00     0.093 A 
ATOM      8  C   UNL     1      60.944  -3.345 -49.958  1.00  0.00     0.123 A 
ATOM      9  C   UNL     1      59.895  -3.520 -50.857  1.00  0.00     0.094 A 
ATOM     10  C   UNL     1      58.740  -2.739 -50.759  1.00  0.00     0.146 A 
ATOM     11  O   UNL     1      57.768  -2.930 -51.642  1.00  0.00    -0.452 OA
ENDROOT
BRANCH   1  12
ATOM     12  C   UNL     1      55.623  -2.559 -52.679  1.00  0.00     0.021 A 
ATOM     13  C   UNL     1      55.766  -2.059 -53.983  1.00  0.00     0.016 A 
ATOM     14  C   UNL     1      54.829  -2.377 -54.970  1.00  0.00     0.047 A 
ATOM     15  C   UNL     1      53.748  -3.210 -54.672  1.00  0.00     0.115 A 
ATOM     16  C   UNL     1      54.544  -3.414 -52.389  1.00  0.00     0.016 A 
ATOM     17  C   UNL     1      53.608  -3.732 -53.379  1.00  0.00     0.047 A 
BRANCH  15  18
ATOM     18  O   UNL     1      52.821  -3.520 -55.666  1.00  0.00    -0.508 OA
ATOM     19  H   UNL     1      52.481  -4.465 -55.797  1.00  0.00     0.293 HD
ENDBRANCH  15  18
ENDBRANCH   1  12
BRANCH   2  20
ATOM     20  O   UNL     1      55.317  -0.384 -50.788  1.00  0.00    -0.502 OA
ATOM     21  H   UNL     1      54.903   0.037 -49.965  1.00  0.00     0.293 HD
ENDBRANCH   2  20
BRANCH   6  22
ATOM     22  O   UNL     1      59.618  -0.787 -47.674  1.00  0.00    -0.507 OA
ATOM     23  H   UNL     1      58.873  -0.777 -46.994  1.00  0.00     0.293 HD
ENDBRANCH   6  22
BRANCH   8  24
ATOM     24  O   UNL     1      62.094  -4.120 -50.086  1.00  0.00    -0.508 OA
ATOM     25  H   UNL     1      62.079  -5.017 -50.556  1.00  0.00     0.293 HD
ENDBRANCH   8  24
TORSDOF 5
ENDMDL
MODEL 6
REMARK VINA RESULT:    -4.941      2.617      4.407
REMARK INTER + INTRA:          -6.083
REMARK INTER:                  -5.782
REMARK INTRA:                  -0.301
REMARK UNBOUND:                -0.275
REMARK SMILES O=c1c(O)c(-c2ccc(O)cc2)oc2cc(O)cc(O)c12
REMARK SMILES IDX 5 1 3 2 2 3 1 4 21 5 19 6 18 7 16 8 15 9 14 10 13 11 6 12
REMARK SMILES IDX 7 13 8 14 9 15 12 16 11 17 10 18 4 20 20 22 17 24
REMARK H PARENT 10 19 4 21 20 23 17 25
REMARK Flexibility Score: inf
ROOT
ATOM      1  C   UNL     1      54.998   7.193 -44.467  1.00  0.00     0.180 A 
ATOM      2  C   UNL     1      55.404   8.277 -43.670  1.00  0.00     0.208 A 
ATOM      3  C   UNL     1      56.156   8.026 -42.510  1.00  0.00     0.238 A 
ATOM      4  O   UNL     1      56.563   9.004 -41.831  1.00  0.00    -0.285 OA
ATOM      5  C   UNL     1      56.479   6.694 -42.156  1.00  0.00     0.111 A 
ATOM      6  C   UNL     1      57.201   6.321 -40.982  1.00  0.00     0.134 A 
ATOM      7  C   UNL     1      57.577   4.984 -40.798  1.00  0.00     0.093 A 
ATOM      8  C   UNL     1      57.199   3.998 -41.713  1.00  0.00     0.123 A 
ATOM      9  C   UNL     1      56.443   4.343 -42.830  1.00  0.00     0.094 A 
ATOM     10  C   UNL     1      56.084   5.674 -43.059  1.00  0.00     0.146 A 
ATOM     11  O   UNL     1      55.372   5.961 -44.142  1.00  0.00    -0.452 OA
ENDROOT
BRANCH   1  12
ATOM     12  C   UNL     1      54.182   7.376 -45.690  1.00  0.00     0.021 A 
ATOM     13  C   UNL     1      54.819   7.491 -46.936  1.00  0.00     0.016 A 
ATOM     14  C   UNL     1      54.067   7.642 -48.104  1.00  0.00     0.047 A 
ATOM     15  C   UNL     1      52.671   7.663 -48.045  1.00  0.00     0.115 A 
ATOM     16  C   UNL     1      52.775   7.377 -45.638  1.00  0.00     0.016 A 
ATOM     17  C   UNL     1      52.026   7.527 -46.809  1.00  0.00     0.047 A 
BRANCH  15  18
ATOM     18  O   UNL     1      51.933   7.813 -49.218  1.00  0.00    -0.508 OA
ATOM     19  H   UNL     1      51.863   7.066 -49.899  1.00  0.00     0.293 HD
ENDBRANCH  15  18
ENDBRANCH   1  12
BRANCH   2  20
ATOM     20  O   UNL     1      55.093   9.585 -44.050  1.00  0.00    -0.502 OA
ATOM     21  H   UNL     1      55.720  10.154 -44.606  1.00  0.00     0.293 HD
ENDBRANCH   2  20
BRANCH   6  22
ATOM     22  O   UNL     1      57.547   7.212 -39.963  1.00  0.00    -0.507 OA
ATOM     23  H   UNL     1      57.138   7.218 -39.041  1.00  0.00     0.293 HD
ENDBRANCH   6  22
BRANCH   8  24
ATOM     24  O   UNL     1      57.564   2.668 -41.514  1.00  0.00    -0.508 OA
ATOM     25  H   UNL     1      58.449   2.306 -41.850  1.00  0.00     0.293 HD
ENDBRANCH   8  24
TORSDOF 5
ENDMDL
MODEL 7
REMARK VINA RESULT:    -4.893      2.269      7.716
REMARK INTER + INTRA:          -6.026
REMARK INTER:                  -5.788
REMARK INTRA:                  -0.238
REMARK UNBOUND:                -0.275
REMARK SMILES O=c1c(O)c(-c2ccc(O)cc2)oc2cc(O)cc(O)c12
REMARK SMILES IDX 5 1 3 2 2 3 1 4 21 5 19 6 18 7 16 8 15 9 14 10 13 11 6 12
REMARK SMILES IDX 7 13 8 14 9 15 12 16 11 17 10 18 4 20 20 22 17 24
REMARK H PARENT 10 19 4 21 20 23 17 25
REMARK Flexibility Score: inf
ROOT
ATOM      1  C   UNL     1      53.561   7.560 -49.477  1.00  0.00     0.180 A 
ATOM      2  C   UNL     1      53.246   8.718 -50.207  1.00  0.00     0.208 A 
ATOM      3  C   UNL     1      53.398   8.705 -51.604  1.00  0.00     0.238 A 
ATOM      4  O   UNL     1      53.063   9.727 -52.258  1.00  0.00    -0.285 OA
ATOM      5  C   UNL     1      53.878   7.540 -52.249  1.00  0.00     0.111 A 
ATOM      6  C   UNL     1      54.108   7.428 -53.653  1.00  0.00     0.134 A 
ATOM      7  C   UNL     1      54.459   6.187 -54.199  1.00  0.00     0.093 A 
ATOM      8  C   UNL     1      54.651   5.070 -53.382  1.00  0.00     0.123 A 
ATOM      9  C   UNL     1      54.487   5.183 -52.004  1.00  0.00     0.094 A 
ATOM     10  C   UNL     1      54.102   6.400 -51.434  1.00  0.00     0.146 A 
ATOM     11  O   UNL     1      53.946   6.462 -50.117  1.00  0.00    -0.452 OA
ENDROOT
BRANCH   1  12
ATOM     12  C   UNL     1      53.450   7.504 -48.001  1.00  0.00     0.021 A 
ATOM     13  C   UNL     1      54.607   7.628 -47.215  1.00  0.00     0.016 A 
ATOM     14  C   UNL     1      54.523   7.600 -45.820  1.00  0.00     0.047 A 
ATOM     15  C   UNL     1      53.281   7.464 -45.193  1.00  0.00     0.115 A 
ATOM     16  C   UNL     1      52.200   7.389 -47.364  1.00  0.00     0.016 A 
ATOM     17  C   UNL     1      52.118   7.362 -45.968  1.00  0.00     0.047 A 
BRANCH  15  18
ATOM     18  O   UNL     1      53.210   7.439 -43.802  1.00  0.00    -0.508 OA
ATOM     19  H   UNL     1      53.990   7.733 -43.226  1.00  0.00     0.293 HD
ENDBRANCH  15  18
ENDBRANCH   1  12
BRANCH   2  20
ATOM     20  O   UNL     1      52.754   9.850 -49.553  1.00  0.00    -0.502 OA
ATOM     21  H   UNL     1      52.652   9.897 -48.547  1.00  0.00     0.293 HD
ENDBRANCH   2  20
BRANCH   6  22
ATOM     22  O   UNL     1      54.033   8.502 -54.544  1.00  0.00    -0.507 OA
ATOM     23  H   UNL     1      54.740   8.735 -55.225  1.00  0.00     0.293 HD
ENDBRANCH   6  22
BRANCH   8  24
ATOM     24  O   UNL     1      55.015   3.842 -53.931  1.00  0.00    -0.508 OA
ATOM     25  H   UNL     1      55.892   3.722 -54.424  1.00  0.00     0.293 HD
ENDBRANCH   8  24
TORSDOF 5
ENDMDL
MODEL 8
REMARK VINA RESULT:    -4.836      2.230      2.831
REMARK INTER + INTRA:          -5.959
REMARK INTER:                  -5.733
REMARK INTRA:                  -0.226
REMARK UNBOUND:                -0.275
REMARK SMILES O=c1c(O)c(-c2ccc(O)cc2)oc2cc(O)cc(O)c12
REMARK SMILES IDX 5 1 3 2 2 3 1 4 21 5 19 6 18 7 16 8 15 9 14 10 13 11 6 12
REMARK SMILES IDX 7 13 8 14 9 15 12 16 11 17 10 18 4 20 20 22 17 24
REMARK H PARENT 10 19 4 21 20 23 17 25
REMARK Flexibility Score: inf
ROOT
ATOM      1  C   UNL     1      53.454   7.482 -48.858  1.00  0.00     0.180 A 
ATOM      2  C   UNL     1      52.539   7.772 -47.832  1.00  0.00     0.208 A 
ATOM      3  C   UNL     1      52.769   7.253 -46.547  1.00  0.00     0.238 A 
ATOM      4  O   UNL     1      51.975   7.560 -45.620  1.00  0.00    -0.285 OA
ATOM      5  C   UNL     1      53.902   6.438 -46.310  1.00  0.00     0.111 A 
ATOM      6  C   UNL     1      54.211   5.826 -45.057  1.00  0.00     0.134 A 
ATOM      7  C   UNL     1      55.427   5.148 -44.902  1.00  0.00     0.093 A 
ATOM      8  C   UNL     1      56.313   5.004 -45.973  1.00  0.00     0.123 A 
ATOM      9  C   UNL     1      55.993   5.547 -47.215  1.00  0.00     0.094 A 
ATOM     10  C   UNL     1      54.804   6.260 -47.391  1.00  0.00     0.146 A 
ATOM     11  O   UNL     1      54.542   6.770 -48.588  1.00  0.00    -0.452 OA
ENDROOT
BRANCH   1  12
ATOM     12  C   UNL     1      53.267   7.973 -50.243  1.00  0.00     0.021 A 
ATOM     13  C   UNL     1      52.288   7.384 -51.060  1.00  0.00     0.016 A 
ATOM     14  C   UNL     1      52.081   7.846 -52.363  1.00  0.00     0.047 A 
ATOM     15  C   UNL     1      52.837   8.911 -52.860  1.00  0.00     0.115 A 
ATOM     16  C   UNL     1      54.011   9.059 -50.742  1.00  0.00     0.016 A 
ATOM     17  C   UNL     1      53.801   9.520 -52.046  1.00  0.00     0.047 A 
BRANCH  15  18
ATOM     18  O   UNL     1      52.619   9.363 -54.160  1.00  0.00    -0.508 OA
ATOM     19  H   UNL     1      53.358   9.798 -54.701  1.00  0.00     0.293 HD
ENDBRANCH  15  18
ENDBRANCH   1  12
BRANCH   2  20
ATOM     20  O   UNL     1      51.439   8.596 -48.083  1.00  0.00    -0.502 OA
ATOM     21  H   UNL     1      50.929   9.064 -47.344  1.00  0.00     0.293 HD
ENDBRANCH   2  20
BRANCH   6  22
ATOM     22  O   UNL     1      53.354   5.832 -43.954  1.00  0.00    -0.507 OA
ATOM     23  H   UNL     1      53.105   6.653 -43.424  1.00  0.00     0.293 HD
ENDBRANCH   6  22
BRANCH   8  24
ATOM     24  O   UNL     1      57.513   4.315 -45.813  1.00  0.00    -0.508 OA
ATOM     25  H   UNL     1      58.368   4.629 -46.259  1.00  0.00     0.293 HD
ENDBRANCH   8  24
TORSDOF 5
ENDMDL
MODEL 9
REMARK VINA RESULT:    -4.281     15.071     16.903
REMARK INTER + INTRA:          -5.307
REMARK INTER:                  -5.024
REMARK INTRA:                  -0.282
REMARK UNBOUND:                -0.275
REMARK SMILES O=c1c(O)c(-c2ccc(O)cc2)oc2cc(O)cc(O)c12
REMARK SMILES IDX 5 1 3 2 2 3 1 4 21 5 19 6 18 7 16 8 15 9 14 10 13 11 6 12
REMARK SMILES IDX 7 13 8 14 9 15 12 16 11 17 10 18 4 20 20 22 17 24
REMARK H PARENT 10 19 4 21 20 23 17 25
REMARK Flexibility Score: inf
ROOT
ATOM      1  C   UNL     1      52.490  -7.335 -49.298  1.00  0.00     0.180 A 
ATOM      2  C   UNL     1      51.171  -7.128 -48.858  1.00  0.00     0.208 A 
ATOM      3  C   UNL     1      50.107  -7.528 -49.683  1.00  0.00     0.238 A 
ATOM      4  O   UNL     1      48.930  -7.389 -49.261  1.00  0.00    -0.285 OA
ATOM      5  C   UNL     1      50.376  -8.116 -50.943  1.00  0.00     0.111 A 
ATOM      6  C   UNL     1      49.375  -8.523 -51.876  1.00  0.00     0.134 A 
ATOM      7  C   UNL     1      49.753  -9.212 -53.036  1.00  0.00     0.093 A 
ATOM      8  C   UNL     1      51.098  -9.452 -53.326  1.00  0.00     0.123 A 
ATOM      9  C   UNL     1      52.085  -9.006 -52.450  1.00  0.00     0.094 A 
ATOM     10  C   UNL     1      51.738  -8.347 -51.267  1.00  0.00     0.146 A 
ATOM     11  O   UNL     1      52.709  -7.948 -50.455  1.00  0.00    -0.452 OA
ENDROOT
BRANCH   1  12
ATOM     12  C   UNL     1      53.663  -6.917 -48.496  1.00  0.00     0.021 A 
ATOM     13  C   UNL     1      54.375  -7.878 -47.759  1.00  0.00     0.016 A 
ATOM     14  C   UNL     1      55.498  -7.509 -47.014  1.00  0.00     0.047 A 
ATOM     15  C   UNL     1      55.933  -6.181 -47.007  1.00  0.00     0.115 A 
ATOM     16  C   UNL     1      54.118  -5.586 -48.502  1.00  0.00     0.016 A 
ATOM     17  C   UNL     1      55.242  -5.219 -47.756  1.00  0.00     0.047 A 
BRANCH  15  18
ATOM     18  O   UNL     1      57.055  -5.826 -46.260  1.00  0.00    -0.508 OA
ATOM     19  H   UNL     1      57.559  -4.965 -46.437  1.00  0.00     0.293 HD
ENDBRANCH  15  18
ENDBRANCH   1  12
BRANCH   2  20
ATOM     20  O   UNL     1      50.929  -6.565 -47.602  1.00  0.00    -0.502 OA
ATOM     21  H   UNL     1      50.261  -5.818 -47.460  1.00  0.00     0.293 HD
ENDBRANCH   2  20
BRANCH   6  22
ATOM     22  O   UNL     1      48.013  -8.252 -51.727  1.00  0.00    -0.507 OA
ATOM     23  H   UNL     1      47.300  -8.500 -52.397  1.00  0.00     0.293 HD
ENDBRANCH   6  22
BRANCH   8  24
ATOM     24  O   UNL     1      51.465 -10.125 -54.489  1.00  0.00    -0.508 OA
ATOM     25  H   UNL     1      51.482  -9.659 -55.388  1.00  0.00     0.293 HD
ENDBRANCH   8  24
TORSDOF 5
ENDMDL
