MODEL 1
REMARK VINA RESULT:    -3.720      0.000      0.000
REMARK INTER + INTRA:          -7.130
REMARK INTER:                  -5.895
REMARK INTRA:                  -1.235
REMARK UNBOUND:                -1.235
REMARK SMILES CCCCCCCCCCCC(=O)[O-]
REMARK SMILES IDX 7 1 8 2 9 3 10 4 11 5 12 6 13 7 14 8 6 9 5 10 4 11 3 12 2 13
REMARK SMILES IDX 1 14
REMARK H PARENT
REMARK Flexibility Score: inf
ROOT
ATOM      1  C   UNL     1      14.033  46.138  20.831  1.00  0.00     0.000 C 
ENDROOT
BRANCH   1   2
ATOM      2  C   UNL     1      15.469  45.629  20.611  1.00  0.00     0.000 C 
BRANCH   2   3
ATOM      3  C   UNL     1      15.520  44.241  19.949  1.00  0.00     0.000 C 
BRANCH   3   4
ATOM      4  C   UNL     1      16.384  44.151  18.678  1.00  0.00     0.006 C 
BRANCH   4   5
ATOM      5  C   UNL     1      17.531  43.142  18.802  1.00  0.00     0.053 C 
BRANCH   5   6
ATOM      6  C   UNL     1      18.397  43.475  19.976  1.00  0.00     0.041 C 
ATOM      7  O   UNL     1      18.597  42.620  20.879  1.00  0.00    -0.550 OA
ATOM      8  O   UNL     1      19.024  44.713  20.049  1.00  0.00    -0.550 OA
ENDBRANCH   5   6
ENDBRANCH   4   5
ENDBRANCH   3   4
ENDBRANCH   2   3
ENDBRANCH   1   2
BRANCH   1   9
ATOM      9  C   UNL     1      12.989  45.366  20.003  1.00  0.00     0.000 C 
BRANCH   9  10
ATOM     10  C   UNL     1      11.692  46.138  19.699  1.00  0.00    -0.000 C 
BRANCH  10  11
ATOM     11  C   UNL     1      11.565  46.545  18.224  1.00  0.00    -0.000 C 
BRANCH  11  12
ATOM     12  C   UNL     1      12.696  45.938  17.386  1.00  0.00    -0.000 C 
BRANCH  12  13
ATOM     13  C   UNL     1      13.485  47.030  16.655  1.00  0.00    -0.003 C 
ATOM     14  C   UNL     1      14.905  47.144  17.201  1.00  0.00     0.004 C 
ENDBRANCH  12  13
ENDBRANCH  11  12
ENDBRANCH  10  11
ENDBRANCH   9  10
ENDBRANCH   1   9
TORSDOF 10
ENDMDL
MODEL 2
REMARK VINA RESULT:    -3.639      1.976      3.459
REMARK INTER + INTRA:          -7.001
REMARK INTER:                  -5.983
REMARK INTRA:                  -1.018
REMARK UNBOUND:                -1.235
REMARK SMILES CCCCCCCCCCCC(=O)[O-]
REMARK SMILES IDX 7 1 8 2 9 3 10 4 11 5 12 6 13 7 14 8 6 9 5 10 4 11 3 12 2 13
REMARK SMILES IDX 1 14
REMARK H PARENT
REMARK Flexibility Score: inf
ROOT
ATOM      1  C   UNL     1      15.139  46.744  17.692  1.00  0.00     0.000 C 
ENDROOT
BRANCH   1   2
ATOM      2  C   UNL     1      15.426  45.306  18.155  1.00  0.00     0.000 C 
BRANCH   2   3
ATOM      3  C   UNL     1      15.670  45.200  19.672  1.00  0.00     0.000 C 
BRANCH   3   4
ATOM      4  C   UNL     1      16.383  46.407  20.308  1.00  0.00     0.006 C 
BRANCH   4   5
ATOM      5  C   UNL     1      17.728  46.042  20.946  1.00  0.00     0.053 C 
BRANCH   5   6
ATOM      6  C   UNL     1      18.731  47.128  20.713  1.00  0.00     0.041 C 
ATOM      7  O   UNL     1      19.961  46.895  20.850  1.00  0.00    -0.550 OA
ATOM      8  O   UNL     1      18.310  48.384  20.296  1.00  0.00    -0.550 OA
ENDBRANCH   5   6
ENDBRANCH   4   5
ENDBRANCH   3   4
ENDBRANCH   2   3
ENDBRANCH   1   2
BRANCH   1   9
ATOM      9  C   UNL     1      13.861  46.858  16.840  1.00  0.00     0.000 C 
BRANCH   9  10
ATOM     10  C   UNL     1      12.689  45.971  17.295  1.00  0.00    -0.000 C 
BRANCH  10  11
ATOM     11  C   UNL     1      11.729  46.686  18.256  1.00  0.00    -0.000 C 
BRANCH  11  12
ATOM     12  C   UNL     1      12.078  46.374  19.716  1.00  0.00    -0.000 C 
BRANCH  12  13
ATOM     13  C   UNL     1      11.927  44.876  20.009  1.00  0.00    -0.003 C 
ATOM     14  C   UNL     1      10.463  44.497  20.206  1.00  0.00     0.004 C 
ENDBRANCH  12  13
ENDBRANCH  11  12
ENDBRANCH  10  11
ENDBRANCH   9  10
ENDBRANCH   1   9
TORSDOF 10
ENDMDL
MODEL 3
REMARK VINA RESULT:    -3.636      2.722      5.345
REMARK INTER + INTRA:          -6.997
REMARK INTER:                  -5.813
REMARK INTRA:                  -1.184
REMARK UNBOUND:                -1.235
REMARK SMILES CCCCCCCCCCCC(=O)[O-]
REMARK SMILES IDX 7 1 8 2 9 3 10 4 11 5 12 6 13 7 14 8 6 9 5 10 4 11 3 12 2 13
REMARK SMILES IDX 1 14
REMARK H PARENT
REMARK Flexibility Score: inf
ROOT
ATOM      1  C   UNL     1      15.298  46.255  18.347  1.00  0.00     0.000 C 
ENDROOT
BRANCH   1   2
ATOM      2  C   UNL     1      14.406  46.904  17.274  1.00  0.00     0.000 C 
BRANCH   2   3
ATOM      3  C   UNL     1      13.039  46.210  17.129  1.00  0.00     0.000 C 
BRANCH   3   4
ATOM      4  C   UNL     1      12.025  46.517  18.246  1.00  0.00     0.006 C 
BRANCH   4   5
ATOM      5  C   UNL     1      11.381  45.256  18.835  1.00  0.00     0.053 C 
BRANCH   5   6
ATOM      6  C   UNL     1      12.376  44.493  19.651  1.00  0.00     0.041 C 
ATOM      7  O   UNL     1      12.886  45.013  20.678  1.00  0.00    -0.550 OA
ATOM      8  O   UNL     1      12.703  43.187  19.306  1.00  0.00    -0.550 OA
ENDBRANCH   5   6
ENDBRANCH   4   5
ENDBRANCH   3   4
ENDBRANCH   2   3
ENDBRANCH   1   2
BRANCH   1   9
ATOM      9  C   UNL     1      15.687  44.804  18.009  1.00  0.00     0.000 C 
BRANCH   9  10
ATOM     10  C   UNL     1      16.352  44.020  19.155  1.00  0.00    -0.000 C 
BRANCH  10  11
ATOM     11  C   UNL     1      16.412  44.809  20.470  1.00  0.00    -0.000 C 
BRANCH  11  12
ATOM     12  C   UNL     1      17.844  44.864  21.014  1.00  0.00    -0.000 C 
BRANCH  12  13
ATOM     13  C   UNL     1      18.526  46.184  20.636  1.00  0.00    -0.003 C 
ATOM     14  C   UNL     1      17.660  47.381  21.018  1.00  0.00     0.004 C 
ENDBRANCH  12  13
ENDBRANCH  11  12
ENDBRANCH  10  11
ENDBRANCH   9  10
ENDBRANCH   1   9
TORSDOF 10
ENDMDL
MODEL 4
REMARK VINA RESULT:    -3.607     10.505     11.985
REMARK INTER + INTRA:          -6.951
REMARK INTER:                  -5.664
REMARK INTRA:                  -1.287
REMARK UNBOUND:                -1.235
REMARK SMILES CCCCCCCCCCCC(=O)[O-]
REMARK SMILES IDX 7 1 8 2 9 3 10 4 11 5 12 6 13 7 14 8 6 9 5 10 4 11 3 12 2 13
REMARK SMILES IDX 1 14
REMARK H PARENT
REMARK Flexibility Score: inf
ROOT
ATOM      1  C   UNL     1      14.054  41.781  28.841  1.00  0.00     0.000 C 
ENDROOT
BRANCH   1   2
ATOM      2  C   UNL     1      13.211  40.574  28.396  1.00  0.00     0.000 C 
BRANCH   2   3
ATOM      3  C   UNL     1      13.923  39.696  27.351  1.00  0.00     0.000 C 
BRANCH   3   4
ATOM      4  C   UNL     1      13.262  38.332  27.079  1.00  0.00     0.006 C 
BRANCH   4   5
ATOM      5  C   UNL     1      14.127  37.147  27.525  1.00  0.00     0.053 C 
BRANCH   5   6
ATOM      6  C   UNL     1      13.264  35.996  27.938  1.00  0.00     0.041 C 
ATOM      7  O   UNL     1      13.508  35.372  29.004  1.00  0.00    -0.550 OA
ATOM      8  O   UNL     1      12.160  35.644  27.171  1.00  0.00    -0.550 OA
ENDBRANCH   5   6
ENDBRANCH   4   5
ENDBRANCH   3   4
ENDBRANCH   2   3
ENDBRANCH   1   2
BRANCH   1   9
ATOM      9  C   UNL     1      15.462  41.387  29.324  1.00  0.00     0.000 C 
BRANCH   9  10
ATOM     10  C   UNL     1      15.503  40.270  30.383  1.00  0.00    -0.000 C 
BRANCH  10  11
ATOM     11  C   UNL     1      16.492  39.148  30.036  1.00  0.00    -0.000 C 
BRANCH  11  12
ATOM     12  C   UNL     1      17.488  39.604  28.964  1.00  0.00    -0.000 C 
BRANCH  12  13
ATOM     13  C   UNL     1      17.509  38.628  27.782  1.00  0.00    -0.003 C 
ATOM     14  C   UNL     1      17.432  39.372  26.452  1.00  0.00     0.004 C 
ENDBRANCH  12  13
ENDBRANCH  11  12
ENDBRANCH  10  11
ENDBRANCH   9  10
ENDBRANCH   1   9
TORSDOF 10
ENDMDL
MODEL 5
REMARK VINA RESULT:    -3.571      3.292      5.678
REMARK INTER + INTRA:          -6.894
REMARK INTER:                  -5.481
REMARK INTRA:                  -1.414
REMARK UNBOUND:                -1.235
REMARK SMILES CCCCCCCCCCCC(=O)[O-]
REMARK SMILES IDX 7 1 8 2 9 3 10 4 11 5 12 6 13 7 14 8 6 9 5 10 4 11 3 12 2 13
REMARK SMILES IDX 1 14
REMARK H PARENT
REMARK Flexibility Score: inf
ROOT
ATOM      1  C   UNL     1      15.237  44.510  19.713  1.00  0.00     0.000 C 
ENDROOT
BRANCH   1   2
ATOM      2  C   UNL     1      15.499  45.770  20.556  1.00  0.00     0.000 C 
BRANCH   2   3
ATOM      3  C   UNL     1      16.717  46.576  20.069  1.00  0.00     0.000 C 
BRANCH   3   4
ATOM      4  C   UNL     1      17.820  46.800  21.121  1.00  0.00     0.006 C 
BRANCH   4   5
ATOM      5  C   UNL     1      19.192  47.088  20.500  1.00  0.00     0.053 C 
BRANCH   5   6
ATOM      6  C   UNL     1      19.702  48.419  20.954  1.00  0.00     0.041 C 
ATOM      7  O   UNL     1      19.249  48.947  22.003  1.00  0.00    -0.550 OA
ATOM      8  O   UNL     1      20.716  49.053  20.247  1.00  0.00    -0.550 OA
ENDBRANCH   5   6
ENDBRANCH   4   5
ENDBRANCH   3   4
ENDBRANCH   2   3
ENDBRANCH   1   2
BRANCH   1   9
ATOM      9  C   UNL     1      16.362  44.216  18.704  1.00  0.00     0.000 C 
BRANCH   9  10
ATOM     10  C   UNL     1      17.219  42.977  19.019  1.00  0.00    -0.000 C 
BRANCH  10  11
ATOM     11  C   UNL     1      18.505  43.313  19.787  1.00  0.00    -0.000 C 
BRANCH  11  12
ATOM     12  C   UNL     1      18.341  43.032  21.285  1.00  0.00    -0.000 C 
BRANCH  12  13
ATOM     13  C   UNL     1      19.516  43.607  22.085  1.00  0.00    -0.003 C 
ATOM     14  C   UNL     1      20.780  43.679  21.233  1.00  0.00     0.004 C 
ENDBRANCH  12  13
ENDBRANCH  11  12
ENDBRANCH  10  11
ENDBRANCH   9  10
ENDBRANCH   1   9
TORSDOF 10
ENDMDL
MODEL 6
REMARK VINA RESULT:    -3.570      3.833      6.397
REMARK INTER + INTRA:          -6.893
REMARK INTER:                  -5.968
REMARK INTRA:                  -0.925
REMARK UNBOUND:                -1.235
REMARK SMILES CCCCCCCCCCCC(=O)[O-]
REMARK SMILES IDX 7 1 8 2 9 3 10 4 11 5 12 6 13 7 14 8 6 9 5 10 4 11 3 12 2 13
REMARK SMILES IDX 1 14
REMARK H PARENT
REMARK Flexibility Score: inf
ROOT
ATOM      1  C   UNL     1      14.888  44.089  19.291  1.00  0.00     0.000 C 
ENDROOT
BRANCH   1   2
ATOM      2  C   UNL     1      14.312  44.875  20.481  1.00  0.00     0.000 C 
BRANCH   2   3
ATOM      3  C   UNL     1      13.246  45.904  20.062  1.00  0.00     0.000 C 
BRANCH   3   4
ATOM      4  C   UNL     1      12.540  45.610  18.726  1.00  0.00     0.006 C 
BRANCH   4   5
ATOM      5  C   UNL     1      11.638  46.759  18.259  1.00  0.00     0.053 C 
BRANCH   5   6
ATOM      6  C   UNL     1      10.460  46.903  19.170  1.00  0.00     0.041 C 
ATOM      7  O   UNL     1      10.116  48.040  19.586  1.00  0.00    -0.550 OA
ATOM      8  O   UNL     1       9.710  45.787  19.519  1.00  0.00    -0.550 OA
ENDBRANCH   5   6
ENDBRANCH   4   5
ENDBRANCH   3   4
ENDBRANCH   2   3
ENDBRANCH   1   2
BRANCH   1   9
ATOM      9  C   UNL     1      15.988  43.094  19.705  1.00  0.00     0.000 C 
BRANCH   9  10
ATOM     10  C   UNL     1      17.371  43.346  19.077  1.00  0.00    -0.000 C 
BRANCH  10  11
ATOM     11  C   UNL     1      18.497  43.438  20.116  1.00  0.00    -0.000 C 
BRANCH  11  12
ATOM     12  C   UNL     1      18.197  44.523  21.157  1.00  0.00    -0.000 C 
BRANCH  12  13
ATOM     13  C   UNL     1      18.391  45.923  20.565  1.00  0.00    -0.003 C 
ATOM     14  C   UNL     1      17.340  46.896  21.092  1.00  0.00     0.004 C 
ENDBRANCH  12  13
ENDBRANCH  11  12
ENDBRANCH  10  11
ENDBRANCH   9  10
ENDBRANCH   1   9
TORSDOF 10
ENDMDL
MODEL 7
REMARK VINA RESULT:    -3.520      3.865      6.420
REMARK INTER + INTRA:          -6.813
REMARK INTER:                  -5.889
REMARK INTRA:                  -0.924
REMARK UNBOUND:                -1.235
REMARK SMILES CCCCCCCCCCCC(=O)[O-]
REMARK SMILES IDX 7 1 8 2 9 3 10 4 11 5 12 6 13 7 14 8 6 9 5 10 4 11 3 12 2 13
REMARK SMILES IDX 1 14
REMARK H PARENT
REMARK Flexibility Score: inf
ROOT
ATOM      1  C   UNL     1      16.058  46.112  19.708  1.00  0.00     0.000 C 
ENDROOT
BRANCH   1   2
ATOM      2  C   UNL     1      14.809  45.885  20.577  1.00  0.00     0.000 C 
BRANCH   2   3
ATOM      3  C   UNL     1      13.923  44.733  20.067  1.00  0.00     0.000 C 
BRANCH   3   4
ATOM      4  C   UNL     1      12.408  44.945  20.238  1.00  0.00     0.006 C 
BRANCH   4   5
ATOM      5  C   UNL     1      11.906  46.243  19.595  1.00  0.00     0.053 C 
BRANCH   5   6
ATOM      6  C   UNL     1      10.417  46.217  19.457  1.00  0.00     0.041 C 
ATOM      7  O   UNL     1       9.761  45.220  19.858  1.00  0.00    -0.550 OA
ATOM      8  O   UNL     1       9.748  47.315  18.932  1.00  0.00    -0.550 OA
ENDBRANCH   5   6
ENDBRANCH   4   5
ENDBRANCH   3   4
ENDBRANCH   2   3
ENDBRANCH   1   2
BRANCH   1   9
ATOM      9  C   UNL     1      17.374  45.894  20.478  1.00  0.00     0.000 C 
BRANCH   9  10
ATOM     10  C   UNL     1      18.060  44.538  20.234  1.00  0.00    -0.000 C 
BRANCH  10  11
ATOM     11  C   UNL     1      17.425  43.739  19.086  1.00  0.00    -0.000 C 
BRANCH  11  12
ATOM     12  C   UNL     1      17.060  42.321  19.540  1.00  0.00    -0.000 C 
BRANCH  12  13
ATOM     13  C   UNL     1      16.624  42.308  21.009  1.00  0.00    -0.003 C 
ATOM     14  C   UNL     1      16.950  40.973  21.670  1.00  0.00     0.004 C 
ENDBRANCH  12  13
ENDBRANCH  11  12
ENDBRANCH  10  11
ENDBRANCH   9  10
ENDBRANCH   1   9
TORSDOF 10
ENDMDL
MODEL 8
REMARK VINA RESULT:    -3.508      9.679     11.020
REMARK INTER + INTRA:          -6.794
REMARK INTER:                  -5.455
REMARK INTRA:                  -1.338
REMARK UNBOUND:                -1.235
REMARK SMILES CCCCCCCCCCCC(=O)[O-]
REMARK SMILES IDX 7 1 8 2 9 3 10 4 11 5 12 6 13 7 14 8 6 9 5 10 4 11 3 12 2 13
REMARK SMILES IDX 1 14
REMARK H PARENT
REMARK Flexibility Score: inf
ROOT
ATOM      1  C   UNL     1      14.198  41.754  28.904  1.00  0.00     0.000 C 
ENDROOT
BRANCH   1   2
ATOM      2  C   UNL     1      15.655  41.458  29.300  1.00  0.00     0.000 C 
BRANCH   2   3
ATOM      3  C   UNL     1      15.784  40.278  30.279  1.00  0.00     0.000 C 
BRANCH   3   4
ATOM      4  C   UNL     1      16.802  39.196  29.874  1.00  0.00     0.006 C 
BRANCH   4   5
ATOM      5  C   UNL     1      17.758  39.656  28.767  1.00  0.00     0.053 C 
BRANCH   5   6
ATOM      6  C   UNL     1      19.090  38.992  28.916  1.00  0.00     0.041 C 
ATOM      7  O   UNL     1      19.460  38.560  30.039  1.00  0.00    -0.550 OA
ATOM      8  O   UNL     1      19.902  38.805  27.804  1.00  0.00    -0.550 OA
ENDBRANCH   5   6
ENDBRANCH   4   5
ENDBRANCH   3   4
ENDBRANCH   2   3
ENDBRANCH   1   2
BRANCH   1   9
ATOM      9  C   UNL     1      13.767  41.032  27.614  1.00  0.00     0.000 C 
BRANCH   9  10
ATOM     10  C   UNL     1      12.759  39.885  27.809  1.00  0.00    -0.000 C 
BRANCH  10  11
ATOM     11  C   UNL     1      13.148  38.606  27.054  1.00  0.00    -0.000 C 
BRANCH  11  12
ATOM     12  C   UNL     1      14.345  37.917  27.720  1.00  0.00    -0.000 C 
BRANCH  12  13
ATOM     13  C   UNL     1      15.394  37.509  26.678  1.00  0.00    -0.003 C 
ATOM     14  C   UNL     1      15.757  38.682  25.772  1.00  0.00     0.004 C 
ENDBRANCH  12  13
ENDBRANCH  11  12
ENDBRANCH  10  11
ENDBRANCH   9  10
ENDBRANCH   1   9
TORSDOF 10
ENDMDL
MODEL 9
REMARK VINA RESULT:    -3.442      3.219      4.625
REMARK INTER + INTRA:          -6.689
REMARK INTER:                  -5.625
REMARK INTRA:                  -1.064
REMARK UNBOUND:                -1.235
REMARK SMILES CCCCCCCCCCCC(=O)[O-]
REMARK SMILES IDX 7 1 8 2 9 3 10 4 11 5 12 6 13 7 14 8 6 9 5 10 4 11 3 12 2 13
REMARK SMILES IDX 1 14
REMARK H PARENT
REMARK Flexibility Score: inf
ROOT
ATOM      1  C   UNL     1      18.228  44.250  19.854  1.00  0.00     0.000 C 
ENDROOT
BRANCH   1   2
ATOM      2  C   UNL     1      17.953  45.263  20.979  1.00  0.00     0.000 C 
BRANCH   2   3
ATOM      3  C   UNL     1      17.340  46.579  20.467  1.00  0.00     0.000 C 
BRANCH   3   4
ATOM      4  C   UNL     1      18.067  47.860  20.916  1.00  0.00     0.006 C 
BRANCH   4   5
ATOM      5  C   UNL     1      19.419  48.059  20.221  1.00  0.00     0.053 C 
BRANCH   5   6
ATOM      6  C   UNL     1      20.176  49.180  20.859  1.00  0.00     0.041 C 
ATOM      7  O   UNL     1      20.012  49.440  22.081  1.00  0.00    -0.550 OA
ATOM      8  O   UNL     1      21.099  49.906  20.118  1.00  0.00    -0.550 OA
ENDBRANCH   5   6
ENDBRANCH   4   5
ENDBRANCH   3   4
ENDBRANCH   2   3
ENDBRANCH   1   2
BRANCH   1   9
ATOM      9  C   UNL     1      16.974  43.919  19.023  1.00  0.00     0.000 C 
BRANCH   9  10
ATOM     10  C   UNL     1      15.845  43.211  19.793  1.00  0.00    -0.000 C 
BRANCH  10  11
ATOM     11  C   UNL     1      14.459  43.812  19.520  1.00  0.00    -0.000 C 
BRANCH  11  12
ATOM     12  C   UNL     1      14.036  44.756  20.651  1.00  0.00    -0.000 C 
BRANCH  12  13
ATOM     13  C   UNL     1      13.756  46.166  20.116  1.00  0.00    -0.003 C 
ATOM     14  C   UNL     1      13.857  46.208  18.595  1.00  0.00     0.004 C 
ENDBRANCH  12  13
ENDBRANCH  11  12
ENDBRANCH  10  11
ENDBRANCH   9  10
ENDBRANCH   1   9
TORSDOF 10
ENDMDL
