MODEL 1
REMARK VINA RESULT:    -0.782      0.000      0.000
REMARK INTER + INTRA:          -0.534
REMARK INTER:                  -0.942
REMARK INTRA:                   0.408
REMARK UNBOUND:                 0.408
REMARK SMILES Oc1cc(O)c2cc(O)c(-c3ccc(O)c(O)c3)[o+]c2c1.[Cl-]
REMARK SMILES IDX 10 1 19 2 20 3 21 4 2 5 3 6 4 7 6 8 7 9 8 10 11 11 12 12
REMARK SMILES IDX 13 13 14 14 18 15 16 16 15 17 17 19 9 21 1 23 5 25
REMARK H PARENT 15 18 17 20 9 22 1 24 5 26
REMARK Flexibility Score: inf
ROOT
ATOM      1  C   UNL     1      -9.112 -17.897  -1.885  1.00  0.00     0.402 A 
ATOM      2  O   UNL     1      -8.820 -18.773  -0.927  1.00  0.00    -0.202 OA
ATOM      3  C   UNL     1      -9.019 -20.082  -1.049  1.00  0.00     0.368 A 
ATOM      4  C   UNL     1      -8.677 -20.923   0.013  1.00  0.00     0.162 A 
ATOM      5  C   UNL     1      -8.873 -22.300  -0.088  1.00  0.00     0.128 A 
ATOM      6  C   UNL     1      -9.413 -22.843  -1.260  1.00  0.00     0.093 A 
ATOM      7  C   UNL     1      -9.763 -22.022  -2.338  1.00  0.00     0.136 A 
ATOM      8  C   UNL     1      -9.568 -20.620  -2.238  1.00  0.00     0.125 A 
ATOM      9  C   UNL     1      -9.902 -19.718  -3.261  1.00  0.00     0.078 A 
ATOM     10  C   UNL     1      -9.685 -18.348  -3.088  1.00  0.00     0.223 A 
ENDROOT
BRANCH   1  11
ATOM     11  C   UNL     1      -8.833 -16.465  -1.632  1.00  0.00     0.087 A 
ATOM     12  C   UNL     1      -8.322 -16.071  -0.386  1.00  0.00     0.022 A 
ATOM     13  C   UNL     1      -8.033 -14.727  -0.133  1.00  0.00     0.051 A 
ATOM     14  C   UNL     1      -8.237 -13.761  -1.122  1.00  0.00     0.157 A 
ATOM     15  C   UNL     1      -9.018 -15.494  -2.634  1.00  0.00     0.068 A 
ATOM     16  C   UNL     1      -8.727 -14.146  -2.382  1.00  0.00     0.158 A 
BRANCH  14  17
ATOM     17  O   UNL     1      -7.942 -12.428  -0.839  1.00  0.00    -0.504 OA
ATOM     18  H   UNL     1      -7.231 -11.915  -1.345  1.00  0.00     0.293 HD
ENDBRANCH  14  17
BRANCH  16  19
ATOM     19  O   UNL     1      -8.919 -13.189  -3.377  1.00  0.00    -0.504 OA
ATOM     20  H   UNL     1      -8.944 -13.442  -4.358  1.00  0.00     0.293 HD
ENDBRANCH  16  19
ENDBRANCH   1  11
BRANCH  10  21
ATOM     21  O   UNL     1     -10.063 -17.449  -4.085  1.00  0.00    -0.500 OA
ATOM     22  H   UNL     1      -9.870 -16.457  -4.009  1.00  0.00     0.294 HD
ENDBRANCH  10  21
BRANCH   5  23
ATOM     23  O   UNL     1      -8.527 -23.123   0.982  1.00  0.00    -0.507 OA
ATOM     24  H   UNL     1      -8.789 -24.102   1.004  1.00  0.00     0.293 HD
ENDBRANCH   5  23
BRANCH   7  25
ATOM     25  O   UNL     1     -10.293 -22.640  -3.473  1.00  0.00    -0.507 OA
ATOM     26  H   UNL     1     -10.604 -22.149  -4.299  1.00  0.00     0.293 HD
ENDBRANCH   7  25
TORSDOF 6
ENDMDL
MODEL 2
REMARK VINA RESULT:     1.987     11.960     14.316
REMARK INTER + INTRA:           2.802
REMARK INTER:                   2.532
REMARK INTRA:                   0.269
REMARK UNBOUND:                 0.408
REMARK SMILES Oc1cc(O)c2cc(O)c(-c3ccc(O)c(O)c3)[o+]c2c1.[Cl-]
REMARK SMILES IDX 10 1 19 2 20 3 21 4 2 5 3 6 4 7 6 8 7 9 8 10 11 11 12 12
REMARK SMILES IDX 13 13 14 14 18 15 16 16 15 17 17 19 9 21 1 23 5 25
REMARK H PARENT 15 18 17 20 9 22 1 24 5 26
REMARK Flexibility Score: inf
ROOT
ATOM      1  C   UNL     1      -9.042 -19.324  11.081  1.00  0.00     0.402 A 
ATOM      2  O   UNL     1      -9.620 -20.173  11.925  1.00  0.00    -0.202 OA
ATOM      3  C   UNL     1      -9.932 -19.859  13.179  1.00  0.00     0.368 A 
ATOM      4  C   UNL     1     -10.541 -20.821  13.989  1.00  0.00     0.162 A 
ATOM      5  C   UNL     1     -10.882 -20.517  15.308  1.00  0.00     0.128 A 
ATOM      6  C   UNL     1     -10.613 -19.243  15.821  1.00  0.00     0.093 A 
ATOM      7  C   UNL     1     -10.003 -18.263  15.030  1.00  0.00     0.136 A 
ATOM      8  C   UNL     1      -9.653 -18.568  13.689  1.00  0.00     0.125 A 
ATOM      9  C   UNL     1      -9.027 -17.654  12.826  1.00  0.00     0.078 A 
ATOM     10  C   UNL     1      -8.708 -18.029  11.518  1.00  0.00     0.223 A 
ENDROOT
BRANCH   1  11
ATOM     11  C   UNL     1      -8.754 -19.790   9.705  1.00  0.00     0.087 A 
ATOM     12  C   UNL     1      -8.721 -18.861   8.654  1.00  0.00     0.022 A 
ATOM     13  C   UNL     1      -8.432 -19.276   7.351  1.00  0.00     0.051 A 
ATOM     14  C   UNL     1      -8.158 -20.620   7.082  1.00  0.00     0.157 A 
ATOM     15  C   UNL     1      -8.457 -21.138   9.436  1.00  0.00     0.068 A 
ATOM     16  C   UNL     1      -8.165 -21.557   8.129  1.00  0.00     0.158 A 
BRANCH  14  17
ATOM     17  O   UNL     1      -7.875 -21.005   5.772  1.00  0.00    -0.504 OA
ATOM     18  H   UNL     1      -6.928 -21.052   5.417  1.00  0.00     0.293 HD
ENDBRANCH  14  17
BRANCH  16  19
ATOM     19  O   UNL     1      -7.878 -22.895   7.869  1.00  0.00    -0.504 OA
ATOM     20  H   UNL     1      -7.947 -23.603   8.592  1.00  0.00     0.293 HD
ENDBRANCH  16  19
ENDBRANCH   1  11
BRANCH  10  21
ATOM     21  O   UNL     1      -8.042 -17.137  10.677  1.00  0.00    -0.500 OA
ATOM     22  H   UNL     1      -7.655 -16.266  11.023  1.00  0.00     0.294 HD
ENDBRANCH  10  21
BRANCH   5  23
ATOM     23  O   UNL     1     -11.488 -21.489  16.100  1.00  0.00    -0.507 OA
ATOM     24  H   UNL     1     -11.580 -21.373  17.104  1.00  0.00     0.293 HD
ENDBRANCH   5  23
BRANCH   7  25
ATOM     25  O   UNL     1      -9.771 -17.015  15.615  1.00  0.00    -0.507 OA
ATOM     26  H   UNL     1     -10.170 -16.713  16.492  1.00  0.00     0.293 HD
ENDBRANCH   7  25
TORSDOF 6
ENDMDL
