MODEL 1
REMARK VINA RESULT:    -5.967      0.000      0.000
REMARK INTER + INTRA:         -17.452
REMARK INTER:                 -13.641
REMARK INTRA:                  -3.811
REMARK UNBOUND:                -3.811
REMARK SMILES CCCCCCCCCCCCCCCCCCCCCCCC(=O)[O-]
REMARK SMILES IDX 13 1 14 2 15 3 16 4 17 5 18 6 19 7 20 8 21 9 22 10 23 11
REMARK SMILES IDX 24 12 25 13 26 14 12 15 11 16 10 17 9 18 8 19 7 20 6 21 5 22
REMARK SMILES IDX 4 23 3 24 2 25 1 26
REMARK H PARENT
REMARK Flexibility Score: inf
ROOT
ATOM      1  C   UNL     1      62.524   1.298  19.873  1.00  0.00     0.000 C 
ENDROOT
BRANCH   1   2
ATOM      2  C   UNL     1      63.370   2.473  19.353  1.00  0.00     0.000 C 
BRANCH   2   3
ATOM      3  C   UNL     1      64.840   2.085  19.117  1.00  0.00     0.000 C 
BRANCH   3   4
ATOM      4  C   UNL     1      65.731   3.293  18.773  1.00  0.00     0.000 C 
BRANCH   4   5
ATOM      5  C   UNL     1      65.960   4.293  19.921  1.00  0.00     0.000 C 
BRANCH   5   6
ATOM      6  C   UNL     1      65.157   5.594  19.751  1.00  0.00     0.000 C 
BRANCH   6   7
ATOM      7  C   UNL     1      65.720   6.761  20.584  1.00  0.00     0.000 C 
BRANCH   7   8
ATOM      8  C   UNL     1      67.116   6.525  21.188  1.00  0.00     0.000 C 
BRANCH   8   9
ATOM      9  C   UNL     1      67.598   7.691  22.069  1.00  0.00     0.000 C 
BRANCH   9  10
ATOM     10  C   UNL     1      69.051   7.506  22.550  1.00  0.00     0.006 C 
BRANCH  10  11
ATOM     11  C   UNL     1      69.907   8.776  22.422  1.00  0.00     0.053 C 
BRANCH  11  12
ATOM     12  C   UNL     1      71.265   8.493  21.860  1.00  0.00     0.041 C 
ATOM     13  O   UNL     1      71.466   8.565  20.620  1.00  0.00    -0.550 OA
ATOM     14  O   UNL     1      72.315   8.170  22.711  1.00  0.00    -0.550 OA
ENDBRANCH  11  12
ENDBRANCH  10  11
ENDBRANCH   9  10
ENDBRANCH   8   9
ENDBRANCH   7   8
ENDBRANCH   6   7
ENDBRANCH   5   6
ENDBRANCH   4   5
ENDBRANCH   3   4
ENDBRANCH   2   3
ENDBRANCH   1   2
BRANCH   1  15
ATOM     15  C   UNL     1      61.076   1.703  20.194  1.00  0.00     0.000 C 
BRANCH  15  16
ATOM     16  C   UNL     1      60.972   3.217  20.437  1.00  0.00     0.000 C 
BRANCH  16  17
ATOM     17  C   UNL     1      61.200   3.602  21.907  1.00  0.00     0.000 C 
BRANCH  17  18
ATOM     18  C   UNL     1      62.227   4.736  22.071  1.00  0.00    -0.000 C 
BRANCH  18  19
ATOM     19  C   UNL     1      63.536   4.258  22.719  1.00  0.00    -0.000 C 
BRANCH  19  20
ATOM     20  C   UNL     1      63.472   2.794  23.182  1.00  0.00    -0.000 C 
BRANCH  20  21
ATOM     21  C   UNL     1      64.770   2.054  22.841  1.00  0.00    -0.000 C 
BRANCH  21  22
ATOM     22  C   UNL     1      65.859   2.340  23.886  1.00  0.00    -0.000 C 
BRANCH  22  23
ATOM     23  C   UNL     1      67.136   2.932  23.251  1.00  0.00    -0.000 C 
BRANCH  23  24
ATOM     24  C   UNL     1      67.644   4.202  23.959  1.00  0.00    -0.000 C 
BRANCH  24  25
ATOM     25  C   UNL     1      66.563   4.985  24.724  1.00  0.00    -0.003 C 
ATOM     26  C   UNL     1      66.806   5.011  26.233  1.00  0.00     0.004 C 
ENDBRANCH  24  25
ENDBRANCH  23  24
ENDBRANCH  22  23
ENDBRANCH  21  22
ENDBRANCH  20  21
ENDBRANCH  19  20
ENDBRANCH  18  19
ENDBRANCH  17  18
ENDBRANCH  16  17
ENDBRANCH  15  16
ENDBRANCH   1  15
TORSDOF 22
ENDMDL
MODEL 2
REMARK VINA RESULT:    -5.861      2.078      2.353
REMARK INTER + INTRA:         -17.209
REMARK INTER:                 -13.550
REMARK INTRA:                  -3.659
REMARK UNBOUND:                -3.811
REMARK SMILES CCCCCCCCCCCCCCCCCCCCCCCC(=O)[O-]
REMARK SMILES IDX 13 1 14 2 15 3 16 4 17 5 18 6 19 7 20 8 21 9 22 10 23 11
REMARK SMILES IDX 24 12 25 13 26 14 12 15 11 16 10 17 9 18 8 19 7 20 6 21 5 22
REMARK SMILES IDX 4 23 3 24 2 25 1 26
REMARK H PARENT
REMARK Flexibility Score: inf
ROOT
ATOM      1  C   UNL     1      62.842   1.380  19.811  1.00  0.00     0.000 C 
ENDROOT
BRANCH   1   2
ATOM      2  C   UNL     1      63.597   2.628  19.324  1.00  0.00     0.000 C 
BRANCH   2   3
ATOM      3  C   UNL     1      65.074   2.339  19.004  1.00  0.00     0.000 C 
BRANCH   3   4
ATOM      4  C   UNL     1      65.925   3.618  18.888  1.00  0.00     0.000 C 
BRANCH   4   5
ATOM      5  C   UNL     1      65.974   4.494  20.153  1.00  0.00     0.000 C 
BRANCH   5   6
ATOM      6  C   UNL     1      65.241   5.836  19.982  1.00  0.00     0.000 C 
BRANCH   6   7
ATOM      7  C   UNL     1      65.993   7.018  20.621  1.00  0.00     0.000 C 
BRANCH   7   8
ATOM      8  C   UNL     1      67.326   6.660  21.302  1.00  0.00     0.000 C 
BRANCH   8   9
ATOM      9  C   UNL     1      67.875   7.791  22.187  1.00  0.00     0.000 C 
BRANCH   9  10
ATOM     10  C   UNL     1      67.710   9.181  21.538  1.00  0.00     0.006 C 
BRANCH  10  11
ATOM     11  C   UNL     1      67.205  10.257  22.511  1.00  0.00     0.053 C 
BRANCH  11  12
ATOM     12  C   UNL     1      66.367  11.292  21.829  1.00  0.00     0.041 C 
ATOM     13  O   UNL     1      65.314  10.960  21.227  1.00  0.00    -0.550 OA
ATOM     14  O   UNL     1      66.741  12.630  21.879  1.00  0.00    -0.550 OA
ENDBRANCH  11  12
ENDBRANCH  10  11
ENDBRANCH   9  10
ENDBRANCH   8   9
ENDBRANCH   7   8
ENDBRANCH   6   7
ENDBRANCH   5   6
ENDBRANCH   4   5
ENDBRANCH   3   4
ENDBRANCH   2   3
ENDBRANCH   1   2
BRANCH   1  15
ATOM     15  C   UNL     1      61.360   1.660  20.110  1.00  0.00     0.000 C 
BRANCH  15  16
ATOM     16  C   UNL     1      61.120   3.162  20.329  1.00  0.00     0.000 C 
BRANCH  16  17
ATOM     17  C   UNL     1      61.172   3.564  21.812  1.00  0.00     0.000 C 
BRANCH  17  18
ATOM     18  C   UNL     1      62.211   4.664  22.092  1.00  0.00    -0.000 C 
BRANCH  18  19
ATOM     19  C   UNL     1      63.483   4.118  22.760  1.00  0.00    -0.000 C 
BRANCH  19  20
ATOM     20  C   UNL     1      63.329   2.665  23.236  1.00  0.00    -0.000 C 
BRANCH  20  21
ATOM     21  C   UNL     1      64.627   1.878  23.021  1.00  0.00    -0.000 C 
BRANCH  21  22
ATOM     22  C   UNL     1      65.714   2.326  24.010  1.00  0.00    -0.000 C 
BRANCH  22  23
ATOM     23  C   UNL     1      66.967   2.873  23.292  1.00  0.00    -0.000 C 
BRANCH  23  24
ATOM     24  C   UNL     1      67.547   4.140  23.946  1.00  0.00    -0.000 C 
BRANCH  24  25
ATOM     25  C   UNL     1      66.524   4.988  24.719  1.00  0.00    -0.003 C 
ATOM     26  C   UNL     1      66.804   5.034  26.222  1.00  0.00     0.004 C 
ENDBRANCH  24  25
ENDBRANCH  23  24
ENDBRANCH  22  23
ENDBRANCH  21  22
ENDBRANCH  20  21
ENDBRANCH  19  20
ENDBRANCH  18  19
ENDBRANCH  17  18
ENDBRANCH  16  17
ENDBRANCH  15  16
ENDBRANCH   1  15
TORSDOF 22
ENDMDL
MODEL 3
REMARK VINA RESULT:    -5.777      7.174     12.175
REMARK INTER + INTRA:         -17.018
REMARK INTER:                 -13.034
REMARK INTRA:                  -3.984
REMARK UNBOUND:                -3.811
REMARK SMILES CCCCCCCCCCCCCCCCCCCCCCCC(=O)[O-]
REMARK SMILES IDX 13 1 14 2 15 3 16 4 17 5 18 6 19 7 20 8 21 9 22 10 23 11
REMARK SMILES IDX 24 12 25 13 26 14 12 15 11 16 10 17 9 18 8 19 7 20 6 21 5 22
REMARK SMILES IDX 4 23 3 24 2 25 1 26
REMARK H PARENT
REMARK Flexibility Score: inf
ROOT
ATOM      1  C   UNL     1      78.366   5.994  21.086  1.00  0.00     0.000 C 
ENDROOT
BRANCH   1   2
ATOM      2  C   UNL     1      78.962   4.746  21.757  1.00  0.00     0.000 C 
BRANCH   2   3
ATOM      3  C   UNL     1      78.190   3.462  21.412  1.00  0.00     0.000 C 
BRANCH   3   4
ATOM      4  C   UNL     1      77.209   3.034  22.519  1.00  0.00     0.000 C 
BRANCH   4   5
ATOM      5  C   UNL     1      75.746   2.858  22.073  1.00  0.00     0.000 C 
BRANCH   5   6
ATOM      6  C   UNL     1      75.326   3.863  20.986  1.00  0.00     0.000 C 
BRANCH   6   7
ATOM      7  C   UNL     1      74.806   5.193  21.566  1.00  0.00     0.000 C 
BRANCH   7   8
ATOM      8  C   UNL     1      74.465   6.275  20.526  1.00  0.00     0.000 C 
BRANCH   8   9
ATOM      9  C   UNL     1      74.303   7.675  21.143  1.00  0.00     0.000 C 
BRANCH   9  10
ATOM     10  C   UNL     1      72.948   8.321  20.790  1.00  0.00     0.006 C 
BRANCH  10  11
ATOM     11  C   UNL     1      72.197   7.597  19.662  1.00  0.00     0.053 C 
BRANCH  11  12
ATOM     12  C   UNL     1      70.924   6.971  20.136  1.00  0.00     0.041 C 
ATOM     13  O   UNL     1      69.849   7.624  20.116  1.00  0.00    -0.550 OA
ATOM     14  O   UNL     1      70.922   5.654  20.581  1.00  0.00    -0.550 OA
ENDBRANCH  11  12
ENDBRANCH  10  11
ENDBRANCH   9  10
ENDBRANCH   8   9
ENDBRANCH   7   8
ENDBRANCH   6   7
ENDBRANCH   5   6
ENDBRANCH   4   5
ENDBRANCH   3   4
ENDBRANCH   2   3
ENDBRANCH   1   2
BRANCH   1  15
ATOM     15  C   UNL     1      77.944   7.071  22.100  1.00  0.00     0.000 C 
BRANCH  15  16
ATOM     16  C   UNL     1      78.148   6.576  23.540  1.00  0.00     0.000 C 
BRANCH  16  17
ATOM     17  C   UNL     1      76.851   6.586  24.364  1.00  0.00     0.000 C 
BRANCH  17  18
ATOM     18  C   UNL     1      76.958   7.459  25.627  1.00  0.00    -0.000 C 
BRANCH  18  19
ATOM     19  C   UNL     1      75.719   8.343  25.840  1.00  0.00    -0.000 C 
BRANCH  19  20
ATOM     20  C   UNL     1      74.964   8.635  24.534  1.00  0.00    -0.000 C 
BRANCH  20  21
ATOM     21  C   UNL     1      75.497   9.908  23.866  1.00  0.00    -0.000 C 
BRANCH  21  22
ATOM     22  C   UNL     1      75.962  10.928  24.916  1.00  0.00    -0.000 C 
BRANCH  22  23
ATOM     23  C   UNL     1      77.343  11.529  24.574  1.00  0.00    -0.000 C 
BRANCH  23  24
ATOM     24  C   UNL     1      78.414  10.468  24.256  1.00  0.00    -0.000 C 
BRANCH  24  25
ATOM     25  C   UNL     1      79.594  10.434  25.241  1.00  0.00    -0.003 C 
ATOM     26  C   UNL     1      79.150  10.260  26.694  1.00  0.00     0.004 C 
ENDBRANCH  24  25
ENDBRANCH  23  24
ENDBRANCH  22  23
ENDBRANCH  21  22
ENDBRANCH  20  21
ENDBRANCH  19  20
ENDBRANCH  18  19
ENDBRANCH  17  18
ENDBRANCH  16  17
ENDBRANCH  15  16
ENDBRANCH   1  15
TORSDOF 22
ENDMDL
MODEL 4
REMARK VINA RESULT:    -5.757      2.209      3.472
REMARK INTER + INTRA:         -16.972
REMARK INTER:                 -12.970
REMARK INTRA:                  -4.002
REMARK UNBOUND:                -3.811
REMARK SMILES CCCCCCCCCCCCCCCCCCCCCCCC(=O)[O-]
REMARK SMILES IDX 13 1 14 2 15 3 16 4 17 5 18 6 19 7 20 8 21 9 22 10 23 11
REMARK SMILES IDX 24 12 25 13 26 14 12 15 11 16 10 17 9 18 8 19 7 20 6 21 5 22
REMARK SMILES IDX 4 23 3 24 2 25 1 26
REMARK H PARENT
REMARK Flexibility Score: inf
ROOT
ATOM      1  C   UNL     1      64.263   3.156  19.021  1.00  0.00     0.000 C 
ENDROOT
BRANCH   1   2
ATOM      2  C   UNL     1      65.728   3.614  18.929  1.00  0.00     0.000 C 
BRANCH   2   3
ATOM      3  C   UNL     1      66.245   4.217  20.247  1.00  0.00     0.000 C 
BRANCH   3   4
ATOM      4  C   UNL     1      65.742   5.653  20.488  1.00  0.00     0.000 C 
BRANCH   4   5
ATOM      5  C   UNL     1      66.557   6.474  21.504  1.00  0.00     0.000 C 
BRANCH   5   6
ATOM      6  C   UNL     1      67.998   6.746  21.037  1.00  0.00     0.000 C 
BRANCH   6   7
ATOM      7  C   UNL     1      68.913   7.246  22.171  1.00  0.00     0.000 C 
BRANCH   7   8
ATOM      8  C   UNL     1      69.131   8.769  22.217  1.00  0.00     0.000 C 
BRANCH   8   9
ATOM      9  C   UNL     1      67.876   9.545  22.651  1.00  0.00     0.000 C 
BRANCH   9  10
ATOM     10  C   UNL     1      67.271  10.378  21.502  1.00  0.00     0.006 C 
BRANCH  10  11
ATOM     11  C   UNL     1      65.786  10.080  21.245  1.00  0.00     0.053 C 
BRANCH  11  12
ATOM     12  C   UNL     1      65.508   9.770  19.808  1.00  0.00     0.041 C 
ATOM     13  O   UNL     1      64.387  10.039  19.305  1.00  0.00    -0.550 OA
ATOM     14  O   UNL     1      66.500   9.203  19.017  1.00  0.00    -0.550 OA
ENDBRANCH  11  12
ENDBRANCH  10  11
ENDBRANCH   9  10
ENDBRANCH   8   9
ENDBRANCH   7   8
ENDBRANCH   6   7
ENDBRANCH   5   6
ENDBRANCH   4   5
ENDBRANCH   3   4
ENDBRANCH   2   3
ENDBRANCH   1   2
BRANCH   1  15
ATOM     15  C   UNL     1      64.105   1.808  19.743  1.00  0.00     0.000 C 
BRANCH  15  16
ATOM     16  C   UNL     1      62.623   1.418  19.855  1.00  0.00     0.000 C 
BRANCH  16  17
ATOM     17  C   UNL     1      61.674   2.602  19.614  1.00  0.00     0.000 C 
BRANCH  17  18
ATOM     18  C   UNL     1      60.995   3.089  20.906  1.00  0.00    -0.000 C 
BRANCH  18  19
ATOM     19  C   UNL     1      61.763   4.236  21.581  1.00  0.00    -0.000 C 
BRANCH  19  20
ATOM     20  C   UNL     1      62.283   3.864  22.978  1.00  0.00    -0.000 C 
BRANCH  20  21
ATOM     21  C   UNL     1      63.814   3.928  23.027  1.00  0.00    -0.000 C 
BRANCH  21  22
ATOM     22  C   UNL     1      64.416   2.535  23.273  1.00  0.00    -0.000 C 
BRANCH  22  23
ATOM     23  C   UNL     1      65.907   2.606  23.670  1.00  0.00    -0.000 C 
BRANCH  23  24
ATOM     24  C   UNL     1      66.331   3.977  24.228  1.00  0.00    -0.000 C 
BRANCH  24  25
ATOM     25  C   UNL     1      67.844   4.248  24.182  1.00  0.00    -0.003 C 
ATOM     26  C   UNL     1      68.563   3.418  23.117  1.00  0.00     0.004 C 
ENDBRANCH  24  25
ENDBRANCH  23  24
ENDBRANCH  22  23
ENDBRANCH  21  22
ENDBRANCH  20  21
ENDBRANCH  19  20
ENDBRANCH  18  19
ENDBRANCH  17  18
ENDBRANCH  16  17
ENDBRANCH  15  16
ENDBRANCH   1  15
TORSDOF 22
ENDMDL
MODEL 5
REMARK VINA RESULT:    -5.702      4.410      7.594
REMARK INTER + INTRA:         -16.847
REMARK INTER:                 -13.961
REMARK INTRA:                  -2.886
REMARK UNBOUND:                -3.811
REMARK SMILES CCCCCCCCCCCCCCCCCCCCCCCC(=O)[O-]
REMARK SMILES IDX 13 1 14 2 15 3 16 4 17 5 18 6 19 7 20 8 21 9 22 10 23 11
REMARK SMILES IDX 24 12 25 13 26 14 12 15 11 16 10 17 9 18 8 19 7 20 6 21 5 22
REMARK SMILES IDX 4 23 3 24 2 25 1 26
REMARK H PARENT
REMARK Flexibility Score: inf
ROOT
ATOM      1  C   UNL     1      65.947   4.965  20.171  1.00  0.00     0.000 C 
ENDROOT
BRANCH   1   2
ATOM      2  C   UNL     1      65.000   4.614  19.012  1.00  0.00     0.000 C 
BRANCH   2   3
ATOM      3  C   UNL     1      65.096   3.137  18.594  1.00  0.00     0.000 C 
BRANCH   3   4
ATOM      4  C   UNL     1      64.570   2.172  19.673  1.00  0.00     0.000 C 
BRANCH   4   5
ATOM      5  C   UNL     1      63.464   1.205  19.210  1.00  0.00     0.000 C 
BRANCH   5   6
ATOM      6  C   UNL     1      62.106   1.488  19.874  1.00  0.00     0.000 C 
BRANCH   6   7
ATOM      7  C   UNL     1      61.631   2.941  19.678  1.00  0.00     0.000 C 
BRANCH   7   8
ATOM      8  C   UNL     1      61.181   3.665  20.959  1.00  0.00     0.000 C 
BRANCH   8   9
ATOM      9  C   UNL     1      62.343   4.333  21.714  1.00  0.00     0.000 C 
BRANCH   9  10
ATOM     10  C   UNL     1      62.918   3.434  22.827  1.00  0.00     0.006 C 
BRANCH  10  11
ATOM     11  C   UNL     1      64.340   3.824  23.259  1.00  0.00     0.053 C 
BRANCH  11  12
ATOM     12  C   UNL     1      65.270   2.651  23.281  1.00  0.00     0.041 C 
ATOM     13  O   UNL     1      64.817   1.480  23.199  1.00  0.00    -0.550 OA
ATOM     14  O   UNL     1      66.641   2.855  23.369  1.00  0.00    -0.550 OA
ENDBRANCH  11  12
ENDBRANCH  10  11
ENDBRANCH   9  10
ENDBRANCH   8   9
ENDBRANCH   7   8
ENDBRANCH   6   7
ENDBRANCH   5   6
ENDBRANCH   4   5
ENDBRANCH   3   4
ENDBRANCH   2   3
ENDBRANCH   1   2
BRANCH   1  15
ATOM     15  C   UNL     1      65.536   6.250  20.909  1.00  0.00     0.000 C 
BRANCH  15  16
ATOM     16  C   UNL     1      65.429   7.431  19.933  1.00  0.00     0.000 C 
BRANCH  16  17
ATOM     17  C   UNL     1      66.033   8.727  20.497  1.00  0.00     0.000 C 
BRANCH  17  18
ATOM     18  C   UNL     1      65.186   9.968  20.167  1.00  0.00    -0.000 C 
BRANCH  18  19
ATOM     19  C   UNL     1      63.678   9.673  20.176  1.00  0.00    -0.000 C 
BRANCH  19  20
ATOM     20  C   UNL     1      62.889  10.632  21.081  1.00  0.00    -0.000 C 
BRANCH  20  21
ATOM     21  C   UNL     1      63.780  11.190  22.197  1.00  0.00    -0.000 C 
BRANCH  21  22
ATOM     22  C   UNL     1      63.181  12.474  22.791  1.00  0.00    -0.000 C 
BRANCH  22  23
ATOM     23  C   UNL     1      63.528  13.723  21.952  1.00  0.00    -0.000 C 
BRANCH  23  24
ATOM     24  C   UNL     1      64.930  13.668  21.318  1.00  0.00    -0.000 C 
BRANCH  24  25
ATOM     25  C   UNL     1      64.942  13.742  19.782  1.00  0.00    -0.003 C 
ATOM     26  C   UNL     1      65.337  15.123  19.258  1.00  0.00     0.004 C 
ENDBRANCH  24  25
ENDBRANCH  23  24
ENDBRANCH  22  23
ENDBRANCH  21  22
ENDBRANCH  20  21
ENDBRANCH  19  20
ENDBRANCH  18  19
ENDBRANCH  17  18
ENDBRANCH  16  17
ENDBRANCH  15  16
ENDBRANCH   1  15
TORSDOF 22
ENDMDL
MODEL 6
REMARK VINA RESULT:    -5.666      3.381      4.598
REMARK INTER + INTRA:         -16.763
REMARK INTER:                 -13.440
REMARK INTRA:                  -3.323
REMARK UNBOUND:                -3.811
REMARK SMILES CCCCCCCCCCCCCCCCCCCCCCCC(=O)[O-]
REMARK SMILES IDX 13 1 14 2 15 3 16 4 17 5 18 6 19 7 20 8 21 9 22 10 23 11
REMARK SMILES IDX 24 12 25 13 26 14 12 15 11 16 10 17 9 18 8 19 7 20 6 21 5 22
REMARK SMILES IDX 4 23 3 24 2 25 1 26
REMARK H PARENT
REMARK Flexibility Score: inf
ROOT
ATOM      1  C   UNL     1      65.388   3.029  18.847  1.00  0.00     0.000 C 
ENDROOT
BRANCH   1   2
ATOM      2  C   UNL     1      66.109   4.010  19.786  1.00  0.00     0.000 C 
BRANCH   2   3
ATOM      3  C   UNL     1      65.189   5.136  20.287  1.00  0.00     0.000 C 
BRANCH   3   4
ATOM      4  C   UNL     1      65.803   5.943  21.446  1.00  0.00     0.000 C 
BRANCH   4   5
ATOM      5  C   UNL     1      67.107   6.691  21.111  1.00  0.00     0.000 C 
BRANCH   5   6
ATOM      6  C   UNL     1      66.948   8.220  21.154  1.00  0.00     0.000 C 
BRANCH   6   7
ATOM      7  C   UNL     1      66.844   8.854  19.754  1.00  0.00     0.000 C 
BRANCH   7   8
ATOM      8  C   UNL     1      65.435   8.858  19.136  1.00  0.00     0.000 C 
BRANCH   8   9
ATOM      9  C   UNL     1      64.363   9.429  20.080  1.00  0.00     0.000 C 
BRANCH   9  10
ATOM     10  C   UNL     1      64.471  10.959  20.239  1.00  0.00     0.006 C 
BRANCH  10  11
ATOM     11  C   UNL     1      64.024  11.467  21.619  1.00  0.00     0.053 C 
BRANCH  11  12
ATOM     12  C   UNL     1      63.756  12.939  21.623  1.00  0.00     0.041 C 
ATOM     13  O   UNL     1      63.122  13.466  22.574  1.00  0.00    -0.550 OA
ATOM     14  O   UNL     1      64.229  13.733  20.586  1.00  0.00    -0.550 OA
ENDBRANCH  11  12
ENDBRANCH  10  11
ENDBRANCH   9  10
ENDBRANCH   8   9
ENDBRANCH   7   8
ENDBRANCH   6   7
ENDBRANCH   5   6
ENDBRANCH   4   5
ENDBRANCH   3   4
ENDBRANCH   2   3
ENDBRANCH   1   2
BRANCH   1  15
ATOM     15  C   UNL     1      63.866   3.006  19.066  1.00  0.00     0.000 C 
BRANCH  15  16
ATOM     16  C   UNL     1      63.378   1.580  19.364  1.00  0.00     0.000 C 
BRANCH  16  17
ATOM     17  C   UNL     1      61.913   1.535  19.826  1.00  0.00     0.000 C 
BRANCH  17  18
ATOM     18  C   UNL     1      61.286   2.935  19.943  1.00  0.00    -0.000 C 
BRANCH  18  19
ATOM     19  C   UNL     1      60.896   3.290  21.387  1.00  0.00    -0.000 C 
BRANCH  19  20
ATOM     20  C   UNL     1      61.994   4.068  22.127  1.00  0.00    -0.000 C 
BRANCH  20  21
ATOM     21  C   UNL     1      62.655   3.196  23.200  1.00  0.00    -0.000 C 
BRANCH  21  22
ATOM     22  C   UNL     1      64.020   2.676  22.724  1.00  0.00    -0.000 C 
BRANCH  22  23
ATOM     23  C   UNL     1      64.876   2.131  23.889  1.00  0.00    -0.000 C 
BRANCH  23  24
ATOM     24  C   UNL     1      66.059   3.044  24.262  1.00  0.00    -0.000 C 
BRANCH  24  25
ATOM     25  C   UNL     1      67.248   2.982  23.289  1.00  0.00    -0.003 C 
ATOM     26  C   UNL     1      68.319   4.030  23.593  1.00  0.00     0.004 C 
ENDBRANCH  24  25
ENDBRANCH  23  24
ENDBRANCH  22  23
ENDBRANCH  21  22
ENDBRANCH  20  21
ENDBRANCH  19  20
ENDBRANCH  18  19
ENDBRANCH  17  18
ENDBRANCH  16  17
ENDBRANCH  15  16
ENDBRANCH   1  15
TORSDOF 22
ENDMDL
MODEL 7
REMARK VINA RESULT:    -5.662      3.848      5.310
REMARK INTER + INTRA:         -16.755
REMARK INTER:                 -13.462
REMARK INTRA:                  -3.293
REMARK UNBOUND:                -3.811
REMARK SMILES CCCCCCCCCCCCCCCCCCCCCCCC(=O)[O-]
REMARK SMILES IDX 13 1 14 2 15 3 16 4 17 5 18 6 19 7 20 8 21 9 22 10 23 11
REMARK SMILES IDX 24 12 25 13 26 14 12 15 11 16 10 17 9 18 8 19 7 20 6 21 5 22
REMARK SMILES IDX 4 23 3 24 2 25 1 26
REMARK H PARENT
REMARK Flexibility Score: inf
ROOT
ATOM      1  C   UNL     1      66.423   4.934  20.523  1.00  0.00     0.000 C 
ENDROOT
BRANCH   1   2
ATOM      2  C   UNL     1      66.393   6.204  21.389  1.00  0.00     0.000 C 
BRANCH   2   3
ATOM      3  C   UNL     1      67.483   7.215  20.994  1.00  0.00     0.000 C 
BRANCH   3   4
ATOM      4  C   UNL     1      66.996   8.675  21.048  1.00  0.00     0.000 C 
BRANCH   4   5
ATOM      5  C   UNL     1      66.680   9.315  19.683  1.00  0.00     0.000 C 
BRANCH   5   6
ATOM      6  C   UNL     1      65.312   8.887  19.124  1.00  0.00     0.000 C 
BRANCH   6   7
ATOM      7  C   UNL     1      64.155   9.133  20.110  1.00  0.00     0.000 C 
BRANCH   7   8
ATOM      8  C   UNL     1      63.308  10.388  19.832  1.00  0.00     0.000 C 
BRANCH   8   9
ATOM      9  C   UNL     1      63.780  11.622  20.620  1.00  0.00     0.000 C 
BRANCH   9  10
ATOM     10  C   UNL     1      63.995  11.319  22.117  1.00  0.00     0.006 C 
BRANCH  10  11
ATOM     11  C   UNL     1      62.718  11.454  22.961  1.00  0.00     0.053 C 
BRANCH  11  12
ATOM     12  C   UNL     1      63.002  11.431  24.429  1.00  0.00     0.041 C 
ATOM     13  O   UNL     1      64.123  11.800  24.865  1.00  0.00    -0.550 OA
ATOM     14  O   UNL     1      62.016  11.022  25.320  1.00  0.00    -0.550 OA
ENDBRANCH  11  12
ENDBRANCH  10  11
ENDBRANCH   9  10
ENDBRANCH   8   9
ENDBRANCH   7   8
ENDBRANCH   6   7
ENDBRANCH   5   6
ENDBRANCH   4   5
ENDBRANCH   3   4
ENDBRANCH   2   3
ENDBRANCH   1   2
BRANCH   1  15
ATOM     15  C   UNL     1      65.331   4.926  19.441  1.00  0.00     0.000 C 
BRANCH  15  16
ATOM     16  C   UNL     1      65.390   3.633  18.613  1.00  0.00     0.000 C 
BRANCH  16  17
ATOM     17  C   UNL     1      64.430   2.549  19.129  1.00  0.00     0.000 C 
BRANCH  17  18
ATOM     18  C   UNL     1      63.039   3.107  19.474  1.00  0.00    -0.000 C 
BRANCH  18  19
ATOM     19  C   UNL     1      62.624   2.804  20.923  1.00  0.00    -0.000 C 
BRANCH  19  20
ATOM     20  C   UNL     1      62.625   4.054  21.817  1.00  0.00    -0.000 C 
BRANCH  20  21
ATOM     21  C   UNL     1      63.770   3.998  22.834  1.00  0.00    -0.000 C 
BRANCH  21  22
ATOM     22  C   UNL     1      64.276   2.559  23.017  1.00  0.00    -0.000 C 
BRANCH  22  23
ATOM     23  C   UNL     1      65.467   2.479  23.996  1.00  0.00    -0.000 C 
BRANCH  23  24
ATOM     24  C   UNL     1      66.797   2.963  23.389  1.00  0.00    -0.000 C 
BRANCH  24  25
ATOM     25  C   UNL     1      67.491   4.085  24.179  1.00  0.00    -0.003 C 
ATOM     26  C   UNL     1      66.534   4.841  25.102  1.00  0.00     0.004 C 
ENDBRANCH  24  25
ENDBRANCH  23  24
ENDBRANCH  22  23
ENDBRANCH  21  22
ENDBRANCH  20  21
ENDBRANCH  19  20
ENDBRANCH  18  19
ENDBRANCH  17  18
ENDBRANCH  16  17
ENDBRANCH  15  16
ENDBRANCH   1  15
TORSDOF 22
ENDMDL
MODEL 8
REMARK VINA RESULT:    -5.641      2.776      4.682
REMARK INTER + INTRA:         -16.706
REMARK INTER:                 -13.057
REMARK INTRA:                  -3.649
REMARK UNBOUND:                -3.811
REMARK SMILES CCCCCCCCCCCCCCCCCCCCCCCC(=O)[O-]
REMARK SMILES IDX 13 1 14 2 15 3 16 4 17 5 18 6 19 7 20 8 21 9 22 10 23 11
REMARK SMILES IDX 24 12 25 13 26 14 12 15 11 16 10 17 9 18 8 19 7 20 6 21 5 22
REMARK SMILES IDX 4 23 3 24 2 25 1 26
REMARK H PARENT
REMARK Flexibility Score: inf
ROOT
ATOM      1  C   UNL     1      63.790   3.965  23.141  1.00  0.00     0.000 C 
ENDROOT
BRANCH   1   2
ATOM      2  C   UNL     1      64.468   2.588  23.233  1.00  0.00     0.000 C 
BRANCH   2   3
ATOM      3  C   UNL     1      65.910   2.672  23.762  1.00  0.00     0.000 C 
BRANCH   3   4
ATOM      4  C   UNL     1      66.303   4.090  24.215  1.00  0.00     0.000 C 
BRANCH   4   5
ATOM      5  C   UNL     1      67.809   4.406  24.163  1.00  0.00     0.000 C 
BRANCH   5   6
ATOM      6  C   UNL     1      68.546   3.626  23.060  1.00  0.00     0.000 C 
BRANCH   6   7
ATOM      7  C   UNL     1      70.076   3.789  23.130  1.00  0.00     0.000 C 
BRANCH   7   8
ATOM      8  C   UNL     1      70.635   5.057  22.458  1.00  0.00     0.000 C 
BRANCH   8   9
ATOM      9  C   UNL     1      70.907   4.874  20.955  1.00  0.00     0.000 C 
BRANCH   9  10
ATOM     10  C   UNL     1      72.095   3.929  20.682  1.00  0.00     0.006 C 
BRANCH  10  11
ATOM     11  C   UNL     1      73.368   4.302  21.457  1.00  0.00     0.053 C 
BRANCH  11  12
ATOM     12  C   UNL     1      74.472   3.314  21.248  1.00  0.00     0.041 C 
ATOM     13  O   UNL     1      75.665   3.705  21.160  1.00  0.00    -0.550 OA
ATOM     14  O   UNL     1      74.183   1.957  21.171  1.00  0.00    -0.550 OA
ENDBRANCH  11  12
ENDBRANCH  10  11
ENDBRANCH   9  10
ENDBRANCH   8   9
ENDBRANCH   7   8
ENDBRANCH   6   7
ENDBRANCH   5   6
ENDBRANCH   4   5
ENDBRANCH   3   4
ENDBRANCH   2   3
ENDBRANCH   1   2
BRANCH   1  15
ATOM     15  C   UNL     1      62.273   3.868  22.916  1.00  0.00     0.000 C 
BRANCH  15  16
ATOM     16  C   UNL     1      61.913   4.205  21.460  1.00  0.00     0.000 C 
BRANCH  16  17
ATOM     17  C   UNL     1      61.046   3.124  20.795  1.00  0.00     0.000 C 
BRANCH  17  18
ATOM     18  C   UNL     1      61.726   2.492  19.568  1.00  0.00    -0.000 C 
BRANCH  18  19
ATOM     19  C   UNL     1      62.676   1.344  19.944  1.00  0.00    -0.000 C 
BRANCH  19  20
ATOM     20  C   UNL     1      64.157   1.719  19.778  1.00  0.00    -0.000 C 
BRANCH  20  21
ATOM     21  C   UNL     1      64.321   2.880  18.792  1.00  0.00    -0.000 C 
BRANCH  21  22
ATOM     22  C   UNL     1      65.754   3.436  18.827  1.00  0.00    -0.000 C 
BRANCH  22  23
ATOM     23  C   UNL     1      66.084   4.115  20.174  1.00  0.00    -0.000 C 
BRANCH  23  24
ATOM     24  C   UNL     1      65.363   5.461  20.378  1.00  0.00    -0.000 C 
BRANCH  24  25
ATOM     25  C   UNL     1      66.109   6.458  21.279  1.00  0.00    -0.003 C 
ATOM     26  C   UNL     1      67.601   6.548  20.956  1.00  0.00     0.004 C 
ENDBRANCH  24  25
ENDBRANCH  23  24
ENDBRANCH  22  23
ENDBRANCH  21  22
ENDBRANCH  20  21
ENDBRANCH  19  20
ENDBRANCH  18  19
ENDBRANCH  17  18
ENDBRANCH  16  17
ENDBRANCH  15  16
ENDBRANCH   1  15
TORSDOF 22
ENDMDL
MODEL 9
REMARK VINA RESULT:    -5.630      2.245      4.901
REMARK INTER + INTRA:         -16.682
REMARK INTER:                 -13.429
REMARK INTRA:                  -3.252
REMARK UNBOUND:                -3.811
REMARK SMILES CCCCCCCCCCCCCCCCCCCCCCCC(=O)[O-]
REMARK SMILES IDX 13 1 14 2 15 3 16 4 17 5 18 6 19 7 20 8 21 9 22 10 23 11
REMARK SMILES IDX 24 12 25 13 26 14 12 15 11 16 10 17 9 18 8 19 7 20 6 21 5 22
REMARK SMILES IDX 4 23 3 24 2 25 1 26
REMARK H PARENT
REMARK Flexibility Score: inf
ROOT
ATOM      1  C   UNL     1      65.811   2.987  23.685  1.00  0.00     0.000 C 
ENDROOT
BRANCH   1   2
ATOM      2  C   UNL     1      65.682   4.504  23.899  1.00  0.00     0.000 C 
BRANCH   2   3
ATOM      3  C   UNL     1      67.002   5.154  24.349  1.00  0.00     0.000 C 
BRANCH   3   4
ATOM      4  C   UNL     1      68.202   4.742  23.476  1.00  0.00     0.000 C 
BRANCH   4   5
ATOM      5  C   UNL     1      69.584   4.915  24.131  1.00  0.00     0.000 C 
BRANCH   5   6
ATOM      6  C   UNL     1      70.560   5.732  23.265  1.00  0.00     0.000 C 
BRANCH   6   7
ATOM      7  C   UNL     1      69.903   6.968  22.622  1.00  0.00     0.000 C 
BRANCH   7   8
ATOM      8  C   UNL     1      69.585   6.839  21.121  1.00  0.00     0.000 C 
BRANCH   8   9
ATOM      9  C   UNL     1      68.705   7.982  20.590  1.00  0.00     0.000 C 
BRANCH   9  10
ATOM     10  C   UNL     1      67.344   8.064  21.313  1.00  0.00     0.006 C 
BRANCH  10  11
ATOM     11  C   UNL     1      66.530   9.316  20.950  1.00  0.00     0.053 C 
BRANCH  11  12
ATOM     12  C   UNL     1      65.994   9.262  19.555  1.00  0.00     0.041 C 
ATOM     13  O   UNL     1      65.437   8.217  19.129  1.00  0.00    -0.550 OA
ATOM     14  O   UNL     1      66.092  10.376  18.730  1.00  0.00    -0.550 OA
ENDBRANCH  11  12
ENDBRANCH  10  11
ENDBRANCH   9  10
ENDBRANCH   8   9
ENDBRANCH   7   8
ENDBRANCH   6   7
ENDBRANCH   5   6
ENDBRANCH   4   5
ENDBRANCH   3   4
ENDBRANCH   2   3
ENDBRANCH   1   2
BRANCH   1  15
ATOM     15  C   UNL     1      64.464   2.311  23.384  1.00  0.00     0.000 C 
BRANCH  15  16
ATOM     16  C   UNL     1      63.447   3.331  22.850  1.00  0.00     0.000 C 
BRANCH  16  17
ATOM     17  C   UNL     1      62.003   3.007  23.266  1.00  0.00     0.000 C 
BRANCH  17  18
ATOM     18  C   UNL     1      61.097   2.692  22.063  1.00  0.00    -0.000 C 
BRANCH  18  19
ATOM     19  C   UNL     1      61.376   3.605  20.858  1.00  0.00    -0.000 C 
BRANCH  19  20
ATOM     20  C   UNL     1      61.585   2.821  19.553  1.00  0.00    -0.000 C 
BRANCH  20  21
ATOM     21  C   UNL     1      62.081   1.400  19.840  1.00  0.00    -0.000 C 
BRANCH  21  22
ATOM     22  C   UNL     1      63.405   1.120  19.114  1.00  0.00    -0.000 C 
BRANCH  22  23
ATOM     23  C   UNL     1      64.582   1.918  19.717  1.00  0.00    -0.000 C 
BRANCH  23  24
ATOM     24  C   UNL     1      65.202   2.933  18.738  1.00  0.00    -0.000 C 
BRANCH  24  25
ATOM     25  C   UNL     1      64.996   4.406  19.127  1.00  0.00    -0.003 C 
ATOM     26  C   UNL     1      65.907   4.851  20.272  1.00  0.00     0.004 C 
ENDBRANCH  24  25
ENDBRANCH  23  24
ENDBRANCH  22  23
ENDBRANCH  21  22
ENDBRANCH  20  21
ENDBRANCH  19  20
ENDBRANCH  18  19
ENDBRANCH  17  18
ENDBRANCH  16  17
ENDBRANCH  15  16
ENDBRANCH   1  15
TORSDOF 22
ENDMDL
