MODEL 1
REMARK VINA RESULT:    24.945      0.000      0.000
REMARK INTER + INTRA:          29.764
REMARK INTER:                  30.049
REMARK INTRA:                  -0.284
REMARK UNBOUND:                -0.284
REMARK SMILES Oc1cc(O)c2cc(O)c(-c3ccc(O)c(O)c3)[o+]c2c1
REMARK SMILES IDX 10 1 19 2 20 3 21 4 2 5 3 6 4 7 6 8 7 9 8 10 11 11 12 12
REMARK SMILES IDX 13 13 14 14 18 15 16 16 15 17 17 19 9 21 1 23 5 25
REMARK H PARENT 15 18 17 20 9 22 1 24 5 26
REMARK Flexibility Score: inf
ROOT
ATOM      1  C   UNL     1       9.208   2.197   9.051  1.00  0.00     0.402 A 
ATOM      2  O   UNL     1      10.084   1.334   8.540  1.00  0.00    -0.202 OA
ATOM      3  C   UNL     1      11.103   1.700   7.769  1.00  0.00     0.368 A 
ATOM      4  C   UNL     1      11.971   0.719   7.283  1.00  0.00     0.162 A 
ATOM      5  C   UNL     1      13.053   1.075   6.473  1.00  0.00     0.128 A 
ATOM      6  C   UNL     1      13.268   2.417   6.150  1.00  0.00     0.093 A 
ATOM      7  C   UNL     1      12.413   3.418   6.625  1.00  0.00     0.136 A 
ATOM      8  C   UNL     1      11.311   3.061   7.445  1.00  0.00     0.125 A 
ATOM      9  C   UNL     1      10.395   3.995   7.956  1.00  0.00     0.078 A 
ATOM     10  C   UNL     1       9.329   3.567   8.755  1.00  0.00     0.223 A 
ENDROOT
BRANCH   1  11
ATOM     11  C   UNL     1       8.120   1.667   9.904  1.00  0.00     0.087 A 
ATOM     12  C   UNL     1       8.395   1.310  11.233  1.00  0.00     0.022 A 
ATOM     13  C   UNL     1       7.378   0.827  12.061  1.00  0.00     0.051 A 
ATOM     14  C   UNL     1       6.069   0.709  11.578  1.00  0.00     0.157 A 
ATOM     15  C   UNL     1       6.800   1.566   9.428  1.00  0.00     0.068 A 
ATOM     16  C   UNL     1       5.779   1.085  10.256  1.00  0.00     0.158 A 
BRANCH  14  17
ATOM     17  O   UNL     1       5.057   0.225  12.405  1.00  0.00    -0.504 OA
ATOM     18  H   UNL     1       5.264  -0.350  13.214  1.00  0.00     0.293 HD
ENDBRANCH  14  17
BRANCH  16  19
ATOM     19  O   UNL     1       4.483   0.994   9.748  1.00  0.00    -0.504 OA
ATOM     20  H   UNL     1       4.300   0.765   8.778  1.00  0.00     0.293 HD
ENDBRANCH  16  19
ENDBRANCH   1  11
BRANCH  10  21
ATOM     21  O   UNL     1       8.391   4.488   9.221  1.00  0.00    -0.500 OA
ATOM     22  H   UNL     1       7.606   4.205   9.796  1.00  0.00     0.294 HD
ENDBRANCH  10  21
BRANCH   5  23
ATOM     23  O   UNL     1      13.924   0.103   5.983  1.00  0.00    -0.507 OA
ATOM     24  H   UNL     1      14.540  -0.414   6.599  1.00  0.00     0.293 HD
ENDBRANCH   5  23
BRANCH   7  25
ATOM     25  O   UNL     1      12.698   4.736   6.260  1.00  0.00    -0.507 OA
ATOM     26  H   UNL     1      13.354   5.333   6.742  1.00  0.00     0.293 HD
ENDBRANCH   7  25
TORSDOF 6
ENDMDL
MODEL 2
REMARK VINA RESULT:    25.667      1.044      2.604
REMARK INTER + INTRA:          30.635
REMARK INTER:                  30.923
REMARK INTRA:                  -0.289
REMARK UNBOUND:                -0.284
REMARK SMILES Oc1cc(O)c2cc(O)c(-c3ccc(O)c(O)c3)[o+]c2c1
REMARK SMILES IDX 10 1 19 2 20 3 21 4 2 5 3 6 4 7 6 8 7 9 8 10 11 11 12 12
REMARK SMILES IDX 13 13 14 14 18 15 16 16 15 17 17 19 9 21 1 23 5 25
REMARK H PARENT 15 18 17 20 9 22 1 24 5 26
REMARK Flexibility Score: inf
ROOT
ATOM      1  C   UNL     1       9.198   1.342   9.147  1.00  0.00     0.402 A 
ATOM      2  O   UNL     1       9.492   2.565   8.712  1.00  0.00    -0.202 OA
ATOM      3  C   UNL     1      10.504   2.823   7.890  1.00  0.00     0.368 A 
ATOM      4  C   UNL     1      10.730   4.142   7.485  1.00  0.00     0.162 A 
ATOM      5  C   UNL     1      11.785   4.442   6.619  1.00  0.00     0.128 A 
ATOM      6  C   UNL     1      12.616   3.419   6.155  1.00  0.00     0.093 A 
ATOM      7  C   UNL     1      12.409   2.090   6.545  1.00  0.00     0.136 A 
ATOM      8  C   UNL     1      11.342   1.782   7.427  1.00  0.00     0.125 A 
ATOM      9  C   UNL     1      11.068   0.481   7.881  1.00  0.00     0.078 A 
ATOM     10  C   UNL     1       9.999   0.254   8.755  1.00  0.00     0.223 A 
ENDROOT
BRANCH   1  11
ATOM     11  C   UNL     1       8.039   1.182  10.054  1.00  0.00     0.087 A 
ATOM     12  C   UNL     1       8.256   1.004  11.429  1.00  0.00     0.022 A 
ATOM     13  C   UNL     1       7.176   0.870  12.306  1.00  0.00     0.051 A 
ATOM     14  C   UNL     1       5.863   0.928  11.822  1.00  0.00     0.157 A 
ATOM     15  C   UNL     1       6.718   1.259   9.575  1.00  0.00     0.068 A 
ATOM     16  C   UNL     1       5.634   1.128  10.451  1.00  0.00     0.158 A 
BRANCH  14  17
ATOM     17  O   UNL     1       4.787   0.792  12.698  1.00  0.00    -0.504 OA
ATOM     18  H   UNL     1       4.811   0.136  13.470  1.00  0.00     0.293 HD
ENDBRANCH  14  17
BRANCH  16  19
ATOM     19  O   UNL     1       4.338   1.205   9.940  1.00  0.00    -0.504 OA
ATOM     20  H   UNL     1       3.690   0.429   9.999  1.00  0.00     0.293 HD
ENDBRANCH  16  19
ENDBRANCH   1  11
BRANCH  10  21
ATOM     21  O   UNL     1       9.758  -1.029   9.246  1.00  0.00    -0.500 OA
ATOM     22  H   UNL     1       8.817  -1.381   9.379  1.00  0.00     0.294 HD
ENDBRANCH  10  21
BRANCH   5  23
ATOM     23  O   UNL     1      12.017   5.754   6.211  1.00  0.00    -0.507 OA
ATOM     24  H   UNL     1      12.898   6.218   6.398  1.00  0.00     0.293 HD
ENDBRANCH   5  23
BRANCH   7  25
ATOM     25  O   UNL     1      13.282   1.126   6.034  1.00  0.00    -0.507 OA
ATOM     26  H   UNL     1      13.164   0.130   6.149  1.00  0.00     0.293 HD
ENDBRANCH   7  25
TORSDOF 6
ENDMDL
MODEL 3
REMARK VINA RESULT:    27.082      4.664      8.136
REMARK INTER + INTRA:          32.340
REMARK INTER:                  32.631
REMARK INTRA:                  -0.291
REMARK UNBOUND:                -0.284
REMARK SMILES Oc1cc(O)c2cc(O)c(-c3ccc(O)c(O)c3)[o+]c2c1
REMARK SMILES IDX 10 1 19 2 20 3 21 4 2 5 3 6 4 7 6 8 7 9 8 10 11 11 12 12
REMARK SMILES IDX 13 13 14 14 18 15 16 16 15 17 17 19 9 21 1 23 5 25
REMARK H PARENT 15 18 17 20 9 22 1 24 5 26
REMARK Flexibility Score: inf
ROOT
ATOM      1  C   UNL     1      14.899   2.959   9.087  1.00  0.00     0.402 A 
ATOM      2  O   UNL     1      14.045   3.846   8.580  1.00  0.00    -0.202 OA
ATOM      3  C   UNL     1      13.043   3.514   7.773  1.00  0.00     0.368 A 
ATOM      4  C   UNL     1      12.196   4.517   7.294  1.00  0.00     0.162 A 
ATOM      5  C   UNL     1      11.132   4.196   6.446  1.00  0.00     0.128 A 
ATOM      6  C   UNL     1      10.914   2.867   6.076  1.00  0.00     0.093 A 
ATOM      7  C   UNL     1      11.748   1.843   6.543  1.00  0.00     0.136 A 
ATOM      8  C   UNL     1      12.831   2.165   7.401  1.00  0.00     0.125 A 
ATOM      9  C   UNL     1      13.726   1.207   7.907  1.00  0.00     0.078 A 
ATOM     10  C   UNL     1      14.774   1.600   8.746  1.00  0.00     0.223 A 
ENDROOT
BRANCH   1  11
ATOM     11  C   UNL     1      15.969   3.452   9.983  1.00  0.00     0.087 A 
ATOM     12  C   UNL     1      15.667   3.753  11.320  1.00  0.00     0.022 A 
ATOM     13  C   UNL     1      16.666   4.200  12.189  1.00  0.00     0.051 A 
ATOM     14  C   UNL     1      17.985   4.338  11.738  1.00  0.00     0.157 A 
ATOM     15  C   UNL     1      17.298   3.573   9.539  1.00  0.00     0.068 A 
ATOM     16  C   UNL     1      18.302   4.019  10.408  1.00  0.00     0.158 A 
BRANCH  14  17
ATOM     17  O   UNL     1      18.979   4.787  12.606  1.00  0.00    -0.504 OA
ATOM     18  H   UNL     1      18.752   5.214  13.497  1.00  0.00     0.293 HD
ENDBRANCH  14  17
BRANCH  16  19
ATOM     19  O   UNL     1      19.608   4.131   9.931  1.00  0.00    -0.504 OA
ATOM     20  H   UNL     1      19.850   4.750   9.166  1.00  0.00     0.293 HD
ENDBRANCH  16  19
ENDBRANCH   1  11
BRANCH  10  21
ATOM     21  O   UNL     1      15.691   0.656   9.207  1.00  0.00    -0.500 OA
ATOM     22  H   UNL     1      16.681   0.863   9.274  1.00  0.00     0.294 HD
ENDBRANCH  10  21
BRANCH   5  23
ATOM     23  O   UNL     1      10.283   5.191   5.964  1.00  0.00    -0.507 OA
ATOM     24  H   UNL     1       9.571   4.990   5.273  1.00  0.00     0.293 HD
ENDBRANCH   5  23
BRANCH   7  25
ATOM     25  O   UNL     1      11.461   0.540   6.130  1.00  0.00    -0.507 OA
ATOM     26  H   UNL     1      10.843   0.306   5.366  1.00  0.00     0.293 HD
ENDBRANCH   7  25
TORSDOF 6
ENDMDL
