MODEL 1
REMARK VINA RESULT:    -3.028      0.000      0.000
REMARK INTER + INTRA:         -10.985
REMARK INTER:                  -6.923
REMARK INTRA:                  -4.062
REMARK UNBOUND:                -4.062
REMARK SMILES CCCCCCCCCCCCCCCCCCCCCCCC(=O)[O-]
REMARK SMILES IDX 13 1 14 2 15 3 16 4 17 5 18 6 19 7 20 8 21 9 22 10 23 11
REMARK SMILES IDX 24 12 25 13 26 14 12 15 11 16 10 17 9 18 8 19 7 20 6 21 5 22
REMARK SMILES IDX 4 23 3 24 2 25 1 26
REMARK H PARENT
REMARK Flexibility Score: inf
ROOT
ATOM      1  C   UNL     1      -0.237   4.262  25.889  1.00  0.00     0.000 C 
ENDROOT
BRANCH   1   2
ATOM      2  C   UNL     1       0.459   5.399  25.111  1.00  0.00     0.000 C 
BRANCH   2   3
ATOM      3  C   UNL     1      -0.020   6.804  25.517  1.00  0.00     0.000 C 
BRANCH   3   4
ATOM      4  C   UNL     1       0.006   7.805  24.351  1.00  0.00     0.000 C 
BRANCH   4   5
ATOM      5  C   UNL     1       1.188   8.792  24.456  1.00  0.00     0.000 C 
BRANCH   5   6
ATOM      6  C   UNL     1       1.635   9.069  25.902  1.00  0.00     0.000 C 
BRANCH   6   7
ATOM      7  C   UNL     1       3.143   8.869  26.111  1.00  0.00     0.000 C 
BRANCH   7   8
ATOM      8  C   UNL     1       3.417   7.686  27.049  1.00  0.00     0.000 C 
BRANCH   8   9
ATOM      9  C   UNL     1       3.930   6.470  26.262  1.00  0.00     0.000 C 
BRANCH   9  10
ATOM     10  C   UNL     1       3.630   5.131  26.963  1.00  0.00     0.006 C 
BRANCH  10  11
ATOM     11  C   UNL     1       4.045   3.896  26.146  1.00  0.00     0.053 C 
BRANCH  11  12
ATOM     12  C   UNL     1       4.438   2.737  27.010  1.00  0.00     0.041 C 
ATOM     13  O   UNL     1       3.565   2.107  27.664  1.00  0.00    -0.550 OA
ATOM     14  O   UNL     1       5.773   2.360  27.105  1.00  0.00    -0.550 OA
ENDBRANCH  11  12
ENDBRANCH  10  11
ENDBRANCH   9  10
ENDBRANCH   8   9
ENDBRANCH   7   8
ENDBRANCH   6   7
ENDBRANCH   5   6
ENDBRANCH   4   5
ENDBRANCH   3   4
ENDBRANCH   2   3
ENDBRANCH   1   2
BRANCH   1  15
ATOM     15  C   UNL     1      -1.658   4.646  26.337  1.00  0.00     0.000 C 
BRANCH  15  16
ATOM     16  C   UNL     1      -2.534   3.409  26.633  1.00  0.00     0.000 C 
BRANCH  16  17
ATOM     17  C   UNL     1      -2.365   2.855  28.057  1.00  0.00     0.000 C 
BRANCH  17  18
ATOM     18  C   UNL     1      -2.577   3.920  29.145  1.00  0.00    -0.000 C 
BRANCH  18  19
ATOM     19  C   UNL     1      -1.398   4.011  30.124  1.00  0.00    -0.000 C 
BRANCH  19  20
ATOM     20  C   UNL     1      -0.169   3.217  29.647  1.00  0.00    -0.000 C 
BRANCH  20  21
ATOM     21  C   UNL     1       1.003   4.134  29.230  1.00  0.00    -0.000 C 
BRANCH  21  22
ATOM     22  C   UNL     1       0.629   5.626  29.142  1.00  0.00    -0.000 C 
BRANCH  22  23
ATOM     23  C   UNL     1       1.447   6.562  30.052  1.00  0.00    -0.000 C 
BRANCH  23  24
ATOM     24  C   UNL     1       0.627   7.316  31.115  1.00  0.00    -0.000 C 
BRANCH  24  25
ATOM     25  C   UNL     1       0.660   6.634  32.490  1.00  0.00    -0.003 C 
ATOM     26  C   UNL     1       1.899   5.756  32.641  1.00  0.00     0.004 C 
ENDBRANCH  24  25
ENDBRANCH  23  24
ENDBRANCH  22  23
ENDBRANCH  21  22
ENDBRANCH  20  21
ENDBRANCH  19  20
ENDBRANCH  18  19
ENDBRANCH  17  18
ENDBRANCH  16  17
ENDBRANCH  15  16
ENDBRANCH   1  15
TORSDOF 22
ENDMDL
MODEL 2
REMARK VINA RESULT:    -3.005      6.875     10.998
REMARK INTER + INTRA:         -10.931
REMARK INTER:                  -7.062
REMARK INTRA:                  -3.869
REMARK UNBOUND:                -4.062
REMARK SMILES CCCCCCCCCCCCCCCCCCCCCCCC(=O)[O-]
REMARK SMILES IDX 13 1 14 2 15 3 16 4 17 5 18 6 19 7 20 8 21 9 22 10 23 11
REMARK SMILES IDX 24 12 25 13 26 14 12 15 11 16 10 17 9 18 8 19 7 20 6 21 5 22
REMARK SMILES IDX 4 23 3 24 2 25 1 26
REMARK H PARENT
REMARK Flexibility Score: inf
ROOT
ATOM      1  C   UNL     1      -0.667   7.676  37.701  1.00  0.00     0.000 C 
ENDROOT
BRANCH   1   2
ATOM      2  C   UNL     1       0.869   7.683  37.859  1.00  0.00     0.000 C 
BRANCH   2   3
ATOM      3  C   UNL     1       1.360   6.947  39.117  1.00  0.00     0.000 C 
BRANCH   3   4
ATOM      4  C   UNL     1       2.391   5.851  38.806  1.00  0.00     0.000 C 
BRANCH   4   5
ATOM      5  C   UNL     1       1.746   4.451  38.723  1.00  0.00     0.000 C 
BRANCH   5   6
ATOM      6  C   UNL     1       1.415   4.007  37.288  1.00  0.00     0.000 C 
BRANCH   6   7
ATOM      7  C   UNL     1       2.419   4.531  36.252  1.00  0.00     0.000 C 
BRANCH   7   8
ATOM      8  C   UNL     1       1.698   5.221  35.087  1.00  0.00     0.000 C 
BRANCH   8   9
ATOM      9  C   UNL     1       2.361   4.870  33.746  1.00  0.00     0.000 C 
BRANCH   9  10
ATOM     10  C   UNL     1       2.281   6.014  32.718  1.00  0.00     0.006 C 
BRANCH  10  11
ATOM     11  C   UNL     1       1.028   5.963  31.827  1.00  0.00     0.053 C 
BRANCH  11  12
ATOM     12  C   UNL     1       0.992   7.069  30.817  1.00  0.00     0.041 C 
ATOM     13  O   UNL     1       0.724   8.247  31.174  1.00  0.00    -0.550 OA
ATOM     14  O   UNL     1       1.240   6.797  29.477  1.00  0.00    -0.550 OA
ENDBRANCH  11  12
ENDBRANCH  10  11
ENDBRANCH   9  10
ENDBRANCH   8   9
ENDBRANCH   7   8
ENDBRANCH   6   7
ENDBRANCH   5   6
ENDBRANCH   4   5
ENDBRANCH   3   4
ENDBRANCH   2   3
ENDBRANCH   1   2
BRANCH   1  15
ATOM     15  C   UNL     1      -1.138   6.697  36.611  1.00  0.00     0.000 C 
BRANCH  15  16
ATOM     16  C   UNL     1      -2.075   5.605  37.168  1.00  0.00     0.000 C 
BRANCH  16  17
ATOM     17  C   UNL     1      -2.009   5.451  38.696  1.00  0.00     0.000 C 
BRANCH  17  18
ATOM     18  C   UNL     1      -3.395   5.311  39.346  1.00  0.00    -0.000 C 
BRANCH  18  19
ATOM     19  C   UNL     1      -3.490   6.029  40.700  1.00  0.00    -0.000 C 
BRANCH  19  20
ATOM     20  C   UNL     1      -3.506   7.561  40.560  1.00  0.00    -0.000 C 
BRANCH  20  21
ATOM     21  C   UNL     1      -2.145   8.203  40.910  1.00  0.00    -0.000 C 
BRANCH  21  22
ATOM     22  C   UNL     1      -1.677   7.927  42.353  1.00  0.00    -0.000 C 
BRANCH  22  23
ATOM     23  C   UNL     1      -0.354   7.147  42.475  1.00  0.00    -0.000 C 
BRANCH  23  24
ATOM     24  C   UNL     1      -0.505   5.672  42.888  1.00  0.00    -0.000 C 
BRANCH  24  25
ATOM     25  C   UNL     1       0.144   4.702  41.891  1.00  0.00    -0.003 C 
ATOM     26  C   UNL     1      -0.786   3.537  41.569  1.00  0.00     0.004 C 
ENDBRANCH  24  25
ENDBRANCH  23  24
ENDBRANCH  22  23
ENDBRANCH  21  22
ENDBRANCH  20  21
ENDBRANCH  19  20
ENDBRANCH  18  19
ENDBRANCH  17  18
ENDBRANCH  16  17
ENDBRANCH  15  16
ENDBRANCH   1  15
TORSDOF 22
ENDMDL
MODEL 3
REMARK VINA RESULT:    -2.983      3.080      6.869
REMARK INTER + INTRA:         -10.881
REMARK INTER:                  -7.452
REMARK INTRA:                  -3.429
REMARK UNBOUND:                -4.062
REMARK SMILES CCCCCCCCCCCCCCCCCCCCCCCC(=O)[O-]
REMARK SMILES IDX 13 1 14 2 15 3 16 4 17 5 18 6 19 7 20 8 21 9 22 10 23 11
REMARK SMILES IDX 24 12 25 13 26 14 12 15 11 16 10 17 9 18 8 19 7 20 6 21 5 22
REMARK SMILES IDX 4 23 3 24 2 25 1 26
REMARK H PARENT
REMARK Flexibility Score: inf
ROOT
ATOM      1  C   UNL     1       4.766   3.994  26.928  1.00  0.00     0.000 C 
ENDROOT
BRANCH   1   2
ATOM      2  C   UNL     1       3.416   3.260  26.783  1.00  0.00     0.000 C 
BRANCH   2   3
ATOM      3  C   UNL     1       2.221   4.206  26.580  1.00  0.00     0.000 C 
BRANCH   3   4
ATOM      4  C   UNL     1       1.884   5.024  27.837  1.00  0.00     0.000 C 
BRANCH   4   5
ATOM      5  C   UNL     1       1.035   4.221  28.845  1.00  0.00     0.000 C 
BRANCH   5   6
ATOM      6  C   UNL     1       0.232   5.103  29.817  1.00  0.00     0.000 C 
BRANCH   6   7
ATOM      7  C   UNL     1       0.893   6.464  30.076  1.00  0.00     0.000 C 
BRANCH   7   8
ATOM      8  C   UNL     1       0.770   6.865  31.552  1.00  0.00     0.000 C 
BRANCH   8   9
ATOM      9  C   UNL     1       1.857   6.185  32.398  1.00  0.00     0.000 C 
BRANCH   9  10
ATOM     10  C   UNL     1       1.296   5.496  33.656  1.00  0.00     0.006 C 
BRANCH  10  11
ATOM     11  C   UNL     1      -0.134   4.956  33.484  1.00  0.00     0.053 C 
BRANCH  11  12
ATOM     12  C   UNL     1      -0.906   4.944  34.768  1.00  0.00     0.041 C 
ATOM     13  O   UNL     1      -1.786   5.819  34.987  1.00  0.00    -0.550 OA
ATOM     14  O   UNL     1      -0.645   3.975  35.729  1.00  0.00    -0.550 OA
ENDBRANCH  11  12
ENDBRANCH  10  11
ENDBRANCH   9  10
ENDBRANCH   8   9
ENDBRANCH   7   8
ENDBRANCH   6   7
ENDBRANCH   5   6
ENDBRANCH   4   5
ENDBRANCH   3   4
ENDBRANCH   2   3
ENDBRANCH   1   2
BRANCH   1  15
ATOM     15  C   UNL     1       4.925   5.132  25.904  1.00  0.00     0.000 C 
BRANCH  15  16
ATOM     16  C   UNL     1       5.057   6.514  26.579  1.00  0.00     0.000 C 
BRANCH  16  17
ATOM     17  C   UNL     1       3.924   7.490  26.220  1.00  0.00     0.000 C 
BRANCH  17  18
ATOM     18  C   UNL     1       3.548   8.426  27.381  1.00  0.00    -0.000 C 
BRANCH  18  19
ATOM     19  C   UNL     1       2.058   8.797  27.383  1.00  0.00    -0.000 C 
BRANCH  19  20
ATOM     20  C   UNL     1       1.387   8.568  26.018  1.00  0.00    -0.000 C 
BRANCH  20  21
ATOM     21  C   UNL     1       0.122   7.687  26.119  1.00  0.00    -0.000 C 
BRANCH  21  22
ATOM     22  C   UNL     1      -0.128   6.807  24.878  1.00  0.00    -0.000 C 
BRANCH  22  23
ATOM     23  C   UNL     1      -1.361   5.888  24.965  1.00  0.00    -0.000 C 
BRANCH  23  24
ATOM     24  C   UNL     1      -1.540   5.165  26.313  1.00  0.00    -0.000 C 
BRANCH  24  25
ATOM     25  C   UNL     1      -2.223   3.798  26.172  1.00  0.00    -0.003 C 
ATOM     26  C   UNL     1      -1.228   2.660  26.380  1.00  0.00     0.004 C 
ENDBRANCH  24  25
ENDBRANCH  23  24
ENDBRANCH  22  23
ENDBRANCH  21  22
ENDBRANCH  20  21
ENDBRANCH  19  20
ENDBRANCH  18  19
ENDBRANCH  17  18
ENDBRANCH  16  17
ENDBRANCH  15  16
ENDBRANCH   1  15
TORSDOF 22
ENDMDL
MODEL 4
REMARK VINA RESULT:    -2.980      3.125      6.053
REMARK INTER + INTRA:         -10.875
REMARK INTER:                  -7.273
REMARK INTRA:                  -3.602
REMARK UNBOUND:                -4.062
REMARK SMILES CCCCCCCCCCCCCCCCCCCCCCCC(=O)[O-]
REMARK SMILES IDX 13 1 14 2 15 3 16 4 17 5 18 6 19 7 20 8 21 9 22 10 23 11
REMARK SMILES IDX 24 12 25 13 26 14 12 15 11 16 10 17 9 18 8 19 7 20 6 21 5 22
REMARK SMILES IDX 4 23 3 24 2 25 1 26
REMARK H PARENT
REMARK Flexibility Score: inf
ROOT
ATOM      1  C   UNL     1       0.268   1.582  26.775  1.00  0.00     0.000 C 
ENDROOT
BRANCH   1   2
ATOM      2  C   UNL     1       1.430   2.514  26.369  1.00  0.00     0.000 C 
BRANCH   2   3
ATOM      3  C   UNL     1       1.868   3.473  27.488  1.00  0.00     0.000 C 
BRANCH   3   4
ATOM      4  C   UNL     1       1.079   3.274  28.792  1.00  0.00     0.000 C 
BRANCH   4   5
ATOM      5  C   UNL     1       0.509   4.601  29.337  1.00  0.00     0.000 C 
BRANCH   5   6
ATOM      6  C   UNL     1       1.307   5.842  28.899  1.00  0.00     0.000 C 
BRANCH   6   7
ATOM      7  C   UNL     1       1.198   7.005  29.894  1.00  0.00     0.000 C 
BRANCH   7   8
ATOM      8  C   UNL     1       0.728   6.513  31.269  1.00  0.00     0.000 C 
BRANCH   8   9
ATOM      9  C   UNL     1       1.903   6.436  32.255  1.00  0.00     0.000 C 
BRANCH   9  10
ATOM     10  C   UNL     1       1.815   5.222  33.201  1.00  0.00     0.006 C 
BRANCH  10  11
ATOM     11  C   UNL     1       0.583   5.238  34.121  1.00  0.00     0.053 C 
BRANCH  11  12
ATOM     12  C   UNL     1       0.795   6.059  35.356  1.00  0.00     0.041 C 
ATOM     13  O   UNL     1       0.183   7.150  35.506  1.00  0.00    -0.550 OA
ATOM     14  O   UNL     1       1.680   5.627  36.336  1.00  0.00    -0.550 OA
ENDBRANCH  11  12
ENDBRANCH  10  11
ENDBRANCH   9  10
ENDBRANCH   8   9
ENDBRANCH   7   8
ENDBRANCH   6   7
ENDBRANCH   5   6
ENDBRANCH   4   5
ENDBRANCH   3   4
ENDBRANCH   2   3
ENDBRANCH   1   2
BRANCH   1  15
ATOM     15  C   UNL     1      -0.966   1.758  25.872  1.00  0.00     0.000 C 
BRANCH  15  16
ATOM     16  C   UNL     1      -1.872   2.918  26.335  1.00  0.00     0.000 C 
BRANCH  16  17
ATOM     17  C   UNL     1      -1.769   4.175  25.456  1.00  0.00     0.000 C 
BRANCH  17  18
ATOM     18  C   UNL     1      -1.291   5.413  26.232  1.00  0.00    -0.000 C 
BRANCH  18  19
ATOM     19  C   UNL     1      -0.097   6.108  25.560  1.00  0.00    -0.000 C 
BRANCH  19  20
ATOM     20  C   UNL     1      -0.087   7.629  25.794  1.00  0.00    -0.000 C 
BRANCH  20  21
ATOM     21  C   UNL     1       0.661   8.395  24.680  1.00  0.00    -0.000 C 
BRANCH  21  22
ATOM     22  C   UNL     1       1.988   9.030  25.141  1.00  0.00    -0.000 C 
BRANCH  22  23
ATOM     23  C   UNL     1       2.266   8.943  26.654  1.00  0.00    -0.000 C 
BRANCH  23  24
ATOM     24  C   UNL     1       3.552   8.189  27.037  1.00  0.00    -0.000 C 
BRANCH  24  25
ATOM     25  C   UNL     1       3.671   6.822  26.349  1.00  0.00    -0.003 C 
ATOM     26  C   UNL     1       5.080   6.253  26.492  1.00  0.00     0.004 C 
ENDBRANCH  24  25
ENDBRANCH  23  24
ENDBRANCH  22  23
ENDBRANCH  21  22
ENDBRANCH  20  21
ENDBRANCH  19  20
ENDBRANCH  18  19
ENDBRANCH  17  18
ENDBRANCH  16  17
ENDBRANCH  15  16
ENDBRANCH   1  15
TORSDOF 22
ENDMDL
MODEL 5
REMARK VINA RESULT:    -2.968      2.678      6.148
REMARK INTER + INTRA:         -10.848
REMARK INTER:                  -7.316
REMARK INTRA:                  -3.532
REMARK UNBOUND:                -4.062
REMARK SMILES CCCCCCCCCCCCCCCCCCCCCCCC(=O)[O-]
REMARK SMILES IDX 13 1 14 2 15 3 16 4 17 5 18 6 19 7 20 8 21 9 22 10 23 11
REMARK SMILES IDX 24 12 25 13 26 14 12 15 11 16 10 17 9 18 8 19 7 20 6 21 5 22
REMARK SMILES IDX 4 23 3 24 2 25 1 26
REMARK H PARENT
REMARK Flexibility Score: inf
ROOT
ATOM      1  C   UNL     1      -1.892   3.090  27.169  1.00  0.00     0.000 C 
ENDROOT
BRANCH   1   2
ATOM      2  C   UNL     1      -2.448   3.872  28.378  1.00  0.00     0.000 C 
BRANCH   2   3
ATOM      3  C   UNL     1      -1.449   3.994  29.542  1.00  0.00     0.000 C 
BRANCH   3   4
ATOM      4  C   UNL     1      -0.136   3.238  29.286  1.00  0.00     0.000 C 
BRANCH   4   5
ATOM      5  C   UNL     1       1.093   4.172  29.331  1.00  0.00     0.000 C 
BRANCH   5   6
ATOM      6  C   UNL     1       0.776   5.628  28.946  1.00  0.00     0.000 C 
BRANCH   6   7
ATOM      7  C   UNL     1       1.326   6.647  29.953  1.00  0.00     0.000 C 
BRANCH   7   8
ATOM      8  C   UNL     1       0.509   6.633  31.252  1.00  0.00     0.000 C 
BRANCH   8   9
ATOM      9  C   UNL     1       1.403   6.310  32.459  1.00  0.00     0.000 C 
BRANCH   9  10
ATOM     10  C   UNL     1       1.470   4.803  32.771  1.00  0.00     0.006 C 
BRANCH  10  11
ATOM     11  C   UNL     1       0.986   4.438  34.184  1.00  0.00     0.053 C 
BRANCH  11  12
ATOM     12  C   UNL     1       1.870   4.992  35.259  1.00  0.00     0.041 C 
ATOM     13  O   UNL     1       3.027   4.526  35.432  1.00  0.00    -0.550 OA
ATOM     14  O   UNL     1       1.410   6.014  36.080  1.00  0.00    -0.550 OA
ENDBRANCH  11  12
ENDBRANCH  10  11
ENDBRANCH   9  10
ENDBRANCH   8   9
ENDBRANCH   7   8
ENDBRANCH   6   7
ENDBRANCH   5   6
ENDBRANCH   4   5
ENDBRANCH   3   4
ENDBRANCH   2   3
ENDBRANCH   1   2
BRANCH   1  15
ATOM     15  C   UNL     1      -1.958   3.905  25.865  1.00  0.00     0.000 C 
BRANCH  15  16
ATOM     16  C   UNL     1      -1.327   5.305  26.016  1.00  0.00     0.000 C 
BRANCH  16  17
ATOM     17  C   UNL     1      -1.266   6.103  24.702  1.00  0.00     0.000 C 
BRANCH  17  18
ATOM     18  C   UNL     1      -0.005   6.974  24.587  1.00  0.00    -0.000 C 
BRANCH  18  19
ATOM     19  C   UNL     1       0.100   8.016  25.710  1.00  0.00    -0.000 C 
BRANCH  19  20
ATOM     20  C   UNL     1       1.451   8.752  25.714  1.00  0.00    -0.000 C 
BRANCH  20  21
ATOM     21  C   UNL     1       1.984   9.007  27.141  1.00  0.00    -0.000 C 
BRANCH  21  22
ATOM     22  C   UNL     1       3.300   8.269  27.458  1.00  0.00    -0.000 C 
BRANCH  22  23
ATOM     23  C   UNL     1       3.952   7.549  26.263  1.00  0.00    -0.000 C 
BRANCH  23  24
ATOM     24  C   UNL     1       4.777   6.301  26.627  1.00  0.00    -0.000 C 
BRANCH  24  25
ATOM     25  C   UNL     1       3.905   5.067  26.897  1.00  0.00    -0.003 C 
ATOM     26  C   UNL     1       2.783   4.948  25.870  1.00  0.00     0.004 C 
ENDBRANCH  24  25
ENDBRANCH  23  24
ENDBRANCH  22  23
ENDBRANCH  21  22
ENDBRANCH  20  21
ENDBRANCH  19  20
ENDBRANCH  18  19
ENDBRANCH  17  18
ENDBRANCH  16  17
ENDBRANCH  15  16
ENDBRANCH   1  15
TORSDOF 22
ENDMDL
MODEL 6
REMARK VINA RESULT:    -2.959      2.957      5.768
REMARK INTER + INTRA:         -10.826
REMARK INTER:                  -6.464
REMARK INTRA:                  -4.362
REMARK UNBOUND:                -4.062
REMARK SMILES CCCCCCCCCCCCCCCCCCCCCCCC(=O)[O-]
REMARK SMILES IDX 13 1 14 2 15 3 16 4 17 5 18 6 19 7 20 8 21 9 22 10 23 11
REMARK SMILES IDX 24 12 25 13 26 14 12 15 11 16 10 17 9 18 8 19 7 20 6 21 5 22
REMARK SMILES IDX 4 23 3 24 2 25 1 26
REMARK H PARENT
REMARK Flexibility Score: inf
ROOT
ATOM      1  C   UNL     1       2.300   8.562  27.395  1.00  0.00     0.000 C 
ENDROOT
BRANCH   1   2
ATOM      2  C   UNL     1       0.929   8.382  26.709  1.00  0.00     0.000 C 
BRANCH   2   3
ATOM      3  C   UNL     1       0.983   8.528  25.179  1.00  0.00     0.000 C 
BRANCH   3   4
ATOM      4  C   UNL     1       0.171   7.450  24.445  1.00  0.00     0.000 C 
BRANCH   4   5
ATOM      5  C   UNL     1      -0.767   6.677  25.397  1.00  0.00     0.000 C 
BRANCH   5   6
ATOM      6  C   UNL     1      -0.828   5.167  25.112  1.00  0.00     0.000 C 
BRANCH   6   7
ATOM      7  C   UNL     1      -2.004   4.472  25.812  1.00  0.00     0.000 C 
BRANCH   7   8
ATOM      8  C   UNL     1      -1.661   3.016  26.152  1.00  0.00     0.000 C 
BRANCH   8   9
ATOM      9  C   UNL     1      -2.108   2.666  27.580  1.00  0.00     0.000 C 
BRANCH   9  10
ATOM     10  C   UNL     1      -2.689   3.873  28.341  1.00  0.00     0.006 C 
BRANCH  10  11
ATOM     11  C   UNL     1      -3.731   3.493  29.407  1.00  0.00     0.053 C 
BRANCH  11  12
ATOM     12  C   UNL     1      -4.777   2.557  28.884  1.00  0.00     0.041 C 
ATOM     13  O   UNL     1      -5.606   2.948  28.021  1.00  0.00    -0.550 OA
ATOM     14  O   UNL     1      -4.845   1.253  29.362  1.00  0.00    -0.550 OA
ENDBRANCH  11  12
ENDBRANCH  10  11
ENDBRANCH   9  10
ENDBRANCH   8   9
ENDBRANCH   7   8
ENDBRANCH   6   7
ENDBRANCH   5   6
ENDBRANCH   4   5
ENDBRANCH   3   4
ENDBRANCH   2   3
ENDBRANCH   1   2
BRANCH   1  15
ATOM     15  C   UNL     1       3.471   8.188  26.468  1.00  0.00     0.000 C 
BRANCH  15  16
ATOM     16  C   UNL     1       3.875   6.704  26.602  1.00  0.00     0.000 C 
BRANCH  16  17
ATOM     17  C   UNL     1       3.370   5.818  25.452  1.00  0.00     0.000 C 
BRANCH  17  18
ATOM     18  C   UNL     1       2.674   4.537  25.942  1.00  0.00    -0.000 C 
BRANCH  18  19
ATOM     19  C   UNL     1       2.707   4.393  27.470  1.00  0.00    -0.000 C 
BRANCH  19  20
ATOM     20  C   UNL     1       1.321   4.096  28.068  1.00  0.00    -0.000 C 
BRANCH  20  21
ATOM     21  C   UNL     1       0.608   5.370  28.573  1.00  0.00    -0.000 C 
BRANCH  21  22
ATOM     22  C   UNL     1       1.358   6.100  29.705  1.00  0.00    -0.000 C 
BRANCH  22  23
ATOM     23  C   UNL     1       0.573   6.251  31.021  1.00  0.00    -0.000 C 
BRANCH  23  24
ATOM     24  C   UNL     1       1.087   5.388  32.188  1.00  0.00    -0.000 C 
BRANCH  24  25
ATOM     25  C   UNL     1       0.805   3.892  31.995  1.00  0.00    -0.003 C 
ATOM     26  C   UNL     1      -0.667   3.644  31.679  1.00  0.00     0.004 C 
ENDBRANCH  24  25
ENDBRANCH  23  24
ENDBRANCH  22  23
ENDBRANCH  21  22
ENDBRANCH  20  21
ENDBRANCH  19  20
ENDBRANCH  18  19
ENDBRANCH  17  18
ENDBRANCH  16  17
ENDBRANCH  15  16
ENDBRANCH   1  15
TORSDOF 22
ENDMDL
MODEL 7
REMARK VINA RESULT:    -2.943      2.328      5.847
REMARK INTER + INTRA:         -10.791
REMARK INTER:                  -6.493
REMARK INTRA:                  -4.298
REMARK UNBOUND:                -4.062
REMARK SMILES CCCCCCCCCCCCCCCCCCCCCCCC(=O)[O-]
REMARK SMILES IDX 13 1 14 2 15 3 16 4 17 5 18 6 19 7 20 8 21 9 22 10 23 11
REMARK SMILES IDX 24 12 25 13 26 14 12 15 11 16 10 17 9 18 8 19 7 20 6 21 5 22
REMARK SMILES IDX 4 23 3 24 2 25 1 26
REMARK H PARENT
REMARK Flexibility Score: inf
ROOT
ATOM      1  C   UNL     1       3.198   6.538  26.952  1.00  0.00     0.000 C 
ENDROOT
BRANCH   1   2
ATOM      2  C   UNL     1       3.680   8.001  26.856  1.00  0.00     0.000 C 
BRANCH   2   3
ATOM      3  C   UNL     1       2.754   9.001  27.570  1.00  0.00     0.000 C 
BRANCH   3   4
ATOM      4  C   UNL     1       1.592   8.319  28.310  1.00  0.00     0.000 C 
BRANCH   4   5
ATOM      5  C   UNL     1       1.194   9.077  29.594  1.00  0.00     0.000 C 
BRANCH   5   6
ATOM      6  C   UNL     1       0.797   8.154  30.759  1.00  0.00     0.000 C 
BRANCH   6   7
ATOM      7  C   UNL     1       1.426   6.758  30.656  1.00  0.00     0.000 C 
BRANCH   7   8
ATOM      8  C   UNL     1       1.446   6.061  32.023  1.00  0.00     0.000 C 
BRANCH   8   9
ATOM      9  C   UNL     1       0.019   5.762  32.509  1.00  0.00     0.000 C 
BRANCH   9  10
ATOM     10  C   UNL     1      -0.701   4.709  31.645  1.00  0.00     0.006 C 
BRANCH  10  11
ATOM     11  C   UNL     1      -0.230   3.267  31.902  1.00  0.00     0.053 C 
BRANCH  11  12
ATOM     12  C   UNL     1      -1.184   2.243  31.368  1.00  0.00     0.041 C 
ATOM     13  O   UNL     1      -2.407   2.296  31.668  1.00  0.00    -0.550 OA
ATOM     14  O   UNL     1      -0.721   1.221  30.548  1.00  0.00    -0.550 OA
ENDBRANCH  11  12
ENDBRANCH  10  11
ENDBRANCH   9  10
ENDBRANCH   8   9
ENDBRANCH   7   8
ENDBRANCH   6   7
ENDBRANCH   5   6
ENDBRANCH   4   5
ENDBRANCH   3   4
ENDBRANCH   2   3
ENDBRANCH   1   2
BRANCH   1  15
ATOM     15  C   UNL     1       3.795   5.652  25.844  1.00  0.00     0.000 C 
BRANCH  15  16
ATOM     16  C   UNL     1       3.002   4.342  25.648  1.00  0.00     0.000 C 
BRANCH  16  17
ATOM     17  C   UNL     1       2.057   4.365  24.435  1.00  0.00     0.000 C 
BRANCH  17  18
ATOM     18  C   UNL     1       2.234   5.617  23.560  1.00  0.00    -0.000 C 
BRANCH  18  19
ATOM     19  C   UNL     1       0.907   6.337  23.281  1.00  0.00    -0.000 C 
BRANCH  19  20
ATOM     20  C   UNL     1       0.679   7.544  24.208  1.00  0.00    -0.000 C 
BRANCH  20  21
ATOM     21  C   UNL     1      -0.161   7.184  25.453  1.00  0.00    -0.000 C 
BRANCH  21  22
ATOM     22  C   UNL     1      -1.187   6.059  25.212  1.00  0.00    -0.000 C 
BRANCH  22  23
ATOM     23  C   UNL     1      -1.339   5.052  26.368  1.00  0.00    -0.000 C 
BRANCH  23  24
ATOM     24  C   UNL     1      -0.176   5.040  27.377  1.00  0.00    -0.000 C 
BRANCH  24  25
ATOM     25  C   UNL     1       0.093   3.646  27.962  1.00  0.00    -0.003 C 
ATOM     26  C   UNL     1       1.399   3.621  28.750  1.00  0.00     0.004 C 
ENDBRANCH  24  25
ENDBRANCH  23  24
ENDBRANCH  22  23
ENDBRANCH  21  22
ENDBRANCH  20  21
ENDBRANCH  19  20
ENDBRANCH  18  19
ENDBRANCH  17  18
ENDBRANCH  16  17
ENDBRANCH  15  16
ENDBRANCH   1  15
TORSDOF 22
ENDMDL
MODEL 8
REMARK VINA RESULT:    -2.940      5.625      9.489
REMARK INTER + INTRA:         -10.783
REMARK INTER:                  -7.717
REMARK INTRA:                  -3.066
REMARK UNBOUND:                -4.062
REMARK SMILES CCCCCCCCCCCCCCCCCCCCCCCC(=O)[O-]
REMARK SMILES IDX 13 1 14 2 15 3 16 4 17 5 18 6 19 7 20 8 21 9 22 10 23 11
REMARK SMILES IDX 24 12 25 13 26 14 12 15 11 16 10 17 9 18 8 19 7 20 6 21 5 22
REMARK SMILES IDX 4 23 3 24 2 25 1 26
REMARK H PARENT
REMARK Flexibility Score: inf
ROOT
ATOM      1  C   UNL     1       1.639   5.298  38.559  1.00  0.00     0.000 C 
ENDROOT
BRANCH   1   2
ATOM      2  C   UNL     1       2.100   5.567  37.111  1.00  0.00     0.000 C 
BRANCH   2   3
ATOM      3  C   UNL     1       1.727   4.444  36.129  1.00  0.00     0.000 C 
BRANCH   3   4
ATOM      4  C   UNL     1       1.803   4.884  34.658  1.00  0.00     0.000 C 
BRANCH   4   5
ATOM      5  C   UNL     1       0.415   4.908  33.984  1.00  0.00     0.000 C 
BRANCH   5   6
ATOM      6  C   UNL     1       0.096   6.234  33.273  1.00  0.00     0.000 C 
BRANCH   6   7
ATOM      7  C   UNL     1       0.157   6.123  31.743  1.00  0.00     0.000 C 
BRANCH   7   8
ATOM      8  C   UNL     1       1.415   6.807  31.190  1.00  0.00     0.000 C 
BRANCH   8   9
ATOM      9  C   UNL     1       1.191   7.284  29.747  1.00  0.00     0.000 C 
BRANCH   9  10
ATOM     10  C   UNL     1       1.692   6.275  28.696  1.00  0.00     0.006 C 
BRANCH  10  11
ATOM     11  C   UNL     1       2.359   6.930  27.475  1.00  0.00     0.053 C 
BRANCH  11  12
ATOM     12  C   UNL     1       1.451   7.887  26.764  1.00  0.00     0.041 C 
ATOM     13  O   UNL     1       1.728   9.115  26.724  1.00  0.00    -0.550 OA
ATOM     14  O   UNL     1       0.289   7.424  26.158  1.00  0.00    -0.550 OA
ENDBRANCH  11  12
ENDBRANCH  10  11
ENDBRANCH   9  10
ENDBRANCH   8   9
ENDBRANCH   7   8
ENDBRANCH   6   7
ENDBRANCH   5   6
ENDBRANCH   4   5
ENDBRANCH   3   4
ENDBRANCH   2   3
ENDBRANCH   1   2
BRANCH   1  15
ATOM     15  C   UNL     1       1.902   6.496  39.489  1.00  0.00     0.000 C 
BRANCH  15  16
ATOM     16  C   UNL     1       0.607   7.255  39.849  1.00  0.00     0.000 C 
BRANCH  16  17
ATOM     17  C   UNL     1       0.451   8.598  39.117  1.00  0.00     0.000 C 
BRANCH  17  18
ATOM     18  C   UNL     1      -0.833   8.677  38.275  1.00  0.00    -0.000 C 
BRANCH  18  19
ATOM     19  C   UNL     1      -0.706   7.947  36.931  1.00  0.00    -0.000 C 
BRANCH  19  20
ATOM     20  C   UNL     1      -1.904   7.026  36.639  1.00  0.00    -0.000 C 
BRANCH  20  21
ATOM     21  C   UNL     1      -1.633   5.558  37.033  1.00  0.00    -0.000 C 
BRANCH  21  22
ATOM     22  C   UNL     1      -2.607   5.004  38.091  1.00  0.00    -0.000 C 
BRANCH  22  23
ATOM     23  C   UNL     1      -2.469   5.619  39.496  1.00  0.00    -0.000 C 
BRANCH  23  24
ATOM     24  C   UNL     1      -3.766   6.209  40.079  1.00  0.00    -0.000 C 
BRANCH  24  25
ATOM     25  C   UNL     1      -3.583   7.631  40.627  1.00  0.00    -0.003 C 
ATOM     26  C   UNL     1      -3.215   7.608  42.107  1.00  0.00     0.004 C 
ENDBRANCH  24  25
ENDBRANCH  23  24
ENDBRANCH  22  23
ENDBRANCH  21  22
ENDBRANCH  20  21
ENDBRANCH  19  20
ENDBRANCH  18  19
ENDBRANCH  17  18
ENDBRANCH  16  17
ENDBRANCH  15  16
ENDBRANCH   1  15
TORSDOF 22
ENDMDL
MODEL 9
REMARK VINA RESULT:    -2.838      3.229      7.049
REMARK INTER + INTRA:         -10.551
REMARK INTER:                  -6.488
REMARK INTRA:                  -4.062
REMARK UNBOUND:                -4.062
REMARK SMILES CCCCCCCCCCCCCCCCCCCCCCCC(=O)[O-]
REMARK SMILES IDX 13 1 14 2 15 3 16 4 17 5 18 6 19 7 20 8 21 9 22 10 23 11
REMARK SMILES IDX 24 12 25 13 26 14 12 15 11 16 10 17 9 18 8 19 7 20 6 21 5 22
REMARK SMILES IDX 4 23 3 24 2 25 1 26
REMARK H PARENT
REMARK Flexibility Score: inf
ROOT
ATOM      1  C   UNL     1       2.429   8.821  27.679  1.00  0.00     0.000 C 
ENDROOT
BRANCH   1   2
ATOM      2  C   UNL     1       1.056   8.645  28.364  1.00  0.00     0.000 C 
BRANCH   2   3
ATOM      3  C   UNL     1       1.144   8.527  29.895  1.00  0.00     0.000 C 
BRANCH   3   4
ATOM      4  C   UNL     1       1.505   7.110  30.368  1.00  0.00     0.000 C 
BRANCH   4   5
ATOM      5  C   UNL     1       0.262   6.309  30.810  1.00  0.00     0.000 C 
BRANCH   5   6
ATOM      6  C   UNL     1       0.524   4.802  30.973  1.00  0.00     0.000 C 
BRANCH   6   7
ATOM      7  C   UNL     1      -0.737   4.012  31.348  1.00  0.00     0.000 C 
BRANCH   7   8
ATOM      8  C   UNL     1      -1.147   3.060  30.216  1.00  0.00     0.000 C 
BRANCH   8   9
ATOM      9  C   UNL     1      -2.493   3.480  29.606  1.00  0.00     0.000 C 
BRANCH   9  10
ATOM     10  C   UNL     1      -3.027   2.467  28.575  1.00  0.00     0.006 C 
BRANCH  10  11
ATOM     11  C   UNL     1      -4.237   2.977  27.773  1.00  0.00     0.053 C 
BRANCH  11  12
ATOM     12  C   UNL     1      -5.504   2.255  28.115  1.00  0.00     0.041 C 
ATOM     13  O   UNL     1      -6.498   2.891  28.556  1.00  0.00    -0.550 OA
ATOM     14  O   UNL     1      -5.582   0.876  27.961  1.00  0.00    -0.550 OA
ENDBRANCH  11  12
ENDBRANCH  10  11
ENDBRANCH   9  10
ENDBRANCH   8   9
ENDBRANCH   7   8
ENDBRANCH   6   7
ENDBRANCH   5   6
ENDBRANCH   4   5
ENDBRANCH   3   4
ENDBRANCH   2   3
ENDBRANCH   1   2
BRANCH   1  15
ATOM     15  C   UNL     1       2.297   9.112  26.174  1.00  0.00     0.000 C 
BRANCH  15  16
ATOM     16  C   UNL     1       1.031   8.477  25.562  1.00  0.00     0.000 C 
BRANCH  16  17
ATOM     17  C   UNL     1       0.910   8.676  24.041  1.00  0.00     0.000 C 
BRANCH  17  18
ATOM     18  C   UNL     1       1.380   7.452  23.237  1.00  0.00    -0.000 C 
BRANCH  18  19
ATOM     19  C   UNL     1       1.256   6.141  24.028  1.00  0.00    -0.000 C 
BRANCH  19  20
ATOM     20  C   UNL     1       2.395   5.153  23.720  1.00  0.00    -0.000 C 
BRANCH  20  21
ATOM     21  C   UNL     1       3.027   4.560  24.998  1.00  0.00    -0.000 C 
BRANCH  21  22
ATOM     22  C   UNL     1       2.932   5.484  26.229  1.00  0.00    -0.000 C 
BRANCH  22  23
ATOM     23  C   UNL     1       2.324   4.837  27.488  1.00  0.00    -0.000 C 
BRANCH  23  24
ATOM     24  C   UNL     1       0.917   4.242  27.299  1.00  0.00    -0.000 C 
BRANCH  24  25
ATOM     25  C   UNL     1      -0.186   5.309  27.282  1.00  0.00    -0.003 C 
ATOM     26  C   UNL     1      -1.323   4.913  26.345  1.00  0.00     0.004 C 
ENDBRANCH  24  25
ENDBRANCH  23  24
ENDBRANCH  22  23
ENDBRANCH  21  22
ENDBRANCH  20  21
ENDBRANCH  19  20
ENDBRANCH  18  19
ENDBRANCH  17  18
ENDBRANCH  16  17
ENDBRANCH  15  16
ENDBRANCH   1  15
TORSDOF 22
ENDMDL
