MODEL 1
REMARK VINA RESULT:    -4.036      0.000      0.000
REMARK INTER + INTRA:         -12.574
REMARK INTER:                 -10.171
REMARK INTRA:                  -2.403
REMARK UNBOUND:                -2.403
REMARK SMILES CCCCCCCCCCCCCCCCCCCCCCCCCCCC(=O)[O-]
REMARK SMILES IDX 15 1 16 2 17 3 18 4 19 5 20 6 21 7 22 8 23 9 24 10 25 11
REMARK SMILES IDX 26 12 27 13 28 14 29 15 30 16 14 17 13 18 12 19 11 20 10 21
REMARK SMILES IDX 9 22 8 23 7 24 6 25 5 26 4 27 3 28 2 29 1 30
REMARK H PARENT
REMARK Flexibility Score: inf
ROOT
ATOM      1  C   UNL     1      23.200   9.731   9.961  1.00  0.00     0.000 C 
ENDROOT
BRANCH   1   2
ATOM      2  C   UNL     1      24.529   8.976  10.133  1.00  0.00     0.000 C 
BRANCH   2   3
ATOM      3  C   UNL     1      25.542   9.725  11.019  1.00  0.00     0.000 C 
BRANCH   3   4
ATOM      4  C   UNL     1      24.940  10.759  11.990  1.00  0.00     0.000 C 
BRANCH   4   5
ATOM      5  C   UNL     1      25.453  10.601  13.433  1.00  0.00     0.000 C 
BRANCH   5   6
ATOM      6  C   UNL     1      24.694  11.495  14.428  1.00  0.00     0.000 C 
BRANCH   6   7
ATOM      7  C   UNL     1      25.103  12.974  14.331  1.00  0.00     0.000 C 
BRANCH   7   8
ATOM      8  C   UNL     1      23.935  13.887  14.736  1.00  0.00     0.000 C 
BRANCH   8   9
ATOM      9  C   UNL     1      24.151  15.346  14.309  1.00  0.00     0.000 C 
BRANCH   9  10
ATOM     10  C   UNL     1      23.157  16.311  14.975  1.00  0.00     0.000 C 
BRANCH  10  11
ATOM     11  C   UNL     1      23.462  17.784  14.621  1.00  0.00     0.000 C 
BRANCH  11  12
ATOM     12  C   UNL     1      22.230  18.707  14.673  1.00  0.00     0.006 C 
BRANCH  12  13
ATOM     13  C   UNL     1      21.901  19.397  13.335  1.00  0.00     0.053 C 
BRANCH  13  14
ATOM     14  C   UNL     1      20.495  19.139  12.880  1.00  0.00     0.041 C 
ATOM     15  O   UNL     1      19.931  18.044  13.147  1.00  0.00    -0.550 OA
ATOM     16  O   UNL     1      19.788  20.127  12.204  1.00  0.00    -0.550 OA
ENDBRANCH  13  14
ENDBRANCH  12  13
ENDBRANCH  11  12
ENDBRANCH  10  11
ENDBRANCH   9  10
ENDBRANCH   8   9
ENDBRANCH   7   8
ENDBRANCH   6   7
ENDBRANCH   5   6
ENDBRANCH   4   5
ENDBRANCH   3   4
ENDBRANCH   2   3
ENDBRANCH   1   2
BRANCH   1  17
ATOM     17  C   UNL     1      22.308   9.116   8.868  1.00  0.00     0.000 C 
BRANCH  17  18
ATOM     18  C   UNL     1      20.804   9.124   9.217  1.00  0.00     0.000 C 
BRANCH  18  19
ATOM     19  C   UNL     1      20.062   7.924   8.606  1.00  0.00     0.000 C 
BRANCH  19  20
ATOM     20  C   UNL     1      19.959   6.738   9.578  1.00  0.00     0.000 C 
BRANCH  20  21
ATOM     21  C   UNL     1      19.965   7.184  11.049  1.00  0.00     0.000 C 
BRANCH  21  22
ATOM     22  C   UNL     1      21.308   6.855  11.719  1.00  0.00    -0.000 C 
BRANCH  22  23
ATOM     23  C   UNL     1      21.802   7.987  12.636  1.00  0.00    -0.000 C 
BRANCH  23  24
ATOM     24  C   UNL     1      23.176   7.686  13.263  1.00  0.00    -0.000 C 
BRANCH  24  25
ATOM     25  C   UNL     1      23.844   6.431  12.660  1.00  0.00    -0.000 C 
BRANCH  25  26
ATOM     26  C   UNL     1      24.049   5.286  13.670  1.00  0.00    -0.000 C 
BRANCH  26  27
ATOM     27  C   UNL     1      25.456   4.660  13.670  1.00  0.00    -0.000 C 
BRANCH  27  28
ATOM     28  C   UNL     1      25.551   3.264  13.019  1.00  0.00    -0.000 C 
BRANCH  28  29
ATOM     29  C   UNL     1      24.565   2.222  13.576  1.00  0.00    -0.003 C 
ATOM     30  C   UNL     1      25.229   0.879  13.884  1.00  0.00     0.004 C 
ENDBRANCH  28  29
ENDBRANCH  27  28
ENDBRANCH  26  27
ENDBRANCH  25  26
ENDBRANCH  24  25
ENDBRANCH  23  24
ENDBRANCH  22  23
ENDBRANCH  21  22
ENDBRANCH  20  21
ENDBRANCH  19  20
ENDBRANCH  18  19
ENDBRANCH  17  18
ENDBRANCH   1  17
TORSDOF 26
ENDMDL
MODEL 2
REMARK VINA RESULT:    -4.033      1.173      2.269
REMARK INTER + INTRA:         -12.566
REMARK INTER:                  -9.773
REMARK INTRA:                  -2.794
REMARK UNBOUND:                -2.403
REMARK SMILES CCCCCCCCCCCCCCCCCCCCCCCCCCCC(=O)[O-]
REMARK SMILES IDX 15 1 16 2 17 3 18 4 19 5 20 6 21 7 22 8 23 9 24 10 25 11
REMARK SMILES IDX 26 12 27 13 28 14 29 15 30 16 14 17 13 18 12 19 11 20 10 21
REMARK SMILES IDX 9 22 8 23 7 24 6 25 5 26 4 27 3 28 2 29 1 30
REMARK H PARENT
REMARK Flexibility Score: inf
ROOT
ATOM      1  C   UNL     1      21.918   9.633   9.236  1.00  0.00     0.000 C 
ENDROOT
BRANCH   1   2
ATOM      2  C   UNL     1      22.966   8.517   9.085  1.00  0.00     0.000 C 
BRANCH   2   3
ATOM      3  C   UNL     1      24.345   8.898   9.657  1.00  0.00     0.000 C 
BRANCH   3   4
ATOM      4  C   UNL     1      24.324   9.881  10.844  1.00  0.00     0.000 C 
BRANCH   4   5
ATOM      5  C   UNL     1      25.723  10.156  11.423  1.00  0.00     0.000 C 
BRANCH   5   6
ATOM      6  C   UNL     1      25.785   9.933  12.944  1.00  0.00     0.000 C 
BRANCH   6   7
ATOM      7  C   UNL     1      24.758  10.781  13.712  1.00  0.00     0.000 C 
BRANCH   7   8
ATOM      8  C   UNL     1      25.434  12.006  14.348  1.00  0.00     0.000 C 
BRANCH   8   9
ATOM      9  C   UNL     1      24.584  13.279  14.227  1.00  0.00     0.000 C 
BRANCH   9  10
ATOM     10  C   UNL     1      25.324  14.535  14.714  1.00  0.00     0.000 C 
BRANCH  10  11
ATOM     11  C   UNL     1      24.767  15.819  14.062  1.00  0.00     0.000 C 
BRANCH  11  12
ATOM     12  C   UNL     1      23.769  16.588  14.949  1.00  0.00     0.006 C 
BRANCH  12  13
ATOM     13  C   UNL     1      23.723  18.104  14.680  1.00  0.00     0.053 C 
BRANCH  13  14
ATOM     14  C   UNL     1      22.388  18.563  14.174  1.00  0.00     0.041 C 
ATOM     15  O   UNL     1      22.311  19.525  13.363  1.00  0.00    -0.550 OA
ATOM     16  O   UNL     1      21.229  17.896  14.557  1.00  0.00    -0.550 OA
ENDBRANCH  13  14
ENDBRANCH  12  13
ENDBRANCH  11  12
ENDBRANCH  10  11
ENDBRANCH   9  10
ENDBRANCH   8   9
ENDBRANCH   7   8
ENDBRANCH   6   7
ENDBRANCH   5   6
ENDBRANCH   4   5
ENDBRANCH   3   4
ENDBRANCH   2   3
ENDBRANCH   1   2
BRANCH   1  17
ATOM     17  C   UNL     1      20.478   9.117   9.067  1.00  0.00     0.000 C 
BRANCH  17  18
ATOM     18  C   UNL     1      20.184   8.548   7.662  1.00  0.00     0.000 C 
BRANCH  18  19
ATOM     19  C   UNL     1      19.483   7.180   7.728  1.00  0.00     0.000 C 
BRANCH  19  20
ATOM     20  C   UNL     1      20.092   6.257   8.794  1.00  0.00     0.000 C 
BRANCH  20  21
ATOM     21  C   UNL     1      19.033   5.685   9.750  1.00  0.00     0.000 C 
BRANCH  21  22
ATOM     22  C   UNL     1      19.292   6.137  11.195  1.00  0.00    -0.000 C 
BRANCH  22  23
ATOM     23  C   UNL     1      20.730   6.643  11.405  1.00  0.00    -0.000 C 
BRANCH  23  24
ATOM     24  C   UNL     1      20.783   7.976  12.174  1.00  0.00    -0.000 C 
BRANCH  24  25
ATOM     25  C   UNL     1      22.216   8.357  12.606  1.00  0.00    -0.000 C 
BRANCH  25  26
ATOM     26  C   UNL     1      22.971   7.227  13.332  1.00  0.00    -0.000 C 
BRANCH  26  27
ATOM     27  C   UNL     1      24.093   6.561  12.514  1.00  0.00    -0.000 C 
BRANCH  27  28
ATOM     28  C   UNL     1      24.778   5.360  13.200  1.00  0.00    -0.000 C 
BRANCH  28  29
ATOM     29  C   UNL     1      23.822   4.247  13.662  1.00  0.00    -0.003 C 
ATOM     30  C   UNL     1      24.518   2.896  13.832  1.00  0.00     0.004 C 
ENDBRANCH  28  29
ENDBRANCH  27  28
ENDBRANCH  26  27
ENDBRANCH  25  26
ENDBRANCH  24  25
ENDBRANCH  23  24
ENDBRANCH  22  23
ENDBRANCH  21  22
ENDBRANCH  20  21
ENDBRANCH  19  20
ENDBRANCH  18  19
ENDBRANCH  17  18
ENDBRANCH   1  17
TORSDOF 26
ENDMDL
MODEL 3
REMARK VINA RESULT:    -3.822      3.713     10.355
REMARK INTER + INTRA:         -12.036
REMARK INTER:                  -9.304
REMARK INTRA:                  -2.732
REMARK UNBOUND:                -2.403
REMARK SMILES CCCCCCCCCCCCCCCCCCCCCCCCCCCC(=O)[O-]
REMARK SMILES IDX 15 1 16 2 17 3 18 4 19 5 20 6 21 7 22 8 23 9 24 10 25 11
REMARK SMILES IDX 26 12 27 13 28 14 29 15 30 16 14 17 13 18 12 19 11 20 10 21
REMARK SMILES IDX 9 22 8 23 7 24 6 25 5 26 4 27 3 28 2 29 1 30
REMARK H PARENT
REMARK Flexibility Score: inf
ROOT
ATOM      1  C   UNL     1      24.020  10.206  10.566  1.00  0.00     0.000 C 
ENDROOT
BRANCH   1   2
ATOM      2  C   UNL     1      23.799   8.963   9.688  1.00  0.00     0.000 C 
BRANCH   2   3
ATOM      3  C   UNL     1      25.070   8.112   9.511  1.00  0.00     0.000 C 
BRANCH   3   4
ATOM      4  C   UNL     1      24.854   6.586   9.513  1.00  0.00     0.000 C 
BRANCH   4   5
ATOM      5  C   UNL     1      25.980   5.818  10.229  1.00  0.00     0.000 C 
BRANCH   5   6
ATOM      6  C   UNL     1      26.071   6.168  11.724  1.00  0.00     0.000 C 
BRANCH   6   7
ATOM      7  C   UNL     1      24.780   5.845  12.491  1.00  0.00     0.000 C 
BRANCH   7   8
ATOM      8  C   UNL     1      24.314   7.062  13.306  1.00  0.00     0.000 C 
BRANCH   8   9
ATOM      9  C   UNL     1      22.785   7.195  13.347  1.00  0.00     0.000 C 
BRANCH   9  10
ATOM     10  C   UNL     1      22.161   7.293  11.946  1.00  0.00     0.000 C 
BRANCH  10  11
ATOM     11  C   UNL     1      21.039   8.354  11.889  1.00  0.00     0.000 C 
BRANCH  11  12
ATOM     12  C   UNL     1      19.794   7.906  11.101  1.00  0.00     0.006 C 
BRANCH  12  13
ATOM     13  C   UNL     1      19.816   8.296   9.611  1.00  0.00     0.053 C 
BRANCH  13  14
ATOM     14  C   UNL     1      19.804   7.106   8.699  1.00  0.00     0.041 C 
ATOM     15  O   UNL     1      19.588   5.953   9.160  1.00  0.00    -0.550 OA
ATOM     16  O   UNL     1      19.981   7.274   7.329  1.00  0.00    -0.550 OA
ENDBRANCH  13  14
ENDBRANCH  12  13
ENDBRANCH  11  12
ENDBRANCH  10  11
ENDBRANCH   9  10
ENDBRANCH   8   9
ENDBRANCH   7   8
ENDBRANCH   6   7
ENDBRANCH   5   6
ENDBRANCH   4   5
ENDBRANCH   3   4
ENDBRANCH   2   3
ENDBRANCH   1   2
BRANCH   1  17
ATOM     17  C   UNL     1      25.422  10.241  11.200  1.00  0.00     0.000 C 
BRANCH  17  18
ATOM     18  C   UNL     1      25.411  10.106  12.738  1.00  0.00     0.000 C 
BRANCH  18  19
ATOM     19  C   UNL     1      26.058  11.320  13.429  1.00  0.00     0.000 C 
BRANCH  19  20
ATOM     20  C   UNL     1      25.086  12.502  13.573  1.00  0.00     0.000 C 
BRANCH  20  21
ATOM     21  C   UNL     1      24.489  12.601  14.985  1.00  0.00     0.000 C 
BRANCH  21  22
ATOM     22  C   UNL     1      23.606  13.850  15.125  1.00  0.00    -0.000 C 
BRANCH  22  23
ATOM     23  C   UNL     1      23.887  14.896  14.032  1.00  0.00    -0.000 C 
BRANCH  23  24
ATOM     24  C   UNL     1      24.454  16.210  14.599  1.00  0.00    -0.000 C 
BRANCH  24  25
ATOM     25  C   UNL     1      23.350  17.172  15.089  1.00  0.00    -0.000 C 
BRANCH  25  26
ATOM     26  C   UNL     1      23.379  18.554  14.409  1.00  0.00    -0.000 C 
BRANCH  26  27
ATOM     27  C   UNL     1      22.057  19.343  14.476  1.00  0.00    -0.000 C 
BRANCH  27  28
ATOM     28  C   UNL     1      21.699  20.129  13.197  1.00  0.00    -0.000 C 
BRANCH  28  29
ATOM     29  C   UNL     1      20.258  19.926  12.695  1.00  0.00    -0.003 C 
ATOM     30  C   UNL     1      19.746  18.501  12.915  1.00  0.00     0.004 C 
ENDBRANCH  28  29
ENDBRANCH  27  28
ENDBRANCH  26  27
ENDBRANCH  25  26
ENDBRANCH  24  25
ENDBRANCH  23  24
ENDBRANCH  22  23
ENDBRANCH  21  22
ENDBRANCH  20  21
ENDBRANCH  19  20
ENDBRANCH  18  19
ENDBRANCH  17  18
ENDBRANCH   1  17
TORSDOF 26
ENDMDL
MODEL 4
REMARK VINA RESULT:    -2.997      3.559      8.897
REMARK INTER + INTRA:          -9.957
REMARK INTER:                  -7.027
REMARK INTRA:                  -2.930
REMARK UNBOUND:                -2.403
REMARK SMILES CCCCCCCCCCCCCCCCCCCCCCCCCCCC(=O)[O-]
REMARK SMILES IDX 15 1 16 2 17 3 18 4 19 5 20 6 21 7 22 8 23 9 24 10 25 11
REMARK SMILES IDX 26 12 27 13 28 14 29 15 30 16 14 17 13 18 12 19 11 20 10 21
REMARK SMILES IDX 9 22 8 23 7 24 6 25 5 26 4 27 3 28 2 29 1 30
REMARK H PARENT
REMARK Flexibility Score: inf
ROOT
ATOM      1  C   UNL     1      24.188   9.086  10.397  1.00  0.00     0.000 C 
ENDROOT
BRANCH   1   2
ATOM      2  C   UNL     1      22.988   9.878   9.853  1.00  0.00     0.000 C 
BRANCH   2   3
ATOM      3  C   UNL     1      22.242   9.149   8.720  1.00  0.00     0.000 C 
BRANCH   3   4
ATOM      4  C   UNL     1      22.151   9.913   7.384  1.00  0.00     0.000 C 
BRANCH   4   5
ATOM      5  C   UNL     1      21.160   9.277   6.393  1.00  0.00     0.000 C 
BRANCH   5   6
ATOM      6  C   UNL     1      19.765   9.070   7.006  1.00  0.00     0.000 C 
BRANCH   6   7
ATOM      7  C   UNL     1      19.234   7.641   6.809  1.00  0.00     0.000 C 
BRANCH   7   8
ATOM      8  C   UNL     1      19.875   6.680   7.823  1.00  0.00     0.000 C 
BRANCH   8   9
ATOM      9  C   UNL     1      18.835   5.968   8.700  1.00  0.00     0.000 C 
BRANCH   9  10
ATOM     10  C   UNL     1      19.474   5.001   9.710  1.00  0.00     0.000 C 
BRANCH  10  11
ATOM     11  C   UNL     1      19.580   5.629  11.117  1.00  0.00     0.000 C 
BRANCH  11  12
ATOM     12  C   UNL     1      20.809   6.537  11.306  1.00  0.00     0.006 C 
BRANCH  12  13
ATOM     13  C   UNL     1      20.471   7.981  11.721  1.00  0.00     0.053 C 
BRANCH  13  14
ATOM     14  C   UNL     1      19.265   8.521  11.013  1.00  0.00     0.041 C 
ATOM     15  O   UNL     1      19.396   9.193   9.954  1.00  0.00    -0.550 OA
ATOM     16  O   UNL     1      17.989   8.238  11.490  1.00  0.00    -0.550 OA
ENDBRANCH  13  14
ENDBRANCH  12  13
ENDBRANCH  11  12
ENDBRANCH  10  11
ENDBRANCH   9  10
ENDBRANCH   8   9
ENDBRANCH   7   8
ENDBRANCH   6   7
ENDBRANCH   5   6
ENDBRANCH   4   5
ENDBRANCH   3   4
ENDBRANCH   2   3
ENDBRANCH   1   2
BRANCH   1  17
ATOM     17  C   UNL     1      24.691   8.021   9.406  1.00  0.00     0.000 C 
BRANCH  17  18
ATOM     18  C   UNL     1      25.175   6.721  10.086  1.00  0.00     0.000 C 
BRANCH  18  19
ATOM     19  C   UNL     1      25.762   6.984  11.484  1.00  0.00     0.000 C 
BRANCH  19  20
ATOM     20  C   UNL     1      25.048   6.180  12.582  1.00  0.00     0.000 C 
BRANCH  20  21
ATOM     21  C   UNL     1      23.821   6.916  13.143  1.00  0.00     0.000 C 
BRANCH  21  22
ATOM     22  C   UNL     1      24.185   7.712  14.406  1.00  0.00    -0.000 C 
BRANCH  22  23
ATOM     23  C   UNL     1      24.291   9.224  14.139  1.00  0.00    -0.000 C 
BRANCH  23  24
ATOM     24  C   UNL     1      25.749   9.712  14.061  1.00  0.00    -0.000 C 
BRANCH  24  25
ATOM     25  C   UNL     1      25.966  10.765  12.953  1.00  0.00    -0.000 C 
BRANCH  25  26
ATOM     26  C   UNL     1      25.081  12.017  13.098  1.00  0.00    -0.000 C 
BRANCH  26  27
ATOM     27  C   UNL     1      25.215  12.758  14.442  1.00  0.00    -0.000 C 
BRANCH  27  28
ATOM     28  C   UNL     1      23.957  13.530  14.892  1.00  0.00    -0.000 C 
BRANCH  28  29
ATOM     29  C   UNL     1      23.967  15.033  14.560  1.00  0.00    -0.003 C 
ATOM     30  C   UNL     1      25.226  15.468  13.808  1.00  0.00     0.004 C 
ENDBRANCH  28  29
ENDBRANCH  27  28
ENDBRANCH  26  27
ENDBRANCH  25  26
ENDBRANCH  24  25
ENDBRANCH  23  24
ENDBRANCH  22  23
ENDBRANCH  21  22
ENDBRANCH  20  21
ENDBRANCH  19  20
ENDBRANCH  18  19
ENDBRANCH  17  18
ENDBRANCH   1  17
TORSDOF 26
ENDMDL
MODEL 5
REMARK VINA RESULT:    -2.690      4.985      7.932
REMARK INTER + INTRA:          -9.183
REMARK INTER:                  -5.960
REMARK INTRA:                  -3.223
REMARK UNBOUND:                -2.403
REMARK SMILES CCCCCCCCCCCCCCCCCCCCCCCCCCCC(=O)[O-]
REMARK SMILES IDX 15 1 16 2 17 3 18 4 19 5 20 6 21 7 22 8 23 9 24 10 25 11
REMARK SMILES IDX 26 12 27 13 28 14 29 15 30 16 14 17 13 18 12 19 11 20 10 21
REMARK SMILES IDX 9 22 8 23 7 24 6 25 5 26 4 27 3 28 2 29 1 30
REMARK H PARENT
REMARK Flexibility Score: inf
ROOT
ATOM      1  C   UNL     1      25.497   8.341   9.962  1.00  0.00     0.000 C 
ENDROOT
BRANCH   1   2
ATOM      2  C   UNL     1      24.584   7.266  10.575  1.00  0.00     0.000 C 
BRANCH   2   3
ATOM      3  C   UNL     1      23.188   7.212   9.925  1.00  0.00     0.000 C 
BRANCH   3   4
ATOM      4  C   UNL     1      22.155   8.208  10.485  1.00  0.00     0.000 C 
BRANCH   4   5
ATOM      5  C   UNL     1      22.140   9.550   9.730  1.00  0.00     0.000 C 
BRANCH   5   6
ATOM      6  C   UNL     1      22.678   9.423   8.295  1.00  0.00     0.000 C 
BRANCH   6   7
ATOM      7  C   UNL     1      22.165  10.535   7.367  1.00  0.00     0.000 C 
BRANCH   7   8
ATOM      8  C   UNL     1      21.015  10.020   6.488  1.00  0.00     0.000 C 
BRANCH   8   9
ATOM      9  C   UNL     1      20.787   8.509   6.638  1.00  0.00     0.000 C 
BRANCH   9  10
ATOM     10  C   UNL     1      19.301   8.122   6.557  1.00  0.00     0.000 C 
BRANCH  10  11
ATOM     11  C   UNL     1      18.986   6.873   7.409  1.00  0.00     0.000 C 
BRANCH  11  12
ATOM     12  C   UNL     1      19.299   7.042   8.908  1.00  0.00     0.006 C 
BRANCH  12  13
ATOM     13  C   UNL     1      19.182   5.744   9.729  1.00  0.00     0.053 C 
BRANCH  13  14
ATOM     14  C   UNL     1      18.838   5.996  11.166  1.00  0.00     0.041 C 
ATOM     15  O   UNL     1      18.815   7.172  11.618  1.00  0.00    -0.550 OA
ATOM     16  O   UNL     1      18.492   4.936  11.998  1.00  0.00    -0.550 OA
ENDBRANCH  13  14
ENDBRANCH  12  13
ENDBRANCH  11  12
ENDBRANCH  10  11
ENDBRANCH   9  10
ENDBRANCH   8   9
ENDBRANCH   7   8
ENDBRANCH   6   7
ENDBRANCH   5   6
ENDBRANCH   4   5
ENDBRANCH   3   4
ENDBRANCH   2   3
ENDBRANCH   1   2
BRANCH   1  17
ATOM     17  C   UNL     1      26.124   9.259  11.025  1.00  0.00     0.000 C 
BRANCH  17  18
ATOM     18  C   UNL     1      25.217  10.438  11.440  1.00  0.00     0.000 C 
BRANCH  18  19
ATOM     19  C   UNL     1      24.859  10.393  12.936  1.00  0.00     0.000 C 
BRANCH  19  20
ATOM     20  C   UNL     1      23.695   9.436  13.234  1.00  0.00     0.000 C 
BRANCH  20  21
ATOM     21  C   UNL     1      23.863   8.708  14.578  1.00  0.00     0.000 C 
BRANCH  21  22
ATOM     22  C   UNL     1      25.288   8.883  15.125  1.00  0.00    -0.000 C 
BRANCH  22  23
ATOM     23  C   UNL     1      26.125   7.597  15.011  1.00  0.00    -0.000 C 
BRANCH  23  24
ATOM     24  C   UNL     1      25.843   6.817  13.714  1.00  0.00    -0.000 C 
BRANCH  24  25
ATOM     25  C   UNL     1      24.880   5.629  13.930  1.00  0.00    -0.000 C 
BRANCH  25  26
ATOM     26  C   UNL     1      25.592   4.278  14.131  1.00  0.00    -0.000 C 
BRANCH  26  27
ATOM     27  C   UNL     1      24.678   3.117  14.569  1.00  0.00    -0.000 C 
BRANCH  27  28
ATOM     28  C   UNL     1      25.338   1.722  14.554  1.00  0.00    -0.000 C 
BRANCH  28  29
ATOM     29  C   UNL     1      25.033   0.875  13.307  1.00  0.00    -0.003 C 
ATOM     30  C   UNL     1      25.985   1.162  12.145  1.00  0.00     0.004 C 
ENDBRANCH  28  29
ENDBRANCH  27  28
ENDBRANCH  26  27
ENDBRANCH  25  26
ENDBRANCH  24  25
ENDBRANCH  23  24
ENDBRANCH  22  23
ENDBRANCH  21  22
ENDBRANCH  20  21
ENDBRANCH  19  20
ENDBRANCH  18  19
ENDBRANCH  17  18
ENDBRANCH   1  17
TORSDOF 26
ENDMDL
MODEL 6
REMARK VINA RESULT:    -2.285      2.739      4.978
REMARK INTER + INTRA:          -8.163
REMARK INTER:                  -5.383
REMARK INTRA:                  -2.780
REMARK UNBOUND:                -2.403
REMARK SMILES CCCCCCCCCCCCCCCCCCCCCCCCCCCC(=O)[O-]
REMARK SMILES IDX 15 1 16 2 17 3 18 4 19 5 20 6 21 7 22 8 23 9 24 10 25 11
REMARK SMILES IDX 26 12 27 13 28 14 29 15 30 16 14 17 13 18 12 19 11 20 10 21
REMARK SMILES IDX 9 22 8 23 7 24 6 25 5 26 4 27 3 28 2 29 1 30
REMARK H PARENT
REMARK Flexibility Score: inf
ROOT
ATOM      1  C   UNL     1      20.124   7.290   7.204  1.00  0.00     0.000 C 
ENDROOT
BRANCH   1   2
ATOM      2  C   UNL     1      20.951   8.511   6.769  1.00  0.00     0.000 C 
BRANCH   2   3
ATOM      3  C   UNL     1      20.913   9.666   7.787  1.00  0.00     0.000 C 
BRANCH   3   4
ATOM      4  C   UNL     1      21.932   9.571   8.939  1.00  0.00     0.000 C 
BRANCH   4   5
ATOM      5  C   UNL     1      23.283   8.978   8.501  1.00  0.00     0.000 C 
BRANCH   5   6
ATOM      6  C   UNL     1      23.885   8.041   9.562  1.00  0.00     0.000 C 
BRANCH   6   7
ATOM      7  C   UNL     1      25.406   7.879   9.420  1.00  0.00     0.000 C 
BRANCH   7   8
ATOM      8  C   UNL     1      26.125   8.368  10.687  1.00  0.00     0.000 C 
BRANCH   8   9
ATOM      9  C   UNL     1      25.992   9.884  10.894  1.00  0.00     0.000 C 
BRANCH   9  10
ATOM     10  C   UNL     1      25.205  10.242  12.165  1.00  0.00     0.000 C 
BRANCH  10  11
ATOM     11  C   UNL     1      26.123  10.816  13.266  1.00  0.00     0.000 C 
BRANCH  11  12
ATOM     12  C   UNL     1      26.077  12.351  13.382  1.00  0.00     0.006 C 
BRANCH  12  13
ATOM     13  C   UNL     1      24.714  12.910  13.834  1.00  0.00     0.053 C 
BRANCH  13  14
ATOM     14  C   UNL     1      24.627  14.401  13.708  1.00  0.00     0.041 C 
ATOM     15  O   UNL     1      25.490  15.035  13.043  1.00  0.00    -0.550 OA
ATOM     16  O   UNL     1      23.563  15.090  14.281  1.00  0.00    -0.550 OA
ENDBRANCH  13  14
ENDBRANCH  12  13
ENDBRANCH  11  12
ENDBRANCH  10  11
ENDBRANCH   9  10
ENDBRANCH   8   9
ENDBRANCH   7   8
ENDBRANCH   6   7
ENDBRANCH   5   6
ENDBRANCH   4   5
ENDBRANCH   3   4
ENDBRANCH   2   3
ENDBRANCH   1   2
BRANCH   1  17
ATOM     17  C   UNL     1      19.553   7.440   8.626  1.00  0.00     0.000 C 
BRANCH  17  18
ATOM     18  C   UNL     1      19.123   6.101   9.266  1.00  0.00     0.000 C 
BRANCH  18  19
ATOM     19  C   UNL     1      19.237   6.132  10.800  1.00  0.00     0.000 C 
BRANCH  19  20
ATOM     20  C   UNL     1      19.415   7.556  11.349  1.00  0.00     0.000 C 
BRANCH  20  21
ATOM     21  C   UNL     1      20.667   7.692  12.229  1.00  0.00     0.000 C 
BRANCH  21  22
ATOM     22  C   UNL     1      21.795   6.777  11.729  1.00  0.00    -0.000 C 
BRANCH  22  23
ATOM     23  C   UNL     1      23.016   6.781  12.666  1.00  0.00    -0.000 C 
BRANCH  23  24
ATOM     24  C   UNL     1      23.189   8.117  13.410  1.00  0.00    -0.000 C 
BRANCH  24  25
ATOM     25  C   UNL     1      23.684   7.930  14.862  1.00  0.00    -0.000 C 
BRANCH  25  26
ATOM     26  C   UNL     1      25.188   8.207  15.049  1.00  0.00    -0.000 C 
BRANCH  26  27
ATOM     27  C   UNL     1      26.087   6.957  15.044  1.00  0.00    -0.000 C 
BRANCH  27  28
ATOM     28  C   UNL     1      25.815   5.959  13.898  1.00  0.00    -0.000 C 
BRANCH  28  29
ATOM     29  C   UNL     1      25.971   4.477  14.281  1.00  0.00    -0.003 C 
ATOM     30  C   UNL     1      24.639   3.808  14.625  1.00  0.00     0.004 C 
ENDBRANCH  28  29
ENDBRANCH  27  28
ENDBRANCH  26  27
ENDBRANCH  25  26
ENDBRANCH  24  25
ENDBRANCH  23  24
ENDBRANCH  22  23
ENDBRANCH  21  22
ENDBRANCH  20  21
ENDBRANCH  19  20
ENDBRANCH  18  19
ENDBRANCH  17  18
ENDBRANCH   1  17
TORSDOF 26
ENDMDL
MODEL 7
REMARK VINA RESULT:    -2.067      5.474      9.682
REMARK INTER + INTRA:          -7.612
REMARK INTER:                  -6.558
REMARK INTRA:                  -1.054
REMARK UNBOUND:                -2.403
REMARK SMILES CCCCCCCCCCCCCCCCCCCCCCCCCCCC(=O)[O-]
REMARK SMILES IDX 15 1 16 2 17 3 18 4 19 5 20 6 21 7 22 8 23 9 24 10 25 11
REMARK SMILES IDX 26 12 27 13 28 14 29 15 30 16 14 17 13 18 12 19 11 20 10 21
REMARK SMILES IDX 9 22 8 23 7 24 6 25 5 26 4 27 3 28 2 29 1 30
REMARK H PARENT
REMARK Flexibility Score: inf
ROOT
ATOM      1  C   UNL     1      19.336   6.845  11.745  1.00  0.00     0.000 C 
ENDROOT
BRANCH   1   2
ATOM      2  C   UNL     1      20.571   7.745  11.569  1.00  0.00     0.000 C 
BRANCH   2   3
ATOM      3  C   UNL     1      21.801   7.247  12.351  1.00  0.00     0.000 C 
BRANCH   3   4
ATOM      4  C   UNL     1      22.482   8.292  13.256  1.00  0.00     0.000 C 
BRANCH   4   5
ATOM      5  C   UNL     1      23.776   7.774  13.909  1.00  0.00     0.000 C 
BRANCH   5   6
ATOM      6  C   UNL     1      24.029   6.286  13.613  1.00  0.00     0.000 C 
BRANCH   6   7
ATOM      7  C   UNL     1      25.393   6.034  12.953  1.00  0.00     0.000 C 
BRANCH   7   8
ATOM      8  C   UNL     1      25.442   6.663  11.552  1.00  0.00     0.000 C 
BRANCH   8   9
ATOM      9  C   UNL     1      26.028   5.713  10.497  1.00  0.00     0.000 C 
BRANCH   9  10
ATOM     10  C   UNL     1      25.442   4.295  10.586  1.00  0.00     0.000 C 
BRANCH  10  11
ATOM     11  C   UNL     1      26.125   3.459  11.691  1.00  0.00     0.000 C 
BRANCH  11  12
ATOM     12  C   UNL     1      25.985   1.937  11.500  1.00  0.00     0.006 C 
BRANCH  12  13
ATOM     13  C   UNL     1      25.955   1.136  12.816  1.00  0.00     0.053 C 
BRANCH  13  14
ATOM     14  C   UNL     1      25.116   1.787  13.874  1.00  0.00     0.041 C 
ATOM     15  O   UNL     1      23.864   1.847  13.745  1.00  0.00    -0.550 OA
ATOM     16  O   UNL     1      25.710   2.283  15.029  1.00  0.00    -0.550 OA
ENDBRANCH  13  14
ENDBRANCH  12  13
ENDBRANCH  11  12
ENDBRANCH  10  11
ENDBRANCH   9  10
ENDBRANCH   8   9
ENDBRANCH   7   8
ENDBRANCH   6   7
ENDBRANCH   5   6
ENDBRANCH   4   5
ENDBRANCH   3   4
ENDBRANCH   2   3
ENDBRANCH   1   2
BRANCH   1  17
ATOM     17  C   UNL     1      19.440   5.537  10.941  1.00  0.00     0.000 C 
BRANCH  17  18
ATOM     18  C   UNL     1      19.298   5.733   9.416  1.00  0.00     0.000 C 
BRANCH  18  19
ATOM     19  C   UNL     1      20.527   6.427   8.805  1.00  0.00     0.000 C 
BRANCH  19  20
ATOM     20  C   UNL     1      20.145   7.506   7.780  1.00  0.00     0.000 C 
BRANCH  20  21
ATOM     21  C   UNL     1      19.840   8.860   8.440  1.00  0.00     0.000 C 
BRANCH  21  22
ATOM     22  C   UNL     1      21.123   9.517   8.971  1.00  0.00    -0.000 C 
BRANCH  22  23
ATOM     23  C   UNL     1      22.293   8.523   9.082  1.00  0.00    -0.000 C 
BRANCH  23  24
ATOM     24  C   UNL     1      23.662   9.223   9.157  1.00  0.00    -0.000 C 
BRANCH  24  25
ATOM     25  C   UNL     1      24.042   9.633  10.596  1.00  0.00    -0.000 C 
BRANCH  25  26
ATOM     26  C   UNL     1      25.560   9.664  10.856  1.00  0.00    -0.000 C 
BRANCH  26  27
ATOM     27  C   UNL     1      25.976  10.218  12.232  1.00  0.00    -0.000 C 
BRANCH  27  28
ATOM     28  C   UNL     1      24.990  11.227  12.857  1.00  0.00    -0.000 C 
BRANCH  28  29
ATOM     29  C   UNL     1      25.250  11.554  14.338  1.00  0.00    -0.003 C 
ATOM     30  C   UNL     1      23.988  11.992  15.082  1.00  0.00     0.004 C 
ENDBRANCH  28  29
ENDBRANCH  27  28
ENDBRANCH  26  27
ENDBRANCH  25  26
ENDBRANCH  24  25
ENDBRANCH  23  24
ENDBRANCH  22  23
ENDBRANCH  21  22
ENDBRANCH  20  21
ENDBRANCH  19  20
ENDBRANCH  18  19
ENDBRANCH  17  18
ENDBRANCH   1  17
TORSDOF 26
ENDMDL
MODEL 8
REMARK VINA RESULT:    -2.049      2.292      4.402
REMARK INTER + INTRA:          -7.567
REMARK INTER:                  -7.439
REMARK INTRA:                  -0.128
REMARK UNBOUND:                -2.403
REMARK SMILES CCCCCCCCCCCCCCCCCCCCCCCCCCCC(=O)[O-]
REMARK SMILES IDX 15 1 16 2 17 3 18 4 19 5 20 6 21 7 22 8 23 9 24 10 25 11
REMARK SMILES IDX 26 12 27 13 28 14 29 15 30 16 14 17 13 18 12 19 11 20 10 21
REMARK SMILES IDX 9 22 8 23 7 24 6 25 5 26 4 27 3 28 2 29 1 30
REMARK H PARENT
REMARK Flexibility Score: inf
ROOT
ATOM      1  C   UNL     1      19.005   6.917   7.428  1.00  0.00     0.000 C 
ENDROOT
BRANCH   1   2
ATOM      2  C   UNL     1      20.169   7.918   7.518  1.00  0.00     0.000 C 
BRANCH   2   3
ATOM      3  C   UNL     1      20.132   8.780   8.794  1.00  0.00     0.000 C 
BRANCH   3   4
ATOM      4  C   UNL     1      21.433   8.804   9.619  1.00  0.00     0.000 C 
BRANCH   4   5
ATOM      5  C   UNL     1      22.490   9.768   9.052  1.00  0.00     0.000 C 
BRANCH   5   6
ATOM      6  C   UNL     1      23.904   9.465   9.574  1.00  0.00     0.000 C 
BRANCH   6   7
ATOM      7  C   UNL     1      24.188  10.116  10.937  1.00  0.00     0.000 C 
BRANCH   7   8
ATOM      8  C   UNL     1      25.679  10.005  11.291  1.00  0.00     0.000 C 
BRANCH   8   9
ATOM      9  C   UNL     1      26.125  11.063  12.310  1.00  0.00     0.000 C 
BRANCH   9  10
ATOM     10  C   UNL     1      25.001  11.461  13.281  1.00  0.00     0.000 C 
BRANCH  10  11
ATOM     11  C   UNL     1      25.547  12.217  14.512  1.00  0.00     0.000 C 
BRANCH  11  12
ATOM     12  C   UNL     1      26.002  13.657  14.211  1.00  0.00     0.006 C 
BRANCH  12  13
ATOM     13  C   UNL     1      24.939  14.521  13.505  1.00  0.00     0.053 C 
BRANCH  13  14
ATOM     14  C   UNL     1      24.857  15.911  14.063  1.00  0.00     0.041 C 
ATOM     15  O   UNL     1      23.810  16.302  14.646  1.00  0.00    -0.550 OA
ATOM     16  O   UNL     1      25.956  16.760  13.986  1.00  0.00    -0.550 OA
ENDBRANCH  13  14
ENDBRANCH  12  13
ENDBRANCH  11  12
ENDBRANCH  10  11
ENDBRANCH   9  10
ENDBRANCH   8   9
ENDBRANCH   7   8
ENDBRANCH   6   7
ENDBRANCH   5   6
ENDBRANCH   4   5
ENDBRANCH   3   4
ENDBRANCH   2   3
ENDBRANCH   1   2
BRANCH   1  17
ATOM     17  C   UNL     1      18.795   6.136   8.738  1.00  0.00     0.000 C 
BRANCH  17  18
ATOM     18  C   UNL     1      19.798   6.512   9.851  1.00  0.00     0.000 C 
BRANCH  18  19
ATOM     19  C   UNL     1      19.519   5.752  11.160  1.00  0.00     0.000 C 
BRANCH  19  20
ATOM     20  C   UNL     1      20.752   5.682  12.073  1.00  0.00     0.000 C 
BRANCH  20  21
ATOM     21  C   UNL     1      21.818   6.725  11.701  1.00  0.00     0.000 C 
BRANCH  21  22
ATOM     22  C   UNL     1      22.480   7.310  12.958  1.00  0.00    -0.000 C 
BRANCH  22  23
ATOM     23  C   UNL     1      24.004   7.462  12.805  1.00  0.00    -0.000 C 
BRANCH  23  24
ATOM     24  C   UNL     1      24.695   6.145  12.410  1.00  0.00    -0.000 C 
BRANCH  24  25
ATOM     25  C   UNL     1      25.756   5.696  13.440  1.00  0.00    -0.000 C 
BRANCH  25  26
ATOM     26  C   UNL     1      25.330   4.483  14.287  1.00  0.00    -0.000 C 
BRANCH  26  27
ATOM     27  C   UNL     1      24.417   3.472  13.567  1.00  0.00    -0.000 C 
BRANCH  27  28
ATOM     28  C   UNL     1      24.753   1.988  13.824  1.00  0.00    -0.000 C 
BRANCH  28  29
ATOM     29  C   UNL     1      25.875   1.415  12.941  1.00  0.00    -0.003 C 
ATOM     30  C   UNL     1      26.084   2.213  11.652  1.00  0.00     0.004 C 
ENDBRANCH  28  29
ENDBRANCH  27  28
ENDBRANCH  26  27
ENDBRANCH  25  26
ENDBRANCH  24  25
ENDBRANCH  23  24
ENDBRANCH  22  23
ENDBRANCH  21  22
ENDBRANCH  20  21
ENDBRANCH  19  20
ENDBRANCH  18  19
ENDBRANCH  17  18
ENDBRANCH   1  17
TORSDOF 26
ENDMDL
