MODEL 1
REMARK VINA RESULT:    -6.969      0.000      0.000
REMARK INTER + INTRA:         -13.477
REMARK INTER:                 -12.673
REMARK INTRA:                  -0.805
REMARK UNBOUND:                -0.805
REMARK SMILES CCCCCCCCCCCCCCCC(=O)[O-]
REMARK SMILES IDX 9 1 10 2 11 3 12 4 13 5 14 6 15 7 16 8 17 9 18 10 8 11 7 12
REMARK SMILES IDX 6 13 5 14 4 15 3 16 2 17 1 18
REMARK H PARENT
REMARK Flexibility Score: inf
ROOT
ATOM      1  C   UNL     1     -22.752 -22.469  31.504  1.00  0.00     0.000 C 
ENDROOT
BRANCH   1   2
ATOM      2  C   UNL     1     -21.520 -21.675  31.966  1.00  0.00     0.000 C 
BRANCH   2   3
ATOM      3  C   UNL     1     -21.385 -20.314  31.261  1.00  0.00     0.000 C 
BRANCH   3   4
ATOM      4  C   UNL     1     -22.034 -20.238  29.864  1.00  0.00     0.000 C 
BRANCH   4   5
ATOM      5  C   UNL     1     -21.227 -19.457  28.809  1.00  0.00     0.000 C 
BRANCH   5   6
ATOM      6  C   UNL     1     -20.640 -18.117  29.297  1.00  0.00     0.006 C 
BRANCH   6   7
ATOM      7  C   UNL     1     -19.105 -18.082  29.356  1.00  0.00     0.053 C 
BRANCH   7   8
ATOM      8  C   UNL     1     -18.572 -16.684  29.290  1.00  0.00     0.041 C 
ATOM      9  O   UNL     1     -18.293 -16.062  30.350  1.00  0.00    -0.550 OA
ATOM     10  O   UNL     1     -18.419 -16.054  28.062  1.00  0.00    -0.550 OA
ENDBRANCH   7   8
ENDBRANCH   6   7
ENDBRANCH   5   6
ENDBRANCH   4   5
ENDBRANCH   3   4
ENDBRANCH   2   3
ENDBRANCH   1   2
BRANCH   1  11
ATOM     11  C   UNL     1     -22.338 -23.822  30.905  1.00  0.00     0.000 C 
BRANCH  11  12
ATOM     12  C   UNL     1     -22.691 -23.945  29.415  1.00  0.00    -0.000 C 
BRANCH  12  13
ATOM     13  C   UNL     1     -23.552 -25.183  29.111  1.00  0.00    -0.000 C 
BRANCH  13  14
ATOM     14  C   UNL     1     -24.289 -25.719  30.351  1.00  0.00    -0.000 C 
BRANCH  14  15
ATOM     15  C   UNL     1     -25.278 -26.868  30.079  1.00  0.00    -0.000 C 
BRANCH  15  16
ATOM     16  C   UNL     1     -25.503 -27.124  28.582  1.00  0.00    -0.000 C 
BRANCH  16  17
ATOM     17  C   UNL     1     -26.455 -28.306  28.365  1.00  0.00    -0.003 C 
ATOM     18  C   UNL     1     -26.831 -28.449  26.893  1.00  0.00     0.004 C 
ENDBRANCH  16  17
ENDBRANCH  15  16
ENDBRANCH  14  15
ENDBRANCH  13  14
ENDBRANCH  12  13
ENDBRANCH  11  12
ENDBRANCH   1  11
TORSDOF 14
ENDMDL
MODEL 2
REMARK VINA RESULT:    -6.967      4.692      9.725
REMARK INTER + INTRA:         -13.474
REMARK INTER:                 -12.644
REMARK INTRA:                  -0.831
REMARK UNBOUND:                -0.805
REMARK SMILES CCCCCCCCCCCCCCCC(=O)[O-]
REMARK SMILES IDX 9 1 10 2 11 3 12 4 13 5 14 6 15 7 16 8 17 9 18 10 8 11 7 12
REMARK SMILES IDX 6 13 5 14 4 15 3 16 2 17 1 18
REMARK H PARENT
REMARK Flexibility Score: inf
ROOT
ATOM      1  C   UNL     1     -21.283 -21.234  31.773  1.00  0.00     0.000 C 
ENDROOT
BRANCH   1   2
ATOM      2  C   UNL     1     -22.468 -22.049  31.233  1.00  0.00     0.000 C 
BRANCH   2   3
ATOM      3  C   UNL     1     -22.038 -23.388  30.606  1.00  0.00     0.000 C 
BRANCH   3   4
ATOM      4  C   UNL     1     -22.387 -23.548  29.112  1.00  0.00     0.000 C 
BRANCH   4   5
ATOM      5  C   UNL     1     -23.120 -24.854  28.748  1.00  0.00     0.000 C 
BRANCH   5   6
ATOM      6  C   UNL     1     -24.223 -25.282  29.738  1.00  0.00     0.006 C 
BRANCH   6   7
ATOM      7  C   UNL     1     -24.330 -26.800  29.949  1.00  0.00     0.053 C 
BRANCH   7   8
ATOM      8  C   UNL     1     -25.446 -27.160  30.880  1.00  0.00     0.041 C 
ATOM      9  O   UNL     1     -25.681 -26.447  31.892  1.00  0.00    -0.550 OA
ATOM     10  O   UNL     1     -26.203 -28.302  30.652  1.00  0.00    -0.550 OA
ENDBRANCH   7   8
ENDBRANCH   6   7
ENDBRANCH   5   6
ENDBRANCH   4   5
ENDBRANCH   3   4
ENDBRANCH   2   3
ENDBRANCH   1   2
BRANCH   1  11
ATOM     11  C   UNL     1     -21.250 -19.833  31.143  1.00  0.00     0.000 C 
BRANCH  11  12
ATOM     12  C   UNL     1     -21.447 -19.861  29.620  1.00  0.00    -0.000 C 
BRANCH  12  13
ATOM     13  C   UNL     1     -20.879 -18.611  28.926  1.00  0.00    -0.000 C 
BRANCH  13  14
ATOM     14  C   UNL     1     -20.431 -17.525  29.922  1.00  0.00    -0.000 C 
BRANCH  14  15
ATOM     15  C   UNL     1     -18.914 -17.268  29.971  1.00  0.00    -0.000 C 
BRANCH  15  16
ATOM     16  C   UNL     1     -18.272 -17.198  28.578  1.00  0.00    -0.000 C 
BRANCH  16  17
ATOM     17  C   UNL     1     -17.932 -15.751  28.204  1.00  0.00    -0.003 C 
ATOM     18  C   UNL     1     -17.512 -15.643  26.740  1.00  0.00     0.004 C 
ENDBRANCH  16  17
ENDBRANCH  15  16
ENDBRANCH  14  15
ENDBRANCH  13  14
ENDBRANCH  12  13
ENDBRANCH  11  12
ENDBRANCH   1  11
TORSDOF 14
ENDMDL
MODEL 3
REMARK VINA RESULT:    -6.949      1.676      2.617
REMARK INTER + INTRA:         -13.441
REMARK INTER:                 -12.340
REMARK INTRA:                  -1.101
REMARK UNBOUND:                -0.805
REMARK SMILES CCCCCCCCCCCCCCCC(=O)[O-]
REMARK SMILES IDX 9 1 10 2 11 3 12 4 13 5 14 6 15 7 16 8 17 9 18 10 8 11 7 12
REMARK SMILES IDX 6 13 5 14 4 15 3 16 2 17 1 18
REMARK H PARENT
REMARK Flexibility Score: inf
ROOT
ATOM      1  C   UNL     1     -22.419 -20.760  28.989  1.00  0.00     0.000 C 
ENDROOT
BRANCH   1   2
ATOM      2  C   UNL     1     -21.247 -19.811  29.283  1.00  0.00     0.000 C 
BRANCH   2   3
ATOM      3  C   UNL     1     -21.361 -19.126  30.657  1.00  0.00     0.000 C 
BRANCH   3   4
ATOM      4  C   UNL     1     -20.100 -19.225  31.539  1.00  0.00     0.000 C 
BRANCH   4   5
ATOM      5  C   UNL     1     -18.934 -18.309  31.118  1.00  0.00     0.000 C 
BRANCH   5   6
ATOM      6  C   UNL     1     -19.347 -17.038  30.350  1.00  0.00     0.006 C 
BRANCH   6   7
ATOM      7  C   UNL     1     -18.902 -17.014  28.879  1.00  0.00     0.053 C 
BRANCH   7   8
ATOM      8  C   UNL     1     -17.963 -15.884  28.595  1.00  0.00     0.041 C 
ATOM      9  O   UNL     1     -17.562 -15.143  29.531  1.00  0.00    -0.550 OA
ATOM     10  O   UNL     1     -17.560 -15.624  27.291  1.00  0.00    -0.550 OA
ENDBRANCH   7   8
ENDBRANCH   6   7
ENDBRANCH   5   6
ENDBRANCH   4   5
ENDBRANCH   3   4
ENDBRANCH   2   3
ENDBRANCH   1   2
BRANCH   1  11
ATOM     11  C   UNL     1     -21.908 -22.156  28.599  1.00  0.00     0.000 C 
BRANCH  11  12
ATOM     12  C   UNL     1     -22.364 -23.250  29.577  1.00  0.00    -0.000 C 
BRANCH  12  13
ATOM     13  C   UNL     1     -22.461 -22.745  31.026  1.00  0.00    -0.000 C 
BRANCH  13  14
ATOM     14  C   UNL     1     -23.300 -23.668  31.928  1.00  0.00    -0.000 C 
BRANCH  14  15
ATOM     15  C   UNL     1     -23.427 -25.123  31.439  1.00  0.00    -0.000 C 
BRANCH  15  16
ATOM     16  C   UNL     1     -24.875 -25.525  31.123  1.00  0.00    -0.000 C 
BRANCH  16  17
ATOM     17  C   UNL     1     -25.069 -25.738  29.617  1.00  0.00    -0.003 C 
ATOM     18  C   UNL     1     -23.948 -26.593  29.031  1.00  0.00     0.004 C 
ENDBRANCH  16  17
ENDBRANCH  15  16
ENDBRANCH  14  15
ENDBRANCH  13  14
ENDBRANCH  12  13
ENDBRANCH  11  12
ENDBRANCH   1  11
TORSDOF 14
ENDMDL
MODEL 4
REMARK VINA RESULT:    -6.916      5.063      9.969
REMARK INTER + INTRA:         -13.382
REMARK INTER:                 -12.669
REMARK INTRA:                  -0.713
REMARK UNBOUND:                -0.805
REMARK SMILES CCCCCCCCCCCCCCCC(=O)[O-]
REMARK SMILES IDX 9 1 10 2 11 3 12 4 13 5 14 6 15 7 16 8 17 9 18 10 8 11 7 12
REMARK SMILES IDX 6 13 5 14 4 15 3 16 2 17 1 18
REMARK H PARENT
REMARK Flexibility Score: inf
ROOT
ATOM      1  C   UNL     1     -22.456 -22.015  31.405  1.00  0.00     0.000 C 
ENDROOT
BRANCH   1   2
ATOM      2  C   UNL     1     -22.057 -23.383  30.834  1.00  0.00     0.000 C 
BRANCH   2   3
ATOM      3  C   UNL     1     -22.380 -23.524  29.336  1.00  0.00     0.000 C 
BRANCH   3   4
ATOM      4  C   UNL     1     -23.150 -24.805  28.954  1.00  0.00     0.000 C 
BRANCH   4   5
ATOM      5  C   UNL     1     -24.056 -25.378  30.062  1.00  0.00     0.000 C 
BRANCH   5   6
ATOM      6  C   UNL     1     -24.710 -26.736  29.733  1.00  0.00     0.006 C 
BRANCH   6   7
ATOM      7  C   UNL     1     -25.895 -26.649  28.759  1.00  0.00     0.053 C 
BRANCH   7   8
ATOM      8  C   UNL     1     -26.382 -28.003  28.345  1.00  0.00     0.041 C 
ATOM      9  O   UNL     1     -26.434 -28.311  27.125  1.00  0.00    -0.550 OA
ATOM     10  O   UNL     1     -26.813 -28.911  29.303  1.00  0.00    -0.550 OA
ENDBRANCH   7   8
ENDBRANCH   6   7
ENDBRANCH   5   6
ENDBRANCH   4   5
ENDBRANCH   3   4
ENDBRANCH   2   3
ENDBRANCH   1   2
BRANCH   1  11
ATOM     11  C   UNL     1     -21.238 -21.294  32.002  1.00  0.00     0.000 C 
BRANCH  11  12
ATOM     12  C   UNL     1     -20.951 -19.947  31.321  1.00  0.00    -0.000 C 
BRANCH  12  13
ATOM     13  C   UNL     1     -21.699 -19.788  29.986  1.00  0.00    -0.000 C 
BRANCH  13  14
ATOM     14  C   UNL     1     -20.899 -18.989  28.942  1.00  0.00    -0.000 C 
BRANCH  14  15
ATOM     15  C   UNL     1     -20.622 -17.520  29.312  1.00  0.00    -0.000 C 
BRANCH  15  16
ATOM     16  C   UNL     1     -19.125 -17.209  29.455  1.00  0.00    -0.000 C 
BRANCH  16  17
ATOM     17  C   UNL     1     -18.625 -16.371  28.274  1.00  0.00    -0.003 C 
ATOM     18  C   UNL     1     -17.519 -15.412  28.706  1.00  0.00     0.004 C 
ENDBRANCH  16  17
ENDBRANCH  15  16
ENDBRANCH  14  15
ENDBRANCH  13  14
ENDBRANCH  12  13
ENDBRANCH  11  12
ENDBRANCH   1  11
TORSDOF 14
ENDMDL
MODEL 5
REMARK VINA RESULT:    -6.915      0.845      1.233
REMARK INTER + INTRA:         -13.379
REMARK INTER:                 -12.803
REMARK INTRA:                  -0.576
REMARK UNBOUND:                -0.805
REMARK SMILES CCCCCCCCCCCCCCCC(=O)[O-]
REMARK SMILES IDX 9 1 10 2 11 3 12 4 13 5 14 6 15 7 16 8 17 9 18 10 8 11 7 12
REMARK SMILES IDX 6 13 5 14 4 15 3 16 2 17 1 18
REMARK H PARENT
REMARK Flexibility Score: inf
ROOT
ATOM      1  C   UNL     1     -22.540 -22.969  31.419  1.00  0.00     0.000 C 
ENDROOT
BRANCH   1   2
ATOM      2  C   UNL     1     -21.876 -21.596  31.603  1.00  0.00     0.000 C 
BRANCH   2   3
ATOM      3  C   UNL     1     -22.069 -20.670  30.389  1.00  0.00     0.000 C 
BRANCH   3   4
ATOM      4  C   UNL     1     -21.169 -19.417  30.378  1.00  0.00     0.000 C 
BRANCH   4   5
ATOM      5  C   UNL     1     -20.914 -18.807  28.986  1.00  0.00     0.000 C 
BRANCH   5   6
ATOM      6  C   UNL     1     -20.333 -17.379  28.996  1.00  0.00     0.006 C 
BRANCH   6   7
ATOM      7  C   UNL     1     -18.808 -17.316  29.176  1.00  0.00     0.053 C 
BRANCH   7   8
ATOM      8  C   UNL     1     -18.212 -16.118  28.503  1.00  0.00     0.041 C 
ATOM      9  O   UNL     1     -18.281 -15.995  27.251  1.00  0.00    -0.550 OA
ATOM     10  O   UNL     1     -17.550 -15.156  29.254  1.00  0.00    -0.550 OA
ENDBRANCH   7   8
ENDBRANCH   6   7
ENDBRANCH   5   6
ENDBRANCH   4   5
ENDBRANCH   3   4
ENDBRANCH   2   3
ENDBRANCH   1   2
BRANCH   1  11
ATOM     11  C   UNL     1     -22.302 -23.507  30.000  1.00  0.00     0.000 C 
BRANCH  11  12
ATOM     12  C   UNL     1     -23.262 -24.647  29.627  1.00  0.00    -0.000 C 
BRANCH  12  13
ATOM     13  C   UNL     1     -23.920 -25.292  30.858  1.00  0.00    -0.000 C 
BRANCH  13  14
ATOM     14  C   UNL     1     -24.724 -26.560  30.514  1.00  0.00    -0.000 C 
BRANCH  14  15
ATOM     15  C   UNL     1     -24.736 -26.942  29.022  1.00  0.00    -0.000 C 
BRANCH  15  16
ATOM     16  C   UNL     1     -26.153 -27.020  28.435  1.00  0.00    -0.000 C 
BRANCH  16  17
ATOM     17  C   UNL     1     -26.470 -28.441  27.956  1.00  0.00    -0.003 C 
ATOM     18  C   UNL     1     -26.951 -28.441  26.507  1.00  0.00     0.004 C 
ENDBRANCH  16  17
ENDBRANCH  15  16
ENDBRANCH  14  15
ENDBRANCH  13  14
ENDBRANCH  12  13
ENDBRANCH  11  12
ENDBRANCH   1  11
TORSDOF 14
ENDMDL
MODEL 6
REMARK VINA RESULT:    -6.905      1.314      2.311
REMARK INTER + INTRA:         -13.362
REMARK INTER:                 -12.304
REMARK INTRA:                  -1.058
REMARK UNBOUND:                -0.805
REMARK SMILES CCCCCCCCCCCCCCCC(=O)[O-]
REMARK SMILES IDX 9 1 10 2 11 3 12 4 13 5 14 6 15 7 16 8 17 9 18 10 8 11 7 12
REMARK SMILES IDX 6 13 5 14 4 15 3 16 2 17 1 18
REMARK H PARENT
REMARK Flexibility Score: inf
ROOT
ATOM      1  C   UNL     1     -21.490 -21.481  31.652  1.00  0.00     0.000 C 
ENDROOT
BRANCH   1   2
ATOM      2  C   UNL     1     -21.729 -20.106  31.010  1.00  0.00     0.000 C 
BRANCH   2   3
ATOM      3  C   UNL     1     -21.680 -20.147  29.472  1.00  0.00     0.000 C 
BRANCH   3   4
ATOM      4  C   UNL     1     -20.917 -18.978  28.815  1.00  0.00     0.000 C 
BRANCH   4   5
ATOM      5  C   UNL     1     -20.848 -17.687  29.655  1.00  0.00     0.000 C 
BRANCH   5   6
ATOM      6  C   UNL     1     -19.424 -17.226  30.027  1.00  0.00     0.006 C 
BRANCH   6   7
ATOM      7  C   UNL     1     -18.403 -17.340  28.885  1.00  0.00     0.053 C 
BRANCH   7   8
ATOM      8  C   UNL     1     -17.988 -15.998  28.366  1.00  0.00     0.041 C 
ATOM      9  O   UNL     1     -18.016 -15.761  27.129  1.00  0.00    -0.550 OA
ATOM     10  O   UNL     1     -17.537 -15.021  29.244  1.00  0.00    -0.550 OA
ENDBRANCH   7   8
ENDBRANCH   6   7
ENDBRANCH   5   6
ENDBRANCH   4   5
ENDBRANCH   3   4
ENDBRANCH   2   3
ENDBRANCH   1   2
BRANCH   1  11
ATOM     11  C   UNL     1     -22.782 -22.313  31.662  1.00  0.00     0.000 C 
BRANCH  11  12
ATOM     12  C   UNL     1     -22.553 -23.772  31.238  1.00  0.00    -0.000 C 
BRANCH  12  13
ATOM     13  C   UNL     1     -22.283 -23.915  29.731  1.00  0.00    -0.000 C 
BRANCH  13  14
ATOM     14  C   UNL     1     -23.452 -24.569  28.972  1.00  0.00    -0.000 C 
BRANCH  14  15
ATOM     15  C   UNL     1     -23.452 -26.109  28.969  1.00  0.00    -0.000 C 
BRANCH  15  16
ATOM     16  C   UNL     1     -24.829 -26.710  29.286  1.00  0.00    -0.000 C 
BRANCH  16  17
ATOM     17  C   UNL     1     -24.933 -27.088  30.768  1.00  0.00    -0.003 C 
ATOM     18  C   UNL     1     -25.590 -25.974  31.578  1.00  0.00     0.004 C 
ENDBRANCH  16  17
ENDBRANCH  15  16
ENDBRANCH  14  15
ENDBRANCH  13  14
ENDBRANCH  12  13
ENDBRANCH  11  12
ENDBRANCH   1  11
TORSDOF 14
ENDMDL
MODEL 7
REMARK VINA RESULT:    -6.868      4.988      9.909
REMARK INTER + INTRA:         -13.294
REMARK INTER:                 -12.557
REMARK INTRA:                  -0.736
REMARK UNBOUND:                -0.805
REMARK SMILES CCCCCCCCCCCCCCCC(=O)[O-]
REMARK SMILES IDX 9 1 10 2 11 3 12 4 13 5 14 6 15 7 16 8 17 9 18 10 8 11 7 12
REMARK SMILES IDX 6 13 5 14 4 15 3 16 2 17 1 18
REMARK H PARENT
REMARK Flexibility Score: inf
ROOT
ATOM      1  C   UNL     1     -21.755 -21.742  31.395  1.00  0.00     0.000 C 
ENDROOT
BRANCH   1   2
ATOM      2  C   UNL     1     -22.935 -22.681  31.690  1.00  0.00     0.000 C 
BRANCH   2   3
ATOM      3  C   UNL     1     -22.755 -24.080  31.074  1.00  0.00     0.000 C 
BRANCH   3   4
ATOM      4  C   UNL     1     -22.648 -24.104  29.536  1.00  0.00     0.000 C 
BRANCH   4   5
ATOM      5  C   UNL     1     -23.376 -25.275  28.847  1.00  0.00     0.000 C 
BRANCH   5   6
ATOM      6  C   UNL     1     -24.379 -26.035  29.738  1.00  0.00     0.006 C 
BRANCH   6   7
ATOM      7  C   UNL     1     -25.735 -26.313  29.070  1.00  0.00     0.053 C 
BRANCH   7   8
ATOM      8  C   UNL     1     -26.154 -27.742  29.224  1.00  0.00     0.041 C 
ATOM      9  O   UNL     1     -26.190 -28.272  30.366  1.00  0.00    -0.550 OA
ATOM     10  O   UNL     1     -26.469 -28.500  28.103  1.00  0.00    -0.550 OA
ENDBRANCH   7   8
ENDBRANCH   6   7
ENDBRANCH   5   6
ENDBRANCH   4   5
ENDBRANCH   3   4
ENDBRANCH   2   3
ENDBRANCH   1   2
BRANCH   1  11
ATOM     11  C   UNL     1     -22.231 -20.482  30.655  1.00  0.00     0.000 C 
BRANCH  11  12
ATOM     12  C   UNL     1     -21.621 -20.352  29.251  1.00  0.00    -0.000 C 
BRANCH  12  13
ATOM     13  C   UNL     1     -20.985 -18.973  29.007  1.00  0.00    -0.000 C 
BRANCH  13  14
ATOM     14  C   UNL     1     -20.248 -18.426  30.243  1.00  0.00    -0.000 C 
BRANCH  14  15
ATOM     15  C   UNL     1     -18.972 -17.618  29.939  1.00  0.00    -0.000 C 
BRANCH  15  16
ATOM     16  C   UNL     1     -19.059 -16.833  28.622  1.00  0.00    -0.000 C 
BRANCH  16  17
ATOM     17  C   UNL     1     -17.904 -15.832  28.505  1.00  0.00    -0.003 C 
ATOM     18  C   UNL     1     -17.515 -15.605  27.046  1.00  0.00     0.004 C 
ENDBRANCH  16  17
ENDBRANCH  15  16
ENDBRANCH  14  15
ENDBRANCH  13  14
ENDBRANCH  12  13
ENDBRANCH  11  12
ENDBRANCH   1  11
TORSDOF 14
ENDMDL
MODEL 8
REMARK VINA RESULT:    -6.804      4.567     10.038
REMARK INTER + INTRA:         -13.178
REMARK INTER:                 -12.429
REMARK INTRA:                  -0.750
REMARK UNBOUND:                -0.805
REMARK SMILES CCCCCCCCCCCCCCCC(=O)[O-]
REMARK SMILES IDX 9 1 10 2 11 3 12 4 13 5 14 6 15 7 16 8 17 9 18 10 8 11 7 12
REMARK SMILES IDX 6 13 5 14 4 15 3 16 2 17 1 18
REMARK H PARENT
REMARK Flexibility Score: inf
ROOT
ATOM      1  C   UNL     1     -21.687 -20.118  28.978  1.00  0.00     0.000 C 
ENDROOT
BRANCH   1   2
ATOM      2  C   UNL     1     -22.113 -20.849  30.260  1.00  0.00     0.000 C 
BRANCH   2   3
ATOM      3  C   UNL     1     -21.991 -22.379  30.146  1.00  0.00     0.000 C 
BRANCH   3   4
ATOM      4  C   UNL     1     -22.696 -23.172  31.265  1.00  0.00     0.000 C 
BRANCH   4   5
ATOM      5  C   UNL     1     -23.024 -24.638  30.921  1.00  0.00     0.000 C 
BRANCH   5   6
ATOM      6  C   UNL     1     -23.263 -24.920  29.424  1.00  0.00     0.006 C 
BRANCH   6   7
ATOM      7  C   UNL     1     -23.704 -26.358  29.112  1.00  0.00     0.053 C 
BRANCH   7   8
ATOM      8  C   UNL     1     -25.097 -26.634  29.587  1.00  0.00     0.041 C 
ATOM      9  O   UNL     1     -26.084 -26.165  28.960  1.00  0.00    -0.550 OA
ATOM     10  O   UNL     1     -25.305 -27.377  30.742  1.00  0.00    -0.550 OA
ENDBRANCH   7   8
ENDBRANCH   6   7
ENDBRANCH   5   6
ENDBRANCH   4   5
ENDBRANCH   3   4
ENDBRANCH   2   3
ENDBRANCH   1   2
BRANCH   1  11
ATOM     11  C   UNL     1     -20.868 -18.861  29.310  1.00  0.00     0.000 C 
BRANCH  11  12
ATOM     12  C   UNL     1     -20.482 -18.779  30.796  1.00  0.00    -0.000 C 
BRANCH  12  13
ATOM     13  C   UNL     1     -19.424 -17.698  31.073  1.00  0.00    -0.000 C 
BRANCH  13  14
ATOM     14  C   UNL     1     -18.938 -16.992  29.794  1.00  0.00    -0.000 C 
BRANCH  14  15
ATOM     15  C   UNL     1     -18.067 -15.744  30.025  1.00  0.00    -0.000 C 
BRANCH  15  16
ATOM     16  C   UNL     1     -17.421 -15.215  28.736  1.00  0.00    -0.000 C 
BRANCH  16  17
ATOM     17  C   UNL     1     -17.950 -15.969  27.510  1.00  0.00    -0.003 C 
ATOM     18  C   UNL     1     -17.313 -15.447  26.224  1.00  0.00     0.004 C 
ENDBRANCH  16  17
ENDBRANCH  15  16
ENDBRANCH  14  15
ENDBRANCH  13  14
ENDBRANCH  12  13
ENDBRANCH  11  12
ENDBRANCH   1  11
TORSDOF 14
ENDMDL
MODEL 9
REMARK VINA RESULT:    -6.476      2.057      3.380
REMARK INTER + INTRA:         -12.581
REMARK INTER:                 -11.943
REMARK INTRA:                  -0.639
REMARK UNBOUND:                -0.805
REMARK SMILES CCCCCCCCCCCCCCCC(=O)[O-]
REMARK SMILES IDX 9 1 10 2 11 3 12 4 13 5 14 6 15 7 16 8 17 9 18 10 8 11 7 12
REMARK SMILES IDX 6 13 5 14 4 15 3 16 2 17 1 18
REMARK H PARENT
REMARK Flexibility Score: inf
ROOT
ATOM      1  C   UNL     1     -21.402 -19.887  29.314  1.00  0.00     0.000 C 
ENDROOT
BRANCH   1   2
ATOM      2  C   UNL     1     -21.102 -19.358  30.725  1.00  0.00     0.000 C 
BRANCH   2   3
ATOM      3  C   UNL     1     -20.193 -18.116  30.718  1.00  0.00     0.000 C 
BRANCH   3   4
ATOM      4  C   UNL     1     -19.982 -17.473  29.332  1.00  0.00     0.000 C 
BRANCH   4   5
ATOM      5  C   UNL     1     -18.533 -17.050  29.021  1.00  0.00     0.000 C 
BRANCH   5   6
ATOM      6  C   UNL     1     -18.390 -15.947  27.953  1.00  0.00     0.006 C 
BRANCH   6   7
ATOM      7  C   UNL     1     -17.231 -16.166  26.968  1.00  0.00     0.053 C 
BRANCH   7   8
ATOM      8  C   UNL     1     -17.378 -15.332  25.733  1.00  0.00     0.041 C 
ATOM      9  O   UNL     1     -18.506 -15.201  25.188  1.00  0.00    -0.550 OA
ATOM     10  O   UNL     1     -16.264 -14.730  25.162  1.00  0.00    -0.550 OA
ENDBRANCH   7   8
ENDBRANCH   6   7
ENDBRANCH   5   6
ENDBRANCH   4   5
ENDBRANCH   3   4
ENDBRANCH   2   3
ENDBRANCH   1   2
BRANCH   1  11
ATOM     11  C   UNL     1     -22.031 -21.288  29.377  1.00  0.00     0.000 C 
BRANCH  11  12
ATOM     12  C   UNL     1     -22.300 -21.754  30.816  1.00  0.00    -0.000 C 
BRANCH  12  13
ATOM     13  C   UNL     1     -22.003 -23.250  31.018  1.00  0.00    -0.000 C 
BRANCH  13  14
ATOM     14  C   UNL     1     -23.182 -24.155  30.617  1.00  0.00    -0.000 C 
BRANCH  14  15
ATOM     15  C   UNL     1     -23.096 -24.753  29.200  1.00  0.00    -0.000 C 
BRANCH  15  16
ATOM     16  C   UNL     1     -23.912 -26.044  29.044  1.00  0.00    -0.000 C 
BRANCH  16  17
ATOM     17  C   UNL     1     -25.235 -25.953  29.813  1.00  0.00    -0.003 C 
ATOM     18  C   UNL     1     -25.413 -27.145  30.749  1.00  0.00     0.004 C 
ENDBRANCH  16  17
ENDBRANCH  15  16
ENDBRANCH  14  15
ENDBRANCH  13  14
ENDBRANCH  12  13
ENDBRANCH  11  12
ENDBRANCH   1  11
TORSDOF 14
ENDMDL
