MODEL 1
REMARK VINA RESULT:    -7.748      0.000      0.000
REMARK INTER + INTRA:         -12.552
REMARK INTER:                 -11.372
REMARK INTRA:                  -1.180
REMARK UNBOUND:                -1.180
REMARK SMILES O=c1c(O[C@@H]2O[C@H](CO)[C@@H](O)[C@@H](O)[C@H]2O)c(-c2ccc(O)c(O)c2)oc2cc(O)cc(O)c12
REMARK SMILES IDX 4 1 3 2 16 3 25 4 2 5 26 6 1 7 33 8 27 9 31 10 28 11 30 12
REMARK SMILES IDX 17 13 18 14 19 15 20 16 24 17 22 18 21 19 23 21 32 23 29 25
REMARK SMILES IDX 5 27 14 28 6 29 12 30 7 31 10 32 15 33 13 35 8 37 9 38 11 40
REMARK H PARENT 21 20 23 22 32 24 29 26 15 34 13 36 9 39 11 41
REMARK Flexibility Score: inf
ROOT
ATOM      1  O   UNL     1       0.920 -44.883 -36.245  1.00  0.00    -0.454 OA
ENDROOT
BRANCH   1   2
ATOM      2  C   UNL     1      -0.318 -44.423 -35.768  1.00  0.00     0.214 A 
ATOM      3  C   UNL     1      -1.082 -45.266 -34.942  1.00  0.00     0.180 A 
ATOM      4  O   UNL     1      -2.213 -44.824 -34.405  1.00  0.00    -0.452 OA
ATOM      5  C   UNL     1      -0.799 -43.129 -36.043  1.00  0.00     0.239 A 
ATOM      6  C   UNL     1      -2.710 -43.616 -34.643  1.00  0.00     0.146 A 
ATOM      7  O   UNL     1      -0.080 -42.335 -36.700  1.00  0.00    -0.285 OA
ATOM      8  C   UNL     1      -2.048 -42.717 -35.518  1.00  0.00     0.111 A 
ATOM      9  C   UNL     1      -3.900 -43.247 -34.012  1.00  0.00     0.094 A 
ATOM     10  C   UNL     1      -2.654 -41.450 -35.776  1.00  0.00     0.134 A 
ATOM     11  C   UNL     1      -4.454 -41.983 -34.229  1.00  0.00     0.123 A 
ATOM     12  C   UNL     1      -3.830 -41.096 -35.102  1.00  0.00     0.093 A 
BRANCH   3  13
ATOM     13  C   UNL     1      -0.657 -46.651 -34.642  1.00  0.00     0.025 A 
ATOM     14  C   UNL     1      -0.735 -47.632 -35.639  1.00  0.00     0.016 A 
ATOM     15  C   UNL     1      -0.333 -48.943 -35.370  1.00  0.00     0.051 A 
ATOM     16  C   UNL     1       0.169 -49.293 -34.111  1.00  0.00     0.157 A 
ATOM     17  C   UNL     1      -0.129 -46.992 -33.385  1.00  0.00     0.062 A 
ATOM     18  C   UNL     1       0.278 -48.303 -33.106  1.00  0.00     0.158 A 
BRANCH  16  19
ATOM     19  O   UNL     1       0.548 -50.621 -33.905  1.00  0.00    -0.504 OA
ATOM     20  H   UNL     1       0.550 -51.074 -33.004  1.00  0.00     0.293 HD
ENDBRANCH  16  19
BRANCH  18  21
ATOM     21  O   UNL     1       0.783 -48.573 -31.831  1.00  0.00    -0.504 OA
ATOM     22  H   UNL     1       1.765 -48.559 -31.599  1.00  0.00     0.293 HD
ENDBRANCH  18  21
ENDBRANCH   3  13
BRANCH  10  23
ATOM     23  O   UNL     1      -2.157 -40.520 -36.695  1.00  0.00    -0.507 OA
ATOM     24  H   UNL     1      -1.339 -40.663 -37.270  1.00  0.00     0.293 HD
ENDBRANCH  10  23
BRANCH  11  25
ATOM     25  O   UNL     1      -5.631 -41.602 -33.585  1.00  0.00    -0.508 OA
ATOM     26  H   UNL     1      -5.615 -41.105 -32.705  1.00  0.00     0.293 HD
ENDBRANCH  11  25
ENDBRANCH   1   2
BRANCH   1  27
ATOM     27  C   UNL     1       1.129 -45.490 -37.518  1.00  0.00     0.339 C 
ATOM     28  C   UNL     1       2.010 -44.548 -38.374  1.00  0.00     0.214 C 
ATOM     29  O   UNL     1       1.778 -46.736 -37.339  1.00  0.00    -0.332 OA
ATOM     30  C   UNL     1       2.937 -45.354 -39.310  1.00  0.00     0.180 C 
ATOM     31  C   UNL     1       1.781 -47.485 -38.548  1.00  0.00     0.179 C 
ATOM     32  C   UNL     1       2.247 -46.648 -39.782  1.00  0.00     0.177 C 
BRANCH  28  33
ATOM     33  O   UNL     1       1.187 -43.690 -39.126  1.00  0.00    -0.384 OA
ATOM     34  H   UNL     1       0.334 -44.175 -39.276  1.00  0.00     0.211 HD
ENDBRANCH  28  33
BRANCH  30  35
ATOM     35  O   UNL     1       3.332 -44.565 -40.404  1.00  0.00    -0.387 OA
ATOM     36  H   UNL     1       4.059 -43.972 -40.081  1.00  0.00     0.211 HD
ENDBRANCH  30  35
BRANCH  31  37
ATOM     37  C   UNL     1       2.673 -48.716 -38.342  1.00  0.00     0.191 C 
BRANCH  37  38
ATOM     38  O   UNL     1       2.729 -49.476 -39.519  1.00  0.00    -0.394 OA
ATOM     39  H   UNL     1       2.667 -48.830 -40.269  1.00  0.00     0.210 HD
ENDBRANCH  37  38
ENDBRANCH  31  37
BRANCH  32  40
ATOM     40  O   UNL     1       1.130 -46.335 -40.577  1.00  0.00    -0.387 OA
ATOM     41  H   UNL     1       0.526 -45.772 -40.025  1.00  0.00     0.211 HD
ENDBRANCH  32  40
ENDBRANCH   1  27
TORSDOF 12
ENDMDL
MODEL 2
REMARK VINA RESULT:    -7.680      1.716      5.203
REMARK INTER + INTRA:         -12.452
REMARK INTER:                 -10.870
REMARK INTRA:                  -1.581
REMARK UNBOUND:                -1.180
REMARK SMILES O=c1c(O[C@@H]2O[C@H](CO)[C@@H](O)[C@@H](O)[C@H]2O)c(-c2ccc(O)c(O)c2)oc2cc(O)cc(O)c12
REMARK SMILES IDX 4 1 3 2 16 3 25 4 2 5 26 6 1 7 33 8 27 9 31 10 28 11 30 12
REMARK SMILES IDX 17 13 18 14 19 15 20 16 24 17 22 18 21 19 23 21 32 23 29 25
REMARK SMILES IDX 5 27 14 28 6 29 12 30 7 31 10 32 15 33 13 35 8 37 9 38 11 40
REMARK H PARENT 21 20 23 22 32 24 29 26 15 34 13 36 9 39 11 41
REMARK Flexibility Score: inf
ROOT
ATOM      1  O   UNL     1      -0.805 -46.231 -35.276  1.00  0.00    -0.454 OA
ENDROOT
BRANCH   1   2
ATOM      2  C   UNL     1      -0.948 -44.869 -35.589  1.00  0.00     0.214 A 
ATOM      3  C   UNL     1      -0.432 -44.396 -36.808  1.00  0.00     0.180 A 
ATOM      4  O   UNL     1      -0.630 -43.134 -37.168  1.00  0.00    -0.452 OA
ATOM      5  C   UNL     1      -1.634 -43.970 -34.750  1.00  0.00     0.239 A 
ATOM      6  C   UNL     1      -1.261 -42.249 -36.407  1.00  0.00     0.146 A 
ATOM      7  O   UNL     1      -2.181 -44.404 -33.705  1.00  0.00    -0.285 OA
ATOM      8  C   UNL     1      -1.758 -42.612 -35.129  1.00  0.00     0.111 A 
ATOM      9  C   UNL     1      -1.430 -40.949 -36.892  1.00  0.00     0.094 A 
ATOM     10  C   UNL     1      -2.387 -41.606 -34.334  1.00  0.00     0.134 A 
ATOM     11  C   UNL     1      -2.095 -39.989 -36.127  1.00  0.00     0.123 A 
ATOM     12  C   UNL     1      -2.570 -40.321 -34.861  1.00  0.00     0.093 A 
BRANCH   3  13
ATOM     13  C   UNL     1       0.334 -45.274 -37.720  1.00  0.00     0.025 A 
ATOM     14  C   UNL     1      -0.334 -45.976 -38.732  1.00  0.00     0.016 A 
ATOM     15  C   UNL     1       0.378 -46.805 -39.602  1.00  0.00     0.051 A 
ATOM     16  C   UNL     1       1.767 -46.935 -39.490  1.00  0.00     0.157 A 
ATOM     17  C   UNL     1       1.731 -45.381 -37.621  1.00  0.00     0.062 A 
ATOM     18  C   UNL     1       2.454 -46.208 -38.489  1.00  0.00     0.158 A 
BRANCH  16  19
ATOM     19  O   UNL     1       2.418 -47.784 -40.387  1.00  0.00    -0.504 OA
ATOM     20  H   UNL     1       2.530 -47.588 -41.370  1.00  0.00     0.293 HD
ENDBRANCH  16  19
BRANCH  18  21
ATOM     21  O   UNL     1       3.841 -46.275 -38.326  1.00  0.00    -0.504 OA
ATOM     22  H   UNL     1       4.350 -45.769 -37.616  1.00  0.00     0.293 HD
ENDBRANCH  18  21
ENDBRANCH   3  13
BRANCH  10  23
ATOM     23  O   UNL     1      -2.824 -41.810 -33.021  1.00  0.00    -0.507 OA
ATOM     24  H   UNL     1      -2.569 -42.602 -32.448  1.00  0.00     0.293 HD
ENDBRANCH  10  23
BRANCH  11  25
ATOM     25  O   UNL     1      -2.284 -38.696 -36.615  1.00  0.00    -0.508 OA
ATOM     26  H   UNL     1      -2.999 -38.488 -37.299  1.00  0.00     0.293 HD
ENDBRANCH  11  25
ENDBRANCH   1   2
BRANCH   1  27
ATOM     27  C   UNL     1      -0.006 -46.745 -34.213  1.00  0.00     0.339 C 
ATOM     28  C   UNL     1      -0.817 -47.832 -33.468  1.00  0.00     0.214 C 
ATOM     29  O   UNL     1       1.180 -47.303 -34.750  1.00  0.00    -0.332 OA
ATOM     30  C   UNL     1       0.109 -48.951 -32.942  1.00  0.00     0.180 C 
ATOM     31  C   UNL     1       2.114 -47.598 -33.720  1.00  0.00     0.179 C 
ATOM     32  C   UNL     1       1.477 -48.379 -32.526  1.00  0.00     0.177 C 
BRANCH  28  33
ATOM     33  O   UNL     1      -1.523 -47.245 -32.403  1.00  0.00    -0.384 OA
ATOM     34  H   UNL     1      -2.474 -47.198 -32.685  1.00  0.00     0.211 HD
ENDBRANCH  28  33
BRANCH  30  35
ATOM     35  O   UNL     1      -0.502 -49.626 -31.871  1.00  0.00    -0.387 OA
ATOM     36  H   UNL     1      -0.505 -48.998 -31.102  1.00  0.00     0.211 HD
ENDBRANCH  30  35
BRANCH  31  37
ATOM     37  C   UNL     1       3.275 -48.384 -34.342  1.00  0.00     0.191 C 
BRANCH  37  38
ATOM     38  O   UNL     1       3.449 -48.013 -35.682  1.00  0.00    -0.394 OA
ATOM     39  H   UNL     1       3.230 -48.815 -36.223  1.00  0.00     0.210 HD
ENDBRANCH  37  38
ENDBRANCH  31  37
BRANCH  32  40
ATOM     40  O   UNL     1       1.322 -47.507 -31.433  1.00  0.00    -0.387 OA
ATOM     41  H   UNL     1       0.352 -47.304 -31.356  1.00  0.00     0.211 HD
ENDBRANCH  32  40
ENDBRANCH   1  27
TORSDOF 12
ENDMDL
MODEL 3
REMARK VINA RESULT:    -7.432      2.677      6.841
REMARK INTER + INTRA:         -12.087
REMARK INTER:                 -11.041
REMARK INTRA:                  -1.046
REMARK UNBOUND:                -1.180
REMARK SMILES O=c1c(O[C@@H]2O[C@H](CO)[C@@H](O)[C@@H](O)[C@H]2O)c(-c2ccc(O)c(O)c2)oc2cc(O)cc(O)c12
REMARK SMILES IDX 4 1 3 2 16 3 25 4 2 5 26 6 1 7 33 8 27 9 31 10 28 11 30 12
REMARK SMILES IDX 17 13 18 14 19 15 20 16 24 17 22 18 21 19 23 21 32 23 29 25
REMARK SMILES IDX 5 27 14 28 6 29 12 30 7 31 10 32 15 33 13 35 8 37 9 38 11 40
REMARK H PARENT 21 20 23 22 32 24 29 26 15 34 13 36 9 39 11 41
REMARK Flexibility Score: inf
ROOT
ATOM      1  O   UNL     1       0.963 -44.040 -38.107  1.00  0.00    -0.454 OA
ENDROOT
BRANCH   1   2
ATOM      2  C   UNL     1       0.842 -45.301 -37.499  1.00  0.00     0.214 A 
ATOM      3  C   UNL     1       1.360 -46.427 -38.164  1.00  0.00     0.180 A 
ATOM      4  O   UNL     1       1.338 -47.615 -37.574  1.00  0.00    -0.452 OA
ATOM      5  C   UNL     1       0.267 -45.473 -36.226  1.00  0.00     0.239 A 
ATOM      6  C   UNL     1       0.799 -47.827 -36.380  1.00  0.00     0.146 A 
ATOM      7  O   UNL     1      -0.112 -44.461 -35.584  1.00  0.00    -0.285 OA
ATOM      8  C   UNL     1       0.189 -46.768 -35.659  1.00  0.00     0.111 A 
ATOM      9  C   UNL     1       0.846 -49.117 -35.844  1.00  0.00     0.094 A 
ATOM     10  C   UNL     1      -0.418 -47.063 -34.401  1.00  0.00     0.134 A 
ATOM     11  C   UNL     1       0.297 -49.381 -34.587  1.00  0.00     0.123 A 
ATOM     12  C   UNL     1      -0.326 -48.359 -33.876  1.00  0.00     0.093 A 
BRANCH   3  13
ATOM     13  C   UNL     1       1.943 -46.327 -39.520  1.00  0.00     0.025 A 
ATOM     14  C   UNL     1       3.330 -46.202 -39.673  1.00  0.00     0.016 A 
ATOM     15  C   UNL     1       3.893 -46.112 -40.948  1.00  0.00     0.051 A 
ATOM     16  C   UNL     1       3.088 -46.162 -42.091  1.00  0.00     0.157 A 
ATOM     17  C   UNL     1       1.133 -46.405 -40.665  1.00  0.00     0.062 A 
ATOM     18  C   UNL     1       1.688 -46.316 -41.948  1.00  0.00     0.158 A 
BRANCH  16  19
ATOM     19  O   UNL     1       3.712 -46.060 -43.335  1.00  0.00    -0.504 OA
ATOM     20  H   UNL     1       3.932 -45.184 -43.787  1.00  0.00     0.293 HD
ENDBRANCH  16  19
BRANCH  18  21
ATOM     21  O   UNL     1       0.821 -46.390 -43.042  1.00  0.00    -0.504 OA
ATOM     22  H   UNL     1       0.128 -45.689 -43.261  1.00  0.00     0.293 HD
ENDBRANCH  18  21
ENDBRANCH   3  13
BRANCH  10  23
ATOM     23  O   UNL     1      -1.139 -46.134 -33.646  1.00  0.00    -0.507 OA
ATOM     24  H   UNL     1      -1.246 -46.169 -32.642  1.00  0.00     0.293 HD
ENDBRANCH  10  23
BRANCH  11  25
ATOM     25  O   UNL     1       0.359 -50.662 -34.039  1.00  0.00    -0.508 OA
ATOM     26  H   UNL     1      -0.028 -50.867 -33.128  1.00  0.00     0.293 HD
ENDBRANCH  11  25
ENDBRANCH   1   2
BRANCH   1  27
ATOM     27  C   UNL     1       1.759 -42.968 -37.607  1.00  0.00     0.339 C 
ATOM     28  C   UNL     1       2.687 -42.473 -38.743  1.00  0.00     0.214 C 
ATOM     29  O   UNL     1       0.909 -41.919 -37.179  1.00  0.00    -0.332 OA
ATOM     30  C   UNL     1       2.925 -40.950 -38.639  1.00  0.00     0.180 C 
ATOM     31  C   UNL     1       1.639 -40.941 -36.448  1.00  0.00     0.179 C 
ATOM     32  C   UNL     1       2.954 -40.499 -37.166  1.00  0.00     0.177 C 
BRANCH  28  33
ATOM     33  O   UNL     1       3.911 -43.161 -38.683  1.00  0.00    -0.384 OA
ATOM     34  H   UNL     1       4.379 -42.983 -39.540  1.00  0.00     0.211 HD
ENDBRANCH  28  33
BRANCH  30  35
ATOM     35  O   UNL     1       4.116 -40.597 -39.297  1.00  0.00    -0.387 OA
ATOM     36  H   UNL     1       4.015 -39.651 -39.581  1.00  0.00     0.211 HD
ENDBRANCH  30  35
BRANCH  31  37
ATOM     37  C   UNL     1       0.712 -39.744 -36.199  1.00  0.00     0.191 C 
BRANCH  37  38
ATOM     38  O   UNL     1      -0.603 -40.066 -36.561  1.00  0.00    -0.394 OA
ATOM     39  H   UNL     1      -0.796 -39.552 -37.388  1.00  0.00     0.210 HD
ENDBRANCH  37  38
ENDBRANCH  31  37
BRANCH  32  40
ATOM     40  O   UNL     1       4.056 -41.074 -36.509  1.00  0.00    -0.387 OA
ATOM     41  H   UNL     1       4.334 -41.866 -37.040  1.00  0.00     0.211 HD
ENDBRANCH  32  40
ENDBRANCH   1  27
TORSDOF 12
ENDMDL
MODEL 4
REMARK VINA RESULT:    -7.287      1.904      6.102
REMARK INTER + INTRA:         -11.874
REMARK INTER:                 -11.050
REMARK INTRA:                  -0.824
REMARK UNBOUND:                -1.180
REMARK SMILES O=c1c(O[C@@H]2O[C@H](CO)[C@@H](O)[C@@H](O)[C@H]2O)c(-c2ccc(O)c(O)c2)oc2cc(O)cc(O)c12
REMARK SMILES IDX 4 1 3 2 16 3 25 4 2 5 26 6 1 7 33 8 27 9 31 10 28 11 30 12
REMARK SMILES IDX 17 13 18 14 19 15 20 16 24 17 22 18 21 19 23 21 32 23 29 25
REMARK SMILES IDX 5 27 14 28 6 29 12 30 7 31 10 32 15 33 13 35 8 37 9 38 11 40
REMARK H PARENT 21 20 23 22 32 24 29 26 15 34 13 36 9 39 11 41
REMARK Flexibility Score: inf
ROOT
ATOM      1  O   UNL     1       0.382 -44.434 -38.171  1.00  0.00    -0.454 OA
ENDROOT
BRANCH   1   2
ATOM      2  C   UNL     1       0.184 -45.134 -36.968  1.00  0.00     0.214 A 
ATOM      3  C   UNL     1      -0.430 -44.471 -35.891  1.00  0.00     0.180 A 
ATOM      4  O   UNL     1      -0.709 -45.133 -34.776  1.00  0.00    -0.452 OA
ATOM      5  C   UNL     1       0.531 -46.490 -36.818  1.00  0.00     0.239 A 
ATOM      6  C   UNL     1      -0.394 -46.408 -34.586  1.00  0.00     0.146 A 
ATOM      7  O   UNL     1       0.992 -47.116 -37.806  1.00  0.00    -0.285 OA
ATOM      8  C   UNL     1       0.290 -47.145 -35.587  1.00  0.00     0.111 A 
ATOM      9  C   UNL     1      -0.751 -47.013 -33.378  1.00  0.00     0.094 A 
ATOM     10  C   UNL     1       0.647 -48.499 -35.309  1.00  0.00     0.134 A 
ATOM     11  C   UNL     1      -0.444 -48.354 -33.140  1.00  0.00     0.123 A 
ATOM     12  C   UNL     1       0.246 -49.086 -34.102  1.00  0.00     0.093 A 
BRANCH   3  13
ATOM     13  C   UNL     1      -0.785 -43.036 -35.964  1.00  0.00     0.025 A 
ATOM     14  C   UNL     1      -2.120 -42.642 -35.798  1.00  0.00     0.016 A 
ATOM     15  C   UNL     1      -2.467 -41.290 -35.860  1.00  0.00     0.051 A 
ATOM     16  C   UNL     1      -1.491 -40.309 -36.070  1.00  0.00     0.157 A 
ATOM     17  C   UNL     1       0.201 -42.053 -36.148  1.00  0.00     0.062 A 
ATOM     18  C   UNL     1      -0.137 -40.695 -36.210  1.00  0.00     0.158 A 
BRANCH  16  19
ATOM     19  O   UNL     1      -1.905 -38.978 -36.128  1.00  0.00    -0.504 OA
ATOM     20  H   UNL     1      -1.395 -38.209 -35.718  1.00  0.00     0.293 HD
ENDBRANCH  16  19
BRANCH  18  21
ATOM     21  O   UNL     1       0.895 -39.773 -36.408  1.00  0.00    -0.504 OA
ATOM     22  H   UNL     1       0.747 -38.794 -36.601  1.00  0.00     0.293 HD
ENDBRANCH  18  21
ENDBRANCH   3  13
BRANCH  10  23
ATOM     23  O   UNL     1       1.410 -49.296 -36.168  1.00  0.00    -0.507 OA
ATOM     24  H   UNL     1       1.334 -49.291 -37.175  1.00  0.00     0.293 HD
ENDBRANCH  10  23
BRANCH  11  25
ATOM     25  O   UNL     1      -0.817 -48.968 -31.944  1.00  0.00    -0.508 OA
ATOM     26  H   UNL     1      -1.630 -49.565 -31.887  1.00  0.00     0.293 HD
ENDBRANCH  11  25
ENDBRANCH   1   2
BRANCH   1  27
ATOM     27  C   UNL     1       1.566 -44.494 -38.963  1.00  0.00     0.339 C 
ATOM     28  C   UNL     1       1.186 -44.998 -40.376  1.00  0.00     0.214 C 
ATOM     29  O   UNL     1       2.139 -43.201 -39.043  1.00  0.00    -0.332 OA
ATOM     30  C   UNL     1       2.081 -44.347 -41.455  1.00  0.00     0.180 C 
ATOM     31  C   UNL     1       3.443 -43.258 -39.607  1.00  0.00     0.179 C 
ATOM     32  C   UNL     1       3.504 -44.109 -40.916  1.00  0.00     0.177 C 
BRANCH  28  33
ATOM     33  O   UNL     1       1.307 -46.398 -40.425  1.00  0.00    -0.384 OA
ATOM     34  H   UNL     1       1.198 -46.659 -41.377  1.00  0.00     0.211 HD
ENDBRANCH  28  33
BRANCH  30  35
ATOM     35  O   UNL     1       2.107 -45.144 -42.612  1.00  0.00    -0.387 OA
ATOM     36  H   UNL     1       3.063 -45.292 -42.836  1.00  0.00     0.211 HD
ENDBRANCH  30  35
BRANCH  31  37
ATOM     37  C   UNL     1       3.916 -41.820 -39.857  1.00  0.00     0.191 C 
BRANCH  37  38
ATOM     38  O   UNL     1       2.999 -41.144 -40.674  1.00  0.00    -0.394 OA
ATOM     39  H   UNL     1       2.104 -41.300 -40.275  1.00  0.00     0.210 HD
ENDBRANCH  37  38
ENDBRANCH  31  37
BRANCH  32  40
ATOM     40  O   UNL     1       4.125 -45.341 -40.638  1.00  0.00    -0.387 OA
ATOM     41  H   UNL     1       3.747 -45.673 -39.782  1.00  0.00     0.211 HD
ENDBRANCH  32  40
ENDBRANCH   1  27
TORSDOF 12
ENDMDL
MODEL 5
REMARK VINA RESULT:    -7.281      2.386      5.948
REMARK INTER + INTRA:         -11.866
REMARK INTER:                 -10.446
REMARK INTRA:                  -1.420
REMARK UNBOUND:                -1.180
REMARK SMILES O=c1c(O[C@@H]2O[C@H](CO)[C@@H](O)[C@@H](O)[C@H]2O)c(-c2ccc(O)c(O)c2)oc2cc(O)cc(O)c12
REMARK SMILES IDX 4 1 3 2 16 3 25 4 2 5 26 6 1 7 33 8 27 9 31 10 28 11 30 12
REMARK SMILES IDX 17 13 18 14 19 15 20 16 24 17 22 18 21 19 23 21 32 23 29 25
REMARK SMILES IDX 5 27 14 28 6 29 12 30 7 31 10 32 15 33 13 35 8 37 9 38 11 40
REMARK H PARENT 21 20 23 22 32 24 29 26 15 34 13 36 9 39 11 41
REMARK Flexibility Score: inf
ROOT
ATOM      1  O   UNL     1      -0.083 -45.061 -36.389  1.00  0.00    -0.454 OA
ENDROOT
BRANCH   1   2
ATOM      2  C   UNL     1       0.695 -43.981 -36.840  1.00  0.00     0.214 A 
ATOM      3  C   UNL     1       1.589 -44.189 -37.904  1.00  0.00     0.180 A 
ATOM      4  O   UNL     1       2.270 -43.168 -38.409  1.00  0.00    -0.452 OA
ATOM      5  C   UNL     1       0.573 -42.686 -36.302  1.00  0.00     0.239 A 
ATOM      6  C   UNL     1       2.196 -41.933 -37.928  1.00  0.00     0.146 A 
ATOM      7  O   UNL     1      -0.292 -42.471 -35.416  1.00  0.00    -0.285 OA
ATOM      8  C   UNL     1       1.373 -41.636 -36.812  1.00  0.00     0.111 A 
ATOM      9  C   UNL     1       2.944 -40.928 -38.547  1.00  0.00     0.094 A 
ATOM     10  C   UNL     1       1.369 -40.300 -36.307  1.00  0.00     0.134 A 
ATOM     11  C   UNL     1       2.889 -39.614 -38.078  1.00  0.00     0.123 A 
ATOM     12  C   UNL     1       2.104 -39.308 -36.969  1.00  0.00     0.093 A 
BRANCH   3  13
ATOM     13  C   UNL     1       1.797 -45.531 -38.493  1.00  0.00     0.025 A 
ATOM     14  C   UNL     1       2.791 -46.371 -37.974  1.00  0.00     0.016 A 
ATOM     15  C   UNL     1       2.994 -47.641 -38.518  1.00  0.00     0.051 A 
ATOM     16  C   UNL     1       2.200 -48.103 -39.574  1.00  0.00     0.157 A 
ATOM     17  C   UNL     1       0.980 -46.000 -39.535  1.00  0.00     0.062 A 
ATOM     18  C   UNL     1       1.174 -47.273 -40.086  1.00  0.00     0.158 A 
BRANCH  16  19
ATOM     19  O   UNL     1       2.458 -49.379 -40.076  1.00  0.00    -0.504 OA
ATOM     20  H   UNL     1       1.931 -50.202 -39.825  1.00  0.00     0.293 HD
ENDBRANCH  16  19
BRANCH  18  21
ATOM     21  O   UNL     1       0.331 -47.669 -41.128  1.00  0.00    -0.504 OA
ATOM     22  H   UNL     1      -0.628 -47.370 -41.224  1.00  0.00     0.293 HD
ENDBRANCH  18  21
ENDBRANCH   3  13
BRANCH  10  23
ATOM     23  O   UNL     1       0.684 -39.904 -35.154  1.00  0.00    -0.507 OA
ATOM     24  H   UNL     1       1.077 -39.908 -34.224  1.00  0.00     0.293 HD
ENDBRANCH  10  23
BRANCH  11  25
ATOM     25  O   UNL     1       3.618 -38.604 -38.705  1.00  0.00    -0.508 OA
ATOM     26  H   UNL     1       4.429 -38.188 -38.268  1.00  0.00     0.293 HD
ENDBRANCH  11  25
ENDBRANCH   1   2
BRANCH   1  27
ATOM     27  C   UNL     1       0.272 -45.929 -35.315  1.00  0.00     0.339 C 
ATOM     28  C   UNL     1      -0.882 -45.934 -34.284  1.00  0.00     0.214 C 
ATOM     29  O   UNL     1       0.479 -47.235 -35.823  1.00  0.00    -0.332 OA
ATOM     30  C   UNL     1      -1.018 -47.319 -33.612  1.00  0.00     0.180 C 
ATOM     31  C   UNL     1       1.075 -48.073 -34.840  1.00  0.00     0.179 C 
ATOM     32  C   UNL     1       0.360 -47.989 -33.453  1.00  0.00     0.177 C 
BRANCH  28  33
ATOM     33  O   UNL     1      -0.648 -44.945 -33.313  1.00  0.00    -0.384 OA
ATOM     34  H   UNL     1      -1.509 -44.467 -33.182  1.00  0.00     0.211 HD
ENDBRANCH  28  33
BRANCH  30  35
ATOM     35  O   UNL     1      -1.666 -47.197 -32.371  1.00  0.00    -0.387 OA
ATOM     36  H   UNL     1      -2.468 -47.780 -32.409  1.00  0.00     0.211 HD
ENDBRANCH  30  35
BRANCH  31  37
ATOM     37  C   UNL     1       1.077 -49.510 -35.378  1.00  0.00     0.191 C 
BRANCH  37  38
ATOM     38  O   UNL     1       0.694 -50.405 -34.370  1.00  0.00    -0.394 OA
ATOM     39  H   UNL     1       1.089 -50.060 -33.528  1.00  0.00     0.210 HD
ENDBRANCH  37  38
ENDBRANCH  31  37
BRANCH  32  40
ATOM     40  O   UNL     1       1.157 -47.244 -32.566  1.00  0.00    -0.387 OA
ATOM     41  H   UNL     1       2.083 -47.254 -32.925  1.00  0.00     0.211 HD
ENDBRANCH  32  40
ENDBRANCH   1  27
TORSDOF 12
ENDMDL
MODEL 6
REMARK VINA RESULT:    -7.157      1.782      7.180
REMARK INTER + INTRA:         -11.683
REMARK INTER:                 -11.107
REMARK INTRA:                  -0.576
REMARK UNBOUND:                -1.180
REMARK SMILES O=c1c(O[C@@H]2O[C@H](CO)[C@@H](O)[C@@H](O)[C@H]2O)c(-c2ccc(O)c(O)c2)oc2cc(O)cc(O)c12
REMARK SMILES IDX 4 1 3 2 16 3 25 4 2 5 26 6 1 7 33 8 27 9 31 10 28 11 30 12
REMARK SMILES IDX 17 13 18 14 19 15 20 16 24 17 22 18 21 19 23 21 32 23 29 25
REMARK SMILES IDX 5 27 14 28 6 29 12 30 7 31 10 32 15 33 13 35 8 37 9 38 11 40
REMARK H PARENT 21 20 23 22 32 24 29 26 15 34 13 36 9 39 11 41
REMARK Flexibility Score: inf
ROOT
ATOM      1  O   UNL     1      -0.401 -46.655 -35.608  1.00  0.00    -0.454 OA
ENDROOT
BRANCH   1   2
ATOM      2  C   UNL     1       0.250 -46.238 -36.781  1.00  0.00     0.214 A 
ATOM      3  C   UNL     1       0.339 -44.862 -37.055  1.00  0.00     0.180 A 
ATOM      4  O   UNL     1       1.025 -44.436 -38.108  1.00  0.00    -0.452 OA
ATOM      5  C   UNL     1       0.864 -47.144 -37.666  1.00  0.00     0.239 A 
ATOM      6  C   UNL     1       1.611 -45.253 -38.975  1.00  0.00     0.146 A 
ATOM      7  O   UNL     1       0.873 -48.368 -37.380  1.00  0.00    -0.285 OA
ATOM      8  C   UNL     1       1.520 -46.660 -38.824  1.00  0.00     0.111 A 
ATOM      9  C   UNL     1       2.323 -44.697 -40.041  1.00  0.00     0.094 A 
ATOM     10  C   UNL     1       2.130 -47.491 -39.813  1.00  0.00     0.134 A 
ATOM     11  C   UNL     1       2.961 -45.520 -40.971  1.00  0.00     0.123 A 
ATOM     12  C   UNL     1       2.864 -46.904 -40.851  1.00  0.00     0.093 A 
BRANCH   3  13
ATOM     13  C   UNL     1      -0.315 -43.855 -36.190  1.00  0.00     0.025 A 
ATOM     14  C   UNL     1       0.391 -42.708 -35.803  1.00  0.00     0.016 A 
ATOM     15  C   UNL     1      -0.217 -41.748 -34.990  1.00  0.00     0.051 A 
ATOM     16  C   UNL     1      -1.541 -41.905 -34.565  1.00  0.00     0.157 A 
ATOM     17  C   UNL     1      -1.653 -44.004 -35.787  1.00  0.00     0.062 A 
ATOM     18  C   UNL     1      -2.272 -43.046 -34.973  1.00  0.00     0.158 A 
BRANCH  16  19
ATOM     19  O   UNL     1      -2.087 -40.912 -33.749  1.00  0.00    -0.504 OA
ATOM     20  H   UNL     1      -2.511 -40.065 -34.097  1.00  0.00     0.293 HD
ENDBRANCH  16  19
BRANCH  18  21
ATOM     21  O   UNL     1      -3.601 -43.265 -34.602  1.00  0.00    -0.504 OA
ATOM     22  H   UNL     1      -4.268 -43.773 -35.164  1.00  0.00     0.293 HD
ENDBRANCH  18  21
ENDBRANCH   3  13
BRANCH  10  23
ATOM     23  O   UNL     1       2.023 -48.885 -39.834  1.00  0.00    -0.507 OA
ATOM     24  H   UNL     1       1.731 -49.426 -40.635  1.00  0.00     0.293 HD
ENDBRANCH  10  23
BRANCH  11  25
ATOM     25  O   UNL     1       3.691 -44.970 -42.025  1.00  0.00    -0.508 OA
ATOM     26  H   UNL     1       3.985 -45.530 -42.813  1.00  0.00     0.293 HD
ENDBRANCH  11  25
ENDBRANCH   1   2
BRANCH   1  27
ATOM     27  C   UNL     1       0.244 -46.898 -34.360  1.00  0.00     0.339 C 
ATOM     28  C   UNL     1      -0.610 -47.908 -33.555  1.00  0.00     0.214 C 
ATOM     29  O   UNL     1       1.534 -47.432 -34.599  1.00  0.00    -0.332 OA
ATOM     30  C   UNL     1       0.285 -48.827 -32.695  1.00  0.00     0.180 C 
ATOM     31  C   UNL     1       2.302 -47.455 -33.403  1.00  0.00     0.179 C 
ATOM     32  C   UNL     1       1.528 -48.068 -32.193  1.00  0.00     0.177 C 
BRANCH  28  33
ATOM     33  O   UNL     1      -1.516 -47.210 -32.737  1.00  0.00    -0.384 OA
ATOM     34  H   UNL     1      -2.024 -46.600 -33.333  1.00  0.00     0.211 HD
ENDBRANCH  28  33
BRANCH  30  35
ATOM     35  O   UNL     1      -0.450 -49.357 -31.620  1.00  0.00    -0.387 OA
ATOM     36  H   UNL     1      -0.110 -48.918 -30.797  1.00  0.00     0.211 HD
ENDBRANCH  30  35
BRANCH  31  37
ATOM     37  C   UNL     1       3.597 -48.229 -33.685  1.00  0.00     0.191 C 
BRANCH  37  38
ATOM     38  O   UNL     1       4.087 -47.905 -34.958  1.00  0.00    -0.394 OA
ATOM     39  H   UNL     1       4.426 -48.752 -35.347  1.00  0.00     0.210 HD
ENDBRANCH  37  38
ENDBRANCH  31  37
BRANCH  32  40
ATOM     40  O   UNL     1       1.141 -47.036 -31.319  1.00  0.00    -0.387 OA
ATOM     41  H   UNL     1       0.532 -47.436 -30.645  1.00  0.00     0.211 HD
ENDBRANCH  32  40
ENDBRANCH   1  27
TORSDOF 12
ENDMDL
MODEL 7
REMARK VINA RESULT:    -7.069      2.109      7.097
REMARK INTER + INTRA:         -11.555
REMARK INTER:                 -10.809
REMARK INTRA:                  -0.746
REMARK UNBOUND:                -1.180
REMARK SMILES O=c1c(O[C@@H]2O[C@H](CO)[C@@H](O)[C@@H](O)[C@H]2O)c(-c2ccc(O)c(O)c2)oc2cc(O)cc(O)c12
REMARK SMILES IDX 4 1 3 2 16 3 25 4 2 5 26 6 1 7 33 8 27 9 31 10 28 11 30 12
REMARK SMILES IDX 17 13 18 14 19 15 20 16 24 17 22 18 21 19 23 21 32 23 29 25
REMARK SMILES IDX 5 27 14 28 6 29 12 30 7 31 10 32 15 33 13 35 8 37 9 38 11 40
REMARK H PARENT 21 20 23 22 32 24 29 26 15 34 13 36 9 39 11 41
REMARK Flexibility Score: inf
ROOT
ATOM      1  O   UNL     1      -0.419 -45.653 -36.848  1.00  0.00    -0.454 OA
ENDROOT
BRANCH   1   2
ATOM      2  C   UNL     1       0.278 -45.204 -37.982  1.00  0.00     0.214 A 
ATOM      3  C   UNL     1       0.810 -43.903 -37.981  1.00  0.00     0.180 A 
ATOM      4  O   UNL     1       1.547 -43.485 -39.002  1.00  0.00    -0.452 OA
ATOM      5  C   UNL     1       0.509 -46.028 -39.101  1.00  0.00     0.239 A 
ATOM      6  C   UNL     1       1.784 -44.222 -40.081  1.00  0.00     0.146 A 
ATOM      7  O   UNL     1       0.121 -47.223 -39.071  1.00  0.00    -0.285 OA
ATOM      8  C   UNL     1       1.234 -45.523 -40.207  1.00  0.00     0.111 A 
ATOM      9  C   UNL     1       2.589 -43.689 -41.091  1.00  0.00     0.094 A 
ATOM     10  C   UNL     1       1.481 -46.251 -41.410  1.00  0.00     0.134 A 
ATOM     11  C   UNL     1       2.869 -44.433 -42.238  1.00  0.00     0.123 A 
ATOM     12  C   UNL     1       2.319 -45.704 -42.390  1.00  0.00     0.093 A 
BRANCH   3  13
ATOM     13  C   UNL     1       0.573 -42.969 -36.857  1.00  0.00     0.025 A 
ATOM     14  C   UNL     1       1.641 -42.229 -36.333  1.00  0.00     0.016 A 
ATOM     15  C   UNL     1       1.430 -41.341 -35.276  1.00  0.00     0.051 A 
ATOM     16  C   UNL     1       0.152 -41.162 -34.735  1.00  0.00     0.157 A 
ATOM     17  C   UNL     1      -0.716 -42.774 -36.336  1.00  0.00     0.062 A 
ATOM     18  C   UNL     1      -0.938 -41.885 -35.276  1.00  0.00     0.158 A 
BRANCH  16  19
ATOM     19  O   UNL     1       0.010 -40.265 -33.675  1.00  0.00    -0.504 OA
ATOM     20  H   UNL     1      -0.863 -40.083 -33.203  1.00  0.00     0.293 HD
ENDBRANCH  16  19
BRANCH  18  21
ATOM     21  O   UNL     1      -2.245 -41.749 -34.800  1.00  0.00    -0.504 OA
ATOM     22  H   UNL     1      -2.988 -42.404 -34.996  1.00  0.00     0.293 HD
ENDBRANCH  18  21
ENDBRANCH   3  13
BRANCH  10  23
ATOM     23  O   UNL     1       0.912 -47.495 -41.699  1.00  0.00    -0.507 OA
ATOM     24  H   UNL     1       0.020 -47.814 -41.350  1.00  0.00     0.293 HD
ENDBRANCH  10  23
BRANCH  11  25
ATOM     25  O   UNL     1       3.689 -43.915 -43.240  1.00  0.00    -0.508 OA
ATOM     26  H   UNL     1       3.313 -43.366 -44.001  1.00  0.00     0.293 HD
ENDBRANCH  11  25
ENDBRANCH   1   2
BRANCH   1  27
ATOM     27  C   UNL     1       0.163 -46.380 -35.768  1.00  0.00     0.339 C 
ATOM     28  C   UNL     1      -0.778 -46.280 -34.544  1.00  0.00     0.214 C 
ATOM     29  O   UNL     1       0.323 -47.734 -36.152  1.00  0.00    -0.332 OA
ATOM     30  C   UNL     1      -0.734 -47.576 -33.704  1.00  0.00     0.180 C 
ATOM     31  C   UNL     1       1.123 -48.437 -35.209  1.00  0.00     0.179 C 
ATOM     32  C   UNL     1       0.674 -48.199 -33.732  1.00  0.00     0.177 C 
BRANCH  28  33
ATOM     33  O   UNL     1      -0.408 -45.177 -33.755  1.00  0.00    -0.384 OA
ATOM     34  H   UNL     1       0.197 -44.620 -34.311  1.00  0.00     0.211 HD
ENDBRANCH  28  33
BRANCH  30  35
ATOM     35  O   UNL     1      -1.145 -47.316 -32.385  1.00  0.00    -0.387 OA
ATOM     36  H   UNL     1      -0.490 -46.675 -32.003  1.00  0.00     0.211 HD
ENDBRANCH  30  35
BRANCH  31  37
ATOM     37  C   UNL     1       1.082 -49.928 -35.569  1.00  0.00     0.191 C 
BRANCH  37  38
ATOM     38  O   UNL     1       0.630 -50.678 -34.474  1.00  0.00    -0.394 OA
ATOM     39  H   UNL     1      -0.348 -50.787 -34.598  1.00  0.00     0.210 HD
ENDBRANCH  37  38
ENDBRANCH  31  37
BRANCH  32  40
ATOM     40  O   UNL     1       1.593 -47.339 -33.102  1.00  0.00    -0.387 OA
ATOM     41  H   UNL     1       1.200 -47.081 -32.227  1.00  0.00     0.211 HD
ENDBRANCH  32  40
ENDBRANCH   1  27
TORSDOF 12
ENDMDL
MODEL 8
REMARK VINA RESULT:    -7.000      2.084      5.468
REMARK INTER + INTRA:         -11.454
REMARK INTER:                 -10.792
REMARK INTRA:                  -0.662
REMARK UNBOUND:                -1.180
REMARK SMILES O=c1c(O[C@@H]2O[C@H](CO)[C@@H](O)[C@@H](O)[C@H]2O)c(-c2ccc(O)c(O)c2)oc2cc(O)cc(O)c12
REMARK SMILES IDX 4 1 3 2 16 3 25 4 2 5 26 6 1 7 33 8 27 9 31 10 28 11 30 12
REMARK SMILES IDX 17 13 18 14 19 15 20 16 24 17 22 18 21 19 23 21 32 23 29 25
REMARK SMILES IDX 5 27 14 28 6 29 12 30 7 31 10 32 15 33 13 35 8 37 9 38 11 40
REMARK H PARENT 21 20 23 22 32 24 29 26 15 34 13 36 9 39 11 41
REMARK Flexibility Score: inf
ROOT
ATOM      1  O   UNL     1      -0.531 -46.490 -36.716  1.00  0.00    -0.454 OA
ENDROOT
BRANCH   1   2
ATOM      2  C   UNL     1      -0.243 -45.130 -36.506  1.00  0.00     0.214 A 
ATOM      3  C   UNL     1       0.618 -44.473 -37.401  1.00  0.00     0.180 A 
ATOM      4  O   UNL     1       0.837 -43.170 -37.278  1.00  0.00    -0.452 OA
ATOM      5  C   UNL     1      -0.827 -44.388 -35.461  1.00  0.00     0.239 A 
ATOM      6  C   UNL     1       0.317 -42.432 -36.305  1.00  0.00     0.146 A 
ATOM      7  O   UNL     1      -1.672 -44.944 -34.715  1.00  0.00    -0.285 OA
ATOM      8  C   UNL     1      -0.510 -43.017 -35.312  1.00  0.00     0.111 A 
ATOM      9  C   UNL     1       0.599 -41.064 -36.280  1.00  0.00     0.094 A 
ATOM     10  C   UNL     1      -1.003 -42.184 -34.262  1.00  0.00     0.134 A 
ATOM     11  C   UNL     1       0.066 -40.250 -35.278  1.00  0.00     0.123 A 
ATOM     12  C   UNL     1      -0.730 -40.810 -34.282  1.00  0.00     0.093 A 
BRANCH   3  13
ATOM     13  C   UNL     1       1.298 -45.198 -38.498  1.00  0.00     0.025 A 
ATOM     14  C   UNL     1       2.683 -45.069 -38.663  1.00  0.00     0.016 A 
ATOM     15  C   UNL     1       3.336 -45.752 -39.692  1.00  0.00     0.051 A 
ATOM     16  C   UNL     1       2.625 -46.587 -40.561  1.00  0.00     0.157 A 
ATOM     17  C   UNL     1       0.584 -46.057 -39.351  1.00  0.00     0.062 A 
ATOM     18  C   UNL     1       1.230 -46.747 -40.384  1.00  0.00     0.158 A 
BRANCH  16  19
ATOM     19  O   UNL     1       3.336 -47.236 -41.571  1.00  0.00    -0.504 OA
ATOM     20  H   UNL     1       3.249 -48.219 -41.782  1.00  0.00     0.293 HD
ENDBRANCH  16  19
BRANCH  18  21
ATOM     21  O   UNL     1       0.455 -47.574 -41.202  1.00  0.00    -0.504 OA
ATOM     22  H   UNL     1       0.019 -48.429 -40.888  1.00  0.00     0.293 HD
ENDBRANCH  18  21
ENDBRANCH   3  13
BRANCH  10  23
ATOM     23  O   UNL     1      -1.738 -42.658 -33.171  1.00  0.00    -0.507 OA
ATOM     24  H   UNL     1      -1.397 -43.327 -32.495  1.00  0.00     0.293 HD
ENDBRANCH  10  23
BRANCH  11  25
ATOM     25  O   UNL     1       0.328 -38.880 -35.260  1.00  0.00    -0.508 OA
ATOM     26  H   UNL     1       0.420 -38.371 -34.392  1.00  0.00     0.293 HD
ENDBRANCH  11  25
ENDBRANCH   1   2
BRANCH   1  27
ATOM     27  C   UNL     1      -0.005 -47.564 -35.940  1.00  0.00     0.339 C 
ATOM     28  C   UNL     1       1.482 -47.264 -35.630  1.00  0.00     0.214 C 
ATOM     29  O   UNL     1      -0.742 -47.672 -34.736  1.00  0.00    -0.332 OA
ATOM     30  C   UNL     1       1.879 -47.811 -34.241  1.00  0.00     0.180 C 
ATOM     31  C   UNL     1      -0.420 -48.876 -34.051  1.00  0.00     0.179 C 
ATOM     32  C   UNL     1       1.119 -49.114 -33.928  1.00  0.00     0.177 C 
BRANCH  28  33
ATOM     33  O   UNL     1       2.294 -47.834 -36.627  1.00  0.00    -0.384 OA
ATOM     34  H   UNL     1       2.675 -48.666 -36.241  1.00  0.00     0.211 HD
ENDBRANCH  28  33
BRANCH  30  35
ATOM     35  O   UNL     1       3.268 -48.010 -34.174  1.00  0.00    -0.387 OA
ATOM     36  H   UNL     1       3.432 -48.632 -33.418  1.00  0.00     0.211 HD
ENDBRANCH  30  35
BRANCH  31  37
ATOM     37  C   UNL     1      -1.088 -48.831 -32.670  1.00  0.00     0.191 C 
BRANCH  37  38
ATOM     38  O   UNL     1      -1.534 -47.531 -32.391  1.00  0.00    -0.394 OA
ATOM     39  H   UNL     1      -1.164 -46.951 -33.105  1.00  0.00     0.210 HD
ENDBRANCH  37  38
ENDBRANCH  31  37
BRANCH  32  40
ATOM     40  O   UNL     1       1.504 -50.124 -34.828  1.00  0.00    -0.387 OA
ATOM     41  H   UNL     1       2.084 -50.756 -34.328  1.00  0.00     0.211 HD
ENDBRANCH  32  40
ENDBRANCH   1  27
TORSDOF 12
ENDMDL
MODEL 9
REMARK VINA RESULT:    -6.929      2.043      7.074
REMARK INTER + INTRA:         -11.349
REMARK INTER:                  -9.973
REMARK INTRA:                  -1.376
REMARK UNBOUND:                -1.180
REMARK SMILES O=c1c(O[C@@H]2O[C@H](CO)[C@@H](O)[C@@H](O)[C@H]2O)c(-c2ccc(O)c(O)c2)oc2cc(O)cc(O)c12
REMARK SMILES IDX 4 1 3 2 16 3 25 4 2 5 26 6 1 7 33 8 27 9 31 10 28 11 30 12
REMARK SMILES IDX 17 13 18 14 19 15 20 16 24 17 22 18 21 19 23 21 32 23 29 25
REMARK SMILES IDX 5 27 14 28 6 29 12 30 7 31 10 32 15 33 13 35 8 37 9 38 11 40
REMARK H PARENT 21 20 23 22 32 24 29 26 15 34 13 36 9 39 11 41
REMARK Flexibility Score: inf
ROOT
ATOM      1  O   UNL     1      -1.553 -42.902 -36.364  1.00  0.00    -0.454 OA
ENDROOT
BRANCH   1   2
ATOM      2  C   UNL     1      -1.085 -44.148 -35.913  1.00  0.00     0.214 A 
ATOM      3  C   UNL     1      -1.627 -44.690 -34.735  1.00  0.00     0.180 A 
ATOM      4  O   UNL     1      -1.268 -45.903 -34.335  1.00  0.00    -0.452 OA
ATOM      5  C   UNL     1      -0.131 -44.898 -36.626  1.00  0.00     0.239 A 
ATOM      6  C   UNL     1      -0.367 -46.643 -34.969  1.00  0.00     0.146 A 
ATOM      7  O   UNL     1       0.287 -44.465 -37.729  1.00  0.00    -0.285 OA
ATOM      8  C   UNL     1       0.288 -46.155 -36.129  1.00  0.00     0.111 A 
ATOM      9  C   UNL     1      -0.076 -47.915 -34.470  1.00  0.00     0.094 A 
ATOM     10  C   UNL     1       1.284 -46.974 -36.742  1.00  0.00     0.134 A 
ATOM     11  C   UNL     1       0.861 -48.729 -35.111  1.00  0.00     0.123 A 
ATOM     12  C   UNL     1       1.530 -48.258 -36.238  1.00  0.00     0.093 A 
BRANCH   3  13
ATOM     13  C   UNL     1      -2.605 -43.941 -33.914  1.00  0.00     0.025 A 
ATOM     14  C   UNL     1      -2.170 -43.242 -32.781  1.00  0.00     0.016 A 
ATOM     15  C   UNL     1      -3.082 -42.527 -32.001  1.00  0.00     0.051 A 
ATOM     16  C   UNL     1      -4.437 -42.482 -32.345  1.00  0.00     0.157 A 
ATOM     17  C   UNL     1      -3.960 -43.877 -34.279  1.00  0.00     0.062 A 
ATOM     18  C   UNL     1      -4.882 -43.162 -33.504  1.00  0.00     0.158 A 
BRANCH  16  19
ATOM     19  O   UNL     1      -5.298 -41.756 -31.520  1.00  0.00    -0.504 OA
ATOM     20  H   UNL     1      -5.008 -41.289 -30.674  1.00  0.00     0.293 HD
ENDBRANCH  16  19
BRANCH  18  21
ATOM     21  O   UNL     1      -6.216 -43.151 -33.921  1.00  0.00    -0.504 OA
ATOM     22  H   UNL     1      -6.928 -42.558 -33.520  1.00  0.00     0.293 HD
ENDBRANCH  18  21
ENDBRANCH   3  13
BRANCH  10  23
ATOM     23  O   UNL     1       2.071 -46.568 -37.823  1.00  0.00    -0.507 OA
ATOM     24  H   UNL     1       2.834 -47.103 -38.212  1.00  0.00     0.293 HD
ENDBRANCH  10  23
BRANCH  11  25
ATOM     25  O   UNL     1       1.140 -50.008 -34.629  1.00  0.00    -0.508 OA
ATOM     26  H   UNL     1       1.479 -50.740 -35.238  1.00  0.00     0.293 HD
ENDBRANCH  11  25
ENDBRANCH   1   2
BRANCH   1  27
ATOM     27  C   UNL     1      -0.952 -41.646 -36.058  1.00  0.00     0.339 C 
ATOM     28  C   UNL     1      -2.035 -40.714 -35.462  1.00  0.00     0.214 C 
ATOM     29  O   UNL     1       0.090 -41.845 -35.120  1.00  0.00    -0.332 OA
ATOM     30  C   UNL     1      -1.431 -39.770 -34.400  1.00  0.00     0.180 C 
ATOM     31  C   UNL     1       0.875 -40.668 -34.976  1.00  0.00     0.179 C 
ATOM     32  C   UNL     1       0.013 -39.381 -34.770  1.00  0.00     0.177 C 
BRANCH  28  33
ATOM     33  O   UNL     1      -2.631 -39.966 -36.494  1.00  0.00    -0.384 OA
ATOM     34  H   UNL     1      -3.533 -39.707 -36.171  1.00  0.00     0.211 HD
ENDBRANCH  28  33
BRANCH  30  35
ATOM     35  O   UNL     1      -2.236 -38.629 -34.246  1.00  0.00    -0.387 OA
ATOM     36  H   UNL     1      -1.703 -37.857 -34.570  1.00  0.00     0.211 HD
ENDBRANCH  30  35
BRANCH  31  37
ATOM     37  C   UNL     1       1.843 -40.882 -33.805  1.00  0.00     0.191 C 
BRANCH  37  38
ATOM     38  O   UNL     1       1.134 -41.242 -32.651  1.00  0.00    -0.394 OA
ATOM     39  H   UNL     1       1.003 -40.405 -32.134  1.00  0.00     0.210 HD
ENDBRANCH  37  38
ENDBRANCH  31  37
BRANCH  32  40
ATOM     40  O   UNL     1       0.018 -38.626 -35.957  1.00  0.00    -0.387 OA
ATOM     41  H   UNL     1       0.182 -39.258 -36.705  1.00  0.00     0.211 HD
ENDBRANCH  32  40
ENDBRANCH   1  27
TORSDOF 12
ENDMDL
