MODEL 1
REMARK VINA RESULT:    -5.116      0.000      0.000
REMARK INTER + INTRA:         -11.654
REMARK INTER:                  -9.902
REMARK INTRA:                  -1.752
REMARK UNBOUND:                -1.752
REMARK SMILES CCCCCCCCCCCCCCCCCC(=O)[O-]
REMARK SMILES IDX 10 1 11 2 12 3 13 4 14 5 15 6 16 7 17 8 18 9 19 10 20 11
REMARK SMILES IDX 9 12 8 13 7 14 6 15 5 16 4 17 3 18 2 19 1 20
REMARK H PARENT
REMARK Flexibility Score: inf
ROOT
ATOM      1  C   UNL     1    -105.207 -86.054  36.191  1.00  0.00     0.000 C 
ENDROOT
BRANCH   1   2
ATOM      2  C   UNL     1    -104.406 -85.896  34.888  1.00  0.00     0.000 C 
BRANCH   2   3
ATOM      3  C   UNL     1    -103.250 -84.893  35.020  1.00  0.00     0.000 C 
BRANCH   3   4
ATOM      4  C   UNL     1    -102.798 -84.394  33.641  1.00  0.00     0.000 C 
BRANCH   4   5
ATOM      5  C   UNL     1    -103.843 -84.724  32.565  1.00  0.00     0.000 C 
BRANCH   5   6
ATOM      6  C   UNL     1    -104.015 -83.597  31.533  1.00  0.00     0.000 C 
BRANCH   6   7
ATOM      7  C   UNL     1    -105.430 -82.981  31.520  1.00  0.00     0.006 C 
BRANCH   7   8
ATOM      8  C   UNL     1    -106.249 -83.381  32.754  1.00  0.00     0.053 C 
BRANCH   8   9
ATOM      9  C   UNL     1    -107.710 -83.189  32.499  1.00  0.00     0.041 C 
ATOM     10  O   UNL     1    -108.113 -82.196  31.837  1.00  0.00    -0.550 OA
ATOM     11  O   UNL     1    -108.624 -84.132  32.950  1.00  0.00    -0.550 OA
ENDBRANCH   8   9
ENDBRANCH   7   8
ENDBRANCH   6   7
ENDBRANCH   5   6
ENDBRANCH   4   5
ENDBRANCH   3   4
ENDBRANCH   2   3
ENDBRANCH   1   2
BRANCH   1  12
ATOM     12  C   UNL     1    -105.127 -87.481  36.763  1.00  0.00     0.000 C 
BRANCH  12  13
ATOM     13  C   UNL     1    -104.331 -87.545  38.077  1.00  0.00    -0.000 C 
BRANCH  13  14
ATOM     14  C   UNL     1    -103.826 -86.168  38.534  1.00  0.00    -0.000 C 
BRANCH  14  15
ATOM     15  C   UNL     1    -104.512 -85.736  39.835  1.00  0.00    -0.000 C 
BRANCH  15  16
ATOM     16  C   UNL     1    -105.472 -84.561  39.588  1.00  0.00    -0.000 C 
BRANCH  16  17
ATOM     17  C   UNL     1    -104.803 -83.394  38.846  1.00  0.00    -0.000 C 
BRANCH  17  18
ATOM     18  C   UNL     1    -104.377 -82.258  39.793  1.00  0.00    -0.000 C 
BRANCH  18  19
ATOM     19  C   UNL     1    -102.860 -82.011  39.771  1.00  0.00    -0.003 C 
ATOM     20  C   UNL     1    -102.062 -83.164  40.381  1.00  0.00     0.004 C 
ENDBRANCH  18  19
ENDBRANCH  17  18
ENDBRANCH  16  17
ENDBRANCH  15  16
ENDBRANCH  14  15
ENDBRANCH  13  14
ENDBRANCH  12  13
ENDBRANCH   1  12
TORSDOF 16
ENDMDL
MODEL 2
REMARK VINA RESULT:    -5.115      1.621      2.275
REMARK INTER + INTRA:         -11.650
REMARK INTER:                  -9.658
REMARK INTRA:                  -1.992
REMARK UNBOUND:                -1.752
REMARK SMILES CCCCCCCCCCCCCCCCCC(=O)[O-]
REMARK SMILES IDX 10 1 11 2 12 3 13 4 14 5 15 6 16 7 17 8 18 9 19 10 20 11
REMARK SMILES IDX 9 12 8 13 7 14 6 15 5 16 4 17 3 18 2 19 1 20
REMARK H PARENT
REMARK Flexibility Score: inf
ROOT
ATOM      1  C   UNL     1    -105.711 -87.217  35.185  1.00  0.00     0.000 C 
ENDROOT
BRANCH   1   2
ATOM      2  C   UNL     1    -105.542 -85.698  35.015  1.00  0.00     0.000 C 
BRANCH   2   3
ATOM      3  C   UNL     1    -104.342 -85.329  34.131  1.00  0.00     0.000 C 
BRANCH   3   4
ATOM      4  C   UNL     1    -104.624 -84.052  33.329  1.00  0.00     0.000 C 
BRANCH   4   5
ATOM      5  C   UNL     1    -106.133 -83.823  33.169  1.00  0.00     0.000 C 
BRANCH   5   6
ATOM      6  C   UNL     1    -106.494 -82.348  32.925  1.00  0.00     0.000 C 
BRANCH   6   7
ATOM      7  C   UNL     1    -107.830 -82.154  32.176  1.00  0.00     0.006 C 
BRANCH   7   8
ATOM      8  C   UNL     1    -108.352 -83.463  31.570  1.00  0.00     0.053 C 
BRANCH   8   9
ATOM      9  C   UNL     1    -108.187 -83.455  30.084  1.00  0.00     0.041 C 
ATOM     10  O   UNL     1    -109.193 -83.338  29.336  1.00  0.00    -0.550 OA
ATOM     11  O   UNL     1    -106.918 -83.528  29.525  1.00  0.00    -0.550 OA
ENDBRANCH   8   9
ENDBRANCH   7   8
ENDBRANCH   6   7
ENDBRANCH   5   6
ENDBRANCH   4   5
ENDBRANCH   3   4
ENDBRANCH   2   3
ENDBRANCH   1   2
BRANCH   1  12
ATOM     12  C   UNL     1    -105.095 -87.735  36.497  1.00  0.00     0.000 C 
BRANCH  12  13
ATOM     13  C   UNL     1    -105.016 -86.647  37.581  1.00  0.00    -0.000 C 
BRANCH  13  14
ATOM     14  C   UNL     1    -103.954 -86.950  38.649  1.00  0.00    -0.000 C 
BRANCH  14  15
ATOM     15  C   UNL     1    -103.983 -85.898  39.764  1.00  0.00    -0.000 C 
BRANCH  15  16
ATOM     16  C   UNL     1    -105.110 -84.879  39.531  1.00  0.00    -0.000 C 
BRANCH  16  17
ATOM     17  C   UNL     1    -104.589 -83.440  39.387  1.00  0.00    -0.000 C 
BRANCH  17  18
ATOM     18  C   UNL     1    -103.202 -83.377  38.723  1.00  0.00    -0.000 C 
BRANCH  18  19
ATOM     19  C   UNL     1    -103.286 -83.330  37.188  1.00  0.00    -0.003 C 
ATOM     20  C   UNL     1    -104.379 -82.387  36.682  1.00  0.00     0.004 C 
ENDBRANCH  18  19
ENDBRANCH  17  18
ENDBRANCH  16  17
ENDBRANCH  15  16
ENDBRANCH  14  15
ENDBRANCH  13  14
ENDBRANCH  12  13
ENDBRANCH   1  12
TORSDOF 16
ENDMDL
MODEL 3
REMARK VINA RESULT:    -5.057      1.757      2.820
REMARK INTER + INTRA:         -11.539
REMARK INTER:                  -9.148
REMARK INTRA:                  -2.390
REMARK UNBOUND:                -1.752
REMARK SMILES CCCCCCCCCCCCCCCCCC(=O)[O-]
REMARK SMILES IDX 10 1 11 2 12 3 13 4 14 5 15 6 16 7 17 8 18 9 19 10 20 11
REMARK SMILES IDX 9 12 8 13 7 14 6 15 5 16 4 17 3 18 2 19 1 20
REMARK H PARENT
REMARK Flexibility Score: inf
ROOT
ATOM      1  C   UNL     1    -104.919 -84.410  35.537  1.00  0.00     0.000 C 
ENDROOT
BRANCH   1   2
ATOM      2  C   UNL     1    -103.596 -83.642  35.386  1.00  0.00     0.000 C 
BRANCH   2   3
ATOM      3  C   UNL     1    -102.363 -84.544  35.550  1.00  0.00     0.000 C 
BRANCH   3   4
ATOM      4  C   UNL     1    -101.474 -84.489  34.301  1.00  0.00     0.000 C 
BRANCH   4   5
ATOM      5  C   UNL     1    -101.999 -83.455  33.296  1.00  0.00     0.000 C 
BRANCH   5   6
ATOM      6  C   UNL     1    -102.069 -83.998  31.859  1.00  0.00     0.000 C 
BRANCH   6   7
ATOM      7  C   UNL     1    -103.471 -84.505  31.458  1.00  0.00     0.006 C 
BRANCH   7   8
ATOM      8  C   UNL     1    -104.419 -83.358  31.084  1.00  0.00     0.053 C 
BRANCH   8   9
ATOM      9  C   UNL     1    -105.138 -83.666  29.810  1.00  0.00     0.041 C 
ATOM     10  O   UNL     1    -104.520 -84.186  28.843  1.00  0.00    -0.550 OA
ATOM     11  O   UNL     1    -106.501 -83.424  29.706  1.00  0.00    -0.550 OA
ENDBRANCH   8   9
ENDBRANCH   7   8
ENDBRANCH   6   7
ENDBRANCH   5   6
ENDBRANCH   4   5
ENDBRANCH   3   4
ENDBRANCH   2   3
ENDBRANCH   1   2
BRANCH   1  12
ATOM     12  C   UNL     1    -105.029 -85.593  34.560  1.00  0.00     0.000 C 
BRANCH  12  13
ATOM     13  C   UNL     1    -105.640 -86.844  35.214  1.00  0.00    -0.000 C 
BRANCH  13  14
ATOM     14  C   UNL     1    -104.685 -87.519  36.211  1.00  0.00    -0.000 C 
BRANCH  14  15
ATOM     15  C   UNL     1    -105.067 -87.174  37.655  1.00  0.00    -0.000 C 
BRANCH  15  16
ATOM     16  C   UNL     1    -103.815 -87.000  38.529  1.00  0.00    -0.000 C 
BRANCH  16  17
ATOM     17  C   UNL     1    -103.769 -85.636  39.237  1.00  0.00    -0.000 C 
BRANCH  17  18
ATOM     18  C   UNL     1    -105.160 -84.990  39.364  1.00  0.00    -0.000 C 
BRANCH  18  19
ATOM     19  C   UNL     1    -105.090 -83.457  39.447  1.00  0.00    -0.003 C 
ATOM     20  C   UNL     1    -103.663 -82.920  39.335  1.00  0.00     0.004 C 
ENDBRANCH  18  19
ENDBRANCH  17  18
ENDBRANCH  16  17
ENDBRANCH  15  16
ENDBRANCH  14  15
ENDBRANCH  13  14
ENDBRANCH  12  13
ENDBRANCH   1  12
TORSDOF 16
ENDMDL
MODEL 4
REMARK VINA RESULT:    -5.048      1.247      3.598
REMARK INTER + INTRA:         -11.522
REMARK INTER:                  -9.100
REMARK INTRA:                  -2.422
REMARK UNBOUND:                -1.752
REMARK SMILES CCCCCCCCCCCCCCCCCC(=O)[O-]
REMARK SMILES IDX 10 1 11 2 12 3 13 4 14 5 15 6 16 7 17 8 18 9 19 10 20 11
REMARK SMILES IDX 9 12 8 13 7 14 6 15 5 16 4 17 3 18 2 19 1 20
REMARK H PARENT
REMARK Flexibility Score: inf
ROOT
ATOM      1  C   UNL     1    -104.199 -82.992  36.757  1.00  0.00     0.000 C 
ENDROOT
BRANCH   1   2
ATOM      2  C   UNL     1    -103.056 -83.049  35.730  1.00  0.00     0.000 C 
BRANCH   2   3
ATOM      3  C   UNL     1    -102.585 -84.483  35.444  1.00  0.00     0.000 C 
BRANCH   3   4
ATOM      4  C   UNL     1    -101.870 -84.565  34.089  1.00  0.00     0.000 C 
BRANCH   4   5
ATOM      5  C   UNL     1    -102.597 -83.723  33.031  1.00  0.00     0.000 C 
BRANCH   5   6
ATOM      6  C   UNL     1    -103.885 -84.387  32.518  1.00  0.00     0.000 C 
BRANCH   6   7
ATOM      7  C   UNL     1    -105.103 -83.438  32.495  1.00  0.00     0.006 C 
BRANCH   7   8
ATOM      8  C   UNL     1    -106.165 -83.832  33.530  1.00  0.00     0.053 C 
BRANCH   8   9
ATOM      9  C   UNL     1    -107.528 -83.434  33.059  1.00  0.00     0.041 C 
ATOM     10  O   UNL     1    -108.314 -84.299  32.590  1.00  0.00    -0.550 OA
ATOM     11  O   UNL     1    -107.948 -82.117  33.183  1.00  0.00    -0.550 OA
ENDBRANCH   8   9
ENDBRANCH   7   8
ENDBRANCH   6   7
ENDBRANCH   5   6
ENDBRANCH   4   5
ENDBRANCH   3   4
ENDBRANCH   2   3
ENDBRANCH   1   2
BRANCH   1  12
ATOM     12  C   UNL     1    -103.768 -83.490  38.147  1.00  0.00     0.000 C 
BRANCH  12  13
ATOM     13  C   UNL     1    -104.966 -83.771  39.070  1.00  0.00    -0.000 C 
BRANCH  13  14
ATOM     14  C   UNL     1    -105.060 -85.245  39.490  1.00  0.00    -0.000 C 
BRANCH  14  15
ATOM     15  C   UNL     1    -103.664 -85.858  39.656  1.00  0.00    -0.000 C 
BRANCH  15  16
ATOM     16  C   UNL     1    -103.500 -87.102  38.769  1.00  0.00    -0.000 C 
BRANCH  16  17
ATOM     17  C   UNL     1    -104.758 -87.414  37.944  1.00  0.00    -0.000 C 
BRANCH  17  18
ATOM     18  C   UNL     1    -104.490 -87.398  36.428  1.00  0.00    -0.000 C 
BRANCH  18  19
ATOM     19  C   UNL     1    -105.536 -86.579  35.655  1.00  0.00    -0.003 C 
ATOM     20  C   UNL     1    -106.329 -87.422  34.655  1.00  0.00     0.004 C 
ENDBRANCH  18  19
ENDBRANCH  17  18
ENDBRANCH  16  17
ENDBRANCH  15  16
ENDBRANCH  14  15
ENDBRANCH  13  14
ENDBRANCH  12  13
ENDBRANCH   1  12
TORSDOF 16
ENDMDL
MODEL 5
REMARK VINA RESULT:    -5.044      2.770      6.022
REMARK INTER + INTRA:         -11.513
REMARK INTER:                  -9.241
REMARK INTRA:                  -2.273
REMARK UNBOUND:                -1.752
REMARK SMILES CCCCCCCCCCCCCCCCCC(=O)[O-]
REMARK SMILES IDX 10 1 11 2 12 3 13 4 14 5 15 6 16 7 17 8 18 9 19 10 20 11
REMARK SMILES IDX 9 12 8 13 7 14 6 15 5 16 4 17 3 18 2 19 1 20
REMARK H PARENT
REMARK Flexibility Score: inf
ROOT
ATOM      1  C   UNL     1    -103.901 -86.962  38.472  1.00  0.00     0.000 C 
ENDROOT
BRANCH   1   2
ATOM      2  C   UNL     1    -103.853 -85.838  39.519  1.00  0.00     0.000 C 
BRANCH   2   3
ATOM      3  C   UNL     1    -105.142 -85.003  39.554  1.00  0.00     0.000 C 
BRANCH   3   4
ATOM      4  C   UNL     1    -104.822 -83.503  39.607  1.00  0.00     0.000 C 
BRANCH   4   5
ATOM      5  C   UNL     1    -103.307 -83.264  39.659  1.00  0.00     0.000 C 
BRANCH   5   6
ATOM      6  C   UNL     1    -102.940 -81.780  39.821  1.00  0.00     0.000 C 
BRANCH   6   7
ATOM      7  C   UNL     1    -103.986 -80.967  40.612  1.00  0.00     0.006 C 
BRANCH   7   8
ATOM      8  C   UNL     1    -104.235 -79.584  39.996  1.00  0.00     0.053 C 
BRANCH   8   9
ATOM      9  C   UNL     1    -104.834 -79.718  38.632  1.00  0.00     0.041 C 
ATOM     10  O   UNL     1    -104.243 -79.235  37.630  1.00  0.00    -0.550 OA
ATOM     11  O   UNL     1    -106.020 -80.418  38.460  1.00  0.00    -0.550 OA
ENDBRANCH   8   9
ENDBRANCH   7   8
ENDBRANCH   6   7
ENDBRANCH   5   6
ENDBRANCH   4   5
ENDBRANCH   3   4
ENDBRANCH   2   3
ENDBRANCH   1   2
BRANCH   1  12
ATOM     12  C   UNL     1    -104.572 -86.519  37.160  1.00  0.00     0.000 C 
BRANCH  12  13
ATOM     13  C   UNL     1    -105.446 -87.624  36.543  1.00  0.00    -0.000 C 
BRANCH  13  14
ATOM     14  C   UNL     1    -105.937 -87.272  35.130  1.00  0.00    -0.000 C 
BRANCH  14  15
ATOM     15  C   UNL     1    -104.962 -86.315  34.433  1.00  0.00    -0.000 C 
BRANCH  15  16
ATOM     16  C   UNL     1    -105.650 -84.985  34.087  1.00  0.00    -0.000 C 
BRANCH  16  17
ATOM     17  C   UNL     1    -104.654 -83.824  33.932  1.00  0.00    -0.000 C 
BRANCH  17  18
ATOM     18  C   UNL     1    -103.264 -84.157  34.502  1.00  0.00    -0.000 C 
BRANCH  18  19
ATOM     19  C   UNL     1    -102.963 -83.392  35.801  1.00  0.00    -0.003 C 
ATOM     20  C   UNL     1    -104.091 -82.443  36.206  1.00  0.00     0.004 C 
ENDBRANCH  18  19
ENDBRANCH  17  18
ENDBRANCH  16  17
ENDBRANCH  15  16
ENDBRANCH  14  15
ENDBRANCH  13  14
ENDBRANCH  12  13
ENDBRANCH   1  12
TORSDOF 16
ENDMDL
MODEL 6
REMARK VINA RESULT:    -5.027      3.176      7.149
REMARK INTER + INTRA:         -11.481
REMARK INTER:                  -9.593
REMARK INTRA:                  -1.888
REMARK UNBOUND:                -1.752
REMARK SMILES CCCCCCCCCCCCCCCCCC(=O)[O-]
REMARK SMILES IDX 10 1 11 2 12 3 13 4 14 5 15 6 16 7 17 8 18 9 19 10 20 11
REMARK SMILES IDX 9 12 8 13 7 14 6 15 5 16 4 17 3 18 2 19 1 20
REMARK H PARENT
REMARK Flexibility Score: inf
ROOT
ATOM      1  C   UNL     1    -104.720 -86.940  35.757  1.00  0.00     0.000 C 
ENDROOT
BRANCH   1   2
ATOM      2  C   UNL     1    -105.210 -87.373  37.148  1.00  0.00     0.000 C 
BRANCH   2   3
ATOM      3  C   UNL     1    -104.068 -87.496  38.168  1.00  0.00     0.000 C 
BRANCH   3   4
ATOM      4  C   UNL     1    -103.668 -86.117  38.712  1.00  0.00     0.000 C 
BRANCH   4   5
ATOM      5  C   UNL     1    -104.606 -85.677  39.843  1.00  0.00     0.000 C 
BRANCH   5   6
ATOM      6  C   UNL     1    -105.512 -84.499  39.447  1.00  0.00     0.000 C 
BRANCH   6   7
ATOM      7  C   UNL     1    -104.778 -83.392  38.662  1.00  0.00     0.006 C 
BRANCH   7   8
ATOM      8  C   UNL     1    -104.657 -82.092  39.467  1.00  0.00     0.053 C 
BRANCH   8   9
ATOM      9  C   UNL     1    -103.237 -81.859  39.875  1.00  0.00     0.041 C 
ATOM     10  O   UNL     1    -102.849 -80.703  40.190  1.00  0.00    -0.550 OA
ATOM     11  O   UNL     1    -102.353 -82.927  39.955  1.00  0.00    -0.550 OA
ENDBRANCH   8   9
ENDBRANCH   7   8
ENDBRANCH   6   7
ENDBRANCH   5   6
ENDBRANCH   4   5
ENDBRANCH   3   4
ENDBRANCH   2   3
ENDBRANCH   1   2
BRANCH   1  12
ATOM     12  C   UNL     1    -105.599 -85.839  35.137  1.00  0.00     0.000 C 
BRANCH  12  13
ATOM     13  C   UNL     1    -104.804 -84.564  34.809  1.00  0.00    -0.000 C 
BRANCH  13  14
ATOM     14  C   UNL     1    -103.521 -84.852  34.016  1.00  0.00    -0.000 C 
BRANCH  14  15
ATOM     15  C   UNL     1    -103.706 -84.513  32.532  1.00  0.00    -0.000 C 
BRANCH  15  16
ATOM     16  C   UNL     1    -104.660 -83.320  32.355  1.00  0.00    -0.000 C 
BRANCH  16  17
ATOM     17  C   UNL     1    -105.263 -83.246  30.943  1.00  0.00    -0.000 C 
BRANCH  17  18
ATOM     18  C   UNL     1    -106.800 -83.195  30.959  1.00  0.00    -0.000 C 
BRANCH  18  19
ATOM     19  C   UNL     1    -107.365 -82.918  32.362  1.00  0.00    -0.003 C 
ATOM     20  C   UNL     1    -108.406 -83.951  32.797  1.00  0.00     0.004 C 
ENDBRANCH  18  19
ENDBRANCH  17  18
ENDBRANCH  16  17
ENDBRANCH  15  16
ENDBRANCH  14  15
ENDBRANCH  13  14
ENDBRANCH  12  13
ENDBRANCH   1  12
TORSDOF 16
ENDMDL
MODEL 7
REMARK VINA RESULT:    -5.021      2.598      5.596
REMARK INTER + INTRA:         -11.468
REMARK INTER:                  -9.155
REMARK INTRA:                  -2.313
REMARK UNBOUND:                -1.752
REMARK SMILES CCCCCCCCCCCCCCCCCC(=O)[O-]
REMARK SMILES IDX 10 1 11 2 12 3 13 4 14 5 15 6 16 7 17 8 18 9 19 10 20 11
REMARK SMILES IDX 9 12 8 13 7 14 6 15 5 16 4 17 3 18 2 19 1 20
REMARK H PARENT
REMARK Flexibility Score: inf
ROOT
ATOM      1  C   UNL     1    -104.763 -85.408  39.769  1.00  0.00     0.000 C 
ENDROOT
BRANCH   1   2
ATOM      2  C   UNL     1    -104.400 -83.940  39.494  1.00  0.00     0.000 C 
BRANCH   2   3
ATOM      3  C   UNL     1    -102.894 -83.666  39.623  1.00  0.00     0.000 C 
BRANCH   3   4
ATOM      4  C   UNL     1    -102.627 -82.173  39.857  1.00  0.00     0.000 C 
BRANCH   4   5
ATOM      5  C   UNL     1    -103.888 -81.460  40.362  1.00  0.00     0.000 C 
BRANCH   5   6
ATOM      6  C   UNL     1    -103.857 -79.942  40.117  1.00  0.00     0.000 C 
BRANCH   6   7
ATOM      7  C   UNL     1    -104.992 -79.440  39.200  1.00  0.00     0.006 C 
BRANCH   7   8
ATOM      8  C   UNL     1    -105.714 -80.591  38.487  1.00  0.00     0.053 C 
BRANCH   8   9
ATOM      9  C   UNL     1    -105.910 -80.270  37.039  1.00  0.00     0.041 C 
ATOM     10  O   UNL     1    -107.047 -79.935  36.613  1.00  0.00    -0.550 OA
ATOM     11  O   UNL     1    -104.828 -80.292  36.170  1.00  0.00    -0.550 OA
ENDBRANCH   8   9
ENDBRANCH   7   8
ENDBRANCH   6   7
ENDBRANCH   5   6
ENDBRANCH   4   5
ENDBRANCH   3   4
ENDBRANCH   2   3
ENDBRANCH   1   2
BRANCH   1  12
ATOM     12  C   UNL     1    -103.613 -86.373  39.434  1.00  0.00     0.000 C 
BRANCH  12  13
ATOM     13  C   UNL     1    -103.991 -87.383  38.338  1.00  0.00    -0.000 C 
BRANCH  13  14
ATOM     14  C   UNL     1    -105.165 -86.905  37.469  1.00  0.00    -0.000 C 
BRANCH  14  15
ATOM     15  C   UNL     1    -105.219 -87.680  36.146  1.00  0.00    -0.000 C 
BRANCH  15  16
ATOM     16  C   UNL     1    -105.628 -86.758  34.986  1.00  0.00    -0.000 C 
BRANCH  16  17
ATOM     17  C   UNL     1    -104.516 -85.776  34.587  1.00  0.00    -0.000 C 
BRANCH  17  18
ATOM     18  C   UNL     1    -104.845 -84.323  34.970  1.00  0.00    -0.000 C 
BRANCH  18  19
ATOM     19  C   UNL     1    -103.822 -83.727  35.951  1.00  0.00    -0.003 C 
ATOM     20  C   UNL     1    -102.534 -84.547  36.036  1.00  0.00     0.004 C 
ENDBRANCH  18  19
ENDBRANCH  17  18
ENDBRANCH  16  17
ENDBRANCH  15  16
ENDBRANCH  14  15
ENDBRANCH  13  14
ENDBRANCH  12  13
ENDBRANCH   1  12
TORSDOF 16
ENDMDL
MODEL 8
REMARK VINA RESULT:    -5.014      1.997      2.658
REMARK INTER + INTRA:         -11.455
REMARK INTER:                  -9.016
REMARK INTRA:                  -2.439
REMARK UNBOUND:                -1.752
REMARK SMILES CCCCCCCCCCCCCCCCCC(=O)[O-]
REMARK SMILES IDX 10 1 11 2 12 3 13 4 14 5 15 6 16 7 17 8 18 9 19 10 20 11
REMARK SMILES IDX 9 12 8 13 7 14 6 15 5 16 4 17 3 18 2 19 1 20
REMARK H PARENT
REMARK Flexibility Score: inf
ROOT
ATOM      1  C   UNL     1    -105.820 -86.973  34.965  1.00  0.00     0.000 C 
ENDROOT
BRANCH   1   2
ATOM      2  C   UNL     1    -105.371 -85.516  34.770  1.00  0.00     0.000 C 
BRANCH   2   3
ATOM      3  C   UNL     1    -104.312 -85.363  33.668  1.00  0.00     0.000 C 
BRANCH   3   4
ATOM      4  C   UNL     1    -103.056 -84.668  34.208  1.00  0.00     0.000 C 
BRANCH   4   5
ATOM      5  C   UNL     1    -103.136 -84.488  35.730  1.00  0.00     0.000 C 
BRANCH   5   6
ATOM      6  C   UNL     1    -102.976 -83.023  36.170  1.00  0.00     0.000 C 
BRANCH   6   7
ATOM      7  C   UNL     1    -104.308 -82.244  36.223  1.00  0.00     0.006 C 
BRANCH   7   8
ATOM      8  C   UNL     1    -104.481 -81.308  35.020  1.00  0.00     0.053 C 
BRANCH   8   9
ATOM      9  C   UNL     1    -105.909 -80.883  34.888  1.00  0.00     0.041 C 
ATOM     10  O   UNL     1    -106.358 -79.941  35.592  1.00  0.00    -0.550 OA
ATOM     11  O   UNL     1    -106.732 -81.496  33.953  1.00  0.00    -0.550 OA
ENDBRANCH   8   9
ENDBRANCH   7   8
ENDBRANCH   6   7
ENDBRANCH   5   6
ENDBRANCH   4   5
ENDBRANCH   3   4
ENDBRANCH   2   3
ENDBRANCH   1   2
BRANCH   1  12
ATOM     12  C   UNL     1    -105.176 -87.629  36.198  1.00  0.00     0.000 C 
BRANCH  12  13
ATOM     13  C   UNL     1    -105.104 -86.676  37.403  1.00  0.00    -0.000 C 
BRANCH  13  14
ATOM     14  C   UNL     1    -103.987 -87.048  38.390  1.00  0.00    -0.000 C 
BRANCH  14  15
ATOM     15  C   UNL     1    -103.860 -85.994  39.496  1.00  0.00    -0.000 C 
BRANCH  15  16
ATOM     16  C   UNL     1    -105.085 -85.066  39.517  1.00  0.00    -0.000 C 
BRANCH  16  17
ATOM     17  C   UNL     1    -104.703 -83.578  39.569  1.00  0.00    -0.000 C 
BRANCH  17  18
ATOM     18  C   UNL     1    -103.203 -83.362  39.840  1.00  0.00    -0.000 C 
BRANCH  18  19
ATOM     19  C   UNL     1    -102.818 -81.874  39.860  1.00  0.00    -0.003 C 
ATOM     20  C   UNL     1    -104.003 -80.958  40.167  1.00  0.00     0.004 C 
ENDBRANCH  18  19
ENDBRANCH  17  18
ENDBRANCH  16  17
ENDBRANCH  15  16
ENDBRANCH  14  15
ENDBRANCH  13  14
ENDBRANCH  12  13
ENDBRANCH   1  12
TORSDOF 16
ENDMDL
MODEL 9
REMARK VINA RESULT:    -5.001      2.891      5.274
REMARK INTER + INTRA:         -11.431
REMARK INTER:                  -8.660
REMARK INTRA:                  -2.771
REMARK UNBOUND:                -1.752
REMARK SMILES CCCCCCCCCCCCCCCCCC(=O)[O-]
REMARK SMILES IDX 10 1 11 2 12 3 13 4 14 5 15 6 16 7 17 8 18 9 19 10 20 11
REMARK SMILES IDX 9 12 8 13 7 14 6 15 5 16 4 17 3 18 2 19 1 20
REMARK H PARENT
REMARK Flexibility Score: inf
ROOT
ATOM      1  C   UNL     1    -104.809 -83.584  39.164  1.00  0.00     0.000 C 
ENDROOT
BRANCH   1   2
ATOM      2  C   UNL     1    -105.108 -85.069  39.429  1.00  0.00     0.000 C 
BRANCH   2   3
ATOM      3  C   UNL     1    -103.834 -85.911  39.592  1.00  0.00     0.000 C 
BRANCH   3   4
ATOM      4  C   UNL     1    -103.779 -87.031  38.545  1.00  0.00     0.000 C 
BRANCH   4   5
ATOM      5  C   UNL     1    -105.031 -87.017  37.657  1.00  0.00     0.000 C 
BRANCH   5   6
ATOM      6  C   UNL     1    -104.703 -87.107  36.157  1.00  0.00     0.000 C 
BRANCH   6   7
ATOM      7  C   UNL     1    -105.283 -85.942  35.327  1.00  0.00     0.006 C 
BRANCH   7   8
ATOM      8  C   UNL     1    -104.577 -84.612  35.619  1.00  0.00     0.053 C 
BRANCH   8   9
ATOM      9  C   UNL     1    -103.120 -84.711  35.297  1.00  0.00     0.041 C 
ATOM     10  O   UNL     1    -102.740 -84.803  34.100  1.00  0.00    -0.550 OA
ATOM     11  O   UNL     1    -102.178 -84.653  36.316  1.00  0.00    -0.550 OA
ENDBRANCH   8   9
ENDBRANCH   7   8
ENDBRANCH   6   7
ENDBRANCH   5   6
ENDBRANCH   4   5
ENDBRANCH   3   4
ENDBRANCH   2   3
ENDBRANCH   1   2
BRANCH   1  12
ATOM     12  C   UNL     1    -103.301 -83.283  39.127  1.00  0.00     0.000 C 
BRANCH  12  13
ATOM     13  C   UNL     1    -102.889 -82.207  40.146  1.00  0.00    -0.000 C 
BRANCH  13  14
ATOM     14  C   UNL     1    -104.072 -81.342  40.606  1.00  0.00    -0.000 C 
BRANCH  14  15
ATOM     15  C   UNL     1    -103.699 -79.854  40.601  1.00  0.00    -0.000 C 
BRANCH  15  16
ATOM     16  C   UNL     1    -102.921 -79.487  39.327  1.00  0.00    -0.000 C 
BRANCH  16  17
ATOM     17  C   UNL     1    -103.841 -79.079  38.166  1.00  0.00    -0.000 C 
BRANCH  17  18
ATOM     18  C   UNL     1    -103.868 -80.124  37.038  1.00  0.00    -0.000 C 
BRANCH  18  19
ATOM     19  C   UNL     1    -105.225 -80.839  36.930  1.00  0.00    -0.003 C 
ATOM     20  C   UNL     1    -106.288 -80.236  37.850  1.00  0.00     0.004 C 
ENDBRANCH  18  19
ENDBRANCH  17  18
ENDBRANCH  16  17
ENDBRANCH  15  16
ENDBRANCH  14  15
ENDBRANCH  13  14
ENDBRANCH  12  13
ENDBRANCH   1  12
TORSDOF 16
ENDMDL
