MODEL 1
REMARK VINA RESULT:    -5.013      0.000      0.000
REMARK INTER + INTRA:          -7.314
REMARK INTER:                  -6.772
REMARK INTRA:                  -0.542
REMARK UNBOUND:                -0.542
REMARK SMILES C=C[C@@](C)(CCC=C(C)C)OC(C)=O
REMARK SMILES IDX 3 1 4 2 5 3 6 4 7 5 9 6 8 7 10 8 2 9 1 10 11 11 12 12 14 13
REMARK SMILES IDX 13 14
REMARK H PARENT
REMARK Flexibility Score: inf
ROOT
ATOM      1  C   UNL     1     135.590   1.728  94.786  1.00  0.00     0.127 C 
ATOM      2  C   UNL     1     134.837   1.251  96.041  1.00  0.00     0.061 C 
ENDROOT
BRANCH   1   3
ATOM      3  C   UNL     1     136.268   3.103  95.059  1.00  0.00     0.057 C 
BRANCH   3   4
ATOM      4  C   UNL     1     135.560   3.972  96.124  1.00  0.00     0.032 C 
BRANCH   4   5
ATOM      5  C   UNL     1     134.445   4.804  95.536  1.00  0.00    -0.028 C 
ATOM      6  C   UNL     1     133.393   6.768  94.497  1.00  0.00     0.039 C 
ATOM      7  C   UNL     1     134.603   6.051  95.039  1.00  0.00    -0.080 C 
ATOM      8  C   UNL     1     135.954   6.727  94.984  1.00  0.00     0.039 C 
ENDBRANCH   4   5
ENDBRANCH   3   4
ENDBRANCH   1   3
BRANCH   1   9
ATOM      9  C   UNL     1     136.656   0.698  94.445  1.00  0.00     0.013 C 
ATOM     10  C   UNL     1     136.677  -0.520  95.001  1.00  0.00     0.008 C 
ENDBRANCH   1   9
BRANCH   1  11
ATOM     11  O   UNL     1     134.640   1.836  93.714  1.00  0.00    -0.455 OA
BRANCH  11  12
ATOM     12  C   UNL     1     133.354   1.276  93.707  1.00  0.00     0.303 C 
ATOM     13  O   UNL     1     133.177   0.052  93.461  1.00  0.00    -0.253 OA
ATOM     14  C   UNL     1     132.186   2.131  94.058  1.00  0.00     0.139 C 
ENDBRANCH  11  12
ENDBRANCH   1  11
TORSDOF 6
ENDMDL
MODEL 2
REMARK VINA RESULT:    -4.909      1.569      2.027
REMARK INTER + INTRA:          -7.173
REMARK INTER:                  -6.588
REMARK INTRA:                  -0.584
REMARK UNBOUND:                -0.542
REMARK SMILES C=C[C@@](C)(CCC=C(C)C)OC(C)=O
REMARK SMILES IDX 3 1 4 2 5 3 6 4 7 5 9 6 8 7 10 8 2 9 1 10 11 11 12 12 14 13
REMARK SMILES IDX 13 14
REMARK H PARENT
REMARK Flexibility Score: inf
ROOT
ATOM      1  C   UNL     1     134.701   2.177  94.925  1.00  0.00     0.127 C 
ATOM      2  C   UNL     1     134.979   3.102  96.123  1.00  0.00     0.061 C 
ENDROOT
BRANCH   1   3
ATOM      3  C   UNL     1     133.926   2.953  93.819  1.00  0.00     0.057 C 
BRANCH   3   4
ATOM      4  C   UNL     1     134.467   4.371  93.525  1.00  0.00     0.032 C 
BRANCH   4   5
ATOM      5  C   UNL     1     133.534   5.452  94.017  1.00  0.00    -0.028 C 
ATOM      6  C   UNL     1     132.876   7.521  95.169  1.00  0.00     0.039 C 
ATOM      7  C   UNL     1     133.924   6.530  94.733  1.00  0.00    -0.080 C 
ATOM      8  C   UNL     1     135.374   6.781  95.078  1.00  0.00     0.039 C 
ENDBRANCH   4   5
ENDBRANCH   3   4
ENDBRANCH   1   3
BRANCH   1   9
ATOM      9  C   UNL     1     136.034   1.699  94.368  1.00  0.00     0.013 C 
ATOM     10  C   UNL     1     137.205   2.076  94.896  1.00  0.00     0.008 C 
ENDBRANCH   1   9
BRANCH   1  11
ATOM     11  O   UNL     1     133.929   1.062  95.397  1.00  0.00    -0.455 OA
BRANCH  11  12
ATOM     12  C   UNL     1     133.960  -0.234  94.861  1.00  0.00     0.303 C 
ATOM     13  O   UNL     1     134.645  -1.146  95.400  1.00  0.00    -0.253 OA
ATOM     14  C   UNL     1     133.121  -0.551  93.672  1.00  0.00     0.139 C 
ENDBRANCH  11  12
ENDBRANCH   1  11
TORSDOF 6
ENDMDL
MODEL 3
REMARK VINA RESULT:    -4.865      1.676      4.786
REMARK INTER + INTRA:          -7.113
REMARK INTER:                  -6.487
REMARK INTRA:                  -0.625
REMARK UNBOUND:                -0.542
REMARK SMILES C=C[C@@](C)(CCC=C(C)C)OC(C)=O
REMARK SMILES IDX 3 1 4 2 5 3 6 4 7 5 9 6 8 7 10 8 2 9 1 10 11 11 12 12 14 13
REMARK SMILES IDX 13 14
REMARK H PARENT
REMARK Flexibility Score: inf
ROOT
ATOM      1  C   UNL     1     133.911   5.336  94.835  1.00  0.00     0.127 C 
ATOM      2  C   UNL     1     134.612   4.975  93.512  1.00  0.00     0.061 C 
ENDROOT
BRANCH   1   3
ATOM      3  C   UNL     1     134.750   4.822  96.042  1.00  0.00     0.057 C 
BRANCH   3   4
ATOM      4  C   UNL     1     135.748   3.691  95.700  1.00  0.00     0.032 C 
BRANCH   4   5
ATOM      5  C   UNL     1     135.240   2.333  96.125  1.00  0.00    -0.028 C 
ATOM      6  C   UNL     1     134.994  -0.112  96.060  1.00  0.00     0.039 C 
ATOM      7  C   UNL     1     135.595   1.168  95.537  1.00  0.00    -0.080 C 
ATOM      8  C   UNL     1     136.591   1.113  94.403  1.00  0.00     0.039 C 
ENDBRANCH   4   5
ENDBRANCH   3   4
ENDBRANCH   1   3
BRANCH   1   9
ATOM      9  C   UNL     1     133.785   6.850  94.914  1.00  0.00     0.013 C 
ATOM     10  C   UNL     1     132.617   7.458  95.153  1.00  0.00     0.008 C 
ENDBRANCH   1   9
BRANCH   1  11
ATOM     11  O   UNL     1     132.611   4.726  94.827  1.00  0.00    -0.455 OA
BRANCH  11  12
ATOM     12  C   UNL     1     132.171   3.760  93.911  1.00  0.00     0.303 C 
ATOM     13  O   UNL     1     132.511   2.550  94.025  1.00  0.00    -0.253 OA
ATOM     14  C   UNL     1     131.237   4.160  92.822  1.00  0.00     0.139 C 
ENDBRANCH  11  12
ENDBRANCH   1  11
TORSDOF 6
ENDMDL
MODEL 4
REMARK VINA RESULT:    -4.754      2.418      5.107
REMARK INTER + INTRA:          -6.963
REMARK INTER:                  -6.226
REMARK INTRA:                  -0.736
REMARK UNBOUND:                -0.542
REMARK SMILES C=C[C@@](C)(CCC=C(C)C)OC(C)=O
REMARK SMILES IDX 3 1 4 2 5 3 6 4 7 5 9 6 8 7 10 8 2 9 1 10 11 11 12 12 14 13
REMARK SMILES IDX 13 14
REMARK H PARENT
REMARK Flexibility Score: inf
ROOT
ATOM      1  C   UNL     1     134.060   4.929  95.102  1.00  0.00     0.127 C 
ATOM      2  C   UNL     1     134.620   5.720  93.906  1.00  0.00     0.061 C 
ENDROOT
BRANCH   1   3
ATOM      3  C   UNL     1     133.433   3.591  94.611  1.00  0.00     0.057 C 
BRANCH   3   4
ATOM      4  C   UNL     1     134.388   2.691  93.794  1.00  0.00     0.032 C 
BRANCH   4   5
ATOM      5  C   UNL     1     134.587   1.337  94.434  1.00  0.00    -0.028 C 
ATOM      6  C   UNL     1     135.832  -0.534  95.428  1.00  0.00     0.039 C 
ATOM      7  C   UNL     1     135.786   0.842  94.815  1.00  0.00    -0.080 C 
ATOM      8  C   UNL     1     137.064   1.637  94.673  1.00  0.00     0.039 C 
ENDBRANCH   4   5
ENDBRANCH   3   4
ENDBRANCH   1   3
BRANCH   1   9
ATOM      9  C   UNL     1     135.206   4.631  96.058  1.00  0.00     0.013 C 
ATOM     10  C   UNL     1     136.454   5.059  95.834  1.00  0.00     0.008 C 
ENDBRANCH   1   9
BRANCH   1  11
ATOM     11  O   UNL     1     133.071   5.745  95.748  1.00  0.00    -0.455 OA
BRANCH  11  12
ATOM     12  C   UNL     1     132.116   6.537  95.094  1.00  0.00     0.303 C 
ATOM     13  O   UNL     1     131.147   6.015  94.477  1.00  0.00    -0.253 OA
ATOM     14  C   UNL     1     132.216   8.021  95.183  1.00  0.00     0.139 C 
ENDBRANCH  11  12
ENDBRANCH   1  11
TORSDOF 6
ENDMDL
MODEL 5
REMARK VINA RESULT:    -4.594      2.332      4.490
REMARK INTER + INTRA:          -6.748
REMARK INTER:                  -6.060
REMARK INTRA:                  -0.688
REMARK UNBOUND:                -0.542
REMARK SMILES C=C[C@@](C)(CCC=C(C)C)OC(C)=O
REMARK SMILES IDX 3 1 4 2 5 3 6 4 7 5 9 6 8 7 10 8 2 9 1 10 11 11 12 12 14 13
REMARK SMILES IDX 13 14
REMARK H PARENT
REMARK Flexibility Score: inf
ROOT
ATOM      1  C   UNL     1     134.529   5.151  95.055  1.00  0.00     0.127 C 
ATOM      2  C   UNL     1     135.574   6.263  94.850  1.00  0.00     0.061 C 
ENDROOT
BRANCH   1   3
ATOM      3  C   UNL     1     133.187   5.764  95.551  1.00  0.00     0.057 C 
BRANCH   3   4
ATOM      4  C   UNL     1     132.953   7.233  95.131  1.00  0.00     0.032 C 
BRANCH   4   5
ATOM      5  C   UNL     1     131.908   7.360  94.047  1.00  0.00    -0.028 C 
ATOM      6  C   UNL     1     129.750   7.977  93.047  1.00  0.00     0.039 C 
ATOM      7  C   UNL     1     130.697   7.936  94.219  1.00  0.00    -0.080 C 
ATOM      8  C   UNL     1     130.285   8.561  95.531  1.00  0.00     0.039 C 
ENDBRANCH   4   5
ENDBRANCH   3   4
ENDBRANCH   1   3
BRANCH   1   9
ATOM      9  C   UNL     1     134.306   4.452  93.722  1.00  0.00     0.013 C 
ATOM     10  C   UNL     1     133.131   3.904  93.391  1.00  0.00     0.008 C 
ENDBRANCH   1   9
BRANCH   1  11
ATOM     11  O   UNL     1     135.052   4.226  96.022  1.00  0.00    -0.455 OA
BRANCH  11  12
ATOM     12  C   UNL     1     135.797   3.075  95.727  1.00  0.00     0.303 C 
ATOM     13  O   UNL     1     136.999   3.155  95.353  1.00  0.00    -0.253 OA
ATOM     14  C   UNL     1     135.175   1.736  95.919  1.00  0.00     0.139 C 
ENDBRANCH  11  12
ENDBRANCH   1  11
TORSDOF 6
ENDMDL
MODEL 6
REMARK VINA RESULT:    -4.589      1.776      5.031
REMARK INTER + INTRA:          -6.740
REMARK INTER:                  -6.294
REMARK INTRA:                  -0.446
REMARK UNBOUND:                -0.542
REMARK SMILES C=C[C@@](C)(CCC=C(C)C)OC(C)=O
REMARK SMILES IDX 3 1 4 2 5 3 6 4 7 5 9 6 8 7 10 8 2 9 1 10 11 11 12 12 14 13
REMARK SMILES IDX 13 14
REMARK H PARENT
REMARK Flexibility Score: inf
ROOT
ATOM      1  C   UNL     1     134.723   3.604  94.604  1.00  0.00     0.127 C 
ATOM      2  C   UNL     1     134.915   3.462  96.125  1.00  0.00     0.061 C 
ENDROOT
BRANCH   1   3
ATOM      3  C   UNL     1     133.211   3.507  94.245  1.00  0.00     0.057 C 
BRANCH   3   4
ATOM      4  C   UNL     1     132.674   2.066  94.093  1.00  0.00     0.032 C 
BRANCH   4   5
ATOM      5  C   UNL     1     132.485   1.675  92.646  1.00  0.00    -0.028 C 
ATOM      6  C   UNL     1     132.239   0.161  90.726  1.00  0.00     0.039 C 
ATOM      7  C   UNL     1     132.415   0.399  92.204  1.00  0.00    -0.080 C 
ATOM      8  C   UNL     1     132.476  -0.781  93.145  1.00  0.00     0.039 C 
ENDBRANCH   4   5
ENDBRANCH   3   4
ENDBRANCH   1   3
BRANCH   1   9
ATOM      9  C   UNL     1     135.259   4.963  94.178  1.00  0.00     0.013 C 
ATOM     10  C   UNL     1     135.132   6.054  94.943  1.00  0.00     0.008 C 
ENDBRANCH   1   9
BRANCH   1  11
ATOM     11  O   UNL     1     135.464   2.553  93.965  1.00  0.00    -0.455 OA
BRANCH  11  12
ATOM     12  C   UNL     1     136.380   1.701  94.599  1.00  0.00     0.303 C 
ATOM     13  O   UNL     1     137.497   2.126  95.000  1.00  0.00    -0.253 OA
ATOM     14  C   UNL     1     135.997   0.284  94.858  1.00  0.00     0.139 C 
ENDBRANCH  11  12
ENDBRANCH   1  11
TORSDOF 6
ENDMDL
MODEL 7
REMARK VINA RESULT:    -4.528      1.999      5.076
REMARK INTER + INTRA:          -6.658
REMARK INTER:                  -5.947
REMARK INTRA:                  -0.711
REMARK UNBOUND:                -0.542
REMARK SMILES C=C[C@@](C)(CCC=C(C)C)OC(C)=O
REMARK SMILES IDX 3 1 4 2 5 3 6 4 7 5 9 6 8 7 10 8 2 9 1 10 11 11 12 12 14 13
REMARK SMILES IDX 13 14
REMARK H PARENT
REMARK Flexibility Score: inf
ROOT
ATOM      1  C   UNL     1     134.434   4.667  94.759  1.00  0.00     0.127 C 
ATOM      2  C   UNL     1     133.210   5.436  95.288  1.00  0.00     0.061 C 
ENDROOT
BRANCH   1   3
ATOM      3  C   UNL     1     134.011   3.720  93.599  1.00  0.00     0.057 C 
BRANCH   3   4
ATOM      4  C   UNL     1     132.552   3.214  93.677  1.00  0.00     0.032 C 
BRANCH   4   5
ATOM      5  C   UNL     1     132.473   1.711  93.806  1.00  0.00    -0.028 C 
ATOM      6  C   UNL     1     132.244  -0.616  93.048  1.00  0.00     0.039 C 
ATOM      7  C   UNL     1     132.323   0.863  92.765  1.00  0.00    -0.080 C 
ATOM      8  C   UNL     1     132.264   1.350  91.335  1.00  0.00     0.039 C 
ENDBRANCH   4   5
ENDBRANCH   3   4
ENDBRANCH   1   3
BRANCH   1   9
ATOM      9  C   UNL     1     135.449   5.677  94.244  1.00  0.00     0.013 C 
ATOM     10  C   UNL     1     135.963   6.636  95.023  1.00  0.00     0.008 C 
ENDBRANCH   1   9
BRANCH   1  11
ATOM     11  O   UNL     1     134.989   3.915  95.850  1.00  0.00    -0.455 OA
BRANCH  11  12
ATOM     12  C   UNL     1     135.796   2.775  95.725  1.00  0.00     0.303 C 
ATOM     13  O   UNL     1     136.991   2.861  95.329  1.00  0.00    -0.253 OA
ATOM     14  C   UNL     1     135.249   1.448  96.125  1.00  0.00     0.139 C 
ENDBRANCH  11  12
ENDBRANCH   1  11
TORSDOF 6
ENDMDL
MODEL 8
REMARK VINA RESULT:    -4.459     15.020     16.463
REMARK INTER + INTRA:          -6.565
REMARK INTER:                  -5.904
REMARK INTRA:                  -0.661
REMARK UNBOUND:                -0.542
REMARK SMILES C=C[C@@](C)(CCC=C(C)C)OC(C)=O
REMARK SMILES IDX 3 1 4 2 5 3 6 4 7 5 9 6 8 7 10 8 2 9 1 10 11 11 12 12 14 13
REMARK SMILES IDX 13 14
REMARK H PARENT
REMARK Flexibility Score: inf
ROOT
ATOM      1  C   UNL     1     131.575  -3.568  80.380  1.00  0.00     0.127 C 
ATOM      2  C   UNL     1     131.668  -2.778  81.698  1.00  0.00     0.061 C 
ENDROOT
BRANCH   1   3
ATOM      3  C   UNL     1     132.932  -3.501  79.619  1.00  0.00     0.057 C 
BRANCH   3   4
ATOM      4  C   UNL     1     133.892  -2.392  80.106  1.00  0.00     0.032 C 
BRANCH   4   5
ATOM      5  C   UNL     1     133.990  -1.247  79.125  1.00  0.00    -0.028 C 
ATOM      6  C   UNL     1     134.841   0.855  78.180  1.00  0.00     0.039 C 
ATOM      7  C   UNL     1     134.870  -0.227  79.228  1.00  0.00    -0.080 C 
ATOM      8  C   UNL     1     135.895  -0.160  80.338  1.00  0.00     0.039 C 
ENDBRANCH   4   5
ENDBRANCH   3   4
ENDBRANCH   1   3
BRANCH   1   9
ATOM      9  C   UNL     1     131.250  -5.017  80.710  1.00  0.00     0.013 C 
ATOM     10  C   UNL     1     131.612  -5.585  81.867  1.00  0.00     0.008 C 
ENDBRANCH   1   9
BRANCH   1  11
ATOM     11  O   UNL     1     130.523  -2.988  79.591  1.00  0.00    -0.455 OA
BRANCH  11  12
ATOM     12  C   UNL     1     130.417  -3.065  78.195  1.00  0.00     0.303 C 
ATOM     13  O   UNL     1     129.984  -4.106  77.629  1.00  0.00    -0.253 OA
ATOM     14  C   UNL     1     130.763  -1.872  77.372  1.00  0.00     0.139 C 
ENDBRANCH  11  12
ENDBRANCH   1  11
TORSDOF 6
ENDMDL
MODEL 9
REMARK VINA RESULT:    -4.458      2.116      4.643
REMARK INTER + INTRA:          -6.563
REMARK INTER:                  -6.116
REMARK INTRA:                  -0.448
REMARK UNBOUND:                -0.542
REMARK SMILES C=C[C@@](C)(CCC=C(C)C)OC(C)=O
REMARK SMILES IDX 3 1 4 2 5 3 6 4 7 5 9 6 8 7 10 8 2 9 1 10 11 11 12 12 14 13
REMARK SMILES IDX 13 14
REMARK H PARENT
REMARK Flexibility Score: inf
ROOT
ATOM      1  C   UNL     1     135.462   2.181  95.217  1.00  0.00     0.127 C 
ATOM      2  C   UNL     1     136.987   2.133  95.009  1.00  0.00     0.061 C 
ENDROOT
BRANCH   1   3
ATOM      3  C   UNL     1     134.731   2.039  93.849  1.00  0.00     0.057 C 
BRANCH   3   4
ATOM      4  C   UNL     1     133.201   2.251  93.910  1.00  0.00     0.032 C 
BRANCH   4   5
ATOM      5  C   UNL     1     132.572   2.271  92.536  1.00  0.00    -0.028 C 
ATOM      6  C   UNL     1     131.560   1.345  90.498  1.00  0.00     0.039 C 
ATOM      7  C   UNL     1     132.157   1.171  91.871  1.00  0.00    -0.080 C 
ATOM      8  C   UNL     1     132.246  -0.212  92.473  1.00  0.00     0.039 C 
ENDBRANCH   4   5
ENDBRANCH   3   4
ENDBRANCH   1   3
BRANCH   1   9
ATOM      9  C   UNL     1     135.066   1.026  96.125  1.00  0.00     0.013 C 
ATOM     10  C   UNL     1     135.087  -0.247  95.714  1.00  0.00     0.008 C 
ENDBRANCH   1   9
BRANCH   1  11
ATOM     11  O   UNL     1     135.140   3.436  95.835  1.00  0.00    -0.455 OA
BRANCH  11  12
ATOM     12  C   UNL     1     135.700   4.677  95.498  1.00  0.00     0.303 C 
ATOM     13  O   UNL     1     136.745   5.097  96.066  1.00  0.00    -0.253 OA
ATOM     14  C   UNL     1     135.083   5.482  94.408  1.00  0.00     0.139 C 
ENDBRANCH  11  12
ENDBRANCH   1  11
TORSDOF 6
ENDMDL
