MODEL 1
REMARK VINA RESULT:    -5.906      0.000      0.000
REMARK INTER + INTRA:         -16.145
REMARK INTER:                 -12.812
REMARK INTRA:                  -3.334
REMARK UNBOUND:                -3.334
REMARK SMILES CCCCCCCCCCCCCCCCCCCCCC(=O)[O-]
REMARK SMILES IDX 12 1 11 2 10 3 9 4 8 5 7 6 6 7 5 8 4 9 3 10 2 11 1 12 13 13
REMARK SMILES IDX 14 14 15 15 16 16 17 17 18 18 19 19 20 20 21 21 22 22 23 23
REMARK SMILES IDX 24 24
REMARK H PARENT
REMARK Flexibility Score: inf
ROOT
ATOM      1  C   UNL     1      11.102 -14.860  36.579  1.00  0.00     0.000 C 
ENDROOT
BRANCH   1   2
ATOM      2  C   UNL     1      12.375 -14.649  37.413  1.00  0.00     0.000 C 
BRANCH   2   3
ATOM      3  C   UNL     1      13.231 -13.469  36.915  1.00  0.00     0.000 C 
BRANCH   3   4
ATOM      4  C   UNL     1      13.076 -13.135  35.421  1.00  0.00    -0.000 C 
BRANCH   4   5
ATOM      5  C   UNL     1      14.131 -12.134  34.921  1.00  0.00    -0.000 C 
BRANCH   5   6
ATOM      6  C   UNL     1      13.515 -10.787  34.506  1.00  0.00    -0.000 C 
BRANCH   6   7
ATOM      7  C   UNL     1      11.976 -10.806  34.517  1.00  0.00    -0.000 C 
BRANCH   7   8
ATOM      8  C   UNL     1      11.391  -9.811  35.542  1.00  0.00    -0.000 C 
BRANCH   8   9
ATOM      9  C   UNL     1      12.418  -9.307  36.575  1.00  0.00    -0.000 C 
BRANCH   9  10
ATOM     10  C   UNL     1      12.109  -9.687  38.031  1.00  0.00    -0.000 C 
BRANCH  10  11
ATOM     11  C   UNL     1      13.219 -10.534  38.672  1.00  0.00    -0.003 C 
ATOM     12  C   UNL     1      13.215 -10.386  40.191  1.00  0.00     0.004 C 
ENDBRANCH  10  11
ENDBRANCH   9  10
ENDBRANCH   8   9
ENDBRANCH   7   8
ENDBRANCH   6   7
ENDBRANCH   5   6
ENDBRANCH   4   5
ENDBRANCH   3   4
ENDBRANCH   2   3
ENDBRANCH   1   2
BRANCH   1  13
ATOM     13  C   UNL     1      10.058 -15.673  37.360  1.00  0.00     0.000 C 
BRANCH  13  14
ATOM     14  C   UNL     1       9.699 -15.023  38.713  1.00  0.00     0.000 C 
BRANCH  14  15
ATOM     15  C   UNL     1       8.240 -14.542  38.800  1.00  0.00     0.000 C 
BRANCH  15  16
ATOM     16  C   UNL     1       8.120 -13.017  38.962  1.00  0.00     0.000 C 
BRANCH  16  17
ATOM     17  C   UNL     1       9.344 -12.265  38.416  1.00  0.00     0.000 C 
BRANCH  17  18
ATOM     18  C   UNL     1       9.134 -11.764  36.979  1.00  0.00     0.000 C 
BRANCH  18  19
ATOM     19  C   UNL     1       7.696 -11.270  36.775  1.00  0.00     0.000 C 
BRANCH  19  20
ATOM     20  C   UNL     1       6.906 -12.225  35.867  1.00  0.00     0.006 C 
BRANCH  20  21
ATOM     21  C   UNL     1       7.791 -13.329  35.275  1.00  0.00     0.053 C 
BRANCH  21  22
ATOM     22  C   UNL     1       8.078 -13.091  33.824  1.00  0.00     0.041 C 
ATOM     23  O   UNL     1       7.614 -13.869  32.948  1.00  0.00    -0.550 OA
ATOM     24  O   UNL     1       8.891 -12.032  33.441  1.00  0.00    -0.550 OA
ENDBRANCH  21  22
ENDBRANCH  20  21
ENDBRANCH  19  20
ENDBRANCH  18  19
ENDBRANCH  17  18
ENDBRANCH  16  17
ENDBRANCH  15  16
ENDBRANCH  14  15
ENDBRANCH  13  14
ENDBRANCH   1  13
TORSDOF 20
ENDMDL
MODEL 2
REMARK VINA RESULT:    -5.599      2.304      6.114
REMARK INTER + INTRA:         -15.480
REMARK INTER:                 -12.124
REMARK INTRA:                  -3.355
REMARK UNBOUND:                -3.334
REMARK SMILES CCCCCCCCCCCCCCCCCCCCCC(=O)[O-]
REMARK SMILES IDX 12 1 11 2 10 3 9 4 8 5 7 6 6 7 5 8 4 9 3 10 2 11 1 12 13 13
REMARK SMILES IDX 14 14 15 15 16 16 17 17 18 18 19 19 20 20 21 21 22 22 23 23
REMARK SMILES IDX 24 24
REMARK H PARENT
REMARK Flexibility Score: inf
ROOT
ATOM      1  C   UNL     1      11.353 -14.210  36.472  1.00  0.00     0.000 C 
ENDROOT
BRANCH   1   2
ATOM      2  C   UNL     1      10.273 -15.164  37.005  1.00  0.00     0.000 C 
BRANCH   2   3
ATOM      3  C   UNL     1       9.997 -14.978  38.508  1.00  0.00     0.000 C 
BRANCH   3   4
ATOM      4  C   UNL     1       8.515 -15.054  38.915  1.00  0.00    -0.000 C 
BRANCH   4   5
ATOM      5  C   UNL     1       7.705 -13.833  38.450  1.00  0.00    -0.000 C 
BRANCH   5   6
ATOM      6  C   UNL     1       8.423 -12.504  38.739  1.00  0.00    -0.000 C 
BRANCH   6   7
ATOM      7  C   UNL     1       8.724 -11.697  37.463  1.00  0.00    -0.000 C 
BRANCH   7   8
ATOM      8  C   UNL     1       7.434 -11.228  36.757  1.00  0.00    -0.000 C 
BRANCH   8   9
ATOM      9  C   UNL     1       7.451 -11.435  35.229  1.00  0.00    -0.000 C 
BRANCH   9  10
ATOM     10  C   UNL     1       8.598 -12.319  34.711  1.00  0.00    -0.000 C 
BRANCH  10  11
ATOM     11  C   UNL     1       8.151 -13.759  34.420  1.00  0.00    -0.003 C 
ATOM     12  C   UNL     1       7.541 -13.873  33.026  1.00  0.00     0.004 C 
ENDBRANCH  10  11
ENDBRANCH   9  10
ENDBRANCH   8   9
ENDBRANCH   7   8
ENDBRANCH   6   7
ENDBRANCH   5   6
ENDBRANCH   4   5
ENDBRANCH   3   4
ENDBRANCH   2   3
ENDBRANCH   1   2
BRANCH   1  13
ATOM     13  C   UNL     1      12.656 -14.345  37.277  1.00  0.00     0.000 C 
BRANCH  13  14
ATOM     14  C   UNL     1      13.872 -13.761  36.528  1.00  0.00     0.000 C 
BRANCH  14  15
ATOM     15  C   UNL     1      13.547 -13.278  35.103  1.00  0.00     0.000 C 
BRANCH  15  16
ATOM     16  C   UNL     1      14.359 -12.038  34.690  1.00  0.00     0.000 C 
BRANCH  16  17
ATOM     17  C   UNL     1      13.476 -10.802  34.459  1.00  0.00     0.000 C 
BRANCH  17  18
ATOM     18  C   UNL     1      12.035 -11.008  34.949  1.00  0.00     0.000 C 
BRANCH  18  19
ATOM     19  C   UNL     1      11.604  -9.868  35.880  1.00  0.00     0.000 C 
BRANCH  19  20
ATOM     20  C   UNL     1      12.718  -9.518  36.878  1.00  0.00     0.006 C 
BRANCH  20  21
ATOM     21  C   UNL     1      13.007 -10.667  37.852  1.00  0.00     0.053 C 
BRANCH  21  22
ATOM     22  C   UNL     1      12.574 -10.333  39.247  1.00  0.00     0.041 C 
ATOM     23  O   UNL     1      13.429 -10.043  40.126  1.00  0.00    -0.550 OA
ATOM     24  O   UNL     1      11.228 -10.381  39.586  1.00  0.00    -0.550 OA
ENDBRANCH  21  22
ENDBRANCH  20  21
ENDBRANCH  19  20
ENDBRANCH  18  19
ENDBRANCH  17  18
ENDBRANCH  16  17
ENDBRANCH  15  16
ENDBRANCH  14  15
ENDBRANCH  13  14
ENDBRANCH   1  13
TORSDOF 20
ENDMDL
MODEL 3
REMARK VINA RESULT:    -5.565      0.574      1.451
REMARK INTER + INTRA:         -15.404
REMARK INTER:                 -11.965
REMARK INTRA:                  -3.440
REMARK UNBOUND:                -3.334
REMARK SMILES CCCCCCCCCCCCCCCCCCCCCC(=O)[O-]
REMARK SMILES IDX 12 1 11 2 10 3 9 4 8 5 7 6 6 7 5 8 4 9 3 10 2 11 1 12 13 13
REMARK SMILES IDX 14 14 15 15 16 16 17 17 18 18 19 19 20 20 21 21 22 22 23 23
REMARK SMILES IDX 24 24
REMARK H PARENT
REMARK Flexibility Score: inf
ROOT
ATOM      1  C   UNL     1      11.736 -13.707  37.269  1.00  0.00     0.000 C 
ENDROOT
BRANCH   1   2
ATOM      2  C   UNL     1      13.189 -13.441  36.846  1.00  0.00     0.000 C 
BRANCH   2   3
ATOM      3  C   UNL     1      13.383 -13.465  35.318  1.00  0.00     0.000 C 
BRANCH   3   4
ATOM      4  C   UNL     1      14.441 -12.487  34.778  1.00  0.00    -0.000 C 
BRANCH   4   5
ATOM      5  C   UNL     1      14.011 -11.016  34.896  1.00  0.00    -0.000 C 
BRANCH   5   6
ATOM      6  C   UNL     1      12.600 -10.768  34.335  1.00  0.00    -0.000 C 
BRANCH   6   7
ATOM      7  C   UNL     1      11.613 -10.264  35.404  1.00  0.00    -0.000 C 
BRANCH   7   8
ATOM      8  C   UNL     1      12.324  -9.475  36.524  1.00  0.00    -0.000 C 
BRANCH   8   9
ATOM      9  C   UNL     1      11.465  -9.283  37.790  1.00  0.00    -0.000 C 
BRANCH   9  10
ATOM     10  C   UNL     1      11.733 -10.300  38.911  1.00  0.00    -0.000 C 
BRANCH  10  11
ATOM     11  C   UNL     1      13.228 -10.613  39.084  1.00  0.00    -0.003 C 
ATOM     12  C   UNL     1      13.697 -10.284  40.498  1.00  0.00     0.004 C 
ENDBRANCH  10  11
ENDBRANCH   9  10
ENDBRANCH   8   9
ENDBRANCH   7   8
ENDBRANCH   6   7
ENDBRANCH   5   6
ENDBRANCH   4   5
ENDBRANCH   3   4
ENDBRANCH   2   3
ENDBRANCH   1   2
BRANCH   1  13
ATOM     13  C   UNL     1      11.184 -14.970  36.591  1.00  0.00     0.000 C 
BRANCH  13  14
ATOM     14  C   UNL     1      10.254 -15.778  37.522  1.00  0.00     0.000 C 
BRANCH  14  15
ATOM     15  C   UNL     1       9.760 -14.982  38.743  1.00  0.00     0.000 C 
BRANCH  15  16
ATOM     16  C   UNL     1       8.227 -14.973  38.874  1.00  0.00     0.000 C 
BRANCH  16  17
ATOM     17  C   UNL     1       7.622 -13.578  38.656  1.00  0.00     0.000 C 
BRANCH  17  18
ATOM     18  C   UNL     1       8.694 -12.492  38.483  1.00  0.00     0.000 C 
BRANCH  18  19
ATOM     19  C   UNL     1       8.597 -11.842  37.097  1.00  0.00     0.000 C 
BRANCH  19  20
ATOM     20  C   UNL     1       7.469 -12.474  36.267  1.00  0.00     0.006 C 
BRANCH  20  21
ATOM     21  C   UNL     1       7.982 -13.583  35.340  1.00  0.00     0.053 C 
BRANCH  21  22
ATOM     22  C   UNL     1       8.075 -13.117  33.918  1.00  0.00     0.041 C 
ATOM     23  O   UNL     1       8.624 -12.016  33.645  1.00  0.00    -0.550 OA
ATOM     24  O   UNL     1       7.523 -13.882  32.899  1.00  0.00    -0.550 OA
ENDBRANCH  21  22
ENDBRANCH  20  21
ENDBRANCH  19  20
ENDBRANCH  18  19
ENDBRANCH  17  18
ENDBRANCH  16  17
ENDBRANCH  15  16
ENDBRANCH  14  15
ENDBRANCH  13  14
ENDBRANCH   1  13
TORSDOF 20
ENDMDL
MODEL 4
REMARK VINA RESULT:    -5.559      2.330      5.702
REMARK INTER + INTRA:         -15.393
REMARK INTER:                 -11.680
REMARK INTRA:                  -3.714
REMARK UNBOUND:                -3.334
REMARK SMILES CCCCCCCCCCCCCCCCCCCCCC(=O)[O-]
REMARK SMILES IDX 12 1 11 2 10 3 9 4 8 5 7 6 6 7 5 8 4 9 3 10 2 11 1 12 13 13
REMARK SMILES IDX 14 14 15 15 16 16 17 17 18 18 19 19 20 20 21 21 22 22 23 23
REMARK SMILES IDX 24 24
REMARK H PARENT
REMARK Flexibility Score: inf
ROOT
ATOM      1  C   UNL     1       7.003 -13.119  36.506  1.00  0.00     0.000 C 
ENDROOT
BRANCH   1   2
ATOM      2  C   UNL     1       7.861 -12.110  37.285  1.00  0.00     0.000 C 
BRANCH   2   3
ATOM      3  C   UNL     1       8.527 -12.724  38.531  1.00  0.00     0.000 C 
BRANCH   3   4
ATOM      4  C   UNL     1       7.800 -13.942  39.127  1.00  0.00    -0.000 C 
BRANCH   4   5
ATOM      5  C   UNL     1       8.560 -15.260  38.902  1.00  0.00    -0.000 C 
BRANCH   5   6
ATOM      6  C   UNL     1      10.036 -15.034  38.536  1.00  0.00    -0.000 C 
BRANCH   6   7
ATOM      7  C   UNL     1      10.458 -15.787  37.261  1.00  0.00    -0.000 C 
BRANCH   7   8
ATOM      8  C   UNL     1      11.465 -14.978  36.416  1.00  0.00    -0.000 C 
BRANCH   8   9
ATOM      9  C   UNL     1      11.887 -13.643  37.061  1.00  0.00    -0.000 C 
BRANCH   9  10
ATOM     10  C   UNL     1      13.302 -13.168  36.694  1.00  0.00    -0.000 C 
BRANCH  10  11
ATOM     11  C   UNL     1      13.512 -13.044  35.178  1.00  0.00    -0.003 C 
ATOM     12  C   UNL     1      14.252 -11.756  34.829  1.00  0.00     0.004 C 
ENDBRANCH  10  11
ENDBRANCH   9  10
ENDBRANCH   8   9
ENDBRANCH   7   8
ENDBRANCH   6   7
ENDBRANCH   5   6
ENDBRANCH   4   5
ENDBRANCH   3   4
ENDBRANCH   2   3
ENDBRANCH   1   2
BRANCH   1  13
ATOM     13  C   UNL     1       7.834 -13.840  35.433  1.00  0.00     0.000 C 
BRANCH  13  14
ATOM     14  C   UNL     1       7.619 -13.243  34.026  1.00  0.00     0.000 C 
BRANCH  14  15
ATOM     15  C   UNL     1       8.682 -12.203  33.627  1.00  0.00     0.000 C 
BRANCH  15  16
ATOM     16  C   UNL     1       9.947 -12.273  34.500  1.00  0.00     0.000 C 
BRANCH  16  17
ATOM     17  C   UNL     1      10.704 -10.937  34.554  1.00  0.00     0.000 C 
BRANCH  17  18
ATOM     18  C   UNL     1      10.659 -10.292  35.947  1.00  0.00     0.000 C 
BRANCH  18  19
ATOM     19  C   UNL     1      11.404  -8.952  35.955  1.00  0.00     0.000 C 
BRANCH  19  20
ATOM     20  C   UNL     1      12.081  -8.702  37.311  1.00  0.00     0.006 C 
BRANCH  20  21
ATOM     21  C   UNL     1      12.876  -9.921  37.796  1.00  0.00     0.053 C 
BRANCH  21  22
ATOM     22  C   UNL     1      12.451 -10.351  39.167  1.00  0.00     0.041 C 
ATOM     23  O   UNL     1      11.231 -10.530  39.428  1.00  0.00    -0.550 OA
ATOM     24  O   UNL     1      13.399 -10.515  40.168  1.00  0.00    -0.550 OA
ENDBRANCH  21  22
ENDBRANCH  20  21
ENDBRANCH  19  20
ENDBRANCH  18  19
ENDBRANCH  17  18
ENDBRANCH  16  17
ENDBRANCH  15  16
ENDBRANCH  14  15
ENDBRANCH  13  14
ENDBRANCH   1  13
TORSDOF 20
ENDMDL
MODEL 5
REMARK VINA RESULT:    -5.269      1.639      4.784
REMARK INTER + INTRA:         -14.763
REMARK INTER:                 -11.210
REMARK INTRA:                  -3.553
REMARK UNBOUND:                -3.334
REMARK SMILES CCCCCCCCCCCCCCCCCCCCCC(=O)[O-]
REMARK SMILES IDX 12 1 11 2 10 3 9 4 8 5 7 6 6 7 5 8 4 9 3 10 2 11 1 12 13 13
REMARK SMILES IDX 14 14 15 15 16 16 17 17 18 18 19 19 20 20 21 21 22 22 23 23
REMARK SMILES IDX 24 24
REMARK H PARENT
REMARK Flexibility Score: inf
ROOT
ATOM      1  C   UNL     1       8.495 -15.163  39.187  1.00  0.00     0.000 C 
ENDROOT
BRANCH   1   2
ATOM      2  C   UNL     1       7.783 -13.896  38.689  1.00  0.00     0.000 C 
BRANCH   2   3
ATOM      3  C   UNL     1       6.854 -14.162  37.489  1.00  0.00     0.000 C 
BRANCH   3   4
ATOM      4  C   UNL     1       6.980 -13.157  36.331  1.00  0.00    -0.000 C 
BRANCH   4   5
ATOM      5  C   UNL     1       8.145 -13.482  35.382  1.00  0.00    -0.000 C 
BRANCH   5   6
ATOM      6  C   UNL     1       9.073 -12.277  35.154  1.00  0.00    -0.000 C 
BRANCH   6   7
ATOM      7  C   UNL     1       9.216 -11.389  36.403  1.00  0.00    -0.000 C 
BRANCH   7   8
ATOM      8  C   UNL     1      10.450 -11.770  37.248  1.00  0.00    -0.000 C 
BRANCH   8   9
ATOM      9  C   UNL     1      10.315 -11.413  38.741  1.00  0.00    -0.000 C 
BRANCH   9  10
ATOM     10  C   UNL     1      11.333 -10.380  39.253  1.00  0.00    -0.000 C 
BRANCH  10  11
ATOM     11  C   UNL     1      12.787 -10.838  39.066  1.00  0.00    -0.003 C 
ATOM     12  C   UNL     1      13.682 -10.286  40.172  1.00  0.00     0.004 C 
ENDBRANCH  10  11
ENDBRANCH   9  10
ENDBRANCH   8   9
ENDBRANCH   7   8
ENDBRANCH   6   7
ENDBRANCH   5   6
ENDBRANCH   4   5
ENDBRANCH   3   4
ENDBRANCH   2   3
ENDBRANCH   1   2
BRANCH   1  13
ATOM     13  C   UNL     1       9.967 -15.181  38.745  1.00  0.00     0.000 C 
BRANCH  13  14
ATOM     14  C   UNL     1      10.141 -15.713  37.307  1.00  0.00     0.000 C 
BRANCH  14  15
ATOM     15  C   UNL     1      11.355 -15.119  36.571  1.00  0.00     0.000 C 
BRANCH  15  16
ATOM     16  C   UNL     1      12.401 -14.519  37.527  1.00  0.00     0.000 C 
BRANCH  16  17
ATOM     17  C   UNL     1      13.578 -13.866  36.784  1.00  0.00     0.000 C 
BRANCH  17  18
ATOM     18  C   UNL     1      13.157 -13.255  35.439  1.00  0.00     0.000 C 
BRANCH  18  19
ATOM     19  C   UNL     1      14.361 -12.635  34.719  1.00  0.00     0.000 C 
BRANCH  19  20
ATOM     20  C   UNL     1      14.148 -11.133  34.478  1.00  0.00     0.006 C 
BRANCH  20  21
ATOM     21  C   UNL     1      13.646 -10.408  35.733  1.00  0.00     0.053 C 
BRANCH  21  22
ATOM     22  C   UNL     1      12.366  -9.673  35.475  1.00  0.00     0.041 C 
ATOM     23  O   UNL     1      11.977  -8.777  36.271  1.00  0.00    -0.550 OA
ATOM     24  O   UNL     1      11.586 -10.003  34.375  1.00  0.00    -0.550 OA
ENDBRANCH  21  22
ENDBRANCH  20  21
ENDBRANCH  19  20
ENDBRANCH  18  19
ENDBRANCH  17  18
ENDBRANCH  16  17
ENDBRANCH  15  16
ENDBRANCH  14  15
ENDBRANCH  13  14
ENDBRANCH   1  13
TORSDOF 20
ENDMDL
MODEL 6
REMARK VINA RESULT:    -5.212      2.488      6.094
REMARK INTER + INTRA:         -14.639
REMARK INTER:                 -11.346
REMARK INTRA:                  -3.293
REMARK UNBOUND:                -3.334
REMARK SMILES CCCCCCCCCCCCCCCCCCCCCC(=O)[O-]
REMARK SMILES IDX 12 1 11 2 10 3 9 4 8 5 7 6 6 7 5 8 4 9 3 10 2 11 1 12 13 13
REMARK SMILES IDX 14 14 15 15 16 16 17 17 18 18 19 19 20 20 21 21 22 22 23 23
REMARK SMILES IDX 24 24
REMARK H PARENT
REMARK Flexibility Score: inf
ROOT
ATOM      1  C   UNL     1      13.084 -13.257  35.448  1.00  0.00     0.000 C 
ENDROOT
BRANCH   1   2
ATOM      2  C   UNL     1      13.380 -13.610  36.913  1.00  0.00     0.000 C 
BRANCH   2   3
ATOM      3  C   UNL     1      12.582 -14.830  37.410  1.00  0.00     0.000 C 
BRANCH   3   4
ATOM      4  C   UNL     1      11.299 -15.138  36.618  1.00  0.00    -0.000 C 
BRANCH   4   5
ATOM      5  C   UNL     1      10.212 -15.805  37.478  1.00  0.00    -0.000 C 
BRANCH   5   6
ATOM      6  C   UNL     1       9.859 -14.981  38.727  1.00  0.00    -0.000 C 
BRANCH   6   7
ATOM      7  C   UNL     1       8.344 -14.925  38.997  1.00  0.00    -0.000 C 
BRANCH   7   8
ATOM      8  C   UNL     1       7.711 -13.616  38.480  1.00  0.00    -0.000 C 
BRANCH   8   9
ATOM      9  C   UNL     1       6.881 -13.793  37.193  1.00  0.00    -0.000 C 
BRANCH   9  10
ATOM     10  C   UNL     1       7.343 -12.935  36.004  1.00  0.00    -0.000 C 
BRANCH  10  11
ATOM     11  C   UNL     1       8.224 -13.715  35.016  1.00  0.00    -0.003 C 
ATOM     12  C   UNL     1       8.003 -13.233  33.585  1.00  0.00     0.004 C 
ENDBRANCH  10  11
ENDBRANCH   9  10
ENDBRANCH   8   9
ENDBRANCH   7   8
ENDBRANCH   6   7
ENDBRANCH   5   6
ENDBRANCH   4   5
ENDBRANCH   3   4
ENDBRANCH   2   3
ENDBRANCH   1   2
BRANCH   1  13
ATOM     13  C   UNL     1      14.352 -12.770  34.729  1.00  0.00     0.000 C 
BRANCH  13  14
ATOM     14  C   UNL     1      14.389 -11.235  34.579  1.00  0.00     0.000 C 
BRANCH  14  15
ATOM     15  C   UNL     1      13.147 -10.528  35.150  1.00  0.00     0.000 C 
BRANCH  15  16
ATOM     16  C   UNL     1      11.969 -10.493  34.162  1.00  0.00     0.000 C 
BRANCH  16  17
ATOM     17  C   UNL     1      10.620 -10.787  34.837  1.00  0.00     0.000 C 
BRANCH  17  18
ATOM     18  C   UNL     1      10.615 -10.416  36.328  1.00  0.00     0.000 C 
BRANCH  18  19
ATOM     19  C   UNL     1      10.312 -11.642  37.197  1.00  0.00     0.000 C 
BRANCH  19  20
ATOM     20  C   UNL     1      10.769 -11.420  38.646  1.00  0.00     0.006 C 
BRANCH  20  21
ATOM     21  C   UNL     1      11.521 -10.095  38.821  1.00  0.00     0.053 C 
BRANCH  21  22
ATOM     22  C   UNL     1      12.965 -10.317  39.157  1.00  0.00     0.041 C 
ATOM     23  O   UNL     1      13.332 -10.401  40.360  1.00  0.00    -0.550 OA
ATOM     24  O   UNL     1      13.910 -10.393  38.143  1.00  0.00    -0.550 OA
ENDBRANCH  21  22
ENDBRANCH  20  21
ENDBRANCH  19  20
ENDBRANCH  18  19
ENDBRANCH  17  18
ENDBRANCH  16  17
ENDBRANCH  15  16
ENDBRANCH  14  15
ENDBRANCH  13  14
ENDBRANCH   1  13
TORSDOF 20
ENDMDL
MODEL 7
REMARK VINA RESULT:    -5.058      2.062      5.845
REMARK INTER + INTRA:         -14.305
REMARK INTER:                 -11.145
REMARK INTRA:                  -3.161
REMARK UNBOUND:                -3.334
REMARK SMILES CCCCCCCCCCCCCCCCCCCCCC(=O)[O-]
REMARK SMILES IDX 12 1 11 2 10 3 9 4 8 5 7 6 6 7 5 8 4 9 3 10 2 11 1 12 13 13
REMARK SMILES IDX 14 14 15 15 16 16 17 17 18 18 19 19 20 20 21 21 22 22 23 23
REMARK SMILES IDX 24 24
REMARK H PARENT
REMARK Flexibility Score: inf
ROOT
ATOM      1  C   UNL     1      11.483  -9.286  35.497  1.00  0.00     0.000 C 
ENDROOT
BRANCH   1   2
ATOM      2  C   UNL     1      11.968  -8.848  36.887  1.00  0.00     0.000 C 
BRANCH   2   3
ATOM      3  C   UNL     1      13.085  -9.751  37.445  1.00  0.00     0.000 C 
BRANCH   3   4
ATOM      4  C   UNL     1      12.823 -10.323  38.849  1.00  0.00    -0.000 C 
BRANCH   4   5
ATOM      5  C   UNL     1      11.325 -10.468  39.165  1.00  0.00    -0.000 C 
BRANCH   5   6
ATOM      6  C   UNL     1      10.701 -11.709  38.506  1.00  0.00    -0.000 C 
BRANCH   6   7
ATOM      7  C   UNL     1       9.174 -11.596  38.345  1.00  0.00    -0.000 C 
BRANCH   7   8
ATOM      8  C   UNL     1       8.766 -11.285  36.889  1.00  0.00    -0.000 C 
BRANCH   8   9
ATOM      9  C   UNL     1       7.340 -11.748  36.531  1.00  0.00    -0.000 C 
BRANCH   9  10
ATOM     10  C   UNL     1       7.271 -12.990  35.628  1.00  0.00    -0.000 C 
BRANCH  10  11
ATOM     11  C   UNL     1       8.178 -12.877  34.393  1.00  0.00    -0.003 C 
ATOM     12  C   UNL     1       7.678 -13.770  33.261  1.00  0.00     0.004 C 
ENDBRANCH  10  11
ENDBRANCH   9  10
ENDBRANCH   8   9
ENDBRANCH   7   8
ENDBRANCH   6   7
ENDBRANCH   5   6
ENDBRANCH   4   5
ENDBRANCH   3   4
ENDBRANCH   2   3
ENDBRANCH   1   2
BRANCH   1  13
ATOM     13  C   UNL     1      11.908 -10.731  35.191  1.00  0.00     0.000 C 
BRANCH  13  14
ATOM     14  C   UNL     1      13.102 -10.797  34.215  1.00  0.00     0.000 C 
BRANCH  14  15
ATOM     15  C   UNL     1      14.262 -11.675  34.717  1.00  0.00     0.000 C 
BRANCH  15  16
ATOM     16  C   UNL     1      13.815 -13.094  35.110  1.00  0.00     0.000 C 
BRANCH  16  17
ATOM     17  C   UNL     1      13.660 -13.268  36.629  1.00  0.00     0.000 C 
BRANCH  17  18
ATOM     18  C   UNL     1      12.765 -14.460  36.996  1.00  0.00     0.000 C 
BRANCH  18  19
ATOM     19  C   UNL     1      11.461 -14.436  36.188  1.00  0.00     0.000 C 
BRANCH  19  20
ATOM     20  C   UNL     1      10.361 -15.249  36.888  1.00  0.00     0.006 C 
BRANCH  20  21
ATOM     21  C   UNL     1      10.271 -14.933  38.386  1.00  0.00     0.053 C 
BRANCH  21  22
ATOM     22  C   UNL     1       8.970 -15.392  38.972  1.00  0.00     0.041 C 
ATOM     23  O   UNL     1       8.905 -16.484  39.598  1.00  0.00    -0.550 OA
ATOM     24  O   UNL     1       7.822 -14.633  38.793  1.00  0.00    -0.550 OA
ENDBRANCH  21  22
ENDBRANCH  20  21
ENDBRANCH  19  20
ENDBRANCH  18  19
ENDBRANCH  17  18
ENDBRANCH  16  17
ENDBRANCH  15  16
ENDBRANCH  14  15
ENDBRANCH  13  14
ENDBRANCH   1  13
TORSDOF 20
ENDMDL
MODEL 8
REMARK VINA RESULT:    -5.029      0.760      2.529
REMARK INTER + INTRA:         -14.242
REMARK INTER:                 -10.549
REMARK INTRA:                  -3.693
REMARK UNBOUND:                -3.334
REMARK SMILES CCCCCCCCCCCCCCCCCCCCCC(=O)[O-]
REMARK SMILES IDX 12 1 11 2 10 3 9 4 8 5 7 6 6 7 5 8 4 9 3 10 2 11 1 12 13 13
REMARK SMILES IDX 14 14 15 15 16 16 17 17 18 18 19 19 20 20 21 21 22 22 23 23
REMARK SMILES IDX 24 24
REMARK H PARENT
REMARK Flexibility Score: inf
ROOT
ATOM      1  C   UNL     1      10.792 -14.889  36.618  1.00  0.00     0.000 C 
ENDROOT
BRANCH   1   2
ATOM      2  C   UNL     1      12.133 -14.208  36.930  1.00  0.00     0.000 C 
BRANCH   2   3
ATOM      3  C   UNL     1      11.965 -12.793  37.515  1.00  0.00     0.000 C 
BRANCH   3   4
ATOM      4  C   UNL     1      13.241 -12.182  38.121  1.00  0.00    -0.000 C 
BRANCH   4   5
ATOM      5  C   UNL     1      12.974 -10.869  38.876  1.00  0.00    -0.000 C 
BRANCH   5   6
ATOM      6  C   UNL     1      11.609 -10.254  38.524  1.00  0.00    -0.000 C 
BRANCH   6   7
ATOM      7  C   UNL     1      11.732  -8.972  37.680  1.00  0.00    -0.000 C 
BRANCH   7   8
ATOM      8  C   UNL     1      12.481  -9.221  36.353  1.00  0.00    -0.000 C 
BRANCH   8   9
ATOM      9  C   UNL     1      11.623  -9.914  35.276  1.00  0.00    -0.000 C 
BRANCH   9  10
ATOM     10  C   UNL     1      12.272 -11.150  34.632  1.00  0.00    -0.000 C 
BRANCH  10  11
ATOM     11  C   UNL     1      13.806 -11.119  34.700  1.00  0.00    -0.003 C 
ATOM     12  C   UNL     1      14.390 -12.523  34.570  1.00  0.00     0.004 C 
ENDBRANCH  10  11
ENDBRANCH   9  10
ENDBRANCH   8   9
ENDBRANCH   7   8
ENDBRANCH   6   7
ENDBRANCH   5   6
ENDBRANCH   4   5
ENDBRANCH   3   4
ENDBRANCH   2   3
ENDBRANCH   1   2
BRANCH   1  13
ATOM     13  C   UNL     1      10.471 -15.981  37.651  1.00  0.00     0.000 C 
BRANCH  13  14
ATOM     14  C   UNL     1       9.692 -15.431  38.864  1.00  0.00     0.000 C 
BRANCH  14  15
ATOM     15  C   UNL     1       8.170 -15.369  38.645  1.00  0.00     0.000 C 
BRANCH  15  16
ATOM     16  C   UNL     1       7.594 -13.955  38.833  1.00  0.00     0.000 C 
BRANCH  16  17
ATOM     17  C   UNL     1       8.683 -12.871  38.869  1.00  0.00     0.000 C 
BRANCH  17  18
ATOM     18  C   UNL     1       8.222 -11.554  38.227  1.00  0.00     0.000 C 
BRANCH  18  19
ATOM     19  C   UNL     1       8.580 -11.516  36.736  1.00  0.00     0.000 C 
BRANCH  19  20
ATOM     20  C   UNL     1       7.368 -11.883  35.867  1.00  0.00     0.006 C 
BRANCH  20  21
ATOM     21  C   UNL     1       7.536 -13.244  35.180  1.00  0.00     0.053 C 
BRANCH  21  22
ATOM     22  C   UNL     1       8.067 -13.100  33.786  1.00  0.00     0.041 C 
ATOM     23  O   UNL     1       8.842 -12.149  33.496  1.00  0.00    -0.550 OA
ATOM     24  O   UNL     1       7.677 -13.994  32.798  1.00  0.00    -0.550 OA
ENDBRANCH  21  22
ENDBRANCH  20  21
ENDBRANCH  19  20
ENDBRANCH  18  19
ENDBRANCH  17  18
ENDBRANCH  16  17
ENDBRANCH  15  16
ENDBRANCH  14  15
ENDBRANCH  13  14
ENDBRANCH   1  13
TORSDOF 20
ENDMDL
MODEL 9
REMARK VINA RESULT:    -4.963      0.651      4.240
REMARK INTER + INTRA:         -14.101
REMARK INTER:                 -10.575
REMARK INTRA:                  -3.525
REMARK UNBOUND:                -3.334
REMARK SMILES CCCCCCCCCCCCCCCCCCCCCC(=O)[O-]
REMARK SMILES IDX 12 1 11 2 10 3 9 4 8 5 7 6 6 7 5 8 4 9 3 10 2 11 1 12 13 13
REMARK SMILES IDX 14 14 15 15 16 16 17 17 18 18 19 19 20 20 21 21 22 22 23 23
REMARK SMILES IDX 24 24
REMARK H PARENT
REMARK Flexibility Score: inf
ROOT
ATOM      1  C   UNL     1      11.484  -8.629  35.898  1.00  0.00     0.000 C 
ENDROOT
BRANCH   1   2
ATOM      2  C   UNL     1      11.388  -9.593  34.706  1.00  0.00     0.000 C 
BRANCH   2   3
ATOM      3  C   UNL     1      12.023 -10.967  34.992  1.00  0.00     0.000 C 
BRANCH   3   4
ATOM      4  C   UNL     1      13.452 -11.150  34.453  1.00  0.00    -0.000 C 
BRANCH   4   5
ATOM      5  C   UNL     1      14.120 -12.441  34.956  1.00  0.00    -0.000 C 
BRANCH   5   6
ATOM      6  C   UNL     1      13.099 -13.472  35.468  1.00  0.00    -0.000 C 
BRANCH   6   7
ATOM      7  C   UNL     1      13.378 -13.922  36.913  1.00  0.00    -0.000 C 
BRANCH   7   8
ATOM      8  C   UNL     1      12.405 -15.029  37.373  1.00  0.00    -0.000 C 
BRANCH   8   9
ATOM      9  C   UNL     1      11.004 -14.929  36.737  1.00  0.00    -0.000 C 
BRANCH   9  10
ATOM     10  C   UNL     1       9.904 -15.710  37.473  1.00  0.00    -0.000 C 
BRANCH  10  11
ATOM     11  C   UNL     1       9.522 -15.072  38.817  1.00  0.00    -0.003 C 
ATOM     12  C   UNL     1       8.057 -14.641  38.824  1.00  0.00     0.004 C 
ENDBRANCH  10  11
ENDBRANCH   9  10
ENDBRANCH   8   9
ENDBRANCH   7   8
ENDBRANCH   6   7
ENDBRANCH   5   6
ENDBRANCH   4   5
ENDBRANCH   3   4
ENDBRANCH   2   3
ENDBRANCH   1   2
BRANCH   1  13
ATOM     13  C   UNL     1      12.464  -9.156  36.959  1.00  0.00     0.000 C 
BRANCH  13  14
ATOM     14  C   UNL     1      11.803  -9.305  38.346  1.00  0.00     0.000 C 
BRANCH  14  15
ATOM     15  C   UNL     1      12.097 -10.653  39.029  1.00  0.00     0.000 C 
BRANCH  15  16
ATOM     16  C   UNL     1      11.280 -11.815  38.440  1.00  0.00     0.000 C 
BRANCH  16  17
ATOM     17  C   UNL     1       9.771 -11.525  38.414  1.00  0.00     0.000 C 
BRANCH  17  18
ATOM     18  C   UNL     1       9.176 -11.632  37.002  1.00  0.00     0.000 C 
BRANCH  18  19
ATOM     19  C   UNL     1       7.678 -11.303  37.013  1.00  0.00     0.000 C 
BRANCH  19  20
ATOM     20  C   UNL     1       6.934 -12.078  35.914  1.00  0.00     0.006 C 
BRANCH  20  21
ATOM     21  C   UNL     1       7.755 -13.256  35.376  1.00  0.00     0.053 C 
BRANCH  21  22
ATOM     22  C   UNL     1       8.096 -13.078  33.927  1.00  0.00     0.041 C 
ATOM     23  O   UNL     1       7.654 -13.887  33.067  1.00  0.00    -0.550 OA
ATOM     24  O   UNL     1       8.931 -12.042  33.533  1.00  0.00    -0.550 OA
ENDBRANCH  21  22
ENDBRANCH  20  21
ENDBRANCH  19  20
ENDBRANCH  18  19
ENDBRANCH  17  18
ENDBRANCH  16  17
ENDBRANCH  15  16
ENDBRANCH  14  15
ENDBRANCH  13  14
ENDBRANCH   1  13
TORSDOF 20
ENDMDL
