MODEL 1
REMARK VINA RESULT:    -1.614      0.000      0.000
REMARK INTER + INTRA:          -7.830
REMARK INTER:                  -3.502
REMARK INTRA:                  -4.328
REMARK UNBOUND:                -4.328
REMARK SMILES CCCCCCCCCCCCCCCCCCCCCC(=O)[O-]
REMARK SMILES IDX 12 1 11 2 10 3 9 4 8 5 7 6 6 7 5 8 4 9 3 10 2 11 1 12 13 13
REMARK SMILES IDX 14 14 15 15 16 16 17 17 18 18 19 19 20 20 21 21 22 22 23 23
REMARK SMILES IDX 24 24
REMARK H PARENT
REMARK Flexibility Score: inf
ROOT
ATOM      1  C   UNL     1     176.053 188.711 181.744  1.00  0.00     0.000 C 
ENDROOT
BRANCH   1   2
ATOM      2  C   UNL     1     175.646 189.559 180.520  1.00  0.00     0.000 C 
BRANCH   2   3
ATOM      3  C   UNL     1     175.341 191.022 180.890  1.00  0.00     0.000 C 
BRANCH   3   4
ATOM      4  C   UNL     1     174.564 191.152 182.210  1.00  0.00    -0.000 C 
BRANCH   4   5
ATOM      5  C   UNL     1     173.102 191.574 181.998  1.00  0.00    -0.000 C 
BRANCH   5   6
ATOM      6  C   UNL     1     172.148 190.623 182.736  1.00  0.00    -0.000 C 
BRANCH   6   7
ATOM      7  C   UNL     1     172.632 189.162 182.720  1.00  0.00    -0.000 C 
BRANCH   7   8
ATOM      8  C   UNL     1     171.467 188.157 182.666  1.00  0.00    -0.000 C 
BRANCH   8   9
ATOM      9  C   UNL     1     171.281 187.540 181.269  1.00  0.00    -0.000 C 
BRANCH   9  10
ATOM     10  C   UNL     1     172.521 187.713 180.373  1.00  0.00    -0.000 C 
BRANCH  10  11
ATOM     11  C   UNL     1     172.182 188.325 179.006  1.00  0.00    -0.003 C 
ATOM     12  C   UNL     1     171.716 189.778 179.107  1.00  0.00     0.004 C 
ENDBRANCH  10  11
ENDBRANCH   9  10
ENDBRANCH   8   9
ENDBRANCH   7   8
ENDBRANCH   6   7
ENDBRANCH   5   6
ENDBRANCH   4   5
ENDBRANCH   3   4
ENDBRANCH   2   3
ENDBRANCH   1   2
BRANCH   1  13
ATOM     13  C   UNL     1     175.823 187.198 181.565  1.00  0.00     0.000 C 
BRANCH  13  14
ATOM     14  C   UNL     1     175.692 186.391 182.867  1.00  0.00     0.000 C 
BRANCH  14  15
ATOM     15  C   UNL     1     174.358 185.632 182.968  1.00  0.00     0.000 C 
BRANCH  15  16
ATOM     16  C   UNL     1     173.723 185.729 184.366  1.00  0.00     0.000 C 
BRANCH  16  17
ATOM     17  C   UNL     1     174.721 185.873 185.532  1.00  0.00     0.000 C 
BRANCH  17  18
ATOM     18  C   UNL     1     174.414 187.014 186.521  1.00  0.00     0.000 C 
BRANCH  18  19
ATOM     19  C   UNL     1     174.085 188.340 185.820  1.00  0.00     0.000 C 
BRANCH  19  20
ATOM     20  C   UNL     1     175.361 189.073 185.391  1.00  0.00     0.006 C 
BRANCH  20  21
ATOM     21  C   UNL     1     175.271 190.567 185.721  1.00  0.00     0.053 C 
BRANCH  21  22
ATOM     22  C   UNL     1     176.079 190.895 186.937  1.00  0.00     0.041 C 
ATOM     23  O   UNL     1     176.004 192.040 187.455  1.00  0.00    -0.550 OA
ATOM     24  O   UNL     1     176.889 189.926 187.518  1.00  0.00    -0.550 OA
ENDBRANCH  21  22
ENDBRANCH  20  21
ENDBRANCH  19  20
ENDBRANCH  18  19
ENDBRANCH  17  18
ENDBRANCH  16  17
ENDBRANCH  15  16
ENDBRANCH  14  15
ENDBRANCH  13  14
ENDBRANCH   1  13
TORSDOF 20
ENDMDL
MODEL 2
REMARK VINA RESULT:    -1.604      2.606      6.425
REMARK INTER + INTRA:          -7.807
REMARK INTER:                  -3.567
REMARK INTRA:                  -4.240
REMARK UNBOUND:                -4.328
REMARK SMILES CCCCCCCCCCCCCCCCCCCCCC(=O)[O-]
REMARK SMILES IDX 12 1 11 2 10 3 9 4 8 5 7 6 6 7 5 8 4 9 3 10 2 11 1 12 13 13
REMARK SMILES IDX 14 14 15 15 16 16 17 17 18 18 19 19 20 20 21 21 22 22 23 23
REMARK SMILES IDX 24 24
REMARK H PARENT
REMARK Flexibility Score: inf
ROOT
ATOM      1  C   UNL     1     176.297 189.629 182.455  1.00  0.00     0.000 C 
ENDROOT
BRANCH   1   2
ATOM      2  C   UNL     1     176.168 189.105 183.902  1.00  0.00     0.000 C 
BRANCH   2   3
ATOM      3  C   UNL     1     175.129 189.890 184.723  1.00  0.00     0.000 C 
BRANCH   3   4
ATOM      4  C   UNL     1     174.446 189.029 185.797  1.00  0.00    -0.000 C 
BRANCH   4   5
ATOM      5  C   UNL     1     174.955 187.579 185.808  1.00  0.00    -0.000 C 
BRANCH   5   6
ATOM      6  C   UNL     1     174.985 187.022 187.239  1.00  0.00    -0.000 C 
BRANCH   6   7
ATOM      7  C   UNL     1     176.322 187.289 187.954  1.00  0.00    -0.000 C 
BRANCH   7   8
ATOM      8  C   UNL     1     177.491 187.469 186.969  1.00  0.00    -0.000 C 
BRANCH   8   9
ATOM      9  C   UNL     1     178.214 188.814 187.147  1.00  0.00    -0.000 C 
BRANCH   9  10
ATOM     10  C   UNL     1     177.389 189.830 187.957  1.00  0.00    -0.000 C 
BRANCH  10  11
ATOM     11  C   UNL     1     177.328 191.211 187.286  1.00  0.00    -0.003 C 
ATOM     12  C   UNL     1     176.074 191.999 187.667  1.00  0.00     0.004 C 
ENDBRANCH  10  11
ENDBRANCH   9  10
ENDBRANCH   8   9
ENDBRANCH   7   8
ENDBRANCH   6   7
ENDBRANCH   5   6
ENDBRANCH   4   5
ENDBRANCH   3   4
ENDBRANCH   2   3
ENDBRANCH   1   2
BRANCH   1  13
ATOM     13  C   UNL     1     175.662 191.014 182.229  1.00  0.00     0.000 C 
BRANCH  13  14
ATOM     14  C   UNL     1     174.635 191.090 181.087  1.00  0.00     0.000 C 
BRANCH  14  15
ATOM     15  C   UNL     1     173.375 191.886 181.469  1.00  0.00     0.000 C 
BRANCH  15  16
ATOM     16  C   UNL     1     172.510 191.163 182.518  1.00  0.00     0.000 C 
BRANCH  16  17
ATOM     17  C   UNL     1     172.070 189.736 182.134  1.00  0.00     0.000 C 
BRANCH  17  18
ATOM     18  C   UNL     1     171.866 188.772 183.318  1.00  0.00     0.000 C 
BRANCH  18  19
ATOM     19  C   UNL     1     172.412 187.364 183.042  1.00  0.00     0.000 C 
BRANCH  19  20
ATOM     20  C   UNL     1     173.505 187.393 181.967  1.00  0.00     0.006 C 
BRANCH  20  21
ATOM     21  C   UNL     1     173.984 185.975 181.636  1.00  0.00     0.053 C 
BRANCH  21  22
ATOM     22  C   UNL     1     175.018 185.519 182.616  1.00  0.00     0.041 C 
ATOM     23  O   UNL     1     176.215 185.887 182.489  1.00  0.00    -0.550 OA
ATOM     24  O   UNL     1     174.654 184.712 183.689  1.00  0.00    -0.550 OA
ENDBRANCH  21  22
ENDBRANCH  20  21
ENDBRANCH  19  20
ENDBRANCH  18  19
ENDBRANCH  17  18
ENDBRANCH  16  17
ENDBRANCH  15  16
ENDBRANCH  14  15
ENDBRANCH  13  14
ENDBRANCH   1  13
TORSDOF 20
ENDMDL
MODEL 3
REMARK VINA RESULT:    -1.581      3.978      7.333
REMARK INTER + INTRA:          -7.757
REMARK INTER:                  -3.920
REMARK INTRA:                  -3.837
REMARK UNBOUND:                -4.328
REMARK SMILES CCCCCCCCCCCCCCCCCCCCCC(=O)[O-]
REMARK SMILES IDX 12 1 11 2 10 3 9 4 8 5 7 6 6 7 5 8 4 9 3 10 2 11 1 12 13 13
REMARK SMILES IDX 14 14 15 15 16 16 17 17 18 18 19 19 20 20 21 21 22 22 23 23
REMARK SMILES IDX 24 24
REMARK H PARENT
REMARK Flexibility Score: inf
ROOT
ATOM      1  C   UNL     1     172.442 188.158 181.312  1.00  0.00     0.000 C 
ENDROOT
BRANCH   1   2
ATOM      2  C   UNL     1     172.142 187.069 182.365  1.00  0.00     0.000 C 
BRANCH   2   3
ATOM      3  C   UNL     1     171.053 187.498 183.364  1.00  0.00     0.000 C 
BRANCH   3   4
ATOM      4  C   UNL     1     171.620 188.266 184.569  1.00  0.00    -0.000 C 
BRANCH   4   5
ATOM      5  C   UNL     1     172.671 187.458 185.346  1.00  0.00    -0.000 C 
BRANCH   5   6
ATOM      6  C   UNL     1     173.893 188.328 185.677  1.00  0.00    -0.000 C 
BRANCH   6   7
ATOM      7  C   UNL     1     174.202 189.363 184.581  1.00  0.00    -0.000 C 
BRANCH   7   8
ATOM      8  C   UNL     1     175.340 188.910 183.648  1.00  0.00    -0.000 C 
BRANCH   8   9
ATOM      9  C   UNL     1     176.647 189.682 183.891  1.00  0.00    -0.000 C 
BRANCH   9  10
ATOM     10  C   UNL     1     176.411 191.073 184.508  1.00  0.00    -0.000 C 
BRANCH  10  11
ATOM     11  C   UNL     1     177.053 191.221 185.895  1.00  0.00    -0.003 C 
ATOM     12  C   UNL     1     176.021 191.417 187.007  1.00  0.00     0.004 C 
ENDBRANCH  10  11
ENDBRANCH   9  10
ENDBRANCH   8   9
ENDBRANCH   7   8
ENDBRANCH   6   7
ENDBRANCH   5   6
ENDBRANCH   4   5
ENDBRANCH   3   4
ENDBRANCH   2   3
ENDBRANCH   1   2
BRANCH   1  13
ATOM     13  C   UNL     1     171.197 188.930 180.834  1.00  0.00     0.000 C 
BRANCH  13  14
ATOM     14  C   UNL     1     171.278 190.459 180.967  1.00  0.00     0.000 C 
BRANCH  14  15
ATOM     15  C   UNL     1     172.298 190.913 182.026  1.00  0.00     0.000 C 
BRANCH  15  16
ATOM     16  C   UNL     1     173.130 192.125 181.569  1.00  0.00     0.000 C 
BRANCH  16  17
ATOM     17  C   UNL     1     174.641 191.861 181.411  1.00  0.00     0.000 C 
BRANCH  17  18
ATOM     18  C   UNL     1     175.015 190.797 180.362  1.00  0.00     0.000 C 
BRANCH  18  19
ATOM     19  C   UNL     1     174.432 191.096 178.974  1.00  0.00     0.000 C 
BRANCH  19  20
ATOM     20  C   UNL     1     174.176 189.804 178.189  1.00  0.00     0.006 C 
BRANCH  20  21
ATOM     21  C   UNL     1     172.777 189.813 177.562  1.00  0.00     0.053 C 
BRANCH  21  22
ATOM     22  C   UNL     1     172.858 190.014 176.082  1.00  0.00     0.041 C 
ATOM     23  O   UNL     1     171.985 190.701 175.489  1.00  0.00    -0.550 OA
ATOM     24  O   UNL     1     173.914 189.469 175.360  1.00  0.00    -0.550 OA
ENDBRANCH  21  22
ENDBRANCH  20  21
ENDBRANCH  19  20
ENDBRANCH  18  19
ENDBRANCH  17  18
ENDBRANCH  16  17
ENDBRANCH  15  16
ENDBRANCH  14  15
ENDBRANCH  13  14
ENDBRANCH   1  13
TORSDOF 20
ENDMDL
MODEL 4
REMARK VINA RESULT:    -1.565      1.994      5.042
REMARK INTER + INTRA:          -7.723
REMARK INTER:                  -3.362
REMARK INTRA:                  -4.361
REMARK UNBOUND:                -4.328
REMARK SMILES CCCCCCCCCCCCCCCCCCCCCC(=O)[O-]
REMARK SMILES IDX 12 1 11 2 10 3 9 4 8 5 7 6 6 7 5 8 4 9 3 10 2 11 1 12 13 13
REMARK SMILES IDX 14 14 15 15 16 16 17 17 18 18 19 19 20 20 21 21 22 22 23 23
REMARK SMILES IDX 24 24
REMARK H PARENT
REMARK Flexibility Score: inf
ROOT
ATOM      1  C   UNL     1     170.933 187.499 184.259  1.00  0.00     0.000 C 
ENDROOT
BRANCH   1   2
ATOM      2  C   UNL     1     171.580 186.115 184.484  1.00  0.00     0.000 C 
BRANCH   2   3
ATOM      3  C   UNL     1     171.496 185.655 185.951  1.00  0.00     0.000 C 
BRANCH   3   4
ATOM      4  C   UNL     1     172.878 185.402 186.575  1.00  0.00    -0.000 C 
BRANCH   4   5
ATOM      5  C   UNL     1     173.359 186.575 187.444  1.00  0.00    -0.000 C 
BRANCH   5   6
ATOM      6  C   UNL     1     174.393 187.424 186.689  1.00  0.00    -0.000 C 
BRANCH   6   7
ATOM      7  C   UNL     1     175.594 186.599 186.193  1.00  0.00    -0.000 C 
BRANCH   7   8
ATOM      8  C   UNL     1     175.987 186.944 184.745  1.00  0.00    -0.000 C 
BRANCH   8   9
ATOM      9  C   UNL     1     175.169 186.161 183.706  1.00  0.00    -0.000 C 
BRANCH   9  10
ATOM     10  C   UNL     1     174.835 186.997 182.457  1.00  0.00    -0.000 C 
BRANCH  10  11
ATOM     11  C   UNL     1     173.752 186.348 181.583  1.00  0.00    -0.003 C 
ATOM     12  C   UNL     1     173.343 187.224 180.398  1.00  0.00     0.004 C 
ENDBRANCH  10  11
ENDBRANCH   9  10
ENDBRANCH   8   9
ENDBRANCH   7   8
ENDBRANCH   6   7
ENDBRANCH   5   6
ENDBRANCH   4   5
ENDBRANCH   3   4
ENDBRANCH   2   3
ENDBRANCH   1   2
BRANCH   1  13
ATOM     13  C   UNL     1     171.936 188.669 184.264  1.00  0.00     0.000 C 
BRANCH  13  14
ATOM     14  C   UNL     1     172.015 189.475 182.958  1.00  0.00     0.000 C 
BRANCH  14  15
ATOM     15  C   UNL     1     173.225 190.425 182.915  1.00  0.00     0.000 C 
BRANCH  15  16
ATOM     16  C   UNL     1     174.245 190.139 184.033  1.00  0.00     0.000 C 
BRANCH  16  17
ATOM     17  C   UNL     1     175.713 190.446 183.675  1.00  0.00     0.000 C 
BRANCH  17  18
ATOM     18  C   UNL     1     176.605 190.855 184.863  1.00  0.00     0.000 C 
BRANCH  18  19
ATOM     19  C   UNL     1     175.851 190.864 186.201  1.00  0.00     0.000 C 
BRANCH  19  20
ATOM     20  C   UNL     1     176.706 190.267 187.324  1.00  0.00     0.006 C 
BRANCH  20  21
ATOM     21  C   UNL     1     177.949 189.573 186.756  1.00  0.00     0.053 C 
BRANCH  21  22
ATOM     22  C   UNL     1     178.423 188.492 187.676  1.00  0.00     0.041 C 
ATOM     23  O   UNL     1     179.548 187.956 187.492  1.00  0.00    -0.550 OA
ATOM     24  O   UNL     1     177.639 188.100 188.754  1.00  0.00    -0.550 OA
ENDBRANCH  21  22
ENDBRANCH  20  21
ENDBRANCH  19  20
ENDBRANCH  18  19
ENDBRANCH  17  18
ENDBRANCH  16  17
ENDBRANCH  15  16
ENDBRANCH  14  15
ENDBRANCH  13  14
ENDBRANCH   1  13
TORSDOF 20
ENDMDL
MODEL 5
REMARK VINA RESULT:    -1.531      2.720      5.947
REMARK INTER + INTRA:          -7.651
REMARK INTER:                  -3.064
REMARK INTRA:                  -4.587
REMARK UNBOUND:                -4.328
REMARK SMILES CCCCCCCCCCCCCCCCCCCCCC(=O)[O-]
REMARK SMILES IDX 12 1 11 2 10 3 9 4 8 5 7 6 6 7 5 8 4 9 3 10 2 11 1 12 13 13
REMARK SMILES IDX 14 14 15 15 16 16 17 17 18 18 19 19 20 20 21 21 22 22 23 23
REMARK SMILES IDX 24 24
REMARK H PARENT
REMARK Flexibility Score: inf
ROOT
ATOM      1  C   UNL     1     175.778 187.816 181.948  1.00  0.00     0.000 C 
ENDROOT
BRANCH   1   2
ATOM      2  C   UNL     1     175.793 187.322 183.410  1.00  0.00     0.000 C 
BRANCH   2   3
ATOM      3  C   UNL     1     175.645 188.471 184.424  1.00  0.00     0.000 C 
BRANCH   3   4
ATOM      4  C   UNL     1     176.115 188.084 185.835  1.00  0.00    -0.000 C 
BRANCH   4   5
ATOM      5  C   UNL     1     176.192 189.289 186.786  1.00  0.00    -0.000 C 
BRANCH   5   6
ATOM      6  C   UNL     1     175.676 190.561 186.097  1.00  0.00    -0.000 C 
BRANCH   6   7
ATOM      7  C   UNL     1     176.740 191.670 186.019  1.00  0.00    -0.000 C 
BRANCH   7   8
ATOM      8  C   UNL     1     177.110 192.030 184.568  1.00  0.00    -0.000 C 
BRANCH   8   9
ATOM      9  C   UNL     1     178.273 191.182 184.027  1.00  0.00    -0.000 C 
BRANCH   9  10
ATOM     10  C   UNL     1     179.238 190.720 185.133  1.00  0.00    -0.000 C 
BRANCH  10  11
ATOM     11  C   UNL     1     179.549 189.218 185.057  1.00  0.00    -0.003 C 
ATOM     12  C   UNL     1     179.306 188.633 183.665  1.00  0.00     0.004 C 
ENDBRANCH  10  11
ENDBRANCH   9  10
ENDBRANCH   8   9
ENDBRANCH   7   8
ENDBRANCH   6   7
ENDBRANCH   5   6
ENDBRANCH   4   5
ENDBRANCH   3   4
ENDBRANCH   2   3
ENDBRANCH   1   2
BRANCH   1  13
ATOM     13  C   UNL     1     176.105 189.314 181.787  1.00  0.00     0.000 C 
BRANCH  13  14
ATOM     14  C   UNL     1     174.996 190.166 181.151  1.00  0.00     0.000 C 
BRANCH  14  15
ATOM     15  C   UNL     1     174.475 191.266 182.091  1.00  0.00     0.000 C 
BRANCH  15  16
ATOM     16  C   UNL     1     173.294 190.796 182.960  1.00  0.00     0.000 C 
BRANCH  16  17
ATOM     17  C   UNL     1     172.346 189.784 182.286  1.00  0.00     0.000 C 
BRANCH  17  18
ATOM     18  C   UNL     1     172.252 188.412 182.980  1.00  0.00     0.000 C 
BRANCH  18  19
ATOM     19  C   UNL     1     171.564 188.480 184.350  1.00  0.00     0.000 C 
BRANCH  19  20
ATOM     20  C   UNL     1     171.437 187.088 184.979  1.00  0.00     0.006 C 
BRANCH  20  21
ATOM     21  C   UNL     1     172.674 186.752 185.820  1.00  0.00     0.053 C 
BRANCH  21  22
ATOM     22  C   UNL     1     173.293 185.467 185.369  1.00  0.00     0.041 C 
ATOM     23  O   UNL     1     172.809 184.843 184.388  1.00  0.00    -0.550 OA
ATOM     24  O   UNL     1     174.423 184.974 186.010  1.00  0.00    -0.550 OA
ENDBRANCH  21  22
ENDBRANCH  20  21
ENDBRANCH  19  20
ENDBRANCH  18  19
ENDBRANCH  17  18
ENDBRANCH  16  17
ENDBRANCH  15  16
ENDBRANCH  14  15
ENDBRANCH  13  14
ENDBRANCH   1  13
TORSDOF 20
ENDMDL
MODEL 6
REMARK VINA RESULT:    -1.501      1.558      2.700
REMARK INTER + INTRA:          -7.585
REMARK INTER:                  -3.907
REMARK INTRA:                  -3.679
REMARK UNBOUND:                -4.328
REMARK SMILES CCCCCCCCCCCCCCCCCCCCCC(=O)[O-]
REMARK SMILES IDX 12 1 11 2 10 3 9 4 8 5 7 6 6 7 5 8 4 9 3 10 2 11 1 12 13 13
REMARK SMILES IDX 14 14 15 15 16 16 17 17 18 18 19 19 20 20 21 21 22 22 23 23
REMARK SMILES IDX 24 24
REMARK H PARENT
REMARK Flexibility Score: inf
ROOT
ATOM      1  C   UNL     1     174.179 188.269 181.822  1.00  0.00     0.000 C 
ENDROOT
BRANCH   1   2
ATOM      2  C   UNL     1     174.362 189.780 181.565  1.00  0.00     0.000 C 
BRANCH   2   3
ATOM      3  C   UNL     1     173.865 190.644 182.737  1.00  0.00     0.000 C 
BRANCH   3   4
ATOM      4  C   UNL     1     172.549 191.375 182.422  1.00  0.00    -0.000 C 
BRANCH   4   5
ATOM      5  C   UNL     1     172.331 191.578 180.915  1.00  0.00    -0.000 C 
BRANCH   5   6
ATOM      6  C   UNL     1     170.994 190.967 180.470  1.00  0.00    -0.000 C 
BRANCH   6   7
ATOM      7  C   UNL     1     170.877 190.836 178.941  1.00  0.00    -0.000 C 
BRANCH   7   8
ATOM      8  C   UNL     1     170.908 189.370 178.472  1.00  0.00    -0.000 C 
BRANCH   8   9
ATOM      9  C   UNL     1     172.337 188.845 178.261  1.00  0.00    -0.000 C 
BRANCH   9  10
ATOM     10  C   UNL     1     173.303 189.934 177.759  1.00  0.00    -0.000 C 
BRANCH  10  11
ATOM     11  C   UNL     1     174.634 189.357 177.254  1.00  0.00    -0.003 C 
ATOM     12  C   UNL     1     175.245 188.344 178.222  1.00  0.00     0.004 C 
ENDBRANCH  10  11
ENDBRANCH   9  10
ENDBRANCH   8   9
ENDBRANCH   7   8
ENDBRANCH   6   7
ENDBRANCH   5   6
ENDBRANCH   4   5
ENDBRANCH   3   4
ENDBRANCH   2   3
ENDBRANCH   1   2
BRANCH   1  13
ATOM     13  C   UNL     1     172.758 187.750 181.529  1.00  0.00     0.000 C 
BRANCH  13  14
ATOM     14  C   UNL     1     172.056 187.051 182.705  1.00  0.00     0.000 C 
BRANCH  14  15
ATOM     15  C   UNL     1     171.328 188.037 183.636  1.00  0.00     0.000 C 
BRANCH  15  16
ATOM     16  C   UNL     1     172.074 188.261 184.964  1.00  0.00     0.000 C 
BRANCH  16  17
ATOM     17  C   UNL     1     172.988 187.101 185.407  1.00  0.00     0.000 C 
BRANCH  17  18
ATOM     18  C   UNL     1     174.459 187.484 185.657  1.00  0.00     0.000 C 
BRANCH  18  19
ATOM     19  C   UNL     1     174.657 188.992 185.863  1.00  0.00     0.000 C 
BRANCH  19  20
ATOM     20  C   UNL     1     176.114 189.400 185.614  1.00  0.00     0.006 C 
BRANCH  20  21
ATOM     21  C   UNL     1     176.248 190.924 185.526  1.00  0.00     0.053 C 
BRANCH  21  22
ATOM     22  C   UNL     1     176.686 191.497 186.837  1.00  0.00     0.041 C 
ATOM     23  O   UNL     1     175.834 191.960 187.641  1.00  0.00    -0.550 OA
ATOM     24  O   UNL     1     178.032 191.492 187.186  1.00  0.00    -0.550 OA
ENDBRANCH  21  22
ENDBRANCH  20  21
ENDBRANCH  19  20
ENDBRANCH  18  19
ENDBRANCH  17  18
ENDBRANCH  16  17
ENDBRANCH  15  16
ENDBRANCH  14  15
ENDBRANCH  13  14
ENDBRANCH   1  13
TORSDOF 20
ENDMDL
MODEL 7
REMARK VINA RESULT:    -1.497      2.406      5.796
REMARK INTER + INTRA:          -7.575
REMARK INTER:                  -3.707
REMARK INTRA:                  -3.867
REMARK UNBOUND:                -4.328
REMARK SMILES CCCCCCCCCCCCCCCCCCCCCC(=O)[O-]
REMARK SMILES IDX 12 1 11 2 10 3 9 4 8 5 7 6 6 7 5 8 4 9 3 10 2 11 1 12 13 13
REMARK SMILES IDX 14 14 15 15 16 16 17 17 18 18 19 19 20 20 21 21 22 22 23 23
REMARK SMILES IDX 24 24
REMARK H PARENT
REMARK Flexibility Score: inf
ROOT
ATOM      1  C   UNL     1     172.930 188.345 179.736  1.00  0.00     0.000 C 
ENDROOT
BRANCH   1   2
ATOM      2  C   UNL     1     173.063 186.815 179.585  1.00  0.00     0.000 C 
BRANCH   2   3
ATOM      3  C   UNL     1     172.018 186.047 180.414  1.00  0.00     0.000 C 
BRANCH   3   4
ATOM      4  C   UNL     1     172.156 186.296 181.925  1.00  0.00    -0.000 C 
BRANCH   4   5
ATOM      5  C   UNL     1     170.875 186.872 182.550  1.00  0.00    -0.000 C 
BRANCH   5   6
ATOM      6  C   UNL     1     171.173 187.503 183.918  1.00  0.00    -0.000 C 
BRANCH   6   7
ATOM      7  C   UNL     1     172.515 187.038 184.510  1.00  0.00    -0.000 C 
BRANCH   7   8
ATOM      8  C   UNL     1     173.111 188.063 185.493  1.00  0.00    -0.000 C 
BRANCH   8   9
ATOM      9  C   UNL     1     174.318 187.508 186.266  1.00  0.00    -0.000 C 
BRANCH   9  10
ATOM     10  C   UNL     1     175.499 188.494 186.315  1.00  0.00    -0.000 C 
BRANCH  10  11
ATOM     11  C   UNL     1     175.072 189.942 186.027  1.00  0.00    -0.003 C 
ATOM     12  C   UNL     1     176.033 190.972 186.622  1.00  0.00     0.004 C 
ENDBRANCH  10  11
ENDBRANCH   9  10
ENDBRANCH   8   9
ENDBRANCH   7   8
ENDBRANCH   6   7
ENDBRANCH   5   6
ENDBRANCH   4   5
ENDBRANCH   3   4
ENDBRANCH   2   3
ENDBRANCH   1   2
BRANCH   1  13
ATOM     13  C   UNL     1     171.586 188.911 179.238  1.00  0.00     0.000 C 
BRANCH  13  14
ATOM     14  C   UNL     1     171.042 190.111 180.030  1.00  0.00     0.000 C 
BRANCH  14  15
ATOM     15  C   UNL     1     171.878 191.387 179.831  1.00  0.00     0.000 C 
BRANCH  15  16
ATOM     16  C   UNL     1     172.485 191.912 181.145  1.00  0.00     0.000 C 
BRANCH  16  17
ATOM     17  C   UNL     1     172.328 190.975 182.360  1.00  0.00     0.000 C 
BRANCH  17  18
ATOM     18  C   UNL     1     173.645 190.413 182.928  1.00  0.00     0.000 C 
BRANCH  18  19
ATOM     19  C   UNL     1     174.865 190.758 182.062  1.00  0.00     0.000 C 
BRANCH  19  20
ATOM     20  C   UNL     1     175.913 189.640 182.109  1.00  0.00     0.006 C 
BRANCH  20  21
ATOM     21  C   UNL     1     175.279 188.313 182.542  1.00  0.00     0.053 C 
BRANCH  21  22
ATOM     22  C   UNL     1     175.958 187.157 181.879  1.00  0.00     0.041 C 
ATOM     23  O   UNL     1     175.874 186.004 182.379  1.00  0.00    -0.550 OA
ATOM     24  O   UNL     1     176.657 187.344 180.692  1.00  0.00    -0.550 OA
ENDBRANCH  21  22
ENDBRANCH  20  21
ENDBRANCH  19  20
ENDBRANCH  18  19
ENDBRANCH  17  18
ENDBRANCH  16  17
ENDBRANCH  15  16
ENDBRANCH  14  15
ENDBRANCH  13  14
ENDBRANCH   1  13
TORSDOF 20
ENDMDL
MODEL 8
REMARK VINA RESULT:    -1.462      1.344      4.637
REMARK INTER + INTRA:          -7.499
REMARK INTER:                  -3.446
REMARK INTRA:                  -4.053
REMARK UNBOUND:                -4.328
REMARK SMILES CCCCCCCCCCCCCCCCCCCCCC(=O)[O-]
REMARK SMILES IDX 12 1 11 2 10 3 9 4 8 5 7 6 6 7 5 8 4 9 3 10 2 11 1 12 13 13
REMARK SMILES IDX 14 14 15 15 16 16 17 17 18 18 19 19 20 20 21 21 22 22 23 23
REMARK SMILES IDX 24 24
REMARK H PARENT
REMARK Flexibility Score: inf
ROOT
ATOM      1  C   UNL     1     172.090 187.540 181.320  1.00  0.00     0.000 C 
ENDROOT
BRANCH   1   2
ATOM      2  C   UNL     1     171.135 187.692 182.523  1.00  0.00     0.000 C 
BRANCH   2   3
ATOM      3  C   UNL     1     171.827 188.303 183.754  1.00  0.00     0.000 C 
BRANCH   3   4
ATOM      4  C   UNL     1     171.865 187.342 184.953  1.00  0.00    -0.000 C 
BRANCH   4   5
ATOM      5  C   UNL     1     173.212 187.369 185.693  1.00  0.00    -0.000 C 
BRANCH   5   6
ATOM      6  C   UNL     1     174.288 186.619 184.893  1.00  0.00    -0.000 C 
BRANCH   6   7
ATOM      7  C   UNL     1     173.763 185.318 184.262  1.00  0.00    -0.000 C 
BRANCH   7   8
ATOM      8  C   UNL     1     174.649 184.826 183.103  1.00  0.00    -0.000 C 
BRANCH   8   9
ATOM      9  C   UNL     1     175.336 185.979 182.354  1.00  0.00    -0.000 C 
BRANCH   9  10
ATOM     10  C   UNL     1     175.285 185.810 180.825  1.00  0.00    -0.000 C 
BRANCH  10  11
ATOM     11  C   UNL     1     175.958 186.971 180.078  1.00  0.00    -0.003 C 
ATOM     12  C   UNL     1     175.119 187.489 178.909  1.00  0.00     0.004 C 
ENDBRANCH  10  11
ENDBRANCH   9  10
ENDBRANCH   8   9
ENDBRANCH   7   8
ENDBRANCH   6   7
ENDBRANCH   5   6
ENDBRANCH   4   5
ENDBRANCH   3   4
ENDBRANCH   2   3
ENDBRANCH   1   2
BRANCH   1  13
ATOM     13  C   UNL     1     171.689 188.376 180.089  1.00  0.00     0.000 C 
BRANCH  13  14
ATOM     14  C   UNL     1     170.942 189.685 180.396  1.00  0.00     0.000 C 
BRANCH  14  15
ATOM     15  C   UNL     1     171.855 190.922 180.330  1.00  0.00     0.000 C 
BRANCH  15  16
ATOM     16  C   UNL     1     172.351 191.369 181.718  1.00  0.00     0.000 C 
BRANCH  16  17
ATOM     17  C   UNL     1     173.882 191.446 181.874  1.00  0.00     0.000 C 
BRANCH  17  18
ATOM     18  C   UNL     1     174.641 190.144 181.549  1.00  0.00     0.000 C 
BRANCH  18  19
ATOM     19  C   UNL     1     175.446 189.610 182.742  1.00  0.00     0.000 C 
BRANCH  19  20
ATOM     20  C   UNL     1     174.958 190.222 184.061  1.00  0.00     0.006 C 
BRANCH  20  21
ATOM     21  C   UNL     1     176.135 190.766 184.879  1.00  0.00     0.053 C 
BRANCH  21  22
ATOM     22  C   UNL     1     175.904 190.564 186.343  1.00  0.00     0.041 C 
ATOM     23  O   UNL     1     175.829 189.399 186.816  1.00  0.00    -0.550 OA
ATOM     24  O   UNL     1     175.805 191.660 187.192  1.00  0.00    -0.550 OA
ENDBRANCH  21  22
ENDBRANCH  20  21
ENDBRANCH  19  20
ENDBRANCH  18  19
ENDBRANCH  17  18
ENDBRANCH  16  17
ENDBRANCH  15  16
ENDBRANCH  14  15
ENDBRANCH  13  14
ENDBRANCH   1  13
TORSDOF 20
ENDMDL
MODEL 9
REMARK VINA RESULT:    -1.456      2.071      3.113
REMARK INTER + INTRA:          -7.488
REMARK INTER:                  -3.157
REMARK INTRA:                  -4.331
REMARK UNBOUND:                -4.328
REMARK SMILES CCCCCCCCCCCCCCCCCCCCCC(=O)[O-]
REMARK SMILES IDX 12 1 11 2 10 3 9 4 8 5 7 6 6 7 5 8 4 9 3 10 2 11 1 12 13 13
REMARK SMILES IDX 14 14 15 15 16 16 17 17 18 18 19 19 20 20 21 21 22 22 23 23
REMARK SMILES IDX 24 24
REMARK H PARENT
REMARK Flexibility Score: inf
ROOT
ATOM      1  C   UNL     1     175.418 187.862 179.546  1.00  0.00     0.000 C 
ENDROOT
BRANCH   1   2
ATOM      2  C   UNL     1     176.291 189.128 179.414  1.00  0.00     0.000 C 
BRANCH   2   3
ATOM      3  C   UNL     1     175.658 190.356 180.092  1.00  0.00     0.000 C 
BRANCH   3   4
ATOM      4  C   UNL     1     176.056 190.490 181.571  1.00  0.00    -0.000 C 
BRANCH   4   5
ATOM      5  C   UNL     1     174.909 191.019 182.447  1.00  0.00    -0.000 C 
BRANCH   5   6
ATOM      6  C   UNL     1     173.736 191.497 181.580  1.00  0.00    -0.000 C 
BRANCH   6   7
ATOM      7  C   UNL     1     172.367 191.083 182.148  1.00  0.00    -0.000 C 
BRANCH   7   8
ATOM      8  C   UNL     1     171.260 191.087 181.078  1.00  0.00    -0.000 C 
BRANCH   8   9
ATOM      9  C   UNL     1     171.802 191.362 179.666  1.00  0.00    -0.000 C 
BRANCH   9  10
ATOM     10  C   UNL     1     171.159 190.461 178.596  1.00  0.00    -0.000 C 
BRANCH  10  11
ATOM     11  C   UNL     1     172.008 190.361 177.320  1.00  0.00    -0.003 C 
ATOM     12  C   UNL     1     173.323 191.134 177.421  1.00  0.00     0.004 C 
ENDBRANCH  10  11
ENDBRANCH   9  10
ENDBRANCH   8   9
ENDBRANCH   7   8
ENDBRANCH   6   7
ENDBRANCH   5   6
ENDBRANCH   4   5
ENDBRANCH   3   4
ENDBRANCH   2   3
ENDBRANCH   1   2
BRANCH   1  13
ATOM     13  C   UNL     1     173.906 188.148 179.641  1.00  0.00     0.000 C 
BRANCH  13  14
ATOM     14  C   UNL     1     173.224 187.667 180.932  1.00  0.00     0.000 C 
BRANCH  14  15
ATOM     15  C   UNL     1     171.700 187.522 180.783  1.00  0.00     0.000 C 
BRANCH  15  16
ATOM     16  C   UNL     1     170.971 187.477 182.138  1.00  0.00     0.000 C 
BRANCH  16  17
ATOM     17  C   UNL     1     171.428 186.356 183.092  1.00  0.00     0.000 C 
BRANCH  17  18
ATOM     18  C   UNL     1     171.912 186.829 184.476  1.00  0.00     0.000 C 
BRANCH  18  19
ATOM     19  C   UNL     1     172.070 188.353 184.565  1.00  0.00     0.000 C 
BRANCH  19  20
ATOM     20  C   UNL     1     173.482 188.740 185.018  1.00  0.00     0.006 C 
BRANCH  20  21
ATOM     21  C   UNL     1     174.534 187.838 184.362  1.00  0.00     0.053 C 
BRANCH  21  22
ATOM     22  C   UNL     1     175.517 187.341 185.375  1.00  0.00     0.041 C 
ATOM     23  O   UNL     1     176.697 187.780 185.377  1.00  0.00    -0.550 OA
ATOM     24  O   UNL     1     175.122 186.418 186.336  1.00  0.00    -0.550 OA
ENDBRANCH  21  22
ENDBRANCH  20  21
ENDBRANCH  19  20
ENDBRANCH  18  19
ENDBRANCH  17  18
ENDBRANCH  16  17
ENDBRANCH  15  16
ENDBRANCH  14  15
ENDBRANCH  13  14
ENDBRANCH   1  13
TORSDOF 20
ENDMDL
