MODEL 1
REMARK VINA RESULT:    -4.303      0.000      0.000
REMARK INTER + INTRA:          -4.727
REMARK INTER:                  -4.680
REMARK INTRA:                  -0.047
REMARK UNBOUND:                -0.047
REMARK SMILES COc1cc2ccc(=O)oc2cc1O
REMARK SMILES IDX 3 1 13 2 12 3 11 4 5 5 4 6 6 7 7 8 8 9 9 10 10 11 2 12 1 13
REMARK SMILES IDX 14 14
REMARK H PARENT 14 15
REMARK Flexibility Score: inf
ROOT
ATOM      1  C   UNL     1      45.996   2.563 -42.872  1.00  0.00     0.161 A 
ATOM      2  C   UNL     1      46.562   3.426 -43.824  1.00  0.00     0.161 A 
ATOM      3  C   UNL     1      45.824   3.821 -44.949  1.00  0.00     0.098 A 
ATOM      4  C   UNL     1      44.519   3.357 -45.134  1.00  0.00     0.142 A 
ATOM      5  C   UNL     1      43.944   2.488 -44.183  1.00  0.00     0.022 A 
ATOM      6  C   UNL     1      44.680   2.093 -43.058  1.00  0.00     0.062 A 
ATOM      7  C   UNL     1      42.635   2.041 -44.396  1.00  0.00     0.019 A 
ATOM      8  C   UNL     1      41.943   2.461 -45.530  1.00  0.00     0.094 A 
ATOM      9  C   UNL     1      42.579   3.324 -46.431  1.00  0.00     0.336 A 
ATOM     10  O   UNL     1      41.972   3.714 -47.461  1.00  0.00    -0.246 OA
ATOM     11  O   UNL     1      43.824   3.734 -46.204  1.00  0.00    -0.423 OA
ENDROOT
BRANCH   1  12
ATOM     12  O   UNL     1      46.772   2.194 -41.762  1.00  0.00    -0.493 OA
ATOM     13  C   UNL     1      46.240   1.835 -40.491  1.00  0.00     0.278 C 
ENDBRANCH   1  12
BRANCH   2  14
ATOM     14  O   UNL     1      47.863   3.892 -43.643  1.00  0.00    -0.504 OA
ATOM     15  H   UNL     1      48.278   3.966 -42.721  1.00  0.00     0.293 HD
ENDBRANCH   2  14
TORSDOF 2
ENDMDL
MODEL 2
REMARK VINA RESULT:    -4.218      9.103     11.561
REMARK INTER + INTRA:          -4.636
REMARK INTER:                  -4.571
REMARK INTRA:                  -0.065
REMARK UNBOUND:                -0.047
REMARK SMILES COc1cc2ccc(=O)oc2cc1O
REMARK SMILES IDX 3 1 13 2 12 3 11 4 5 5 4 6 6 7 7 8 8 9 9 10 10 11 2 12 1 13
REMARK SMILES IDX 14 14
REMARK H PARENT 14 15
REMARK Flexibility Score: inf
ROOT
ATOM      1  C   UNL     1      53.175   7.684 -48.519  1.00  0.00     0.161 A 
ATOM      2  C   UNL     1      51.986   7.427 -47.816  1.00  0.00     0.161 A 
ATOM      3  C   UNL     1      51.995   7.356 -46.415  1.00  0.00     0.098 A 
ATOM      4  C   UNL     1      53.186   7.540 -45.708  1.00  0.00     0.142 A 
ATOM      5  C   UNL     1      54.383   7.797 -46.408  1.00  0.00     0.022 A 
ATOM      6  C   UNL     1      54.377   7.868 -47.807  1.00  0.00     0.062 A 
ATOM      7  C   UNL     1      55.559   7.976 -45.671  1.00  0.00     0.019 A 
ATOM      8  C   UNL     1      55.515   7.896 -44.280  1.00  0.00     0.094 A 
ATOM      9  C   UNL     1      54.291   7.637 -43.654  1.00  0.00     0.336 A 
ATOM     10  O   UNL     1      54.230   7.560 -42.400  1.00  0.00    -0.246 OA
ATOM     11  O   UNL     1      53.187   7.471 -44.379  1.00  0.00    -0.423 OA
ENDROOT
BRANCH   1  12
ATOM     12  O   UNL     1      53.119   7.746 -49.921  1.00  0.00    -0.493 OA
ATOM     13  C   UNL     1      53.213   8.948 -50.679  1.00  0.00     0.278 C 
ENDBRANCH   1  12
BRANCH   2  14
ATOM     14  O   UNL     1      50.797   7.245 -48.518  1.00  0.00    -0.504 OA
ATOM     15  H   UNL     1      50.509   7.883 -49.251  1.00  0.00     0.293 HD
ENDBRANCH   2  14
TORSDOF 2
ENDMDL
MODEL 3
REMARK VINA RESULT:    -4.210      1.371      5.426
REMARK INTER + INTRA:          -4.627
REMARK INTER:                  -4.564
REMARK INTRA:                  -0.063
REMARK UNBOUND:                -0.047
REMARK SMILES COc1cc2ccc(=O)oc2cc1O
REMARK SMILES IDX 3 1 13 2 12 3 11 4 5 5 4 6 6 7 7 8 8 9 9 10 10 11 2 12 1 13
REMARK SMILES IDX 14 14
REMARK H PARENT 14 15
REMARK Flexibility Score: inf
ROOT
ATOM      1  C   UNL     1      43.856   3.173 -45.282  1.00  0.00     0.161 A 
ATOM      2  C   UNL     1      43.195   2.339 -44.365  1.00  0.00     0.161 A 
ATOM      3  C   UNL     1      43.857   1.888 -43.214  1.00  0.00     0.098 A 
ATOM      4  C   UNL     1      45.180   2.265 -42.970  1.00  0.00     0.142 A 
ATOM      5  C   UNL     1      45.851   3.101 -43.887  1.00  0.00     0.022 A 
ATOM      6  C   UNL     1      45.191   3.552 -45.037  1.00  0.00     0.062 A 
ATOM      7  C   UNL     1      47.176   3.460 -43.614  1.00  0.00     0.019 A 
ATOM      8  C   UNL     1      47.790   2.985 -42.455  1.00  0.00     0.094 A 
ATOM      9  C   UNL     1      47.062   2.159 -41.592  1.00  0.00     0.336 A 
ATOM     10  O   UNL     1      47.598   1.720 -40.542  1.00  0.00    -0.246 OA
ATOM     11  O   UNL     1      45.803   1.833 -41.876  1.00  0.00    -0.423 OA
ENDROOT
BRANCH   1  12
ATOM     12  O   UNL     1      43.154   3.599 -46.421  1.00  0.00    -0.493 OA
ATOM     13  C   UNL     1      43.261   2.996 -47.706  1.00  0.00     0.278 C 
ENDBRANCH   1  12
BRANCH   2  14
ATOM     14  O   UNL     1      41.875   1.963 -44.605  1.00  0.00    -0.504 OA
ATOM     15  H   UNL     1      41.616   0.994 -44.747  1.00  0.00     0.293 HD
ENDBRANCH   2  14
TORSDOF 2
ENDMDL
MODEL 4
REMARK VINA RESULT:    -4.166     11.262     11.778
REMARK INTER + INTRA:          -4.579
REMARK INTER:                  -4.514
REMARK INTRA:                  -0.065
REMARK UNBOUND:                -0.047
REMARK SMILES COc1cc2ccc(=O)oc2cc1O
REMARK SMILES IDX 3 1 13 2 12 3 11 4 5 5 4 6 6 7 7 8 8 9 9 10 10 11 2 12 1 13
REMARK SMILES IDX 14 14
REMARK H PARENT 14 15
REMARK Flexibility Score: inf
ROOT
ATOM      1  C   UNL     1      54.904   7.038 -46.226  1.00  0.00     0.161 A 
ATOM      2  C   UNL     1      55.788   6.212 -46.939  1.00  0.00     0.161 A 
ATOM      3  C   UNL     1      55.775   6.205 -48.341  1.00  0.00     0.098 A 
ATOM      4  C   UNL     1      54.881   7.019 -49.041  1.00  0.00     0.142 A 
ATOM      5  C   UNL     1      53.989   7.850 -48.333  1.00  0.00     0.022 A 
ATOM      6  C   UNL     1      54.000   7.859 -46.932  1.00  0.00     0.062 A 
ATOM      7  C   UNL     1      53.106   8.654 -49.062  1.00  0.00     0.019 A 
ATOM      8  C   UNL     1      53.131   8.611 -50.456  1.00  0.00     0.094 A 
ATOM      9  C   UNL     1      54.044   7.761 -51.090  1.00  0.00     0.336 A 
ATOM     10  O   UNL     1      54.082   7.707 -52.347  1.00  0.00    -0.246 OA
ATOM     11  O   UNL     1      54.873   7.007 -50.372  1.00  0.00    -0.423 OA
ENDROOT
BRANCH   1  12
ATOM     12  O   UNL     1      54.952   7.012 -44.824  1.00  0.00    -0.493 OA
ATOM     13  C   UNL     1      55.475   8.062 -44.016  1.00  0.00     0.278 C 
ENDBRANCH   1  12
BRANCH   2  14
ATOM     14  O   UNL     1      56.682   5.400 -46.244  1.00  0.00    -0.504 OA
ATOM     15  H   UNL     1      56.379   4.810 -45.477  1.00  0.00     0.293 HD
ENDBRANCH   2  14
TORSDOF 2
ENDMDL
MODEL 5
REMARK VINA RESULT:    -4.155     13.860     14.880
REMARK INTER + INTRA:          -4.566
REMARK INTER:                  -4.524
REMARK INTRA:                  -0.043
REMARK UNBOUND:                -0.047
REMARK SMILES COc1cc2ccc(=O)oc2cc1O
REMARK SMILES IDX 3 1 13 2 12 3 11 4 5 5 4 6 6 7 7 8 8 9 9 10 10 11 2 12 1 13
REMARK SMILES IDX 14 14
REMARK H PARENT 14 15
REMARK Flexibility Score: inf
ROOT
ATOM      1  C   UNL     1      51.827  -7.647 -51.790  1.00  0.00     0.161 A 
ATOM      2  C   UNL     1      52.021  -8.044 -50.457  1.00  0.00     0.161 A 
ATOM      3  C   UNL     1      52.767  -7.241 -49.582  1.00  0.00     0.098 A 
ATOM      4  C   UNL     1      53.324  -6.040 -50.029  1.00  0.00     0.142 A 
ATOM      5  C   UNL     1      53.134  -5.636 -51.367  1.00  0.00     0.022 A 
ATOM      6  C   UNL     1      52.389  -6.437 -52.243  1.00  0.00     0.062 A 
ATOM      7  C   UNL     1      53.704  -4.428 -51.785  1.00  0.00     0.019 A 
ATOM      8  C   UNL     1      54.437  -3.666 -50.877  1.00  0.00     0.094 A 
ATOM      9  C   UNL     1      54.584  -4.131 -49.565  1.00  0.00     0.336 A 
ATOM     10  O   UNL     1      55.243  -3.458 -48.730  1.00  0.00    -0.246 OA
ATOM     11  O   UNL     1      54.031  -5.283 -49.194  1.00  0.00    -0.423 OA
ENDROOT
BRANCH   1  12
ATOM     12  O   UNL     1      51.073  -8.482 -52.630  1.00  0.00    -0.493 OA
ATOM     13  C   UNL     1      51.622  -9.517 -53.440  1.00  0.00     0.278 C 
ENDBRANCH   1  12
BRANCH   2  14
ATOM     14  O   UNL     1      51.467  -9.240 -50.007  1.00  0.00    -0.504 OA
ATOM     15  H   UNL     1      52.013 -10.092 -49.952  1.00  0.00     0.293 HD
ENDBRANCH   2  14
TORSDOF 2
ENDMDL
MODEL 6
REMARK VINA RESULT:    -4.096     15.125     16.620
REMARK INTER + INTRA:          -4.503
REMARK INTER:                  -4.448
REMARK INTRA:                  -0.055
REMARK UNBOUND:                -0.047
REMARK SMILES COc1cc2ccc(=O)oc2cc1O
REMARK SMILES IDX 3 1 13 2 12 3 11 4 5 5 4 6 6 7 7 8 8 9 9 10 10 11 2 12 1 13
REMARK SMILES IDX 14 14
REMARK H PARENT 14 15
REMARK Flexibility Score: inf
ROOT
ATOM      1  C   UNL     1      60.813  -3.088 -49.824  1.00  0.00     0.161 A 
ATOM      2  C   UNL     1      59.933  -3.654 -50.762  1.00  0.00     0.161 A 
ATOM      3  C   UNL     1      58.747  -2.991 -51.108  1.00  0.00     0.098 A 
ATOM      4  C   UNL     1      58.430  -1.762 -50.524  1.00  0.00     0.142 A 
ATOM      5  C   UNL     1      59.308  -1.188 -49.581  1.00  0.00     0.022 A 
ATOM      6  C   UNL     1      60.493  -1.849 -49.233  1.00  0.00     0.062 A 
ATOM      7  C   UNL     1      58.962   0.043 -49.013  1.00  0.00     0.019 A 
ATOM      8  C   UNL     1      57.771   0.662 -49.391  1.00  0.00     0.094 A 
ATOM      9  C   UNL     1      56.950   0.032 -50.332  1.00  0.00     0.336 A 
ATOM     10  O   UNL     1      55.870   0.574 -50.686  1.00  0.00    -0.246 OA
ATOM     11  O   UNL     1      57.302  -1.139 -50.857  1.00  0.00    -0.423 OA
ENDROOT
BRANCH   1  12
ATOM     12  O   UNL     1      61.988  -3.786 -49.508  1.00  0.00    -0.493 OA
ATOM     13  C   UNL     1      62.125  -4.675 -48.403  1.00  0.00     0.278 C 
ENDBRANCH   1  12
BRANCH   2  14
ATOM     14  O   UNL     1      60.247  -4.878 -51.347  1.00  0.00    -0.504 OA
ATOM     15  H   UNL     1      59.770  -5.208 -52.178  1.00  0.00     0.293 HD
ENDBRANCH   2  14
TORSDOF 2
ENDMDL
MODEL 7
REMARK VINA RESULT:    -4.047     15.788     17.832
REMARK INTER + INTRA:          -4.449
REMARK INTER:                  -4.398
REMARK INTRA:                  -0.051
REMARK UNBOUND:                -0.047
REMARK SMILES COc1cc2ccc(=O)oc2cc1O
REMARK SMILES IDX 3 1 13 2 12 3 11 4 5 5 4 6 6 7 7 8 8 9 9 10 10 11 2 12 1 13
REMARK SMILES IDX 14 14
REMARK H PARENT 14 15
REMARK Flexibility Score: inf
ROOT
ATOM      1  C   UNL     1      59.119  -2.951 -50.493  1.00  0.00     0.161 A 
ATOM      2  C   UNL     1      60.160  -3.880 -50.649  1.00  0.00     0.161 A 
ATOM      3  C   UNL     1      60.972  -4.223 -49.558  1.00  0.00     0.098 A 
ATOM      4  C   UNL     1      60.751  -3.643 -48.307  1.00  0.00     0.142 A 
ATOM      5  C   UNL     1      59.708  -2.708 -48.142  1.00  0.00     0.022 A 
ATOM      6  C   UNL     1      58.897  -2.363 -49.231  1.00  0.00     0.062 A 
ATOM      7  C   UNL     1      59.513  -2.144 -46.876  1.00  0.00     0.019 A 
ATOM      8  C   UNL     1      60.347  -2.518 -45.824  1.00  0.00     0.094 A 
ATOM      9  C   UNL     1      61.361  -3.451 -46.062  1.00  0.00     0.336 A 
ATOM     10  O   UNL     1      62.125  -3.801 -45.125  1.00  0.00    -0.246 OA
ATOM     11  O   UNL     1      61.525  -3.972 -47.275  1.00  0.00    -0.423 OA
ENDROOT
BRANCH   1  12
ATOM     12  O   UNL     1      58.333  -2.637 -51.613  1.00  0.00    -0.493 OA
ATOM     13  C   UNL     1      56.920  -2.460 -51.581  1.00  0.00     0.278 C 
ENDBRANCH   1  12
BRANCH   2  14
ATOM     14  O   UNL     1      60.382  -4.462 -51.896  1.00  0.00    -0.504 OA
ATOM     15  H   UNL     1      59.811  -5.228 -52.234  1.00  0.00     0.293 HD
ENDBRANCH   2  14
TORSDOF 2
ENDMDL
MODEL 8
REMARK VINA RESULT:    -3.996     15.753     17.347
REMARK INTER + INTRA:          -4.393
REMARK INTER:                  -4.335
REMARK INTRA:                  -0.058
REMARK UNBOUND:                -0.047
REMARK SMILES COc1cc2ccc(=O)oc2cc1O
REMARK SMILES IDX 3 1 13 2 12 3 11 4 5 5 4 6 6 7 7 8 8 9 9 10 10 11 2 12 1 13
REMARK SMILES IDX 14 14
REMARK H PARENT 14 15
REMARK Flexibility Score: inf
ROOT
ATOM      1  C   UNL     1      61.278  -4.200 -47.617  1.00  0.00     0.161 A 
ATOM      2  C   UNL     1      61.446  -4.191 -49.012  1.00  0.00     0.161 A 
ATOM      3  C   UNL     1      60.937  -3.134 -49.779  1.00  0.00     0.098 A 
ATOM      4  C   UNL     1      60.257  -2.080 -49.164  1.00  0.00     0.142 A 
ATOM      5  C   UNL     1      60.083  -2.083 -47.764  1.00  0.00     0.022 A 
ATOM      6  C   UNL     1      60.591  -3.138 -46.995  1.00  0.00     0.062 A 
ATOM      7  C   UNL     1      59.397  -1.013 -47.177  1.00  0.00     0.019 A 
ATOM      8  C   UNL     1      58.910   0.014 -47.983  1.00  0.00     0.094 A 
ATOM      9  C   UNL     1      59.121  -0.052 -49.365  1.00  0.00     0.336 A 
ATOM     10  O   UNL     1      58.688   0.865 -50.111  1.00  0.00    -0.246 OA
ATOM     11  O   UNL     1      59.776  -1.080 -49.898  1.00  0.00    -0.423 OA
ENDROOT
BRANCH   1  12
ATOM     12  O   UNL     1      61.804  -5.279 -46.889  1.00  0.00    -0.493 OA
ATOM     13  C   UNL     1      61.042  -6.115 -46.024  1.00  0.00     0.278 C 
ENDBRANCH   1  12
BRANCH   2  14
ATOM     14  O   UNL     1      62.125  -5.240 -49.629  1.00  0.00    -0.504 OA
ATOM     15  H   UNL     1      62.368  -5.211 -50.612  1.00  0.00     0.293 HD
ENDBRANCH   2  14
TORSDOF 2
ENDMDL
MODEL 9
REMARK VINA RESULT:    -2.569     16.794     18.720
REMARK INTER + INTRA:          -2.841
REMARK INTER:                  -2.779
REMARK INTRA:                  -0.062
REMARK UNBOUND:                -0.047
REMARK SMILES COc1cc2ccc(=O)oc2cc1O
REMARK SMILES IDX 3 1 13 2 12 3 11 4 5 5 4 6 6 7 7 8 8 9 9 10 10 11 2 12 1 13
REMARK SMILES IDX 14 14
REMARK H PARENT 14 15
REMARK Flexibility Score: inf
ROOT
ATOM      1  C   UNL     1      60.089  -3.778 -49.069  1.00  0.00     0.161 A 
ATOM      2  C   UNL     1      61.444  -4.106 -49.237  1.00  0.00     0.161 A 
ATOM      3  C   UNL     1      62.110  -4.878 -48.273  1.00  0.00     0.098 A 
ATOM      4  C   UNL     1      61.430  -5.327 -47.139  1.00  0.00     0.142 A 
ATOM      5  C   UNL     1      60.069  -5.000 -46.963  1.00  0.00     0.022 A 
ATOM      6  C   UNL     1      59.402  -4.229 -47.924  1.00  0.00     0.062 A 
ATOM      7  C   UNL     1      59.416  -5.465 -45.815  1.00  0.00     0.019 A 
ATOM      8  C   UNL     1      60.122  -6.229 -44.887  1.00  0.00     0.094 A 
ATOM      9  C   UNL     1      61.470  -6.513 -45.129  1.00  0.00     0.336 A 
ATOM     10  O   UNL     1      62.125  -7.201 -44.303  1.00  0.00    -0.246 OA
ATOM     11  O   UNL     1      62.067  -6.059 -46.228  1.00  0.00    -0.423 OA
ENDROOT
BRANCH   1  12
ATOM     12  O   UNL     1      59.464  -3.002 -50.058  1.00  0.00    -0.493 OA
ATOM     13  C   UNL     1      59.275  -1.593 -49.978  1.00  0.00     0.278 C 
ENDBRANCH   1  12
BRANCH   2  14
ATOM     14  O   UNL     1      62.125  -3.660 -50.368  1.00  0.00    -0.504 OA
ATOM     15  H   UNL     1      62.915  -3.029 -50.299  1.00  0.00     0.293 HD
ENDBRANCH   2  14
TORSDOF 2
ENDMDL
