MODEL 1
REMARK VINA RESULT:    -3.251      0.000      0.000
REMARK INTER + INTRA:          -7.913
REMARK INTER:                  -5.911
REMARK INTRA:                  -2.002
REMARK UNBOUND:                -2.002
REMARK SMILES CCCCCCCCCCCCCCCC(=O)[O-]
REMARK SMILES IDX 9 1 10 2 11 3 12 4 13 5 14 6 15 7 16 8 17 9 18 10 8 11 7 12
REMARK SMILES IDX 6 13 5 14 4 15 3 16 2 17 1 18
REMARK H PARENT
REMARK Flexibility Score: inf
ROOT
ATOM      1  C   UNL     1     -44.823 -48.716  69.932  1.00  0.00     0.000 C 
ENDROOT
BRANCH   1   2
ATOM      2  C   UNL     1     -43.886 -48.610  68.723  1.00  0.00     0.000 C 
BRANCH   2   3
ATOM      3  C   UNL     1     -44.684 -48.527  67.413  1.00  0.00     0.000 C 
BRANCH   3   4
ATOM      4  C   UNL     1     -46.094 -49.136  67.528  1.00  0.00     0.000 C 
BRANCH   4   5
ATOM      5  C   UNL     1     -47.149 -48.507  66.600  1.00  0.00     0.000 C 
BRANCH   5   6
ATOM      6  C   UNL     1     -48.577 -48.603  67.165  1.00  0.00     0.006 C 
BRANCH   6   7
ATOM      7  C   UNL     1     -49.194 -47.220  67.414  1.00  0.00     0.053 C 
BRANCH   7   8
ATOM      8  C   UNL     1     -50.161 -46.843  66.334  1.00  0.00     0.041 C 
ATOM      9  O   UNL     1     -51.396 -46.799  66.576  1.00  0.00    -0.550 OA
ATOM     10  O   UNL     1     -49.701 -46.576  65.052  1.00  0.00    -0.550 OA
ENDBRANCH   7   8
ENDBRANCH   6   7
ENDBRANCH   5   6
ENDBRANCH   4   5
ENDBRANCH   3   4
ENDBRANCH   2   3
ENDBRANCH   1   2
BRANCH   1  11
ATOM     11  C   UNL     1     -44.615 -47.536  70.893  1.00  0.00     0.000 C 
BRANCH  11  12
ATOM     12  C   UNL     1     -45.940 -46.919  71.372  1.00  0.00    -0.000 C 
BRANCH  12  13
ATOM     13  C   UNL     1     -47.095 -47.158  70.383  1.00  0.00    -0.000 C 
BRANCH  13  14
ATOM     14  C   UNL     1     -48.269 -47.916  71.022  1.00  0.00    -0.000 C 
BRANCH  14  15
ATOM     15  C   UNL     1     -48.229 -49.425  70.721  1.00  0.00    -0.000 C 
BRANCH  15  16
ATOM     16  C   UNL     1     -49.618 -50.086  70.792  1.00  0.00    -0.000 C 
BRANCH  16  17
ATOM     17  C   UNL     1     -50.753 -49.285  70.131  1.00  0.00    -0.003 C 
ATOM     18  C   UNL     1     -52.029 -49.249  70.972  1.00  0.00     0.004 C 
ENDBRANCH  16  17
ENDBRANCH  15  16
ENDBRANCH  14  15
ENDBRANCH  13  14
ENDBRANCH  12  13
ENDBRANCH  11  12
ENDBRANCH   1  11
TORSDOF 14
ENDMDL
MODEL 2
REMARK VINA RESULT:    -3.179      1.359      2.162
REMARK INTER + INTRA:          -7.782
REMARK INTER:                  -5.747
REMARK INTRA:                  -2.035
REMARK UNBOUND:                -2.002
REMARK SMILES CCCCCCCCCCCCCCCC(=O)[O-]
REMARK SMILES IDX 9 1 10 2 11 3 12 4 13 5 14 6 15 7 16 8 17 9 18 10 8 11 7 12
REMARK SMILES IDX 6 13 5 14 4 15 3 16 2 17 1 18
REMARK H PARENT
REMARK Flexibility Score: inf
ROOT
ATOM      1  C   UNL     1     -45.089 -49.130  69.105  1.00  0.00     0.000 C 
ENDROOT
BRANCH   1   2
ATOM      2  C   UNL     1     -46.106 -49.722  68.122  1.00  0.00     0.000 C 
BRANCH   2   3
ATOM      3  C   UNL     1     -46.615 -48.653  67.144  1.00  0.00     0.000 C 
BRANCH   3   4
ATOM      4  C   UNL     1     -48.147 -48.667  66.981  1.00  0.00     0.000 C 
BRANCH   4   5
ATOM      5  C   UNL     1     -48.857 -47.373  67.419  1.00  0.00     0.000 C 
BRANCH   5   6
ATOM      6  C   UNL     1     -49.888 -46.878  66.390  1.00  0.00     0.006 C 
BRANCH   6   7
ATOM      7  C   UNL     1     -49.553 -47.341  64.967  1.00  0.00     0.053 C 
BRANCH   7   8
ATOM      8  C   UNL     1     -49.462 -46.187  64.016  1.00  0.00     0.041 C 
ATOM      9  O   UNL     1     -48.480 -46.085  63.235  1.00  0.00    -0.550 OA
ATOM     10  O   UNL     1     -50.443 -45.205  64.020  1.00  0.00    -0.550 OA
ENDBRANCH   7   8
ENDBRANCH   6   7
ENDBRANCH   5   6
ENDBRANCH   4   5
ENDBRANCH   3   4
ENDBRANCH   2   3
ENDBRANCH   1   2
BRANCH   1  11
ATOM     11  C   UNL     1     -45.706 -48.968  70.502  1.00  0.00     0.000 C 
BRANCH  11  12
ATOM     12  C   UNL     1     -46.260 -47.554  70.747  1.00  0.00    -0.000 C 
BRANCH  12  13
ATOM     13  C   UNL     1     -47.775 -47.552  71.019  1.00  0.00    -0.000 C 
BRANCH  13  14
ATOM     14  C   UNL     1     -48.404 -48.945  70.856  1.00  0.00    -0.000 C 
BRANCH  14  15
ATOM     15  C   UNL     1     -49.931 -48.883  70.670  1.00  0.00    -0.000 C 
BRANCH  15  16
ATOM     16  C   UNL     1     -50.453 -49.924  69.663  1.00  0.00    -0.000 C 
BRANCH  16  17
ATOM     17  C   UNL     1     -51.967 -49.867  69.396  1.00  0.00    -0.003 C 
ATOM     18  C   UNL     1     -52.330 -49.010  68.184  1.00  0.00     0.004 C 
ENDBRANCH  16  17
ENDBRANCH  15  16
ENDBRANCH  14  15
ENDBRANCH  13  14
ENDBRANCH  12  13
ENDBRANCH  11  12
ENDBRANCH   1  11
TORSDOF 14
ENDMDL
MODEL 3
REMARK VINA RESULT:    -3.162      4.158      5.858
REMARK INTER + INTRA:          -7.751
REMARK INTER:                  -5.556
REMARK INTRA:                  -2.195
REMARK UNBOUND:                -2.002
REMARK SMILES CCCCCCCCCCCCCCCC(=O)[O-]
REMARK SMILES IDX 9 1 10 2 11 3 12 4 13 5 14 6 15 7 16 8 17 9 18 10 8 11 7 12
REMARK SMILES IDX 6 13 5 14 4 15 3 16 2 17 1 18
REMARK H PARENT
REMARK Flexibility Score: inf
ROOT
ATOM      1  C   UNL     1     -44.231 -48.870  69.913  1.00  0.00     0.000 C 
ENDROOT
BRANCH   1   2
ATOM      2  C   UNL     1     -44.355 -48.249  68.515  1.00  0.00     0.000 C 
BRANCH   2   3
ATOM      3  C   UNL     1     -43.119 -47.401  68.178  1.00  0.00     0.000 C 
BRANCH   3   4
ATOM      4  C   UNL     1     -42.430 -46.818  69.425  1.00  0.00     0.000 C 
BRANCH   4   5
ATOM      5  C   UNL     1     -42.681 -45.318  69.663  1.00  0.00     0.000 C 
BRANCH   5   6
ATOM      6  C   UNL     1     -43.195 -45.015  71.082  1.00  0.00     0.006 C 
BRANCH   6   7
ATOM      7  C   UNL     1     -42.732 -46.064  72.101  1.00  0.00     0.053 C 
BRANCH   7   8
ATOM      8  C   UNL     1     -43.073 -45.661  73.503  1.00  0.00     0.041 C 
ATOM      9  O   UNL     1     -44.149 -45.052  73.744  1.00  0.00    -0.550 OA
ATOM     10  O   UNL     1     -42.186 -45.926  74.537  1.00  0.00    -0.550 OA
ENDBRANCH   7   8
ENDBRANCH   6   7
ENDBRANCH   5   6
ENDBRANCH   4   5
ENDBRANCH   3   4
ENDBRANCH   2   3
ENDBRANCH   1   2
BRANCH   1  11
ATOM     11  C   UNL     1     -45.570 -48.806  70.662  1.00  0.00     0.000 C 
BRANCH  11  12
ATOM     12  C   UNL     1     -46.019 -47.365  70.957  1.00  0.00    -0.000 C 
BRANCH  12  13
ATOM     13  C   UNL     1     -47.522 -47.151  70.707  1.00  0.00    -0.000 C 
BRANCH  13  14
ATOM     14  C   UNL     1     -48.312 -48.469  70.705  1.00  0.00    -0.000 C 
BRANCH  14  15
ATOM     15  C   UNL     1     -49.072 -48.698  69.386  1.00  0.00    -0.000 C 
BRANCH  15  16
ATOM     16  C   UNL     1     -48.604 -47.763  68.256  1.00  0.00    -0.000 C 
BRANCH  16  17
ATOM     17  C   UNL     1     -47.663 -48.410  67.225  1.00  0.00    -0.003 C 
ATOM     18  C   UNL     1     -47.558 -49.927  67.379  1.00  0.00     0.004 C 
ENDBRANCH  16  17
ENDBRANCH  15  16
ENDBRANCH  14  15
ENDBRANCH  13  14
ENDBRANCH  12  13
ENDBRANCH  11  12
ENDBRANCH   1  11
TORSDOF 14
ENDMDL
MODEL 4
REMARK VINA RESULT:    -3.140      3.722      6.395
REMARK INTER + INTRA:          -7.711
REMARK INTER:                  -5.093
REMARK INTRA:                  -2.618
REMARK UNBOUND:                -2.002
REMARK SMILES CCCCCCCCCCCCCCCC(=O)[O-]
REMARK SMILES IDX 9 1 10 2 11 3 12 4 13 5 14 6 15 7 16 8 17 9 18 10 8 11 7 12
REMARK SMILES IDX 6 13 5 14 4 15 3 16 2 17 1 18
REMARK H PARENT
REMARK Flexibility Score: inf
ROOT
ATOM      1  C   UNL     1     -48.832 -47.537  68.296  1.00  0.00     0.000 C 
ENDROOT
BRANCH   1   2
ATOM      2  C   UNL     1     -48.812 -48.556  69.442  1.00  0.00     0.000 C 
BRANCH   2   3
ATOM      3  C   UNL     1     -48.153 -47.963  70.696  1.00  0.00     0.000 C 
BRANCH   3   4
ATOM      4  C   UNL     1     -46.992 -47.005  70.370  1.00  0.00     0.000 C 
BRANCH   4   5
ATOM      5  C   UNL     1     -45.850 -46.994  71.401  1.00  0.00     0.000 C 
BRANCH   5   6
ATOM      6  C   UNL     1     -44.554 -46.368  70.855  1.00  0.00     0.006 C 
BRANCH   6   7
ATOM      7  C   UNL     1     -43.314 -47.191  71.224  1.00  0.00     0.053 C 
BRANCH   7   8
ATOM      8  C   UNL     1     -42.100 -46.326  71.375  1.00  0.00     0.041 C 
ATOM      9  O   UNL     1     -40.972 -46.846  71.579  1.00  0.00    -0.550 OA
ATOM     10  O   UNL     1     -42.222 -44.944  71.326  1.00  0.00    -0.550 OA
ENDBRANCH   7   8
ENDBRANCH   6   7
ENDBRANCH   5   6
ENDBRANCH   4   5
ENDBRANCH   3   4
ENDBRANCH   2   3
ENDBRANCH   1   2
BRANCH   1  11
ATOM     11  C   UNL     1     -48.332 -48.171  66.990  1.00  0.00     0.000 C 
BRANCH  11  12
ATOM     12  C   UNL     1     -47.946 -49.650  67.156  1.00  0.00    -0.000 C 
BRANCH  12  13
ATOM     13  C   UNL     1     -46.477 -49.923  66.788  1.00  0.00    -0.000 C 
BRANCH  13  14
ATOM     14  C   UNL     1     -45.585 -48.684  66.970  1.00  0.00    -0.000 C 
BRANCH  14  15
ATOM     15  C   UNL     1     -44.598 -48.836  68.141  1.00  0.00    -0.000 C 
BRANCH  15  16
ATOM     16  C   UNL     1     -44.627 -50.241  68.769  1.00  0.00    -0.000 C 
BRANCH  16  17
ATOM     17  C   UNL     1     -45.183 -50.299  70.203  1.00  0.00    -0.003 C 
ATOM     18  C   UNL     1     -46.376 -51.243  70.345  1.00  0.00     0.004 C 
ENDBRANCH  16  17
ENDBRANCH  15  16
ENDBRANCH  14  15
ENDBRANCH  13  14
ENDBRANCH  12  13
ENDBRANCH  11  12
ENDBRANCH   1  11
TORSDOF 14
ENDMDL
MODEL 5
REMARK VINA RESULT:    -3.139      3.593      5.037
REMARK INTER + INTRA:          -7.711
REMARK INTER:                  -5.617
REMARK INTRA:                  -2.094
REMARK UNBOUND:                -2.002
REMARK SMILES CCCCCCCCCCCCCCCC(=O)[O-]
REMARK SMILES IDX 9 1 10 2 11 3 12 4 13 5 14 6 15 7 16 8 17 9 18 10 8 11 7 12
REMARK SMILES IDX 6 13 5 14 4 15 3 16 2 17 1 18
REMARK H PARENT
REMARK Flexibility Score: inf
ROOT
ATOM      1  C   UNL     1     -44.436 -49.967  68.850  1.00  0.00     0.000 C 
ENDROOT
BRANCH   1   2
ATOM      2  C   UNL     1     -45.344 -49.344  67.783  1.00  0.00     0.000 C 
BRANCH   2   3
ATOM      3  C   UNL     1     -44.576 -48.320  66.934  1.00  0.00     0.000 C 
BRANCH   3   4
ATOM      4  C   UNL     1     -43.048 -48.438  67.086  1.00  0.00     0.000 C 
BRANCH   4   5
ATOM      5  C   UNL     1     -42.278 -47.112  66.941  1.00  0.00     0.000 C 
BRANCH   5   6
ATOM      6  C   UNL     1     -42.480 -46.169  68.140  1.00  0.00     0.006 C 
BRANCH   6   7
ATOM      7  C   UNL     1     -42.424 -44.692  67.728  1.00  0.00     0.053 C 
BRANCH   7   8
ATOM      8  C   UNL     1     -42.531 -43.783  68.914  1.00  0.00     0.041 C 
ATOM      9  O   UNL     1     -42.198 -42.573  68.818  1.00  0.00    -0.550 OA
ATOM     10  O   UNL     1     -42.965 -44.282  70.135  1.00  0.00    -0.550 OA
ENDBRANCH   7   8
ENDBRANCH   6   7
ENDBRANCH   5   6
ENDBRANCH   4   5
ENDBRANCH   3   4
ENDBRANCH   2   3
ENDBRANCH   1   2
BRANCH   1  11
ATOM     11  C   UNL     1     -44.867 -49.536  70.259  1.00  0.00     0.000 C 
BRANCH  11  12
ATOM     12  C   UNL     1     -44.178 -48.241  70.721  1.00  0.00    -0.000 C 
BRANCH  12  13
ATOM     13  C   UNL     1     -45.102 -47.014  70.628  1.00  0.00    -0.000 C 
BRANCH  13  14
ATOM     14  C   UNL     1     -46.479 -47.264  71.264  1.00  0.00    -0.000 C 
BRANCH  14  15
ATOM     15  C   UNL     1     -47.635 -47.047  70.271  1.00  0.00    -0.000 C 
BRANCH  15  16
ATOM     16  C   UNL     1     -48.499 -48.306  70.075  1.00  0.00    -0.000 C 
BRANCH  16  17
ATOM     17  C   UNL     1     -48.813 -48.656  68.610  1.00  0.00    -0.003 C 
ATOM     18  C   UNL     1     -48.785 -47.440  67.684  1.00  0.00     0.004 C 
ENDBRANCH  16  17
ENDBRANCH  15  16
ENDBRANCH  14  15
ENDBRANCH  13  14
ENDBRANCH  12  13
ENDBRANCH  11  12
ENDBRANCH   1  11
TORSDOF 14
ENDMDL
MODEL 6
REMARK VINA RESULT:    -3.137      4.890      6.948
REMARK INTER + INTRA:          -7.707
REMARK INTER:                  -5.868
REMARK INTRA:                  -1.839
REMARK UNBOUND:                -2.002
REMARK SMILES CCCCCCCCCCCCCCCC(=O)[O-]
REMARK SMILES IDX 9 1 10 2 11 3 12 4 13 5 14 6 15 7 16 8 17 9 18 10 8 11 7 12
REMARK SMILES IDX 6 13 5 14 4 15 3 16 2 17 1 18
REMARK H PARENT
REMARK Flexibility Score: inf
ROOT
ATOM      1  C   UNL     1     -42.326 -45.080  67.231  1.00  0.00     0.000 C 
ENDROOT
BRANCH   1   2
ATOM      2  C   UNL     1     -41.910 -43.959  68.191  1.00  0.00     0.000 C 
BRANCH   2   3
ATOM      3  C   UNL     1     -43.102 -43.488  69.038  1.00  0.00     0.000 C 
BRANCH   3   4
ATOM      4  C   UNL     1     -42.839 -43.586  70.553  1.00  0.00     0.000 C 
BRANCH   4   5
ATOM      5  C   UNL     1     -41.631 -44.454  70.947  1.00  0.00     0.000 C 
BRANCH   5   6
ATOM      6  C   UNL     1     -41.801 -45.130  72.319  1.00  0.00     0.006 C 
BRANCH   6   7
ATOM      7  C   UNL     1     -43.277 -45.266  72.717  1.00  0.00     0.053 C 
BRANCH   7   8
ATOM      8  C   UNL     1     -43.460 -45.175  74.201  1.00  0.00     0.041 C 
ATOM      9  O   UNL     1     -42.461 -45.043  74.956  1.00  0.00    -0.550 OA
ATOM     10  O   UNL     1     -44.731 -45.273  74.751  1.00  0.00    -0.550 OA
ENDBRANCH   7   8
ENDBRANCH   6   7
ENDBRANCH   5   6
ENDBRANCH   4   5
ENDBRANCH   3   4
ENDBRANCH   2   3
ENDBRANCH   1   2
BRANCH   1  11
ATOM     11  C   UNL     1     -41.970 -46.457  67.808  1.00  0.00     0.000 C 
BRANCH  11  12
ATOM     12  C   UNL     1     -43.158 -47.133  68.513  1.00  0.00    -0.000 C 
BRANCH  12  13
ATOM     13  C   UNL     1     -42.764 -47.769  69.858  1.00  0.00    -0.000 C 
BRANCH  13  14
ATOM     14  C   UNL     1     -43.946 -48.471  70.545  1.00  0.00    -0.000 C 
BRANCH  14  15
ATOM     15  C   UNL     1     -45.308 -47.967  70.035  1.00  0.00    -0.000 C 
BRANCH  15  16
ATOM     16  C   UNL     1     -46.094 -47.184  71.102  1.00  0.00    -0.000 C 
BRANCH  16  17
ATOM     17  C   UNL     1     -47.621 -47.363  71.045  1.00  0.00    -0.003 C 
ATOM     18  C   UNL     1     -48.045 -48.800  70.743  1.00  0.00     0.004 C 
ENDBRANCH  16  17
ENDBRANCH  15  16
ENDBRANCH  14  15
ENDBRANCH  13  14
ENDBRANCH  12  13
ENDBRANCH  11  12
ENDBRANCH   1  11
TORSDOF 14
ENDMDL
MODEL 7
REMARK VINA RESULT:    -3.114      3.204      6.162
REMARK INTER + INTRA:          -7.664
REMARK INTER:                  -5.708
REMARK INTRA:                  -1.956
REMARK UNBOUND:                -2.002
REMARK SMILES CCCCCCCCCCCCCCCC(=O)[O-]
REMARK SMILES IDX 9 1 10 2 11 3 12 4 13 5 14 6 15 7 16 8 17 9 18 10 8 11 7 12
REMARK SMILES IDX 6 13 5 14 4 15 3 16 2 17 1 18
REMARK H PARENT
REMARK Flexibility Score: inf
ROOT
ATOM      1  C   UNL     1     -49.921 -50.017  70.858  1.00  0.00     0.000 C 
ENDROOT
BRANCH   1   2
ATOM      2  C   UNL     1     -48.537 -49.379  70.685  1.00  0.00     0.000 C 
BRANCH   2   3
ATOM      3  C   UNL     1     -48.564 -47.891  71.065  1.00  0.00     0.000 C 
BRANCH   3   4
ATOM      4  C   UNL     1     -47.417 -47.086  70.428  1.00  0.00     0.000 C 
BRANCH   4   5
ATOM      5  C   UNL     1     -46.095 -47.103  71.217  1.00  0.00     0.000 C 
BRANCH   5   6
ATOM      6  C   UNL     1     -45.078 -48.115  70.660  1.00  0.00     0.006 C 
BRANCH   6   7
ATOM      7  C   UNL     1     -43.877 -47.425  70.001  1.00  0.00     0.053 C 
BRANCH   7   8
ATOM      8  C   UNL     1     -43.393 -46.263  70.813  1.00  0.00     0.041 C 
ATOM      9  O   UNL     1     -43.484 -45.092  70.361  1.00  0.00    -0.550 OA
ATOM     10  O   UNL     1     -42.808 -46.479  72.054  1.00  0.00    -0.550 OA
ENDBRANCH   7   8
ENDBRANCH   6   7
ENDBRANCH   5   6
ENDBRANCH   4   5
ENDBRANCH   3   4
ENDBRANCH   2   3
ENDBRANCH   1   2
BRANCH   1  11
ATOM     11  C   UNL     1     -50.903 -49.491  69.800  1.00  0.00     0.000 C 
BRANCH  11  12
ATOM     12  C   UNL     1     -50.954 -50.376  68.544  1.00  0.00    -0.000 C 
BRANCH  12  13
ATOM     13  C   UNL     1     -50.416 -49.659  67.293  1.00  0.00    -0.000 C 
BRANCH  13  14
ATOM     14  C   UNL     1     -50.468 -48.128  67.424  1.00  0.00    -0.000 C 
BRANCH  14  15
ATOM     15  C   UNL     1     -49.091 -47.472  67.217  1.00  0.00    -0.000 C 
BRANCH  15  16
ATOM     16  C   UNL     1     -48.070 -48.420  66.562  1.00  0.00    -0.000 C 
BRANCH  16  17
ATOM     17  C   UNL     1     -46.811 -48.699  67.402  1.00  0.00    -0.003 C 
ATOM     18  C   UNL     1     -45.565 -48.942  66.551  1.00  0.00     0.004 C 
ENDBRANCH  16  17
ENDBRANCH  15  16
ENDBRANCH  14  15
ENDBRANCH  13  14
ENDBRANCH  12  13
ENDBRANCH  11  12
ENDBRANCH   1  11
TORSDOF 14
ENDMDL
MODEL 8
REMARK VINA RESULT:    -3.104      4.261      6.001
REMARK INTER + INTRA:          -7.646
REMARK INTER:                  -6.049
REMARK INTRA:                  -1.597
REMARK UNBOUND:                -2.002
REMARK SMILES CCCCCCCCCCCCCCCC(=O)[O-]
REMARK SMILES IDX 9 1 10 2 11 3 12 4 13 5 14 6 15 7 16 8 17 9 18 10 8 11 7 12
REMARK SMILES IDX 6 13 5 14 4 15 3 16 2 17 1 18
REMARK H PARENT
REMARK Flexibility Score: inf
ROOT
ATOM      1  C   UNL     1     -45.079 -48.179  70.740  1.00  0.00     0.000 C 
ENDROOT
BRANCH   1   2
ATOM      2  C   UNL     1     -43.971 -47.579  69.865  1.00  0.00     0.000 C 
BRANCH   2   3
ATOM      3  C   UNL     1     -43.170 -46.522  70.639  1.00  0.00     0.000 C 
BRANCH   3   4
ATOM      4  C   UNL     1     -42.058 -45.871  69.794  1.00  0.00     0.000 C 
BRANCH   4   5
ATOM      5  C   UNL     1     -42.546 -45.155  68.522  1.00  0.00     0.000 C 
BRANCH   5   6
ATOM      6  C   UNL     1     -42.374 -43.627  68.592  1.00  0.00     0.006 C 
BRANCH   6   7
ATOM      7  C   UNL     1     -43.559 -42.944  69.288  1.00  0.00     0.053 C 
BRANCH   7   8
ATOM      8  C   UNL     1     -43.131 -42.230  70.534  1.00  0.00     0.041 C 
ATOM      9  O   UNL     1     -42.860 -42.881  71.576  1.00  0.00    -0.550 OA
ATOM     10  O   UNL     1     -43.069 -40.843  70.553  1.00  0.00    -0.550 OA
ENDBRANCH   7   8
ENDBRANCH   6   7
ENDBRANCH   5   6
ENDBRANCH   4   5
ENDBRANCH   3   4
ENDBRANCH   2   3
ENDBRANCH   1   2
BRANCH   1  11
ATOM     11  C   UNL     1     -46.017 -47.083  71.266  1.00  0.00     0.000 C 
BRANCH  11  12
ATOM     12  C   UNL     1     -47.335 -46.999  70.478  1.00  0.00    -0.000 C 
BRANCH  12  13
ATOM     13  C   UNL     1     -48.204 -48.258  70.642  1.00  0.00    -0.000 C 
BRANCH  13  14
ATOM     14  C   UNL     1     -48.783 -48.752  69.307  1.00  0.00    -0.000 C 
BRANCH  14  15
ATOM     15  C   UNL     1     -48.565 -47.746  68.163  1.00  0.00    -0.000 C 
BRANCH  15  16
ATOM     16  C   UNL     1     -47.798 -48.351  66.973  1.00  0.00    -0.000 C 
BRANCH  16  17
ATOM     17  C   UNL     1     -46.525 -49.128  67.348  1.00  0.00    -0.003 C 
ATOM     18  C   UNL     1     -45.275 -48.611  66.636  1.00  0.00     0.004 C 
ENDBRANCH  16  17
ENDBRANCH  15  16
ENDBRANCH  14  15
ENDBRANCH  13  14
ENDBRANCH  12  13
ENDBRANCH  11  12
ENDBRANCH   1  11
TORSDOF 14
ENDMDL
MODEL 9
REMARK VINA RESULT:    -3.068      1.592      4.606
REMARK INTER + INTRA:          -7.582
REMARK INTER:                  -5.823
REMARK INTRA:                  -1.759
REMARK UNBOUND:                -2.002
REMARK SMILES CCCCCCCCCCCCCCCC(=O)[O-]
REMARK SMILES IDX 9 1 10 2 11 3 12 4 13 5 14 6 15 7 16 8 17 9 18 10 8 11 7 12
REMARK SMILES IDX 6 13 5 14 4 15 3 16 2 17 1 18
REMARK H PARENT
REMARK Flexibility Score: inf
ROOT
ATOM      1  C   UNL     1     -48.002 -47.521  71.074  1.00  0.00     0.000 C 
ENDROOT
BRANCH   1   2
ATOM      2  C   UNL     1     -48.232 -49.000  70.741  1.00  0.00     0.000 C 
BRANCH   2   3
ATOM      3  C   UNL     1     -49.197 -49.154  69.556  1.00  0.00     0.000 C 
BRANCH   3   4
ATOM      4  C   UNL     1     -48.475 -49.437  68.225  1.00  0.00     0.000 C 
BRANCH   4   5
ATOM      5  C   UNL     1     -48.050 -48.184  67.439  1.00  0.00     0.000 C 
BRANCH   5   6
ATOM      6  C   UNL     1     -49.026 -47.829  66.303  1.00  0.00     0.006 C 
BRANCH   6   7
ATOM      7  C   UNL     1     -49.972 -46.685  66.691  1.00  0.00     0.053 C 
BRANCH   7   8
ATOM      8  C   UNL     1     -51.403 -47.126  66.691  1.00  0.00     0.041 C 
ATOM      9  O   UNL     1     -51.764 -48.109  67.391  1.00  0.00    -0.550 OA
ATOM     10  O   UNL     1     -52.331 -46.475  65.890  1.00  0.00    -0.550 OA
ENDBRANCH   7   8
ENDBRANCH   6   7
ENDBRANCH   5   6
ENDBRANCH   4   5
ENDBRANCH   3   4
ENDBRANCH   2   3
ENDBRANCH   1   2
BRANCH   1  11
ATOM     11  C   UNL     1     -46.526 -47.139  70.885  1.00  0.00     0.000 C 
BRANCH  11  12
ATOM     12  C   UNL     1     -45.612 -48.364  70.718  1.00  0.00    -0.000 C 
BRANCH  12  13
ATOM     13  C   UNL     1     -44.685 -48.249  69.495  1.00  0.00    -0.000 C 
BRANCH  13  14
ATOM     14  C   UNL     1     -43.511 -47.286  69.735  1.00  0.00    -0.000 C 
BRANCH  14  15
ATOM     15  C   UNL     1     -42.528 -47.811  70.797  1.00  0.00    -0.000 C 
BRANCH  15  16
ATOM     16  C   UNL     1     -42.316 -46.821  71.957  1.00  0.00    -0.000 C 
BRANCH  16  17
ATOM     17  C   UNL     1     -43.265 -45.609  71.958  1.00  0.00    -0.003 C 
ATOM     18  C   UNL     1     -43.955 -45.389  73.303  1.00  0.00     0.004 C 
ENDBRANCH  16  17
ENDBRANCH  15  16
ENDBRANCH  14  15
ENDBRANCH  13  14
ENDBRANCH  12  13
ENDBRANCH  11  12
ENDBRANCH   1  11
TORSDOF 14
ENDMDL
