MODEL 1
REMARK VINA RESULT:    -5.760      0.000      0.000
REMARK INTER + INTRA:         -16.008
REMARK INTER:                 -13.168
REMARK INTRA:                  -2.840
REMARK UNBOUND:                -2.840
REMARK SMILES CCCCCCCCCCCCCCCCCCCCCCCC(=O)[O-]
REMARK SMILES IDX 13 1 14 2 15 3 16 4 17 5 18 6 19 7 20 8 21 9 22 10 23 11
REMARK SMILES IDX 24 12 25 13 26 14 12 15 11 16 10 17 9 18 8 19 7 20 6 21 5 22
REMARK SMILES IDX 4 23 3 24 2 25 1 26
REMARK H PARENT
REMARK Flexibility Score: inf
ROOT
ATOM      1  C   UNL     1      -8.693  -3.874  -8.200  1.00  0.00     0.000 C 
ENDROOT
BRANCH   1   2
ATOM      2  C   UNL     1      -9.522  -2.618  -7.879  1.00  0.00     0.000 C 
BRANCH   2   3
ATOM      3  C   UNL     1     -10.242  -2.017  -9.104  1.00  0.00     0.000 C 
BRANCH   3   4
ATOM      4  C   UNL     1     -11.373  -2.922  -9.626  1.00  0.00     0.000 C 
BRANCH   4   5
ATOM      5  C   UNL     1     -12.436  -2.126 -10.415  1.00  0.00     0.000 C 
BRANCH   5   6
ATOM      6  C   UNL     1     -13.881  -2.551 -10.103  1.00  0.00     0.000 C 
BRANCH   6   7
ATOM      7  C   UNL     1     -14.848  -1.360 -10.019  1.00  0.00     0.000 C 
BRANCH   7   8
ATOM      8  C   UNL     1     -14.147  -0.019 -10.297  1.00  0.00     0.000 C 
BRANCH   8   9
ATOM      9  C   UNL     1     -14.505   1.053  -9.254  1.00  0.00     0.000 C 
BRANCH   9  10
ATOM     10  C   UNL     1     -13.928   2.432  -9.609  1.00  0.00     0.006 C 
BRANCH  10  11
ATOM     11  C   UNL     1     -12.422   2.522  -9.334  1.00  0.00     0.053 C 
BRANCH  11  12
ATOM     12  C   UNL     1     -12.095   3.800  -8.629  1.00  0.00     0.041 C 
ATOM     13  O   UNL     1     -10.902   4.064  -8.316  1.00  0.00    -0.550 OA
ATOM     14  O   UNL     1     -13.111   4.677  -8.270  1.00  0.00    -0.550 OA
ENDBRANCH  11  12
ENDBRANCH  10  11
ENDBRANCH   9  10
ENDBRANCH   8   9
ENDBRANCH   7   8
ENDBRANCH   6   7
ENDBRANCH   5   6
ENDBRANCH   4   5
ENDBRANCH   3   4
ENDBRANCH   2   3
ENDBRANCH   1   2
BRANCH   1  15
ATOM     15  C   UNL     1      -9.342  -5.168  -7.680  1.00  0.00     0.000 C 
BRANCH  15  16
ATOM     16  C   UNL     1      -9.914  -6.039  -8.820  1.00  0.00     0.000 C 
BRANCH  16  17
ATOM     17  C   UNL     1     -10.219  -7.486  -8.400  1.00  0.00     0.000 C 
BRANCH  17  18
ATOM     18  C   UNL     1     -11.642  -7.933  -8.777  1.00  0.00    -0.000 C 
BRANCH  18  19
ATOM     19  C   UNL     1     -12.203  -7.170  -9.989  1.00  0.00    -0.000 C 
BRANCH  19  20
ATOM     20  C   UNL     1     -13.521  -6.442  -9.672  1.00  0.00    -0.000 C 
BRANCH  20  21
ATOM     21  C   UNL     1     -13.507  -5.773  -8.288  1.00  0.00    -0.000 C 
BRANCH  21  22
ATOM     22  C   UNL     1     -14.590  -6.328  -7.345  1.00  0.00    -0.000 C 
BRANCH  22  23
ATOM     23  C   UNL     1     -14.124  -6.347  -5.874  1.00  0.00    -0.000 C 
BRANCH  23  24
ATOM     24  C   UNL     1     -13.300  -7.592  -5.504  1.00  0.00    -0.000 C 
BRANCH  24  25
ATOM     25  C   UNL     1     -11.839  -7.263  -5.167  1.00  0.00    -0.003 C 
ATOM     26  C   UNL     1     -11.612  -5.756  -5.110  1.00  0.00     0.004 C 
ENDBRANCH  24  25
ENDBRANCH  23  24
ENDBRANCH  22  23
ENDBRANCH  21  22
ENDBRANCH  20  21
ENDBRANCH  19  20
ENDBRANCH  18  19
ENDBRANCH  17  18
ENDBRANCH  16  17
ENDBRANCH  15  16
ENDBRANCH   1  15
TORSDOF 22
ENDMDL
MODEL 2
REMARK VINA RESULT:    -5.565      1.099      2.308
REMARK INTER + INTRA:         -15.562
REMARK INTER:                 -12.455
REMARK INTRA:                  -3.106
REMARK UNBOUND:                -2.840
REMARK SMILES CCCCCCCCCCCCCCCCCCCCCCCC(=O)[O-]
REMARK SMILES IDX 13 1 14 2 15 3 16 4 17 5 18 6 19 7 20 8 21 9 22 10 23 11
REMARK SMILES IDX 24 12 25 13 26 14 12 15 11 16 10 17 9 18 8 19 7 20 6 21 5 22
REMARK SMILES IDX 4 23 3 24 2 25 1 26
REMARK H PARENT
REMARK Flexibility Score: inf
ROOT
ATOM      1  C   UNL     1     -10.444  -3.936  -8.182  1.00  0.00     0.000 C 
ENDROOT
BRANCH   1   2
ATOM      2  C   UNL     1      -9.703  -2.699  -8.718  1.00  0.00     0.000 C 
BRANCH   2   3
ATOM      3  C   UNL     1     -10.571  -1.424  -8.764  1.00  0.00     0.000 C 
BRANCH   3   4
ATOM      4  C   UNL     1     -10.422  -0.657 -10.092  1.00  0.00     0.000 C 
BRANCH   4   5
ATOM      5  C   UNL     1     -11.738  -0.635 -10.900  1.00  0.00     0.000 C 
BRANCH   5   6
ATOM      6  C   UNL     1     -12.798  -1.621 -10.379  1.00  0.00     0.000 C 
BRANCH   6   7
ATOM      7  C   UNL     1     -14.233  -1.096 -10.544  1.00  0.00     0.000 C 
BRANCH   7   8
ATOM      8  C   UNL     1     -14.296   0.442 -10.526  1.00  0.00     0.000 C 
BRANCH   8   9
ATOM      9  C   UNL     1     -14.594   0.995  -9.121  1.00  0.00     0.000 C 
BRANCH   9  10
ATOM     10  C   UNL     1     -14.127   2.449  -8.955  1.00  0.00     0.006 C 
BRANCH  10  11
ATOM     11  C   UNL     1     -12.650   2.633  -9.323  1.00  0.00     0.053 C 
BRANCH  11  12
ATOM     12  C   UNL     1     -12.093   3.852  -8.658  1.00  0.00     0.041 C 
ATOM     13  O   UNL     1     -10.945   3.822  -8.139  1.00  0.00    -0.550 OA
ATOM     14  O   UNL     1     -12.861   5.007  -8.565  1.00  0.00    -0.550 OA
ENDBRANCH  11  12
ENDBRANCH  10  11
ENDBRANCH   9  10
ENDBRANCH   8   9
ENDBRANCH   7   8
ENDBRANCH   6   7
ENDBRANCH   5   6
ENDBRANCH   4   5
ENDBRANCH   3   4
ENDBRANCH   2   3
ENDBRANCH   1   2
BRANCH   1  15
ATOM     15  C   UNL     1     -11.534  -4.443  -9.142  1.00  0.00     0.000 C 
BRANCH  15  16
ATOM     16  C   UNL     1     -11.405  -5.953  -9.435  1.00  0.00     0.000 C 
BRANCH  16  17
ATOM     17  C   UNL     1     -10.212  -6.620  -8.731  1.00  0.00     0.000 C 
BRANCH  17  18
ATOM     18  C   UNL     1     -10.564  -7.989  -8.123  1.00  0.00    -0.000 C 
BRANCH  18  19
ATOM     19  C   UNL     1     -10.255  -8.068  -6.618  1.00  0.00    -0.000 C 
BRANCH  19  20
ATOM     20  C   UNL     1     -10.061  -6.681  -5.981  1.00  0.00    -0.000 C 
BRANCH  20  21
ATOM     21  C   UNL     1     -11.356  -6.132  -5.359  1.00  0.00    -0.000 C 
BRANCH  21  22
ATOM     22  C   UNL     1     -12.496  -7.165  -5.345  1.00  0.00    -0.000 C 
BRANCH  22  23
ATOM     23  C   UNL     1     -13.748  -6.657  -6.093  1.00  0.00    -0.000 C 
BRANCH  23  24
ATOM     24  C   UNL     1     -14.215  -7.594  -7.220  1.00  0.00    -0.000 C 
BRANCH  24  25
ATOM     25  C   UNL     1     -14.828  -6.839  -8.408  1.00  0.00    -0.003 C 
ATOM     26  C   UNL     1     -15.034  -5.364  -8.077  1.00  0.00     0.004 C 
ENDBRANCH  24  25
ENDBRANCH  23  24
ENDBRANCH  22  23
ENDBRANCH  21  22
ENDBRANCH  20  21
ENDBRANCH  19  20
ENDBRANCH  18  19
ENDBRANCH  17  18
ENDBRANCH  16  17
ENDBRANCH  15  16
ENDBRANCH   1  15
TORSDOF 22
ENDMDL
MODEL 3
REMARK VINA RESULT:    -5.304      3.231      7.919
REMARK INTER + INTRA:         -14.965
REMARK INTER:                 -12.496
REMARK INTRA:                  -2.469
REMARK UNBOUND:                -2.840
REMARK SMILES CCCCCCCCCCCCCCCCCCCCCCCC(=O)[O-]
REMARK SMILES IDX 13 1 14 2 15 3 16 4 17 5 18 6 19 7 20 8 21 9 22 10 23 11
REMARK SMILES IDX 24 12 25 13 26 14 12 15 11 16 10 17 9 18 8 19 7 20 6 21 5 22
REMARK SMILES IDX 4 23 3 24 2 25 1 26
REMARK H PARENT
REMARK Flexibility Score: inf
ROOT
ATOM      1  C   UNL     1      -9.521  -2.470  -7.762  1.00  0.00     0.000 C 
ENDROOT
BRANCH   1   2
ATOM      2  C   UNL     1      -9.900  -3.907  -7.364  1.00  0.00     0.000 C 
BRANCH   2   3
ATOM      3  C   UNL     1      -9.590  -4.956  -8.453  1.00  0.00     0.000 C 
BRANCH   3   4
ATOM      4  C   UNL     1     -10.841  -5.746  -8.881  1.00  0.00     0.000 C 
BRANCH   4   5
ATOM      5  C   UNL     1     -12.021  -4.816  -9.237  1.00  0.00     0.000 C 
BRANCH   5   6
ATOM      6  C   UNL     1     -13.391  -5.517  -9.203  1.00  0.00     0.000 C 
BRANCH   6   7
ATOM      7  C   UNL     1     -13.277  -7.048  -9.172  1.00  0.00     0.000 C 
BRANCH   7   8
ATOM      8  C   UNL     1     -14.009  -7.663  -7.967  1.00  0.00     0.000 C 
BRANCH   8   9
ATOM      9  C   UNL     1     -14.589  -6.590  -7.029  1.00  0.00     0.000 C 
BRANCH   9  10
ATOM     10  C   UNL     1     -13.938  -6.615  -5.638  1.00  0.00     0.006 C 
BRANCH  10  11
ATOM     11  C   UNL     1     -12.770  -7.606  -5.558  1.00  0.00     0.053 C 
BRANCH  11  12
ATOM     12  C   UNL     1     -11.471  -6.874  -5.432  1.00  0.00     0.041 C 
ATOM     13  O   UNL     1     -11.452  -5.684  -5.017  1.00  0.00    -0.550 OA
ATOM     14  O   UNL     1     -10.286  -7.488  -5.820  1.00  0.00    -0.550 OA
ENDBRANCH  11  12
ENDBRANCH  10  11
ENDBRANCH   9  10
ENDBRANCH   8   9
ENDBRANCH   7   8
ENDBRANCH   6   7
ENDBRANCH   5   6
ENDBRANCH   4   5
ENDBRANCH   3   4
ENDBRANCH   2   3
ENDBRANCH   1   2
BRANCH   1  15
ATOM     15  C   UNL     1      -9.849  -2.149  -9.230  1.00  0.00     0.000 C 
BRANCH  15  16
ATOM     16  C   UNL     1     -10.659  -0.844  -9.381  1.00  0.00     0.000 C 
BRANCH  16  17
ATOM     17  C   UNL     1     -11.421  -0.738 -10.713  1.00  0.00     0.000 C 
BRANCH  17  18
ATOM     18  C   UNL     1     -12.703  -1.588 -10.739  1.00  0.00    -0.000 C 
BRANCH  18  19
ATOM     19  C   UNL     1     -13.974  -0.740 -10.920  1.00  0.00    -0.000 C 
BRANCH  19  20
ATOM     20  C   UNL     1     -14.798  -0.626  -9.626  1.00  0.00    -0.000 C 
BRANCH  20  21
ATOM     21  C   UNL     1     -14.792   0.798  -9.047  1.00  0.00    -0.000 C 
BRANCH  21  22
ATOM     22  C   UNL     1     -14.065   1.808  -9.953  1.00  0.00    -0.000 C 
BRANCH  22  23
ATOM     23  C   UNL     1     -12.646   2.132  -9.439  1.00  0.00    -0.000 C 
BRANCH  23  24
ATOM     24  C   UNL     1     -12.289   3.627  -9.515  1.00  0.00    -0.000 C 
BRANCH  24  25
ATOM     25  C   UNL     1     -11.735   4.176  -8.195  1.00  0.00    -0.003 C 
ATOM     26  C   UNL     1     -12.862   4.540  -7.232  1.00  0.00     0.004 C 
ENDBRANCH  24  25
ENDBRANCH  23  24
ENDBRANCH  22  23
ENDBRANCH  21  22
ENDBRANCH  20  21
ENDBRANCH  19  20
ENDBRANCH  18  19
ENDBRANCH  17  18
ENDBRANCH  16  17
ENDBRANCH  15  16
ENDBRANCH   1  15
TORSDOF 22
ENDMDL
MODEL 4
REMARK VINA RESULT:    -5.192      2.960      8.001
REMARK INTER + INTRA:         -14.710
REMARK INTER:                 -12.378
REMARK INTRA:                  -2.332
REMARK UNBOUND:                -2.840
REMARK SMILES CCCCCCCCCCCCCCCCCCCCCCCC(=O)[O-]
REMARK SMILES IDX 13 1 14 2 15 3 16 4 17 5 18 6 19 7 20 8 21 9 22 10 23 11
REMARK SMILES IDX 24 12 25 13 26 14 12 15 11 16 10 17 9 18 8 19 7 20 6 21 5 22
REMARK SMILES IDX 4 23 3 24 2 25 1 26
REMARK H PARENT
REMARK Flexibility Score: inf
ROOT
ATOM      1  C   UNL     1      -9.671  -2.288  -7.935  1.00  0.00     0.000 C 
ENDROOT
BRANCH   1   2
ATOM      2  C   UNL     1      -8.585  -3.370  -8.063  1.00  0.00     0.000 C 
BRANCH   2   3
ATOM      3  C   UNL     1      -9.129  -4.811  -7.981  1.00  0.00     0.000 C 
BRANCH   3   4
ATOM      4  C   UNL     1     -10.306  -4.941  -6.995  1.00  0.00     0.000 C 
BRANCH   4   5
ATOM      5  C   UNL     1     -10.434  -6.373  -6.431  1.00  0.00     0.000 C 
BRANCH   5   6
ATOM      6  C   UNL     1     -11.373  -6.475  -5.216  1.00  0.00     0.000 C 
BRANCH   6   7
ATOM      7  C   UNL     1     -12.857  -6.367  -5.599  1.00  0.00     0.000 C 
BRANCH   7   8
ATOM      8  C   UNL     1     -13.520  -7.747  -5.757  1.00  0.00     0.000 C 
BRANCH   8   9
ATOM      9  C   UNL     1     -14.147  -7.934  -7.150  1.00  0.00     0.000 C 
BRANCH   9  10
ATOM     10  C   UNL     1     -14.481  -6.596  -7.826  1.00  0.00     0.006 C 
BRANCH  10  11
ATOM     11  C   UNL     1     -14.129  -6.593  -9.319  1.00  0.00     0.053 C 
BRANCH  11  12
ATOM     12  C   UNL     1     -12.806  -5.933  -9.543  1.00  0.00     0.041 C 
ATOM     13  O   UNL     1     -11.781  -6.631  -9.771  1.00  0.00    -0.550 OA
ATOM     14  O   UNL     1     -12.691  -4.551  -9.449  1.00  0.00    -0.550 OA
ENDBRANCH  11  12
ENDBRANCH  10  11
ENDBRANCH   9  10
ENDBRANCH   8   9
ENDBRANCH   7   8
ENDBRANCH   6   7
ENDBRANCH   5   6
ENDBRANCH   4   5
ENDBRANCH   3   4
ENDBRANCH   2   3
ENDBRANCH   1   2
BRANCH   1  15
ATOM     15  C   UNL     1     -10.286  -1.893  -9.289  1.00  0.00     0.000 C 
BRANCH  15  16
ATOM     16  C   UNL     1     -10.711  -0.410  -9.332  1.00  0.00     0.000 C 
BRANCH  16  17
ATOM     17  C   UNL     1     -11.494  -0.027 -10.599  1.00  0.00     0.000 C 
BRANCH  17  18
ATOM     18  C   UNL     1     -12.711  -0.934 -10.849  1.00  0.00    -0.000 C 
BRANCH  18  19
ATOM     19  C   UNL     1     -14.048  -0.185 -10.713  1.00  0.00    -0.000 C 
BRANCH  19  20
ATOM     20  C   UNL     1     -14.658  -0.315  -9.307  1.00  0.00    -0.000 C 
BRANCH  20  21
ATOM     21  C   UNL     1     -15.106   1.039  -8.732  1.00  0.00    -0.000 C 
BRANCH  21  22
ATOM     22  C   UNL     1     -14.207   2.205  -9.179  1.00  0.00    -0.000 C 
BRANCH  22  23
ATOM     23  C   UNL     1     -14.361   3.440  -8.265  1.00  0.00    -0.000 C 
BRANCH  23  24
ATOM     24  C   UNL     1     -13.098   4.315  -8.193  1.00  0.00    -0.000 C 
BRANCH  24  25
ATOM     25  C   UNL     1     -11.938   3.760  -9.030  1.00  0.00    -0.003 C 
ATOM     26  C   UNL     1     -10.648   3.706  -8.218  1.00  0.00     0.004 C 
ENDBRANCH  24  25
ENDBRANCH  23  24
ENDBRANCH  22  23
ENDBRANCH  21  22
ENDBRANCH  20  21
ENDBRANCH  19  20
ENDBRANCH  18  19
ENDBRANCH  17  18
ENDBRANCH  16  17
ENDBRANCH  15  16
ENDBRANCH   1  15
TORSDOF 22
ENDMDL
MODEL 5
REMARK VINA RESULT:    -4.925      1.104      2.242
REMARK INTER + INTRA:         -14.098
REMARK INTER:                 -11.252
REMARK INTRA:                  -2.846
REMARK UNBOUND:                -2.840
REMARK SMILES CCCCCCCCCCCCCCCCCCCCCCCC(=O)[O-]
REMARK SMILES IDX 13 1 14 2 15 3 16 4 17 5 18 6 19 7 20 8 21 9 22 10 23 11
REMARK SMILES IDX 24 12 25 13 26 14 12 15 11 16 10 17 9 18 8 19 7 20 6 21 5 22
REMARK SMILES IDX 4 23 3 24 2 25 1 26
REMARK H PARENT
REMARK Flexibility Score: inf
ROOT
ATOM      1  C   UNL     1      -8.930  -3.457  -8.572  1.00  0.00     0.000 C 
ENDROOT
BRANCH   1   2
ATOM      2  C   UNL     1     -10.198  -2.623  -8.826  1.00  0.00     0.000 C 
BRANCH   2   3
ATOM      3  C   UNL     1     -11.063  -3.143  -9.993  1.00  0.00     0.000 C 
BRANCH   3   4
ATOM      4  C   UNL     1     -12.509  -3.450  -9.562  1.00  0.00     0.000 C 
BRANCH   4   5
ATOM      5  C   UNL     1     -13.545  -2.738 -10.459  1.00  0.00     0.000 C 
BRANCH   5   6
ATOM      6  C   UNL     1     -14.645  -2.006  -9.670  1.00  0.00     0.000 C 
BRANCH   6   7
ATOM      7  C   UNL     1     -14.488  -0.478  -9.706  1.00  0.00     0.000 C 
BRANCH   7   8
ATOM      8  C   UNL     1     -13.200  -0.041 -10.425  1.00  0.00     0.000 C 
BRANCH   8   9
ATOM      9  C   UNL     1     -12.337   0.891  -9.557  1.00  0.00     0.000 C 
BRANCH   9  10
ATOM     10  C   UNL     1     -12.805   2.353  -9.625  1.00  0.00     0.006 C 
BRANCH  10  11
ATOM     11  C   UNL     1     -11.817   3.314  -8.953  1.00  0.00     0.053 C 
BRANCH  11  12
ATOM     12  C   UNL     1     -12.551   4.363  -8.180  1.00  0.00     0.041 C 
ATOM     13  O   UNL     1     -12.542   4.344  -6.919  1.00  0.00    -0.550 OA
ATOM     14  O   UNL     1     -13.288   5.333  -8.849  1.00  0.00    -0.550 OA
ENDBRANCH  11  12
ENDBRANCH  10  11
ENDBRANCH   9  10
ENDBRANCH   8   9
ENDBRANCH   7   8
ENDBRANCH   6   7
ENDBRANCH   5   6
ENDBRANCH   4   5
ENDBRANCH   3   4
ENDBRANCH   2   3
ENDBRANCH   1   2
BRANCH   1  15
ATOM     15  C   UNL     1      -9.220  -4.775  -7.833  1.00  0.00     0.000 C 
BRANCH  15  16
ATOM     16  C   UNL     1     -10.199  -4.587  -6.655  1.00  0.00     0.000 C 
BRANCH  16  17
ATOM     17  C   UNL     1     -11.311  -5.648  -6.598  1.00  0.00     0.000 C 
BRANCH  17  18
ATOM     18  C   UNL     1     -10.765  -7.083  -6.503  1.00  0.00    -0.000 C 
BRANCH  18  19
ATOM     19  C   UNL     1     -10.393  -7.669  -7.876  1.00  0.00    -0.000 C 
BRANCH  19  20
ATOM     20  C   UNL     1     -11.625  -8.125  -8.678  1.00  0.00    -0.000 C 
BRANCH  20  21
ATOM     21  C   UNL     1     -12.033  -7.109  -9.759  1.00  0.00    -0.000 C 
BRANCH  21  22
ATOM     22  C   UNL     1     -13.455  -7.349 -10.296  1.00  0.00    -0.000 C 
BRANCH  22  23
ATOM     23  C   UNL     1     -14.514  -7.300  -9.174  1.00  0.00    -0.000 C 
BRANCH  23  24
ATOM     24  C   UNL     1     -14.557  -5.957  -8.425  1.00  0.00    -0.000 C 
BRANCH  24  25
ATOM     25  C   UNL     1     -14.871  -6.116  -6.931  1.00  0.00    -0.003 C 
ATOM     26  C   UNL     1     -14.632  -7.549  -6.467  1.00  0.00     0.004 C 
ENDBRANCH  24  25
ENDBRANCH  23  24
ENDBRANCH  22  23
ENDBRANCH  21  22
ENDBRANCH  20  21
ENDBRANCH  19  20
ENDBRANCH  18  19
ENDBRANCH  17  18
ENDBRANCH  16  17
ENDBRANCH  15  16
ENDBRANCH   1  15
TORSDOF 22
ENDMDL
MODEL 6
REMARK VINA RESULT:    -4.794      1.401      2.782
REMARK INTER + INTRA:         -13.798
REMARK INTER:                 -10.933
REMARK INTRA:                  -2.865
REMARK UNBOUND:                -2.840
REMARK SMILES CCCCCCCCCCCCCCCCCCCCCCCC(=O)[O-]
REMARK SMILES IDX 13 1 14 2 15 3 16 4 17 5 18 6 19 7 20 8 21 9 22 10 23 11
REMARK SMILES IDX 24 12 25 13 26 14 12 15 11 16 10 17 9 18 8 19 7 20 6 21 5 22
REMARK SMILES IDX 4 23 3 24 2 25 1 26
REMARK H PARENT
REMARK Flexibility Score: inf
ROOT
ATOM      1  C   UNL     1     -12.835  -4.308  -8.898  1.00  0.00     0.000 C 
ENDROOT
BRANCH   1   2
ATOM      2  C   UNL     1     -11.356  -4.490  -9.282  1.00  0.00     0.000 C 
BRANCH   2   3
ATOM      3  C   UNL     1     -10.439  -3.353  -8.785  1.00  0.00     0.000 C 
BRANCH   3   4
ATOM      4  C   UNL     1      -9.846  -2.527  -9.941  1.00  0.00     0.000 C 
BRANCH   4   5
ATOM      5  C   UNL     1     -10.208  -1.029  -9.828  1.00  0.00     0.000 C 
BRANCH   5   6
ATOM      6  C   UNL     1     -11.628  -0.699 -10.319  1.00  0.00     0.000 C 
BRANCH   6   7
ATOM      7  C   UNL     1     -12.198   0.578  -9.682  1.00  0.00     0.000 C 
BRANCH   7   8
ATOM      8  C   UNL     1     -13.729   0.658  -9.806  1.00  0.00     0.000 C 
BRANCH   8   9
ATOM      9  C   UNL     1     -14.271   2.049  -9.431  1.00  0.00     0.000 C 
BRANCH   9  10
ATOM     10  C   UNL     1     -13.189   3.137  -9.502  1.00  0.00     0.006 C 
BRANCH  10  11
ATOM     11  C   UNL     1     -13.346   4.188  -8.397  1.00  0.00     0.053 C 
BRANCH  11  12
ATOM     12  C   UNL     1     -12.135   4.209  -7.518  1.00  0.00     0.041 C 
ATOM     13  O   UNL     1     -12.229   4.587  -6.319  1.00  0.00    -0.550 OA
ATOM     14  O   UNL     1     -10.894   3.858  -8.035  1.00  0.00    -0.550 OA
ENDBRANCH  11  12
ENDBRANCH  10  11
ENDBRANCH   9  10
ENDBRANCH   8   9
ENDBRANCH   7   8
ENDBRANCH   6   7
ENDBRANCH   5   6
ENDBRANCH   4   5
ENDBRANCH   3   4
ENDBRANCH   2   3
ENDBRANCH   1   2
BRANCH   1  15
ATOM     15  C   UNL     1     -13.671  -3.671 -10.021  1.00  0.00     0.000 C 
BRANCH  15  16
ATOM     16  C   UNL     1     -14.985  -4.437 -10.284  1.00  0.00     0.000 C 
BRANCH  16  17
ATOM     17  C   UNL     1     -14.960  -5.895  -9.796  1.00  0.00     0.000 C 
BRANCH  17  18
ATOM     18  C   UNL     1     -14.267  -6.847 -10.786  1.00  0.00    -0.000 C 
BRANCH  18  19
ATOM     19  C   UNL     1     -13.740  -8.124 -10.112  1.00  0.00    -0.000 C 
BRANCH  19  20
ATOM     20  C   UNL     1     -12.275  -7.993  -9.660  1.00  0.00    -0.000 C 
BRANCH  20  21
ATOM     21  C   UNL     1     -12.126  -8.022  -8.129  1.00  0.00    -0.000 C 
BRANCH  21  22
ATOM     22  C   UNL     1     -13.467  -7.848  -7.395  1.00  0.00    -0.000 C 
BRANCH  22  23
ATOM     23  C   UNL     1     -13.358  -6.858  -6.216  1.00  0.00    -0.000 C 
BRANCH  23  24
ATOM     24  C   UNL     1     -12.053  -6.995  -5.414  1.00  0.00    -0.000 C 
BRANCH  24  25
ATOM     25  C   UNL     1     -11.230  -5.700  -5.386  1.00  0.00    -0.003 C 
ATOM     26  C   UNL     1      -9.951  -5.842  -6.206  1.00  0.00     0.004 C 
ENDBRANCH  24  25
ENDBRANCH  23  24
ENDBRANCH  22  23
ENDBRANCH  21  22
ENDBRANCH  20  21
ENDBRANCH  19  20
ENDBRANCH  18  19
ENDBRANCH  17  18
ENDBRANCH  16  17
ENDBRANCH  15  16
ENDBRANCH   1  15
TORSDOF 22
ENDMDL
MODEL 7
REMARK VINA RESULT:    -4.631      2.941      7.396
REMARK INTER + INTRA:         -13.427
REMARK INTER:                 -11.362
REMARK INTRA:                  -2.065
REMARK UNBOUND:                -2.840
REMARK SMILES CCCCCCCCCCCCCCCCCCCCCCCC(=O)[O-]
REMARK SMILES IDX 13 1 14 2 15 3 16 4 17 5 18 6 19 7 20 8 21 9 22 10 23 11
REMARK SMILES IDX 24 12 25 13 26 14 12 15 11 16 10 17 9 18 8 19 7 20 6 21 5 22
REMARK SMILES IDX 4 23 3 24 2 25 1 26
REMARK H PARENT
REMARK Flexibility Score: inf
ROOT
ATOM      1  C   UNL     1     -10.536  -4.947  -7.469  1.00  0.00     0.000 C 
ENDROOT
BRANCH   1   2
ATOM      2  C   UNL     1     -10.017  -6.055  -8.402  1.00  0.00     0.000 C 
BRANCH   2   3
ATOM      3  C   UNL     1     -10.586  -7.454  -8.085  1.00  0.00     0.000 C 
BRANCH   3   4
ATOM      4  C   UNL     1     -10.241  -7.920  -6.658  1.00  0.00     0.000 C 
BRANCH   4   5
ATOM      5  C   UNL     1     -11.505  -8.125  -5.794  1.00  0.00     0.000 C 
BRANCH   5   6
ATOM      6  C   UNL     1     -12.099  -6.814  -5.248  1.00  0.00     0.000 C 
BRANCH   6   7
ATOM      7  C   UNL     1     -13.460  -6.471  -5.872  1.00  0.00     0.000 C 
BRANCH   7   8
ATOM      8  C   UNL     1     -14.013  -7.621  -6.732  1.00  0.00     0.000 C 
BRANCH   8   9
ATOM      9  C   UNL     1     -14.289  -7.182  -8.181  1.00  0.00     0.000 C 
BRANCH   9  10
ATOM     10  C   UNL     1     -15.018  -5.832  -8.255  1.00  0.00     0.006 C 
BRANCH  10  11
ATOM     11  C   UNL     1     -14.214  -4.776  -9.024  1.00  0.00     0.053 C 
BRANCH  11  12
ATOM     12  C   UNL     1     -14.740  -4.630 -10.416  1.00  0.00     0.041 C 
ATOM     13  O   UNL     1     -15.111  -5.646 -11.064  1.00  0.00    -0.550 OA
ATOM     14  O   UNL     1     -14.774  -3.379 -11.021  1.00  0.00    -0.550 OA
ENDBRANCH  11  12
ENDBRANCH  10  11
ENDBRANCH   9  10
ENDBRANCH   8   9
ENDBRANCH   7   8
ENDBRANCH   6   7
ENDBRANCH   5   6
ENDBRANCH   4   5
ENDBRANCH   3   4
ENDBRANCH   2   3
ENDBRANCH   1   2
BRANCH   1  15
ATOM     15  C   UNL     1      -9.632  -3.702  -7.457  1.00  0.00     0.000 C 
BRANCH  15  16
ATOM     16  C   UNL     1      -8.831  -3.544  -8.767  1.00  0.00     0.000 C 
BRANCH  16  17
ATOM     17  C   UNL     1      -9.645  -2.937  -9.921  1.00  0.00     0.000 C 
BRANCH  17  18
ATOM     18  C   UNL     1     -11.004  -2.376  -9.467  1.00  0.00    -0.000 C 
BRANCH  18  19
ATOM     19  C   UNL     1     -11.787  -1.716 -10.614  1.00  0.00    -0.000 C 
BRANCH  19  20
ATOM     20  C   UNL     1     -12.212  -0.274 -10.286  1.00  0.00    -0.000 C 
BRANCH  20  21
ATOM     21  C   UNL     1     -13.655   0.029 -10.722  1.00  0.00    -0.000 C 
BRANCH  21  22
ATOM     22  C   UNL     1     -14.657  -0.033  -9.555  1.00  0.00    -0.000 C 
BRANCH  22  23
ATOM     23  C   UNL     1     -14.849   1.342  -8.882  1.00  0.00    -0.000 C 
BRANCH  23  24
ATOM     24  C   UNL     1     -13.972   2.452  -9.485  1.00  0.00    -0.000 C 
BRANCH  24  25
ATOM     25  C   UNL     1     -13.453   3.442  -8.434  1.00  0.00    -0.003 C 
ATOM     26  C   UNL     1     -12.231   4.199  -8.945  1.00  0.00     0.004 C 
ENDBRANCH  24  25
ENDBRANCH  23  24
ENDBRANCH  22  23
ENDBRANCH  21  22
ENDBRANCH  20  21
ENDBRANCH  19  20
ENDBRANCH  18  19
ENDBRANCH  17  18
ENDBRANCH  16  17
ENDBRANCH  15  16
ENDBRANCH   1  15
TORSDOF 22
ENDMDL
MODEL 8
REMARK VINA RESULT:    -4.362     16.581     19.510
REMARK INTER + INTRA:         -12.812
REMARK INTER:                  -9.867
REMARK INTRA:                  -2.945
REMARK UNBOUND:                -2.840
REMARK SMILES CCCCCCCCCCCCCCCCCCCCCCCC(=O)[O-]
REMARK SMILES IDX 13 1 14 2 15 3 16 4 17 5 18 6 19 7 20 8 21 9 22 10 23 11
REMARK SMILES IDX 24 12 25 13 26 14 12 15 11 16 10 17 9 18 8 19 7 20 6 21 5 22
REMARK SMILES IDX 4 23 3 24 2 25 1 26
REMARK H PARENT
REMARK Flexibility Score: inf
ROOT
ATOM      1  C   UNL     1     -12.729   4.541   6.731  1.00  0.00     0.000 C 
ENDROOT
BRANCH   1   2
ATOM      2  C   UNL     1     -12.071   4.012   8.017  1.00  0.00     0.000 C 
BRANCH   2   3
ATOM      3  C   UNL     1     -10.529   3.999   7.968  1.00  0.00     0.000 C 
BRANCH   3   4
ATOM      4  C   UNL     1      -9.902   5.094   8.850  1.00  0.00     0.000 C 
BRANCH   4   5
ATOM      5  C   UNL     1      -9.969   6.486   8.184  1.00  0.00     0.000 C 
BRANCH   5   6
ATOM      6  C   UNL     1      -9.118   6.600   6.907  1.00  0.00     0.000 C 
BRANCH   6   7
ATOM      7  C   UNL     1      -8.295   7.896   6.852  1.00  0.00     0.000 C 
BRANCH   7   8
ATOM      8  C   UNL     1      -8.352   8.565   5.467  1.00  0.00     0.000 C 
BRANCH   8   9
ATOM      9  C   UNL     1      -8.807  10.032   5.548  1.00  0.00     0.000 C 
BRANCH   9  10
ATOM     10  C   UNL     1      -7.683  11.014   5.180  1.00  0.00     0.006 C 
BRANCH  10  11
ATOM     11  C   UNL     1      -6.304  10.344   5.169  1.00  0.00     0.053 C 
BRANCH  11  12
ATOM     12  C   UNL     1      -5.522  10.736   6.382  1.00  0.00     0.041 C 
ATOM     13  O   UNL     1      -4.282  10.513   6.436  1.00  0.00    -0.550 OA
ATOM     14  O   UNL     1      -6.168  11.301   7.474  1.00  0.00    -0.550 OA
ENDBRANCH  11  12
ENDBRANCH  10  11
ENDBRANCH   9  10
ENDBRANCH   8   9
ENDBRANCH   7   8
ENDBRANCH   6   7
ENDBRANCH   5   6
ENDBRANCH   4   5
ENDBRANCH   3   4
ENDBRANCH   2   3
ENDBRANCH   1   2
BRANCH   1  15
ATOM     15  C   UNL     1     -11.778   4.527   5.522  1.00  0.00     0.000 C 
BRANCH  15  16
ATOM     16  C   UNL     1     -11.958   5.763   4.616  1.00  0.00     0.000 C 
BRANCH  16  17
ATOM     17  C   UNL     1     -13.370   6.369   4.669  1.00  0.00     0.000 C 
BRANCH  17  18
ATOM     18  C   UNL     1     -13.375   7.842   5.113  1.00  0.00    -0.000 C 
BRANCH  18  19
ATOM     19  C   UNL     1     -12.097   8.238   5.872  1.00  0.00    -0.000 C 
BRANCH  19  20
ATOM     20  C   UNL     1     -12.198   9.633   6.512  1.00  0.00    -0.000 C 
BRANCH  20  21
ATOM     21  C   UNL     1     -12.787  10.681   5.553  1.00  0.00    -0.000 C 
BRANCH  21  22
ATOM     22  C   UNL     1     -11.770  11.766   5.157  1.00  0.00    -0.000 C 
BRANCH  22  23
ATOM     23  C   UNL     1     -11.795  12.059   3.641  1.00  0.00    -0.000 C 
BRANCH  23  24
ATOM     24  C   UNL     1     -13.212  12.096   3.044  1.00  0.00    -0.000 C 
BRANCH  24  25
ATOM     25  C   UNL     1     -13.227  11.878   1.525  1.00  0.00    -0.003 C 
ATOM     26  C   UNL     1     -11.845  11.482   1.012  1.00  0.00     0.004 C 
ENDBRANCH  24  25
ENDBRANCH  23  24
ENDBRANCH  22  23
ENDBRANCH  21  22
ENDBRANCH  20  21
ENDBRANCH  19  20
ENDBRANCH  18  19
ENDBRANCH  17  18
ENDBRANCH  16  17
ENDBRANCH  15  16
ENDBRANCH   1  15
TORSDOF 22
ENDMDL
MODEL 9
REMARK VINA RESULT:    -4.240     16.076     19.769
REMARK INTER + INTRA:         -12.534
REMARK INTER:                  -9.695
REMARK INTRA:                  -2.838
REMARK UNBOUND:                -2.840
REMARK SMILES CCCCCCCCCCCCCCCCCCCCCCCC(=O)[O-]
REMARK SMILES IDX 13 1 14 2 15 3 16 4 17 5 18 6 19 7 20 8 21 9 22 10 23 11
REMARK SMILES IDX 24 12 25 13 26 14 12 15 11 16 10 17 9 18 8 19 7 20 6 21 5 22
REMARK SMILES IDX 4 23 3 24 2 25 1 26
REMARK H PARENT
REMARK Flexibility Score: inf
ROOT
ATOM      1  C   UNL     1     -12.298   5.628   4.962  1.00  0.00     0.000 C 
ENDROOT
BRANCH   1   2
ATOM      2  C   UNL     1     -12.542   4.652   6.126  1.00  0.00     0.000 C 
BRANCH   2   3
ATOM      3  C   UNL     1     -11.248   4.067   6.729  1.00  0.00     0.000 C 
BRANCH   3   4
ATOM      4  C   UNL     1     -11.172   4.257   8.256  1.00  0.00     0.000 C 
BRANCH   4   5
ATOM      5  C   UNL     1     -10.074   5.265   8.661  1.00  0.00     0.000 C 
BRANCH   5   6
ATOM      6  C   UNL     1     -10.099   6.567   7.841  1.00  0.00     0.000 C 
BRANCH   6   7
ATOM      7  C   UNL     1      -8.856   6.737   6.954  1.00  0.00     0.000 C 
BRANCH   7   8
ATOM      8  C   UNL     1      -9.207   7.274   5.555  1.00  0.00     0.000 C 
BRANCH   8   9
ATOM      9  C   UNL     1      -8.374   8.513   5.182  1.00  0.00     0.000 C 
BRANCH   9  10
ATOM     10  C   UNL     1      -7.693   9.150   6.404  1.00  0.00     0.006 C 
BRANCH  10  11
ATOM     11  C   UNL     1      -7.186  10.568   6.115  1.00  0.00     0.053 C 
BRANCH  11  12
ATOM     12  C   UNL     1      -6.427  11.101   7.289  1.00  0.00     0.041 C 
ATOM     13  O   UNL     1      -6.920  11.031   8.447  1.00  0.00    -0.550 OA
ATOM     14  O   UNL     1      -5.198  11.721   7.099  1.00  0.00    -0.550 OA
ENDBRANCH  11  12
ENDBRANCH  10  11
ENDBRANCH   9  10
ENDBRANCH   8   9
ENDBRANCH   7   8
ENDBRANCH   6   7
ENDBRANCH   5   6
ENDBRANCH   4   5
ENDBRANCH   3   4
ENDBRANCH   2   3
ENDBRANCH   1   2
BRANCH   1  15
ATOM     15  C   UNL     1     -13.297   5.442   3.806  1.00  0.00     0.000 C 
BRANCH  15  16
ATOM     16  C   UNL     1     -14.366   6.555   3.766  1.00  0.00     0.000 C 
BRANCH  16  17
ATOM     17  C   UNL     1     -13.975   7.817   4.553  1.00  0.00     0.000 C 
BRANCH  17  18
ATOM     18  C   UNL     1     -15.096   8.871   4.593  1.00  0.00    -0.000 C 
BRANCH  18  19
ATOM     19  C   UNL     1     -14.565  10.294   4.833  1.00  0.00    -0.000 C 
BRANCH  19  20
ATOM     20  C   UNL     1     -13.541  10.731   3.770  1.00  0.00    -0.000 C 
BRANCH  20  21
ATOM     21  C   UNL     1     -12.604  11.841   4.275  1.00  0.00    -0.000 C 
BRANCH  21  22
ATOM     22  C   UNL     1     -11.207  11.317   4.651  1.00  0.00    -0.000 C 
BRANCH  22  23
ATOM     23  C   UNL     1     -11.159  10.778   6.097  1.00  0.00    -0.000 C 
BRANCH  23  24
ATOM     24  C   UNL     1     -11.801  11.721   7.128  1.00  0.00    -0.000 C 
BRANCH  24  25
ATOM     25  C   UNL     1     -12.710  10.989   8.123  1.00  0.00    -0.003 C 
ATOM     26  C   UNL     1     -14.127  11.555   8.095  1.00  0.00     0.004 C 
ENDBRANCH  24  25
ENDBRANCH  23  24
ENDBRANCH  22  23
ENDBRANCH  21  22
ENDBRANCH  20  21
ENDBRANCH  19  20
ENDBRANCH  18  19
ENDBRANCH  17  18
ENDBRANCH  16  17
ENDBRANCH  15  16
ENDBRANCH   1  15
TORSDOF 22
ENDMDL
