MODEL 1
REMARK VINA RESULT:    -2.756      0.000      0.000
REMARK INTER + INTRA:          -7.176
REMARK INTER:                  -5.012
REMARK INTRA:                  -2.165
REMARK UNBOUND:                -2.165
REMARK SMILES CCCCCCCCCCCCCCCC(=O)[O-]
REMARK SMILES IDX 9 1 10 2 11 3 12 4 13 5 14 6 15 7 16 8 17 9 18 10 8 11 7 12
REMARK SMILES IDX 6 13 5 14 4 15 3 16 2 17 1 18
REMARK H PARENT
REMARK Flexibility Score: inf
ROOT
ATOM      1  C   UNL     1       7.776  -1.187  -6.071  1.00  0.00     0.000 C 
ENDROOT
BRANCH   1   2
ATOM      2  C   UNL     1       8.885  -0.136  -6.228  1.00  0.00     0.000 C 
BRANCH   2   3
ATOM      3  C   UNL     1       8.289   1.267  -6.416  1.00  0.00     0.000 C 
BRANCH   3   4
ATOM      4  C   UNL     1       7.056   1.279  -7.336  1.00  0.00     0.000 C 
BRANCH   4   5
ATOM      5  C   UNL     1       5.795   1.918  -6.725  1.00  0.00     0.000 C 
BRANCH   5   6
ATOM      6  C   UNL     1       4.589   0.967  -6.710  1.00  0.00     0.006 C 
BRANCH   6   7
ATOM      7  C   UNL     1       4.026   0.818  -5.292  1.00  0.00     0.053 C 
BRANCH   7   8
ATOM      8  C   UNL     1       2.813   1.675  -5.118  1.00  0.00     0.041 C 
ATOM      9  O   UNL     1       2.173   2.080  -6.124  1.00  0.00    -0.550 OA
ATOM     10  O   UNL     1       2.416   2.066  -3.845  1.00  0.00    -0.550 OA
ENDBRANCH   7   8
ENDBRANCH   6   7
ENDBRANCH   5   6
ENDBRANCH   4   5
ENDBRANCH   3   4
ENDBRANCH   2   3
ENDBRANCH   1   2
BRANCH   1  11
ATOM     11  C   UNL     1       8.193  -2.373  -5.183  1.00  0.00     0.000 C 
BRANCH  11  12
ATOM     12  C   UNL     1       7.072  -2.947  -4.298  1.00  0.00    -0.000 C 
BRANCH  12  13
ATOM     13  C   UNL     1       5.697  -2.333  -4.598  1.00  0.00    -0.000 C 
BRANCH  13  14
ATOM     14  C   UNL     1       4.599  -3.405  -4.574  1.00  0.00    -0.000 C 
BRANCH  14  15
ATOM     15  C   UNL     1       4.056  -3.738  -5.975  1.00  0.00    -0.000 C 
BRANCH  15  16
ATOM     16  C   UNL     1       4.256  -2.634  -7.032  1.00  0.00    -0.000 C 
BRANCH  16  17
ATOM     17  C   UNL     1       5.234  -2.989  -8.166  1.00  0.00    -0.003 C 
ATOM     18  C   UNL     1       5.610  -1.784  -9.028  1.00  0.00     0.004 C 
ENDBRANCH  16  17
ENDBRANCH  15  16
ENDBRANCH  14  15
ENDBRANCH  13  14
ENDBRANCH  12  13
ENDBRANCH  11  12
ENDBRANCH   1  11
TORSDOF 14
ENDMDL
MODEL 2
REMARK VINA RESULT:    -2.748      1.743      2.901
REMARK INTER + INTRA:          -7.162
REMARK INTER:                  -5.632
REMARK INTRA:                  -1.530
REMARK UNBOUND:                -2.165
REMARK SMILES CCCCCCCCCCCCCCCC(=O)[O-]
REMARK SMILES IDX 9 1 10 2 11 3 12 4 13 5 14 6 15 7 16 8 17 9 18 10 8 11 7 12
REMARK SMILES IDX 6 13 5 14 4 15 3 16 2 17 1 18
REMARK H PARENT
REMARK Flexibility Score: inf
ROOT
ATOM      1  C   UNL     1      10.276   0.045  -6.379  1.00  0.00     0.000 C 
ENDROOT
BRANCH   1   2
ATOM      2  C   UNL     1       9.175   0.692  -7.232  1.00  0.00     0.000 C 
BRANCH   2   3
ATOM      3  C   UNL     1       7.958   1.060  -6.371  1.00  0.00     0.000 C 
BRANCH   3   4
ATOM      4  C   UNL     1       6.710   0.224  -6.704  1.00  0.00     0.000 C 
BRANCH   4   5
ATOM      5  C   UNL     1       5.405   1.030  -6.841  1.00  0.00     0.000 C 
BRANCH   5   6
ATOM      6  C   UNL     1       4.336   0.615  -5.820  1.00  0.00     0.006 C 
BRANCH   6   7
ATOM      7  C   UNL     1       3.107   1.526  -5.913  1.00  0.00     0.053 C 
BRANCH   7   8
ATOM      8  C   UNL     1       2.844   2.187  -4.597  1.00  0.00     0.041 C 
ATOM      9  O   UNL     1       3.200   1.629  -3.526  1.00  0.00    -0.550 OA
ATOM     10  O   UNL     1       2.162   3.396  -4.551  1.00  0.00    -0.550 OA
ENDBRANCH   7   8
ENDBRANCH   6   7
ENDBRANCH   5   6
ENDBRANCH   4   5
ENDBRANCH   3   4
ENDBRANCH   2   3
ENDBRANCH   1   2
BRANCH   1  11
ATOM     11  C   UNL     1       9.999   0.136  -4.868  1.00  0.00     0.000 C 
BRANCH  11  12
ATOM     12  C   UNL     1       9.683  -1.206  -4.183  1.00  0.00    -0.000 C 
BRANCH  12  13
ATOM     13  C   UNL     1       9.663  -2.389  -5.163  1.00  0.00    -0.000 C 
BRANCH  13  14
ATOM     14  C   UNL     1       8.291  -3.077  -5.165  1.00  0.00    -0.000 C 
BRANCH  14  15
ATOM     15  C   UNL     1       7.266  -2.372  -4.259  1.00  0.00    -0.000 C 
BRANCH  15  16
ATOM     16  C   UNL     1       5.793  -2.738  -4.532  1.00  0.00    -0.000 C 
BRANCH  16  17
ATOM     17  C   UNL     1       5.429  -4.209  -4.264  1.00  0.00    -0.003 C 
ATOM     18  C   UNL     1       3.945  -4.409  -3.958  1.00  0.00     0.004 C 
ENDBRANCH  16  17
ENDBRANCH  15  16
ENDBRANCH  14  15
ENDBRANCH  13  14
ENDBRANCH  12  13
ENDBRANCH  11  12
ENDBRANCH   1  11
TORSDOF 14
ENDMDL
MODEL 3
REMARK VINA RESULT:    -2.717     10.556     12.448
REMARK INTER + INTRA:          -7.106
REMARK INTER:                  -5.625
REMARK INTRA:                  -1.481
REMARK UNBOUND:                -2.165
REMARK SMILES CCCCCCCCCCCCCCCC(=O)[O-]
REMARK SMILES IDX 9 1 10 2 11 3 12 4 13 5 14 6 15 7 16 8 17 9 18 10 8 11 7 12
REMARK SMILES IDX 6 13 5 14 4 15 3 16 2 17 1 18
REMARK H PARENT
REMARK Flexibility Score: inf
ROOT
ATOM      1  C   UNL     1       0.977   6.878   3.730  1.00  0.00     0.000 C 
ENDROOT
BRANCH   1   2
ATOM      2  C   UNL     1       0.045   5.746   3.272  1.00  0.00     0.000 C 
BRANCH   2   3
ATOM      3  C   UNL     1      -1.328   5.857   3.950  1.00  0.00     0.000 C 
BRANCH   3   4
ATOM      4  C   UNL     1      -2.486   5.992   2.945  1.00  0.00     0.000 C 
BRANCH   4   5
ATOM      5  C   UNL     1      -2.459   4.981   1.784  1.00  0.00     0.000 C 
BRANCH   5   6
ATOM      6  C   UNL     1      -2.617   5.644   0.408  1.00  0.00     0.006 C 
BRANCH   6   7
ATOM      7  C   UNL     1      -2.814   4.592  -0.689  1.00  0.00     0.053 C 
BRANCH   7   8
ATOM      8  C   UNL     1      -3.275   5.238  -1.957  1.00  0.00     0.041 C 
ATOM      9  O   UNL     1      -4.212   4.726  -2.624  1.00  0.00    -0.550 OA
ATOM     10  O   UNL     1      -2.636   6.377  -2.428  1.00  0.00    -0.550 OA
ENDBRANCH   7   8
ENDBRANCH   6   7
ENDBRANCH   5   6
ENDBRANCH   4   5
ENDBRANCH   3   4
ENDBRANCH   2   3
ENDBRANCH   1   2
BRANCH   1  11
ATOM     11  C   UNL     1       2.442   6.429   3.875  1.00  0.00     0.000 C 
BRANCH  11  12
ATOM     12  C   UNL     1       3.211   6.285   2.550  1.00  0.00    -0.000 C 
BRANCH  12  13
ATOM     13  C   UNL     1       4.032   4.989   2.470  1.00  0.00    -0.000 C 
BRANCH  13  14
ATOM     14  C   UNL     1       3.773   4.100   3.694  1.00  0.00    -0.000 C 
BRANCH  14  15
ATOM     15  C   UNL     1       2.715   3.013   3.431  1.00  0.00    -0.000 C 
BRANCH  15  16
ATOM     16  C   UNL     1       2.036   2.445   4.694  1.00  0.00    -0.000 C 
BRANCH  16  17
ATOM     17  C   UNL     1       2.130   3.341   5.941  1.00  0.00    -0.003 C 
ATOM     18  C   UNL     1       0.786   3.949   6.341  1.00  0.00     0.004 C 
ENDBRANCH  16  17
ENDBRANCH  15  16
ENDBRANCH  14  15
ENDBRANCH  13  14
ENDBRANCH  12  13
ENDBRANCH  11  12
ENDBRANCH   1  11
TORSDOF 14
ENDMDL
MODEL 4
REMARK VINA RESULT:    -2.704     11.145     13.405
REMARK INTER + INTRA:          -7.082
REMARK INTER:                  -6.031
REMARK INTRA:                  -1.051
REMARK UNBOUND:                -2.165
REMARK SMILES CCCCCCCCCCCCCCCC(=O)[O-]
REMARK SMILES IDX 9 1 10 2 11 3 12 4 13 5 14 6 15 7 16 8 17 9 18 10 8 11 7 12
REMARK SMILES IDX 6 13 5 14 4 15 3 16 2 17 1 18
REMARK H PARENT
REMARK Flexibility Score: inf
ROOT
ATOM      1  C   UNL     1       1.014  -2.153   6.471  1.00  0.00     0.000 C 
ENDROOT
BRANCH   1   2
ATOM      2  C   UNL     1       1.149  -3.597   5.964  1.00  0.00     0.000 C 
BRANCH   2   3
ATOM      3  C   UNL     1       0.591  -3.733   4.539  1.00  0.00     0.000 C 
BRANCH   3   4
ATOM      4  C   UNL     1      -0.191  -5.041   4.322  1.00  0.00     0.000 C 
BRANCH   4   5
ATOM      5  C   UNL     1      -1.584  -4.868   3.689  1.00  0.00     0.000 C 
BRANCH   5   6
ATOM      6  C   UNL     1      -2.046  -3.404   3.649  1.00  0.00     0.006 C 
BRANCH   6   7
ATOM      7  C   UNL     1      -3.552  -3.311   3.381  1.00  0.00     0.053 C 
BRANCH   7   8
ATOM      8  C   UNL     1      -4.287  -2.956   4.634  1.00  0.00     0.041 C 
ATOM      9  O   UNL     1      -3.650  -2.649   5.677  1.00  0.00    -0.550 OA
ATOM     10  O   UNL     1      -5.674  -3.010   4.665  1.00  0.00    -0.550 OA
ENDBRANCH   7   8
ENDBRANCH   6   7
ENDBRANCH   5   6
ENDBRANCH   4   5
ENDBRANCH   3   4
ENDBRANCH   2   3
ENDBRANCH   1   2
BRANCH   1  11
ATOM     11  C   UNL     1       0.323  -1.222   5.459  1.00  0.00     0.000 C 
BRANCH  11  12
ATOM     12  C   UNL     1       0.933   0.188   5.353  1.00  0.00    -0.000 C 
BRANCH  12  13
ATOM     13  C   UNL     1       2.055   0.434   6.373  1.00  0.00    -0.000 C 
BRANCH  13  14
ATOM     14  C   UNL     1       2.596   1.866   6.259  1.00  0.00    -0.000 C 
BRANCH  14  15
ATOM     15  C   UNL     1       1.716   2.771   5.378  1.00  0.00    -0.000 C 
BRANCH  15  16
ATOM     16  C   UNL     1       2.474   3.875   4.614  1.00  0.00    -0.000 C 
BRANCH  16  17
ATOM     17  C   UNL     1       3.208   3.402   3.347  1.00  0.00    -0.003 C 
ATOM     18  C   UNL     1       4.028   4.509   2.685  1.00  0.00     0.004 C 
ENDBRANCH  16  17
ENDBRANCH  15  16
ENDBRANCH  14  15
ENDBRANCH  13  14
ENDBRANCH  12  13
ENDBRANCH  11  12
ENDBRANCH   1  11
TORSDOF 14
ENDMDL
MODEL 5
REMARK VINA RESULT:    -2.691     10.350     12.076
REMARK INTER + INTRA:          -7.058
REMARK INTER:                  -5.680
REMARK INTRA:                  -1.378
REMARK UNBOUND:                -2.165
REMARK SMILES CCCCCCCCCCCCCCCC(=O)[O-]
REMARK SMILES IDX 9 1 10 2 11 3 12 4 13 5 14 6 15 7 16 8 17 9 18 10 8 11 7 12
REMARK SMILES IDX 6 13 5 14 4 15 3 16 2 17 1 18
REMARK H PARENT
REMARK Flexibility Score: inf
ROOT
ATOM      1  C   UNL     1       3.011   3.595   5.883  1.00  0.00     0.000 C 
ENDROOT
BRANCH   1   2
ATOM      2  C   UNL     1       2.189   2.951   4.757  1.00  0.00     0.000 C 
BRANCH   2   3
ATOM      3  C   UNL     1       2.841   3.201   3.389  1.00  0.00     0.000 C 
BRANCH   3   4
ATOM      4  C   UNL     1       3.898   4.320   3.422  1.00  0.00     0.000 C 
BRANCH   4   5
ATOM      5  C   UNL     1       4.297   4.877   2.043  1.00  0.00     0.000 C 
BRANCH   5   6
ATOM      6  C   UNL     1       5.292   6.043   2.133  1.00  0.00     0.006 C 
BRANCH   6   7
ATOM      7  C   UNL     1       6.717   5.574   1.816  1.00  0.00     0.053 C 
BRANCH   7   8
ATOM      8  C   UNL     1       6.870   5.318   0.351  1.00  0.00     0.041 C 
ATOM      9  O   UNL     1       7.638   4.407  -0.056  1.00  0.00    -0.550 OA
ATOM     10  O   UNL     1       6.203   6.119  -0.568  1.00  0.00    -0.550 OA
ENDBRANCH   7   8
ENDBRANCH   6   7
ENDBRANCH   5   6
ENDBRANCH   4   5
ENDBRANCH   3   4
ENDBRANCH   2   3
ENDBRANCH   1   2
BRANCH   1  11
ATOM     11  C   UNL     1       3.609   2.564   6.856  1.00  0.00     0.000 C 
BRANCH  11  12
ATOM     12  C   UNL     1       4.689   1.649   6.250  1.00  0.00    -0.000 C 
BRANCH  12  13
ATOM     13  C   UNL     1       4.909   0.362   7.059  1.00  0.00    -0.000 C 
BRANCH  13  14
ATOM     14  C   UNL     1       3.728   0.099   8.003  1.00  0.00    -0.000 C 
BRANCH  14  15
ATOM     15  C   UNL     1       2.643  -0.791   7.371  1.00  0.00    -0.000 C 
BRANCH  15  16
ATOM     16  C   UNL     1       1.195  -0.438   7.769  1.00  0.00    -0.000 C 
BRANCH  16  17
ATOM     17  C   UNL     1       0.361   0.229   6.662  1.00  0.00    -0.003 C 
ATOM     18  C   UNL     1       0.612  -0.375   5.281  1.00  0.00     0.004 C 
ENDBRANCH  16  17
ENDBRANCH  15  16
ENDBRANCH  14  15
ENDBRANCH  13  14
ENDBRANCH  12  13
ENDBRANCH  11  12
ENDBRANCH   1  11
TORSDOF 14
ENDMDL
MODEL 6
REMARK VINA RESULT:    -2.675      1.596      2.995
REMARK INTER + INTRA:          -7.029
REMARK INTER:                  -5.312
REMARK INTRA:                  -1.716
REMARK UNBOUND:                -2.165
REMARK SMILES CCCCCCCCCCCCCCCC(=O)[O-]
REMARK SMILES IDX 9 1 10 2 11 3 12 4 13 5 14 6 15 7 16 8 17 9 18 10 8 11 7 12
REMARK SMILES IDX 6 13 5 14 4 15 3 16 2 17 1 18
REMARK H PARENT
REMARK Flexibility Score: inf
ROOT
ATOM      1  C   UNL     1       8.036  -2.602  -4.291  1.00  0.00     0.000 C 
ENDROOT
BRANCH   1   2
ATOM      2  C   UNL     1       8.576  -1.642  -5.361  1.00  0.00     0.000 C 
BRANCH   2   3
ATOM      3  C   UNL     1       7.581  -1.497  -6.523  1.00  0.00     0.000 C 
BRANCH   3   4
ATOM      4  C   UNL     1       6.953  -0.095  -6.606  1.00  0.00     0.000 C 
BRANCH   4   5
ATOM      5  C   UNL     1       5.418  -0.076  -6.726  1.00  0.00     0.000 C 
BRANCH   5   6
ATOM      6  C   UNL     1       4.731   0.571  -5.515  1.00  0.00     0.006 C 
BRANCH   6   7
ATOM      7  C   UNL     1       3.324   1.058  -5.879  1.00  0.00     0.053 C 
BRANCH   7   8
ATOM      8  C   UNL     1       2.855   2.084  -4.896  1.00  0.00     0.041 C 
ATOM      9  O   UNL     1       2.914   1.851  -3.660  1.00  0.00    -0.550 OA
ATOM     10  O   UNL     1       2.305   3.277  -5.347  1.00  0.00    -0.550 OA
ENDBRANCH   7   8
ENDBRANCH   6   7
ENDBRANCH   5   6
ENDBRANCH   4   5
ENDBRANCH   3   4
ENDBRANCH   2   3
ENDBRANCH   1   2
BRANCH   1  11
ATOM     11  C   UNL     1       7.303  -3.817  -4.889  1.00  0.00     0.000 C 
BRANCH  11  12
ATOM     12  C   UNL     1       5.965  -4.165  -4.211  1.00  0.00    -0.000 C 
BRANCH  12  13
ATOM     13  C   UNL     1       4.852  -3.155  -4.527  1.00  0.00    -0.000 C 
BRANCH  13  14
ATOM     14  C   UNL     1       4.214  -3.449  -5.891  1.00  0.00    -0.000 C 
BRANCH  14  15
ATOM     15  C   UNL     1       3.293  -4.682  -5.868  1.00  0.00    -0.000 C 
BRANCH  15  16
ATOM     16  C   UNL     1       2.394  -4.804  -4.621  1.00  0.00    -0.000 C 
BRANCH  16  17
ATOM     17  C   UNL     1       2.529  -6.128  -3.850  1.00  0.00    -0.003 C 
ATOM     18  C   UNL     1       3.295  -5.978  -2.536  1.00  0.00     0.004 C 
ENDBRANCH  16  17
ENDBRANCH  15  16
ENDBRANCH  14  15
ENDBRANCH  13  14
ENDBRANCH  12  13
ENDBRANCH  11  12
ENDBRANCH   1  11
TORSDOF 14
ENDMDL
MODEL 7
REMARK VINA RESULT:    -2.650     10.841     13.001
REMARK INTER + INTRA:          -6.983
REMARK INTER:                  -4.917
REMARK INTRA:                  -2.066
REMARK UNBOUND:                -2.165
REMARK SMILES CCCCCCCCCCCCCCCC(=O)[O-]
REMARK SMILES IDX 9 1 10 2 11 3 12 4 13 5 14 6 15 7 16 8 17 9 18 10 8 11 7 12
REMARK SMILES IDX 6 13 5 14 4 15 3 16 2 17 1 18
REMARK H PARENT
REMARK Flexibility Score: inf
ROOT
ATOM      1  C   UNL     1       1.656   5.610   7.102  1.00  0.00     0.000 C 
ENDROOT
BRANCH   1   2
ATOM      2  C   UNL     1       0.744   4.498   6.562  1.00  0.00     0.000 C 
BRANCH   2   3
ATOM      3  C   UNL     1       0.231   4.843   5.157  1.00  0.00     0.000 C 
BRANCH   3   4
ATOM      4  C   UNL     1       1.330   4.774   4.081  1.00  0.00     0.000 C 
BRANCH   4   5
ATOM      5  C   UNL     1       2.136   3.463   4.058  1.00  0.00     0.000 C 
BRANCH   5   6
ATOM      6  C   UNL     1       3.392   3.547   3.180  1.00  0.00     0.006 C 
BRANCH   6   7
ATOM      7  C   UNL     1       4.106   4.890   3.372  1.00  0.00     0.053 C 
BRANCH   7   8
ATOM      8  C   UNL     1       4.340   5.552   2.052  1.00  0.00     0.041 C 
ATOM      9  O   UNL     1       3.583   6.482   1.666  1.00  0.00    -0.550 OA
ATOM     10  O   UNL     1       5.365   5.110   1.224  1.00  0.00    -0.550 OA
ENDBRANCH   7   8
ENDBRANCH   6   7
ENDBRANCH   5   6
ENDBRANCH   4   5
ENDBRANCH   3   4
ENDBRANCH   2   3
ENDBRANCH   1   2
BRANCH   1  11
ATOM     11  C   UNL     1       3.102   5.141   7.339  1.00  0.00     0.000 C 
BRANCH  11  12
ATOM     12  C   UNL     1       3.249   3.656   7.717  1.00  0.00    -0.000 C 
BRANCH  12  13
ATOM     13  C   UNL     1       4.582   3.048   7.254  1.00  0.00    -0.000 C 
BRANCH  13  14
ATOM     14  C   UNL     1       4.345   1.847   6.328  1.00  0.00    -0.000 C 
BRANCH  14  15
ATOM     15  C   UNL     1       4.132   0.531   7.097  1.00  0.00    -0.000 C 
BRANCH  15  16
ATOM     16  C   UNL     1       2.697  -0.032   7.043  1.00  0.00    -0.000 C 
BRANCH  16  17
ATOM     17  C   UNL     1       1.751   0.695   6.072  1.00  0.00    -0.003 C 
ATOM     18  C   UNL     1       0.646  -0.210   5.528  1.00  0.00     0.004 C 
ENDBRANCH  16  17
ENDBRANCH  15  16
ENDBRANCH  14  15
ENDBRANCH  13  14
ENDBRANCH  12  13
ENDBRANCH  11  12
ENDBRANCH   1  11
TORSDOF 14
ENDMDL
MODEL 8
REMARK VINA RESULT:    -2.630     10.556     12.907
REMARK INTER + INTRA:          -6.947
REMARK INTER:                  -6.377
REMARK INTRA:                  -0.570
REMARK UNBOUND:                -2.165
REMARK SMILES CCCCCCCCCCCCCCCC(=O)[O-]
REMARK SMILES IDX 9 1 10 2 11 3 12 4 13 5 14 6 15 7 16 8 17 9 18 10 8 11 7 12
REMARK SMILES IDX 6 13 5 14 4 15 3 16 2 17 1 18
REMARK H PARENT
REMARK Flexibility Score: inf
ROOT
ATOM      1  C   UNL     1       2.348   1.077   6.780  1.00  0.00     0.000 C 
ENDROOT
BRANCH   1   2
ATOM      2  C   UNL     1       2.255  -0.456   6.791  1.00  0.00     0.000 C 
BRANCH   2   3
ATOM      3  C   UNL     1       0.793  -0.919   6.709  1.00  0.00     0.000 C 
BRANCH   3   4
ATOM      4  C   UNL     1       0.341  -1.235   5.272  1.00  0.00     0.000 C 
BRANCH   4   5
ATOM      5  C   UNL     1       0.224  -2.735   4.944  1.00  0.00     0.000 C 
BRANCH   5   6
ATOM      6  C   UNL     1      -0.828  -3.030   3.864  1.00  0.00     0.006 C 
BRANCH   6   7
ATOM      7  C   UNL     1      -2.031  -3.770   4.458  1.00  0.00     0.053 C 
BRANCH   7   8
ATOM      8  C   UNL     1      -3.141  -3.853   3.459  1.00  0.00     0.041 C 
ATOM      9  O   UNL     1      -3.980  -2.918   3.366  1.00  0.00    -0.550 OA
ATOM     10  O   UNL     1      -3.279  -4.984   2.666  1.00  0.00    -0.550 OA
ENDBRANCH   7   8
ENDBRANCH   6   7
ENDBRANCH   5   6
ENDBRANCH   4   5
ENDBRANCH   3   4
ENDBRANCH   2   3
ENDBRANCH   1   2
BRANCH   1  11
ATOM     11  C   UNL     1       3.794   1.592   6.672  1.00  0.00     0.000 C 
BRANCH  11  12
ATOM     12  C   UNL     1       4.011   2.707   5.632  1.00  0.00    -0.000 C 
BRANCH  12  13
ATOM     13  C   UNL     1       2.783   2.943   4.741  1.00  0.00    -0.000 C 
BRANCH  13  14
ATOM     14  C   UNL     1       3.204   3.302   3.310  1.00  0.00    -0.000 C 
BRANCH  14  15
ATOM     15  C   UNL     1       4.110   4.545   3.246  1.00  0.00    -0.000 C 
BRANCH  15  16
ATOM     16  C   UNL     1       4.440   5.040   1.823  1.00  0.00    -0.000 C 
BRANCH  16  17
ATOM     17  C   UNL     1       5.760   5.819   1.697  1.00  0.00    -0.003 C 
ATOM     18  C   UNL     1       6.290   6.317   3.041  1.00  0.00     0.004 C 
ENDBRANCH  16  17
ENDBRANCH  15  16
ENDBRANCH  14  15
ENDBRANCH  13  14
ENDBRANCH  12  13
ENDBRANCH  11  12
ENDBRANCH   1  11
TORSDOF 14
ENDMDL
MODEL 9
REMARK VINA RESULT:    -2.628      9.972     12.162
REMARK INTER + INTRA:          -6.944
REMARK INTER:                  -4.922
REMARK INTRA:                  -2.021
REMARK UNBOUND:                -2.165
REMARK SMILES CCCCCCCCCCCCCCCC(=O)[O-]
REMARK SMILES IDX 9 1 10 2 11 3 12 4 13 5 14 6 15 7 16 8 17 9 18 10 8 11 7 12
REMARK SMILES IDX 6 13 5 14 4 15 3 16 2 17 1 18
REMARK H PARENT
REMARK Flexibility Score: inf
ROOT
ATOM      1  C   UNL     1       4.274   6.094   5.851  1.00  0.00     0.000 C 
ENDROOT
BRANCH   1   2
ATOM      2  C   UNL     1       4.974   6.087   4.484  1.00  0.00     0.000 C 
BRANCH   2   3
ATOM      3  C   UNL     1       4.232   6.983   3.481  1.00  0.00     0.000 C 
BRANCH   3   4
ATOM      4  C   UNL     1       3.948   6.280   2.142  1.00  0.00     0.000 C 
BRANCH   4   5
ATOM      5  C   UNL     1       4.807   5.031   1.869  1.00  0.00     0.000 C 
BRANCH   5   6
ATOM      6  C   UNL     1       5.801   5.228   0.716  1.00  0.00     0.006 C 
BRANCH   6   7
ATOM      7  C   UNL     1       7.175   5.654   1.244  1.00  0.00     0.053 C 
BRANCH   7   8
ATOM      8  C   UNL     1       8.254   5.231   0.299  1.00  0.00     0.041 C 
ATOM      9  O   UNL     1       8.188   4.114  -0.279  1.00  0.00    -0.550 OA
ATOM     10  O   UNL     1       9.359   6.048   0.094  1.00  0.00    -0.550 OA
ENDBRANCH   7   8
ENDBRANCH   6   7
ENDBRANCH   5   6
ENDBRANCH   4   5
ENDBRANCH   3   4
ENDBRANCH   2   3
ENDBRANCH   1   2
BRANCH   1  11
ATOM     11  C   UNL     1       2.776   6.434   5.757  1.00  0.00     0.000 C 
BRANCH  11  12
ATOM     12  C   UNL     1       1.829   5.222   5.826  1.00  0.00    -0.000 C 
BRANCH  12  13
ATOM     13  C   UNL     1       1.339   4.765   4.444  1.00  0.00    -0.000 C 
BRANCH  13  14
ATOM     14  C   UNL     1       2.145   3.557   3.947  1.00  0.00    -0.000 C 
BRANCH  14  15
ATOM     15  C   UNL     1       2.582   2.618   5.087  1.00  0.00    -0.000 C 
BRANCH  15  16
ATOM     16  C   UNL     1       4.106   2.509   5.295  1.00  0.00    -0.000 C 
BRANCH  16  17
ATOM     17  C   UNL     1       4.536   1.938   6.657  1.00  0.00    -0.003 C 
ATOM     18  C   UNL     1       3.886   0.591   6.971  1.00  0.00     0.004 C 
ENDBRANCH  16  17
ENDBRANCH  15  16
ENDBRANCH  14  15
ENDBRANCH  13  14
ENDBRANCH  12  13
ENDBRANCH  11  12
ENDBRANCH   1  11
TORSDOF 14
ENDMDL
