MODEL 1
REMARK VINA RESULT:    -4.624      0.000      0.000
REMARK INTER + INTRA:         -13.978
REMARK INTER:                 -10.572
REMARK INTRA:                  -3.407
REMARK UNBOUND:                -3.407
REMARK SMILES CCCCCCCCCCCCCCCCCCCCCCCC(=O)[O-]
REMARK SMILES IDX 13 1 14 2 15 3 16 4 17 5 18 6 19 7 20 8 21 9 22 10 23 11
REMARK SMILES IDX 24 12 25 13 26 14 12 15 11 16 10 17 9 18 8 19 7 20 6 21 5 22
REMARK SMILES IDX 4 23 3 24 2 25 1 26
REMARK H PARENT
REMARK Flexibility Score: inf
ROOT
ATOM      1  C   UNL     1      20.604  54.302 160.413  1.00  0.00     0.000 C 
ENDROOT
BRANCH   1   2
ATOM      2  C   UNL     1      19.431  53.744 159.588  1.00  0.00     0.000 C 
BRANCH   2   3
ATOM      3  C   UNL     1      19.260  54.459 158.240  1.00  0.00     0.000 C 
BRANCH   3   4
ATOM      4  C   UNL     1      19.013  55.962 158.441  1.00  0.00     0.000 C 
BRANCH   4   5
ATOM      5  C   UNL     1      17.552  56.290 158.801  1.00  0.00     0.000 C 
BRANCH   5   6
ATOM      6  C   UNL     1      16.816  57.193 157.793  1.00  0.00     0.000 C 
BRANCH   6   7
ATOM      7  C   UNL     1      15.716  56.452 157.016  1.00  0.00     0.000 C 
BRANCH   7   8
ATOM      8  C   UNL     1      15.671  54.951 157.343  1.00  0.00     0.000 C 
BRANCH   8   9
ATOM      9  C   UNL     1      14.395  54.267 156.823  1.00  0.00     0.000 C 
BRANCH   9  10
ATOM     10  C   UNL     1      13.902  53.135 157.744  1.00  0.00     0.006 C 
BRANCH  10  11
ATOM     11  C   UNL     1      15.034  52.335 158.410  1.00  0.00     0.053 C 
BRANCH  11  12
ATOM     12  C   UNL     1      14.568  51.569 159.611  1.00  0.00     0.041 C 
ATOM     13  O   UNL     1      15.303  50.681 160.120  1.00  0.00    -0.550 OA
ATOM     14  O   UNL     1      13.340  51.858 160.191  1.00  0.00    -0.550 OA
ENDBRANCH  11  12
ENDBRANCH  10  11
ENDBRANCH   9  10
ENDBRANCH   8   9
ENDBRANCH   7   8
ENDBRANCH   6   7
ENDBRANCH   5   6
ENDBRANCH   4   5
ENDBRANCH   3   4
ENDBRANCH   2   3
ENDBRANCH   1   2
BRANCH   1  15
ATOM     15  C   UNL     1      20.322  54.468 161.920  1.00  0.00     0.000 C 
BRANCH  15  16
ATOM     16  C   UNL     1      18.962  55.102 162.261  1.00  0.00     0.000 C 
BRANCH  16  17
ATOM     17  C   UNL     1      19.087  56.551 162.753  1.00  0.00     0.000 C 
BRANCH  17  18
ATOM     18  C   UNL     1      18.108  57.472 162.010  1.00  0.00    -0.000 C 
BRANCH  18  19
ATOM     19  C   UNL     1      18.812  58.617 161.256  1.00  0.00    -0.000 C 
BRANCH  19  20
ATOM     20  C   UNL     1      20.347  58.631 161.372  1.00  0.00    -0.000 C 
BRANCH  20  21
ATOM     21  C   UNL     1      21.053  58.614 160.006  1.00  0.00    -0.000 C 
BRANCH  21  22
ATOM     22  C   UNL     1      22.125  57.516 159.908  1.00  0.00    -0.000 C 
BRANCH  22  23
ATOM     23  C   UNL     1      23.557  58.070 159.999  1.00  0.00    -0.000 C 
BRANCH  23  24
ATOM     24  C   UNL     1      24.480  57.159 160.838  1.00  0.00    -0.000 C 
BRANCH  24  25
ATOM     25  C   UNL     1      23.723  56.098 161.653  1.00  0.00    -0.003 C 
ATOM     26  C   UNL     1      24.430  54.744 161.675  1.00  0.00     0.004 C 
ENDBRANCH  24  25
ENDBRANCH  23  24
ENDBRANCH  22  23
ENDBRANCH  21  22
ENDBRANCH  20  21
ENDBRANCH  19  20
ENDBRANCH  18  19
ENDBRANCH  17  18
ENDBRANCH  16  17
ENDBRANCH  15  16
ENDBRANCH   1  15
TORSDOF 22
ENDMDL
MODEL 2
REMARK VINA RESULT:    -4.602      3.282      7.611
REMARK INTER + INTRA:         -13.926
REMARK INTER:                 -10.057
REMARK INTRA:                  -3.869
REMARK UNBOUND:                -3.407
REMARK SMILES CCCCCCCCCCCCCCCCCCCCCCCC(=O)[O-]
REMARK SMILES IDX 13 1 14 2 15 3 16 4 17 5 18 6 19 7 20 8 21 9 22 10 23 11
REMARK SMILES IDX 24 12 25 13 26 14 12 15 11 16 10 17 9 18 8 19 7 20 6 21 5 22
REMARK SMILES IDX 4 23 3 24 2 25 1 26
REMARK H PARENT
REMARK Flexibility Score: inf
ROOT
ATOM      1  C   UNL     1      19.259  55.057 162.019  1.00  0.00     0.000 C 
ENDROOT
BRANCH   1   2
ATOM      2  C   UNL     1      18.977  56.568 161.948  1.00  0.00     0.000 C 
BRANCH   2   3
ATOM      3  C   UNL     1      17.742  56.902 161.097  1.00  0.00     0.000 C 
BRANCH   3   4
ATOM      4  C   UNL     1      18.054  58.018 160.089  1.00  0.00     0.000 C 
BRANCH   4   5
ATOM      5  C   UNL     1      19.259  57.696 159.186  1.00  0.00     0.000 C 
BRANCH   5   6
ATOM      6  C   UNL     1      20.186  58.887 158.879  1.00  0.00     0.000 C 
BRANCH   6   7
ATOM      7  C   UNL     1      21.092  59.263 160.063  1.00  0.00     0.000 C 
BRANCH   7   8
ATOM      8  C   UNL     1      22.583  59.047 159.756  1.00  0.00     0.000 C 
BRANCH   8   9
ATOM      9  C   UNL     1      22.957  57.559 159.642  1.00  0.00     0.000 C 
BRANCH   9  10
ATOM     10  C   UNL     1      22.450  56.719 160.829  1.00  0.00     0.006 C 
BRANCH  10  11
ATOM     11  C   UNL     1      23.014  55.288 160.867  1.00  0.00     0.053 C 
BRANCH  11  12
ATOM     12  C   UNL     1      24.256  55.182 161.701  1.00  0.00     0.041 C 
ATOM     13  O   UNL     1      24.648  56.168 162.380  1.00  0.00    -0.550 OA
ATOM     14  O   UNL     1      24.960  53.986 161.756  1.00  0.00    -0.550 OA
ENDBRANCH  11  12
ENDBRANCH  10  11
ENDBRANCH   9  10
ENDBRANCH   8   9
ENDBRANCH   7   8
ENDBRANCH   6   7
ENDBRANCH   5   6
ENDBRANCH   4   5
ENDBRANCH   3   4
ENDBRANCH   2   3
ENDBRANCH   1   2
BRANCH   1  15
ATOM     15  C   UNL     1      18.560  54.210 160.936  1.00  0.00     0.000 C 
BRANCH  15  16
ATOM     16  C   UNL     1      19.508  53.441 160.000  1.00  0.00     0.000 C 
BRANCH  16  17
ATOM     17  C   UNL     1      19.600  54.067 158.600  1.00  0.00     0.000 C 
BRANCH  17  18
ATOM     18  C   UNL     1      18.437  53.601 157.712  1.00  0.00    -0.000 C 
BRANCH  18  19
ATOM     19  C   UNL     1      17.781  54.753 156.925  1.00  0.00    -0.000 C 
BRANCH  19  20
ATOM     20  C   UNL     1      16.729  55.562 157.704  1.00  0.00    -0.000 C 
BRANCH  20  21
ATOM     21  C   UNL     1      15.406  55.722 156.937  1.00  0.00    -0.000 C 
BRANCH  21  22
ATOM     22  C   UNL     1      14.918  54.402 156.317  1.00  0.00    -0.000 C 
BRANCH  22  23
ATOM     23  C   UNL     1      14.188  53.501 157.328  1.00  0.00    -0.000 C 
BRANCH  23  24
ATOM     24  C   UNL     1      15.002  52.235 157.672  1.00  0.00    -0.000 C 
BRANCH  24  25
ATOM     25  C   UNL     1      15.313  52.089 159.170  1.00  0.00    -0.003 C 
ATOM     26  C   UNL     1      16.218  50.899 159.480  1.00  0.00     0.004 C 
ENDBRANCH  24  25
ENDBRANCH  23  24
ENDBRANCH  22  23
ENDBRANCH  21  22
ENDBRANCH  20  21
ENDBRANCH  19  20
ENDBRANCH  18  19
ENDBRANCH  17  18
ENDBRANCH  16  17
ENDBRANCH  15  16
ENDBRANCH   1  15
TORSDOF 22
ENDMDL
MODEL 3
REMARK VINA RESULT:    -4.579      3.619      7.262
REMARK INTER + INTRA:         -13.876
REMARK INTER:                 -10.378
REMARK INTRA:                  -3.498
REMARK UNBOUND:                -3.407
REMARK SMILES CCCCCCCCCCCCCCCCCCCCCCCC(=O)[O-]
REMARK SMILES IDX 13 1 14 2 15 3 16 4 17 5 18 6 19 7 20 8 21 9 22 10 23 11
REMARK SMILES IDX 24 12 25 13 26 14 12 15 11 16 10 17 9 18 8 19 7 20 6 21 5 22
REMARK SMILES IDX 4 23 3 24 2 25 1 26
REMARK H PARENT
REMARK Flexibility Score: inf
ROOT
ATOM      1  C   UNL     1      14.161  52.615 158.627  1.00  0.00     0.000 C 
ENDROOT
BRANCH   1   2
ATOM      2  C   UNL     1      15.381  52.103 159.414  1.00  0.00     0.000 C 
BRANCH   2   3
ATOM      3  C   UNL     1      16.563  51.736 158.506  1.00  0.00     0.000 C 
BRANCH   3   4
ATOM      4  C   UNL     1      17.725  52.725 158.687  1.00  0.00     0.000 C 
BRANCH   4   5
ATOM      5  C   UNL     1      17.681  53.466 160.036  1.00  0.00     0.000 C 
BRANCH   5   6
ATOM      6  C   UNL     1      19.038  53.993 160.538  1.00  0.00     0.000 C 
BRANCH   6   7
ATOM      7  C   UNL     1      20.167  53.821 159.509  1.00  0.00     0.000 C 
BRANCH   7   8
ATOM      8  C   UNL     1      21.517  53.489 160.166  1.00  0.00     0.000 C 
BRANCH   8   9
ATOM      9  C   UNL     1      22.505  54.669 160.125  1.00  0.00     0.000 C 
BRANCH   9  10
ATOM     10  C   UNL     1      22.960  55.120 161.525  1.00  0.00     0.006 C 
BRANCH  10  11
ATOM     11  C   UNL     1      24.444  54.840 161.818  1.00  0.00     0.053 C 
BRANCH  11  12
ATOM     12  C   UNL     1      25.290  56.075 161.734  1.00  0.00     0.041 C 
ATOM     13  O   UNL     1      26.474  56.062 162.167  1.00  0.00    -0.550 OA
ATOM     14  O   UNL     1      24.786  57.229 161.149  1.00  0.00    -0.550 OA
ENDBRANCH  11  12
ENDBRANCH  10  11
ENDBRANCH   9  10
ENDBRANCH   8   9
ENDBRANCH   7   8
ENDBRANCH   6   7
ENDBRANCH   5   6
ENDBRANCH   4   5
ENDBRANCH   3   4
ENDBRANCH   2   3
ENDBRANCH   1   2
BRANCH   1  15
ATOM     15  C   UNL     1      14.340  52.646 157.095  1.00  0.00     0.000 C 
BRANCH  15  16
ATOM     16  C   UNL     1      13.671  53.837 156.387  1.00  0.00     0.000 C 
BRANCH  16  17
ATOM     17  C   UNL     1      14.563  55.086 156.348  1.00  0.00     0.000 C 
BRANCH  17  18
ATOM     18  C   UNL     1      16.001  54.724 155.950  1.00  0.00    -0.000 C 
BRANCH  18  19
ATOM     19  C   UNL     1      17.056  55.625 156.618  1.00  0.00    -0.000 C 
BRANCH  19  20
ATOM     20  C   UNL     1      16.496  56.689 157.579  1.00  0.00    -0.000 C 
BRANCH  20  21
ATOM     21  C   UNL     1      17.317  56.823 158.872  1.00  0.00    -0.000 C 
BRANCH  21  22
ATOM     22  C   UNL     1      18.277  58.025 158.842  1.00  0.00    -0.000 C 
BRANCH  22  23
ATOM     23  C   UNL     1      19.754  57.606 158.746  1.00  0.00    -0.000 C 
BRANCH  23  24
ATOM     24  C   UNL     1      20.457  57.635 160.121  1.00  0.00    -0.000 C 
BRANCH  24  25
ATOM     25  C   UNL     1      19.561  58.147 161.260  1.00  0.00    -0.003 C 
ATOM     26  C   UNL     1      19.451  57.163 162.423  1.00  0.00     0.004 C 
ENDBRANCH  24  25
ENDBRANCH  23  24
ENDBRANCH  22  23
ENDBRANCH  21  22
ENDBRANCH  20  21
ENDBRANCH  19  20
ENDBRANCH  18  19
ENDBRANCH  17  18
ENDBRANCH  16  17
ENDBRANCH  15  16
ENDBRANCH   1  15
TORSDOF 22
ENDMDL
MODEL 4
REMARK VINA RESULT:    -4.566      2.609      4.944
REMARK INTER + INTRA:         -13.846
REMARK INTER:                 -10.082
REMARK INTRA:                  -3.764
REMARK UNBOUND:                -3.407
REMARK SMILES CCCCCCCCCCCCCCCCCCCCCCCC(=O)[O-]
REMARK SMILES IDX 13 1 14 2 15 3 16 4 17 5 18 6 19 7 20 8 21 9 22 10 23 11
REMARK SMILES IDX 24 12 25 13 26 14 12 15 11 16 10 17 9 18 8 19 7 20 6 21 5 22
REMARK SMILES IDX 4 23 3 24 2 25 1 26
REMARK H PARENT
REMARK Flexibility Score: inf
ROOT
ATOM      1  C   UNL     1      17.454  53.554 160.079  1.00  0.00     0.000 C 
ENDROOT
BRANCH   1   2
ATOM      2  C   UNL     1      17.017  52.385 159.178  1.00  0.00     0.000 C 
BRANCH   2   3
ATOM      3  C   UNL     1      15.785  51.647 159.720  1.00  0.00     0.000 C 
BRANCH   3   4
ATOM      4  C   UNL     1      14.491  52.228 159.127  1.00  0.00     0.000 C 
BRANCH   4   5
ATOM      5  C   UNL     1      14.594  52.513 157.617  1.00  0.00     0.000 C 
BRANCH   5   6
ATOM      6  C   UNL     1      13.478  53.403 157.041  1.00  0.00     0.000 C 
BRANCH   6   7
ATOM      7  C   UNL     1      14.016  54.614 156.262  1.00  0.00     0.000 C 
BRANCH   7   8
ATOM      8  C   UNL     1      15.413  55.046 156.736  1.00  0.00     0.000 C 
BRANCH   8   9
ATOM      9  C   UNL     1      15.536  56.569 156.916  1.00  0.00     0.000 C 
BRANCH   9  10
ATOM     10  C   UNL     1      16.795  56.983 157.700  1.00  0.00     0.006 C 
BRANCH  10  11
ATOM     11  C   UNL     1      17.750  57.894 156.910  1.00  0.00     0.053 C 
BRANCH  11  12
ATOM     12  C   UNL     1      18.924  57.150 156.350  1.00  0.00     0.041 C 
ATOM     13  O   UNL     1      19.969  57.772 156.020  1.00  0.00    -0.550 OA
ATOM     14  O   UNL     1      18.879  55.768 156.223  1.00  0.00    -0.550 OA
ENDBRANCH  11  12
ENDBRANCH  10  11
ENDBRANCH   9  10
ENDBRANCH   8   9
ENDBRANCH   7   8
ENDBRANCH   6   7
ENDBRANCH   5   6
ENDBRANCH   4   5
ENDBRANCH   3   4
ENDBRANCH   2   3
ENDBRANCH   1   2
BRANCH   1  15
ATOM     15  C   UNL     1      18.559  54.455 159.489  1.00  0.00     0.000 C 
BRANCH  15  16
ATOM     16  C   UNL     1      19.934  53.783 159.338  1.00  0.00     0.000 C 
BRANCH  16  17
ATOM     17  C   UNL     1      20.735  53.762 160.647  1.00  0.00     0.000 C 
BRANCH  17  18
ATOM     18  C   UNL     1      22.100  54.442 160.469  1.00  0.00    -0.000 C 
BRANCH  18  19
ATOM     19  C   UNL     1      22.466  55.375 161.639  1.00  0.00    -0.000 C 
BRANCH  19  20
ATOM     20  C   UNL     1      22.085  56.853 161.442  1.00  0.00    -0.000 C 
BRANCH  20  21
ATOM     21  C   UNL     1      21.975  57.253 159.960  1.00  0.00    -0.000 C 
BRANCH  21  22
ATOM     22  C   UNL     1      20.541  57.631 159.554  1.00  0.00    -0.000 C 
BRANCH  22  23
ATOM     23  C   UNL     1      19.796  58.410 160.652  1.00  0.00    -0.000 C 
BRANCH  23  24
ATOM     24  C   UNL     1      18.360  57.882 160.865  1.00  0.00    -0.000 C 
BRANCH  24  25
ATOM     25  C   UNL     1      18.062  57.475 162.317  1.00  0.00    -0.003 C 
ATOM     26  C   UNL     1      18.763  56.183 162.732  1.00  0.00     0.004 C 
ENDBRANCH  24  25
ENDBRANCH  23  24
ENDBRANCH  22  23
ENDBRANCH  21  22
ENDBRANCH  20  21
ENDBRANCH  19  20
ENDBRANCH  18  19
ENDBRANCH  17  18
ENDBRANCH  16  17
ENDBRANCH  15  16
ENDBRANCH   1  15
TORSDOF 22
ENDMDL
MODEL 5
REMARK VINA RESULT:    -4.564      3.078      5.503
REMARK INTER + INTRA:         -13.840
REMARK INTER:                 -10.376
REMARK INTRA:                  -3.464
REMARK UNBOUND:                -3.407
REMARK SMILES CCCCCCCCCCCCCCCCCCCCCCCC(=O)[O-]
REMARK SMILES IDX 13 1 14 2 15 3 16 4 17 5 18 6 19 7 20 8 21 9 22 10 23 11
REMARK SMILES IDX 24 12 25 13 26 14 12 15 11 16 10 17 9 18 8 19 7 20 6 21 5 22
REMARK SMILES IDX 4 23 3 24 2 25 1 26
REMARK H PARENT
REMARK Flexibility Score: inf
ROOT
ATOM      1  C   UNL     1      14.399  52.239 158.983  1.00  0.00     0.000 C 
ENDROOT
BRANCH   1   2
ATOM      2  C   UNL     1      14.003  52.997 157.703  1.00  0.00     0.000 C 
BRANCH   2   3
ATOM      3  C   UNL     1      14.973  52.745 156.540  1.00  0.00     0.000 C 
BRANCH   3   4
ATOM      4  C   UNL     1      15.552  54.066 156.009  1.00  0.00     0.000 C 
BRANCH   4   5
ATOM      5  C   UNL     1      15.073  55.296 156.802  1.00  0.00     0.000 C 
BRANCH   5   6
ATOM      6  C   UNL     1      15.760  56.623 156.431  1.00  0.00     0.000 C 
BRANCH   6   7
ATOM      7  C   UNL     1      16.640  57.181 157.562  1.00  0.00     0.000 C 
BRANCH   7   8
ATOM      8  C   UNL     1      18.137  57.150 157.214  1.00  0.00     0.000 C 
BRANCH   8   9
ATOM      9  C   UNL     1      19.030  57.580 158.391  1.00  0.00     0.000 C 
BRANCH   9  10
ATOM     10  C   UNL     1      18.284  57.592 159.738  1.00  0.00     0.006 C 
BRANCH  10  11
ATOM     11  C   UNL     1      18.205  58.981 160.394  1.00  0.00     0.053 C 
BRANCH  11  12
ATOM     12  C   UNL     1      19.476  59.363 161.089  1.00  0.00     0.041 C 
ATOM     13  O   UNL     1      19.617  59.139 162.321  1.00  0.00    -0.550 OA
ATOM     14  O   UNL     1      20.520  59.934 160.373  1.00  0.00    -0.550 OA
ENDBRANCH  11  12
ENDBRANCH  10  11
ENDBRANCH   9  10
ENDBRANCH   8   9
ENDBRANCH   7   8
ENDBRANCH   6   7
ENDBRANCH   5   6
ENDBRANCH   4   5
ENDBRANCH   3   4
ENDBRANCH   2   3
ENDBRANCH   1   2
BRANCH   1  15
ATOM     15  C   UNL     1      15.879  51.811 159.057  1.00  0.00     0.000 C 
BRANCH  15  16
ATOM     16  C   UNL     1      16.762  52.677 159.971  1.00  0.00     0.000 C 
BRANCH  16  17
ATOM     17  C   UNL     1      17.366  53.887 159.245  1.00  0.00     0.000 C 
BRANCH  17  18
ATOM     18  C   UNL     1      18.696  53.519 158.572  1.00  0.00    -0.000 C 
BRANCH  18  19
ATOM     19  C   UNL     1      19.910  54.213 159.216  1.00  0.00    -0.000 C 
BRANCH  19  20
ATOM     20  C   UNL     1      20.326  53.663 160.592  1.00  0.00    -0.000 C 
BRANCH  20  21
ATOM     21  C   UNL     1      19.708  54.445 161.763  1.00  0.00    -0.000 C 
BRANCH  21  22
ATOM     22  C   UNL     1      20.437  55.771 162.040  1.00  0.00    -0.000 C 
BRANCH  22  23
ATOM     23  C   UNL     1      21.962  55.602 162.146  1.00  0.00    -0.000 C 
BRANCH  23  24
ATOM     24  C   UNL     1      22.722  56.614 161.262  1.00  0.00    -0.000 C 
BRANCH  24  25
ATOM     25  C   UNL     1      24.213  56.283 161.087  1.00  0.00    -0.003 C 
ATOM     26  C   UNL     1      24.622  54.984 161.779  1.00  0.00     0.004 C 
ENDBRANCH  24  25
ENDBRANCH  23  24
ENDBRANCH  22  23
ENDBRANCH  21  22
ENDBRANCH  20  21
ENDBRANCH  19  20
ENDBRANCH  18  19
ENDBRANCH  17  18
ENDBRANCH  16  17
ENDBRANCH  15  16
ENDBRANCH   1  15
TORSDOF 22
ENDMDL
MODEL 6
REMARK VINA RESULT:    -4.525      3.429      6.132
REMARK INTER + INTRA:         -13.750
REMARK INTER:                  -9.565
REMARK INTRA:                  -4.186
REMARK UNBOUND:                -3.407
REMARK SMILES CCCCCCCCCCCCCCCCCCCCCCCC(=O)[O-]
REMARK SMILES IDX 13 1 14 2 15 3 16 4 17 5 18 6 19 7 20 8 21 9 22 10 23 11
REMARK SMILES IDX 24 12 25 13 26 14 12 15 11 16 10 17 9 18 8 19 7 20 6 21 5 22
REMARK SMILES IDX 4 23 3 24 2 25 1 26
REMARK H PARENT
REMARK Flexibility Score: inf
ROOT
ATOM      1  C   UNL     1      15.335  52.072 159.227  1.00  0.00     0.000 C 
ENDROOT
BRANCH   1   2
ATOM      2  C   UNL     1      14.062  52.597 158.538  1.00  0.00     0.000 C 
BRANCH   2   3
ATOM      3  C   UNL     1      14.227  52.746 157.019  1.00  0.00     0.000 C 
BRANCH   3   4
ATOM      4  C   UNL     1      13.983  54.197 156.578  1.00  0.00     0.000 C 
BRANCH   4   5
ATOM      5  C   UNL     1      15.267  54.913 156.120  1.00  0.00     0.000 C 
BRANCH   5   6
ATOM      6  C   UNL     1      15.861  55.908 157.135  1.00  0.00     0.000 C 
BRANCH   6   7
ATOM      7  C   UNL     1      16.312  57.227 156.488  1.00  0.00     0.000 C 
BRANCH   7   8
ATOM      8  C   UNL     1      17.598  57.784 157.121  1.00  0.00     0.000 C 
BRANCH   8   9
ATOM      9  C   UNL     1      18.613  56.682 157.472  1.00  0.00     0.000 C 
BRANCH   9  10
ATOM     10  C   UNL     1      19.869  57.225 158.178  1.00  0.00     0.006 C 
BRANCH  10  11
ATOM     11  C   UNL     1      20.132  58.719 157.922  1.00  0.00     0.053 C 
BRANCH  11  12
ATOM     12  C   UNL     1      21.581  59.078 158.048  1.00  0.00     0.041 C 
ATOM     13  O   UNL     1      22.415  58.220 158.443  1.00  0.00    -0.550 OA
ATOM     14  O   UNL     1      22.020  60.348 157.696  1.00  0.00    -0.550 OA
ENDBRANCH  11  12
ENDBRANCH  10  11
ENDBRANCH   9  10
ENDBRANCH   8   9
ENDBRANCH   7   8
ENDBRANCH   6   7
ENDBRANCH   5   6
ENDBRANCH   4   5
ENDBRANCH   3   4
ENDBRANCH   2   3
ENDBRANCH   1   2
BRANCH   1  15
ATOM     15  C   UNL     1      16.546  51.872 158.293  1.00  0.00     0.000 C 
BRANCH  15  16
ATOM     16  C   UNL     1      17.635  52.953 158.402  1.00  0.00     0.000 C 
BRANCH  16  17
ATOM     17  C   UNL     1      17.464  53.851 159.636  1.00  0.00     0.000 C 
BRANCH  17  18
ATOM     18  C   UNL     1      18.684  53.751 160.563  1.00  0.00    -0.000 C 
BRANCH  18  19
ATOM     19  C   UNL     1      20.024  53.805 159.805  1.00  0.00    -0.000 C 
BRANCH  19  20
ATOM     20  C   UNL     1      21.227  54.290 160.633  1.00  0.00    -0.000 C 
BRANCH  20  21
ATOM     21  C   UNL     1      20.827  55.252 161.765  1.00  0.00    -0.000 C 
BRANCH  21  22
ATOM     22  C   UNL     1      21.216  56.710 161.466  1.00  0.00    -0.000 C 
BRANCH  22  23
ATOM     23  C   UNL     1      20.172  57.721 161.970  1.00  0.00    -0.000 C 
BRANCH  23  24
ATOM     24  C   UNL     1      18.838  57.040 162.347  1.00  0.00    -0.000 C 
BRANCH  24  25
ATOM     25  C   UNL     1      17.740  57.205 161.283  1.00  0.00    -0.003 C 
ATOM     26  C   UNL     1      17.675  58.618 160.705  1.00  0.00     0.004 C 
ENDBRANCH  24  25
ENDBRANCH  23  24
ENDBRANCH  22  23
ENDBRANCH  21  22
ENDBRANCH  20  21
ENDBRANCH  19  20
ENDBRANCH  18  19
ENDBRANCH  17  18
ENDBRANCH  16  17
ENDBRANCH  15  16
ENDBRANCH   1  15
TORSDOF 22
ENDMDL
MODEL 7
REMARK VINA RESULT:    -4.516      3.264      5.445
REMARK INTER + INTRA:         -13.731
REMARK INTER:                 -10.894
REMARK INTRA:                  -2.837
REMARK UNBOUND:                -3.407
REMARK SMILES CCCCCCCCCCCCCCCCCCCCCCCC(=O)[O-]
REMARK SMILES IDX 13 1 14 2 15 3 16 4 17 5 18 6 19 7 20 8 21 9 22 10 23 11
REMARK SMILES IDX 24 12 25 13 26 14 12 15 11 16 10 17 9 18 8 19 7 20 6 21 5 22
REMARK SMILES IDX 4 23 3 24 2 25 1 26
REMARK H PARENT
REMARK Flexibility Score: inf
ROOT
ATOM      1  C   UNL     1      15.101  51.488 159.332  1.00  0.00     0.000 C 
ENDROOT
BRANCH   1   2
ATOM      2  C   UNL     1      14.312  52.661 158.722  1.00  0.00     0.000 C 
BRANCH   2   3
ATOM      3  C   UNL     1      14.478  52.760 157.199  1.00  0.00     0.000 C 
BRANCH   3   4
ATOM      4  C   UNL     1      13.717  53.971 156.640  1.00  0.00     0.000 C 
BRANCH   4   5
ATOM      5  C   UNL     1      14.646  55.047 156.048  1.00  0.00     0.000 C 
BRANCH   5   6
ATOM      6  C   UNL     1      15.680  55.631 157.028  1.00  0.00     0.000 C 
BRANCH   6   7
ATOM      7  C   UNL     1      15.952  57.126 156.793  1.00  0.00     0.000 C 
BRANCH   7   8
ATOM      8  C   UNL     1      16.601  57.805 158.010  1.00  0.00     0.000 C 
BRANCH   8   9
ATOM      9  C   UNL     1      17.388  56.819 158.891  1.00  0.00     0.000 C 
BRANCH   9  10
ATOM     10  C   UNL     1      18.856  57.236 159.097  1.00  0.00     0.006 C 
BRANCH  10  11
ATOM     11  C   UNL     1      19.692  57.233 157.806  1.00  0.00     0.053 C 
BRANCH  11  12
ATOM     12  C   UNL     1      20.190  58.598 157.439  1.00  0.00     0.041 C 
ATOM     13  O   UNL     1      21.103  58.729 156.581  1.00  0.00    -0.550 OA
ATOM     14  O   UNL     1      19.624  59.727 158.017  1.00  0.00    -0.550 OA
ENDBRANCH  11  12
ENDBRANCH  10  11
ENDBRANCH   9  10
ENDBRANCH   8   9
ENDBRANCH   7   8
ENDBRANCH   6   7
ENDBRANCH   5   6
ENDBRANCH   4   5
ENDBRANCH   3   4
ENDBRANCH   2   3
ENDBRANCH   1   2
BRANCH   1  15
ATOM     15  C   UNL     1      16.607  51.471 158.999  1.00  0.00     0.000 C 
BRANCH  15  16
ATOM     16  C   UNL     1      17.356  52.778 159.308  1.00  0.00     0.000 C 
BRANCH  16  17
ATOM     17  C   UNL     1      18.203  53.274 158.127  1.00  0.00     0.000 C 
BRANCH  17  18
ATOM     18  C   UNL     1      19.623  53.641 158.584  1.00  0.00    -0.000 C 
BRANCH  18  19
ATOM     19  C   UNL     1      19.767  53.700 160.116  1.00  0.00    -0.000 C 
BRANCH  19  20
ATOM     20  C   UNL     1      21.133  54.192 160.627  1.00  0.00    -0.000 C 
BRANCH  20  21
ATOM     21  C   UNL     1      21.016  55.189 161.792  1.00  0.00    -0.000 C 
BRANCH  21  22
ATOM     22  C   UNL     1      22.064  56.312 161.717  1.00  0.00    -0.000 C 
BRANCH  22  23
ATOM     23  C   UNL     1      23.308  55.913 160.905  1.00  0.00    -0.000 C 
BRANCH  23  24
ATOM     24  C   UNL     1      24.450  55.396 161.806  1.00  0.00    -0.000 C 
BRANCH  24  25
ATOM     25  C   UNL     1      25.419  56.497 162.268  1.00  0.00    -0.003 C 
ATOM     26  C   UNL     1      26.882  56.062 162.223  1.00  0.00     0.004 C 
ENDBRANCH  24  25
ENDBRANCH  23  24
ENDBRANCH  22  23
ENDBRANCH  21  22
ENDBRANCH  20  21
ENDBRANCH  19  20
ENDBRANCH  18  19
ENDBRANCH  17  18
ENDBRANCH  16  17
ENDBRANCH  15  16
ENDBRANCH   1  15
TORSDOF 22
ENDMDL
MODEL 8
REMARK VINA RESULT:    -4.495      3.071      5.512
REMARK INTER + INTRA:         -13.682
REMARK INTER:                 -10.039
REMARK INTRA:                  -3.642
REMARK UNBOUND:                -3.407
REMARK SMILES CCCCCCCCCCCCCCCCCCCCCCCC(=O)[O-]
REMARK SMILES IDX 13 1 14 2 15 3 16 4 17 5 18 6 19 7 20 8 21 9 22 10 23 11
REMARK SMILES IDX 24 12 25 13 26 14 12 15 11 16 10 17 9 18 8 19 7 20 6 21 5 22
REMARK SMILES IDX 4 23 3 24 2 25 1 26
REMARK H PARENT
REMARK Flexibility Score: inf
ROOT
ATOM      1  C   UNL     1      14.813  51.925 158.999  1.00  0.00     0.000 C 
ENDROOT
BRANCH   1   2
ATOM      2  C   UNL     1      13.939  52.916 158.209  1.00  0.00     0.000 C 
BRANCH   2   3
ATOM      3  C   UNL     1      14.444  53.141 156.776  1.00  0.00     0.000 C 
BRANCH   3   4
ATOM      4  C   UNL     1      14.638  54.638 156.489  1.00  0.00     0.000 C 
BRANCH   4   5
ATOM      5  C   UNL     1      15.926  55.209 157.110  1.00  0.00     0.000 C 
BRANCH   5   6
ATOM      6  C   UNL     1      17.237  54.696 156.487  1.00  0.00     0.000 C 
BRANCH   6   7
ATOM      7  C   UNL     1      18.444  55.594 156.805  1.00  0.00     0.000 C 
BRANCH   7   8
ATOM      8  C   UNL     1      18.085  56.750 157.752  1.00  0.00     0.000 C 
BRANCH   8   9
ATOM      9  C   UNL     1      19.299  57.629 158.104  1.00  0.00     0.000 C 
BRANCH   9  10
ATOM     10  C   UNL     1      19.701  57.530 159.588  1.00  0.00     0.006 C 
BRANCH  10  11
ATOM     11  C   UNL     1      18.778  58.313 160.537  1.00  0.00     0.053 C 
BRANCH  11  12
ATOM     12  C   UNL     1      18.362  59.638 159.973  1.00  0.00     0.041 C 
ATOM     13  O   UNL     1      19.224  60.529 159.747  1.00  0.00    -0.550 OA
ATOM     14  O   UNL     1      17.030  59.878 159.663  1.00  0.00    -0.550 OA
ENDBRANCH  11  12
ENDBRANCH  10  11
ENDBRANCH   9  10
ENDBRANCH   8   9
ENDBRANCH   7   8
ENDBRANCH   6   7
ENDBRANCH   5   6
ENDBRANCH   4   5
ENDBRANCH   3   4
ENDBRANCH   2   3
ENDBRANCH   1   2
BRANCH   1  15
ATOM     15  C   UNL     1      16.216  51.677 158.408  1.00  0.00     0.000 C 
BRANCH  15  16
ATOM     16  C   UNL     1      17.382  52.214 159.255  1.00  0.00     0.000 C 
BRANCH  16  17
ATOM     17  C   UNL     1      16.966  53.366 160.182  1.00  0.00     0.000 C 
BRANCH  17  18
ATOM     18  C   UNL     1      18.170  54.249 160.538  1.00  0.00    -0.000 C 
BRANCH  18  19
ATOM     19  C   UNL     1      19.479  53.781 159.873  1.00  0.00    -0.000 C 
BRANCH  19  20
ATOM     20  C   UNL     1      20.716  53.781 160.789  1.00  0.00    -0.000 C 
BRANCH  20  21
ATOM     21  C   UNL     1      22.041  53.818 160.010  1.00  0.00    -0.000 C 
BRANCH  21  22
ATOM     22  C   UNL     1      23.133  54.620 160.737  1.00  0.00    -0.000 C 
BRANCH  22  23
ATOM     23  C   UNL     1      22.646  56.003 161.205  1.00  0.00    -0.000 C 
BRANCH  23  24
ATOM     24  C   UNL     1      23.002  56.275 162.683  1.00  0.00    -0.000 C 
BRANCH  24  25
ATOM     25  C   UNL     1      22.432  57.597 163.221  1.00  0.00    -0.003 C 
ATOM     26  C   UNL     1      22.328  58.682 162.152  1.00  0.00     0.004 C 
ENDBRANCH  24  25
ENDBRANCH  23  24
ENDBRANCH  22  23
ENDBRANCH  21  22
ENDBRANCH  20  21
ENDBRANCH  19  20
ENDBRANCH  18  19
ENDBRANCH  17  18
ENDBRANCH  16  17
ENDBRANCH  15  16
ENDBRANCH   1  15
TORSDOF 22
ENDMDL
MODEL 9
REMARK VINA RESULT:    -4.488      3.338      6.824
REMARK INTER + INTRA:         -13.667
REMARK INTER:                  -9.924
REMARK INTRA:                  -3.744
REMARK UNBOUND:                -3.407
REMARK SMILES CCCCCCCCCCCCCCCCCCCCCCCC(=O)[O-]
REMARK SMILES IDX 13 1 14 2 15 3 16 4 17 5 18 6 19 7 20 8 21 9 22 10 23 11
REMARK SMILES IDX 24 12 25 13 26 14 12 15 11 16 10 17 9 18 8 19 7 20 6 21 5 22
REMARK SMILES IDX 4 23 3 24 2 25 1 26
REMARK H PARENT
REMARK Flexibility Score: inf
ROOT
ATOM      1  C   UNL     1      16.533  56.311 157.517  1.00  0.00     0.000 C 
ENDROOT
BRANCH   1   2
ATOM      2  C   UNL     1      17.990  56.290 157.023  1.00  0.00     0.000 C 
BRANCH   2   3
ATOM      3  C   UNL     1      18.311  57.448 156.067  1.00  0.00     0.000 C 
BRANCH   3   4
ATOM      4  C   UNL     1      19.603  58.166 156.485  1.00  0.00     0.000 C 
BRANCH   4   5
ATOM      5  C   UNL     1      19.875  58.085 157.998  1.00  0.00     0.000 C 
BRANCH   5   6
ATOM      6  C   UNL     1      19.956  59.442 158.723  1.00  0.00     0.000 C 
BRANCH   6   7
ATOM      7  C   UNL     1      19.146  59.474 160.029  1.00  0.00     0.000 C 
BRANCH   7   8
ATOM      8  C   UNL     1      17.794  58.754 159.902  1.00  0.00     0.000 C 
BRANCH   8   9
ATOM      9  C   UNL     1      17.759  57.416 160.661  1.00  0.00     0.000 C 
BRANCH   9  10
ATOM     10  C   UNL     1      17.732  57.592 162.190  1.00  0.00     0.006 C 
BRANCH  10  11
ATOM     11  C   UNL     1      18.939  56.967 162.911  1.00  0.00     0.053 C 
BRANCH  11  12
ATOM     12  C   UNL     1      19.934  57.993 163.363  1.00  0.00     0.041 C 
ATOM     13  O   UNL     1      21.038  58.110 162.766  1.00  0.00    -0.550 OA
ATOM     14  O   UNL     1      19.632  58.842 164.419  1.00  0.00    -0.550 OA
ENDBRANCH  11  12
ENDBRANCH  10  11
ENDBRANCH   9  10
ENDBRANCH   8   9
ENDBRANCH   7   8
ENDBRANCH   6   7
ENDBRANCH   5   6
ENDBRANCH   4   5
ENDBRANCH   3   4
ENDBRANCH   2   3
ENDBRANCH   1   2
BRANCH   1  15
ATOM     15  C   UNL     1      15.467  56.180 156.409  1.00  0.00     0.000 C 
BRANCH  15  16
ATOM     16  C   UNL     1      15.116  54.735 156.012  1.00  0.00     0.000 C 
BRANCH  16  17
ATOM     17  C   UNL     1      13.637  54.395 156.246  1.00  0.00     0.000 C 
BRANCH  17  18
ATOM     18  C   UNL     1      13.486  53.296 157.307  1.00  0.00    -0.000 C 
BRANCH  18  19
ATOM     19  C   UNL     1      14.817  52.598 157.647  1.00  0.00    -0.000 C 
BRANCH  19  20
ATOM     20  C   UNL     1      14.954  52.122 159.104  1.00  0.00    -0.000 C 
BRANCH  20  21
ATOM     21  C   UNL     1      16.398  51.748 159.481  1.00  0.00    -0.000 C 
BRANCH  21  22
ATOM     22  C   UNL     1      17.401  52.869 159.161  1.00  0.00    -0.000 C 
BRANCH  22  23
ATOM     23  C   UNL     1      17.647  53.808 160.355  1.00  0.00    -0.000 C 
BRANCH  23  24
ATOM     24  C   UNL     1      19.145  53.909 160.716  1.00  0.00    -0.000 C 
BRANCH  24  25
ATOM     25  C   UNL     1      19.986  54.641 159.659  1.00  0.00    -0.003 C 
ATOM     26  C   UNL     1      21.075  55.523 160.267  1.00  0.00     0.004 C 
ENDBRANCH  24  25
ENDBRANCH  23  24
ENDBRANCH  22  23
ENDBRANCH  21  22
ENDBRANCH  20  21
ENDBRANCH  19  20
ENDBRANCH  18  19
ENDBRANCH  17  18
ENDBRANCH  16  17
ENDBRANCH  15  16
ENDBRANCH   1  15
TORSDOF 22
ENDMDL
