MODEL 1
REMARK VINA RESULT:    -4.434      0.000      0.000
REMARK INTER + INTRA:          -5.491
REMARK INTER:                  -5.212
REMARK INTRA:                  -0.279
REMARK UNBOUND:                -0.279
REMARK SMILES O=C([O-])C=Cc1ccc(O)c(O)c1
REMARK SMILES IDX 6 1 13 2 7 3 11 4 8 5 9 6 5 7 4 8 2 9 1 10 3 11 12 12 10 14
REMARK H PARENT 12 13 10 15
REMARK Flexibility Score: inf
ROOT
ATOM      1  C   UNL     1      12.860  12.555  19.833  1.00  0.00    -0.022 A 
ATOM      2  C   UNL     1      11.603  11.936  19.885  1.00  0.00     0.058 A 
ATOM      3  C   UNL     1      12.966  13.850  19.300  1.00  0.00     0.012 A 
ATOM      4  C   UNL     1      10.471  12.575  19.365  1.00  0.00     0.157 A 
ATOM      5  C   UNL     1      11.840  14.493  18.779  1.00  0.00     0.051 A 
ATOM      6  C   UNL     1      10.591  13.859  18.805  1.00  0.00     0.157 A 
ENDROOT
BRANCH   1   7
ATOM      7  C   UNL     1      14.026  11.877  20.437  1.00  0.00     0.010 C 
ATOM      8  C   UNL     1      14.425  12.007  21.713  1.00  0.00     0.025 C 
BRANCH   8   9
ATOM      9  C   UNL     1      13.890  12.974  22.691  1.00  0.00     0.064 C 
ATOM     10  O   UNL     1      12.924  12.683  23.443  1.00  0.00    -0.545 OA
ATOM     11  O   UNL     1      14.420  14.256  22.732  1.00  0.00    -0.545 OA
ENDBRANCH   8   9
ENDBRANCH   1   7
BRANCH   4  12
ATOM     12  O   UNL     1       9.240  11.922  19.416  1.00  0.00    -0.504 OA
ATOM     13  H   UNL     1       8.802  11.534  18.589  1.00  0.00     0.293 HD
ENDBRANCH   4  12
BRANCH   6  14
ATOM     14  O   UNL     1       9.468  14.501  18.283  1.00  0.00    -0.504 OA
ATOM     15  H   UNL     1       9.338  14.613  17.284  1.00  0.00     0.293 HD
ENDBRANCH   6  14
TORSDOF 4
ENDMDL
MODEL 2
REMARK VINA RESULT:    -4.362      1.633      2.593
REMARK INTER + INTRA:          -5.406
REMARK INTER:                  -5.139
REMARK INTRA:                  -0.267
REMARK UNBOUND:                -0.279
REMARK SMILES O=C([O-])C=Cc1ccc(O)c(O)c1
REMARK SMILES IDX 6 1 13 2 7 3 11 4 8 5 9 6 5 7 4 8 2 9 1 10 3 11 12 12 10 14
REMARK H PARENT 12 13 10 15
REMARK Flexibility Score: inf
ROOT
ATOM      1  C   UNL     1      11.983  12.662  21.068  1.00  0.00    -0.022 A 
ATOM      2  C   UNL     1      12.293  13.642  20.113  1.00  0.00     0.058 A 
ATOM      3  C   UNL     1      10.826  11.883  20.903  1.00  0.00     0.012 A 
ATOM      4  C   UNL     1      11.434  13.881  19.034  1.00  0.00     0.157 A 
ATOM      5  C   UNL     1       9.965  12.119  19.828  1.00  0.00     0.051 A 
ATOM      6  C   UNL     1      10.262  13.119  18.893  1.00  0.00     0.157 A 
ENDROOT
BRANCH   1   7
ATOM      7  C   UNL     1      12.935  12.396  22.167  1.00  0.00     0.010 C 
ATOM      8  C   UNL     1      12.930  13.004  23.365  1.00  0.00     0.025 C 
BRANCH   8   9
ATOM      9  C   UNL     1      12.097  14.162  23.741  1.00  0.00     0.064 C 
ATOM     10  O   UNL     1      12.570  15.328  23.781  1.00  0.00    -0.545 OA
ATOM     11  O   UNL     1      10.780  13.952  24.125  1.00  0.00    -0.545 OA
ENDBRANCH   8   9
ENDBRANCH   1   7
BRANCH   4  12
ATOM     12  O   UNL     1      11.763  14.876  18.114  1.00  0.00    -0.504 OA
ATOM     13  H   UNL     1      11.121  15.622  17.875  1.00  0.00     0.293 HD
ENDBRANCH   4  12
BRANCH   6  14
ATOM     14  O   UNL     1       9.400  13.354  17.821  1.00  0.00    -0.504 OA
ATOM     15  H   UNL     1       9.582  12.971  16.901  1.00  0.00     0.293 HD
ENDBRANCH   6  14
TORSDOF 4
ENDMDL
MODEL 3
REMARK VINA RESULT:    -3.918      2.744      3.717
REMARK INTER + INTRA:          -4.884
REMARK INTER:                  -4.597
REMARK INTRA:                  -0.287
REMARK UNBOUND:                -0.279
REMARK SMILES O=C([O-])C=Cc1ccc(O)c(O)c1
REMARK SMILES IDX 6 1 13 2 7 3 11 4 8 5 9 6 5 7 4 8 2 9 1 10 3 11 12 12 10 14
REMARK H PARENT 12 13 10 15
REMARK Flexibility Score: inf
ROOT
ATOM      1  C   UNL     1      12.600  13.359  22.538  1.00  0.00    -0.022 A 
ATOM      2  C   UNL     1      11.719  12.683  21.682  1.00  0.00     0.058 A 
ATOM      3  C   UNL     1      12.126  13.843  23.769  1.00  0.00     0.012 A 
ATOM      4  C   UNL     1      10.369  12.536  22.021  1.00  0.00     0.157 A 
ATOM      5  C   UNL     1      10.779  13.698  24.112  1.00  0.00     0.051 A 
ATOM      6  C   UNL     1       9.895  13.050  23.240  1.00  0.00     0.157 A 
ENDROOT
BRANCH   1   7
ATOM      7  C   UNL     1      14.030  13.453  22.178  1.00  0.00     0.010 C 
ATOM      8  C   UNL     1      14.594  14.460  21.492  1.00  0.00     0.025 C 
BRANCH   8   9
ATOM      9  C   UNL     1      13.873  15.559  20.823  1.00  0.00     0.064 C 
ATOM     10  O   UNL     1      13.614  16.637  21.419  1.00  0.00    -0.545 OA
ATOM     11  O   UNL     1      13.408  15.373  19.527  1.00  0.00    -0.545 OA
ENDBRANCH   8   9
ENDBRANCH   1   7
BRANCH   4  12
ATOM     12  O   UNL     1       9.516  11.875  21.137  1.00  0.00    -0.504 OA
ATOM     13  H   UNL     1       9.727  11.788  20.149  1.00  0.00     0.293 HD
ENDBRANCH   4  12
BRANCH   6  14
ATOM     14  O   UNL     1       8.550  12.908  23.583  1.00  0.00    -0.504 OA
ATOM     15  H   UNL     1       8.004  12.115  23.270  1.00  0.00     0.293 HD
ENDBRANCH   6  14
TORSDOF 4
ENDMDL
MODEL 4
REMARK VINA RESULT:    -3.534      2.661      3.526
REMARK INTER + INTRA:          -4.433
REMARK INTER:                  -4.190
REMARK INTRA:                  -0.243
REMARK UNBOUND:                -0.279
REMARK SMILES O=C([O-])C=Cc1ccc(O)c(O)c1
REMARK SMILES IDX 6 1 13 2 7 3 11 4 8 5 9 6 5 7 4 8 2 9 1 10 3 11 12 12 10 14
REMARK H PARENT 12 13 10 15
REMARK Flexibility Score: inf
ROOT
ATOM      1  C   UNL     1      12.190  14.413  22.431  1.00  0.00    -0.022 A 
ATOM      2  C   UNL     1      11.533  13.625  21.475  1.00  0.00     0.058 A 
ATOM      3  C   UNL     1      11.691  14.460  23.743  1.00  0.00     0.012 A 
ATOM      4  C   UNL     1      10.364  12.931  21.806  1.00  0.00     0.157 A 
ATOM      5  C   UNL     1      10.523  13.770  24.078  1.00  0.00     0.051 A 
ATOM      6  C   UNL     1       9.852  13.007  23.113  1.00  0.00     0.157 A 
ENDROOT
BRANCH   1   7
ATOM      7  C   UNL     1      13.452  15.091  22.067  1.00  0.00     0.010 C 
ATOM      8  C   UNL     1      14.641  14.487  21.911  1.00  0.00     0.025 C 
BRANCH   8   9
ATOM      9  C   UNL     1      14.946  13.082  22.243  1.00  0.00     0.064 C 
ATOM     10  O   UNL     1      14.986  12.190  21.356  1.00  0.00    -0.545 OA
ATOM     11  O   UNL     1      15.125  12.726  23.572  1.00  0.00    -0.545 OA
ENDBRANCH   8   9
ENDBRANCH   1   7
BRANCH   4  12
ATOM     12  O   UNL     1       9.726  12.172  20.825  1.00  0.00    -0.504 OA
ATOM     13  H   UNL     1       9.860  11.171  20.747  1.00  0.00     0.293 HD
ENDBRANCH   4  12
BRANCH   6  14
ATOM     14  O   UNL     1       8.686  12.321  23.449  1.00  0.00    -0.504 OA
ATOM     15  H   UNL     1       7.935  12.770  23.959  1.00  0.00     0.293 HD
ENDBRANCH   6  14
TORSDOF 4
ENDMDL
MODEL 5
REMARK VINA RESULT:    -3.477      2.151      3.143
REMARK INTER + INTRA:          -4.366
REMARK INTER:                  -4.113
REMARK INTRA:                  -0.254
REMARK UNBOUND:                -0.279
REMARK SMILES O=C([O-])C=Cc1ccc(O)c(O)c1
REMARK SMILES IDX 6 1 13 2 7 3 11 4 8 5 9 6 5 7 4 8 2 9 1 10 3 11 12 12 10 14
REMARK H PARENT 12 13 10 15
REMARK Flexibility Score: inf
ROOT
ATOM      1  C   UNL     1      13.171  12.836  20.558  1.00  0.00    -0.022 A 
ATOM      2  C   UNL     1      11.970  12.981  19.850  1.00  0.00     0.058 A 
ATOM      3  C   UNL     1      13.130  12.463  21.912  1.00  0.00     0.012 A 
ATOM      4  C   UNL     1      10.739  12.810  20.494  1.00  0.00     0.157 A 
ATOM      5  C   UNL     1      11.904  12.292  22.559  1.00  0.00     0.051 A 
ATOM      6  C   UNL     1      10.704  12.468  21.857  1.00  0.00     0.157 A 
ENDROOT
BRANCH   1   7
ATOM      7  C   UNL     1      14.456  12.971  19.840  1.00  0.00     0.010 C 
ATOM      8  C   UNL     1      15.125  14.120  19.653  1.00  0.00     0.025 C 
BRANCH   8   9
ATOM      9  C   UNL     1      14.624  15.472  19.969  1.00  0.00     0.064 C 
ATOM     10  O   UNL     1      13.803  16.062  19.219  1.00  0.00    -0.545 OA
ATOM     11  O   UNL     1      15.123  16.134  21.082  1.00  0.00    -0.545 OA
ENDBRANCH   8   9
ENDBRANCH   1   7
BRANCH   4  12
ATOM     12  O   UNL     1       9.563  12.982  19.764  1.00  0.00    -0.504 OA
ATOM     13  H   UNL     1       9.540  12.904  18.754  1.00  0.00     0.293 HD
ENDBRANCH   4  12
BRANCH   6  14
ATOM     14  O   UNL     1       9.481  12.298  22.505  1.00  0.00    -0.504 OA
ATOM     15  H   UNL     1       9.081  11.378  22.649  1.00  0.00     0.293 HD
ENDBRANCH   6  14
TORSDOF 4
ENDMDL
MODEL 6
REMARK VINA RESULT:    -3.373      1.985      2.839
REMARK INTER + INTRA:          -4.244
REMARK INTER:                  -4.408
REMARK INTRA:                   0.164
REMARK UNBOUND:                -0.279
REMARK SMILES O=C([O-])C=Cc1ccc(O)c(O)c1
REMARK SMILES IDX 6 1 13 2 7 3 11 4 8 5 9 6 5 7 4 8 2 9 1 10 3 11 12 12 10 14
REMARK H PARENT 12 13 10 15
REMARK Flexibility Score: inf
ROOT
ATOM      1  C   UNL     1      13.231  14.241  19.584  1.00  0.00    -0.022 A 
ATOM      2  C   UNL     1      13.043  13.373  20.670  1.00  0.00     0.058 A 
ATOM      3  C   UNL     1      12.147  14.530  18.740  1.00  0.00     0.012 A 
ATOM      4  C   UNL     1      11.804  12.759  20.884  1.00  0.00     0.157 A 
ATOM      5  C   UNL     1      10.908  13.919  18.949  1.00  0.00     0.051 A 
ATOM      6  C   UNL     1      10.731  13.029  20.016  1.00  0.00     0.157 A 
ENDROOT
BRANCH   1   7
ATOM      7  C   UNL     1      14.535  14.916  19.415  1.00  0.00     0.010 C 
ATOM      8  C   UNL     1      15.070  15.799  20.274  1.00  0.00     0.025 C 
BRANCH   8   9
ATOM      9  C   UNL     1      14.388  16.390  21.441  1.00  0.00     0.064 C 
ATOM     10  O   UNL     1      13.169  16.701  21.403  1.00  0.00    -0.545 OA
ATOM     11  O   UNL     1      15.125  16.673  22.583  1.00  0.00    -0.545 OA
ENDBRANCH   8   9
ENDBRANCH   1   7
BRANCH   4  12
ATOM     12  O   UNL     1      11.657  11.887  21.962  1.00  0.00    -0.504 OA
ATOM     13  H   UNL     1      11.962  12.130  22.897  1.00  0.00     0.293 HD
ENDBRANCH   4  12
BRANCH   6  14
ATOM     14  O   UNL     1       9.494  12.418  20.222  1.00  0.00    -0.504 OA
ATOM     15  H   UNL     1       8.995  11.963  19.466  1.00  0.00     0.293 HD
ENDBRANCH   6  14
TORSDOF 4
ENDMDL
MODEL 7
REMARK VINA RESULT:    -3.161      1.441      2.564
REMARK INTER + INTRA:          -3.994
REMARK INTER:                  -3.766
REMARK INTRA:                  -0.229
REMARK UNBOUND:                -0.279
REMARK SMILES O=C([O-])C=Cc1ccc(O)c(O)c1
REMARK SMILES IDX 6 1 13 2 7 3 11 4 8 5 9 6 5 7 4 8 2 9 1 10 3 11 12 12 10 14
REMARK H PARENT 12 13 10 15
REMARK Flexibility Score: inf
ROOT
ATOM      1  C   UNL     1      12.935  13.740  19.443  1.00  0.00    -0.022 A 
ATOM      2  C   UNL     1      11.842  14.396  18.859  1.00  0.00     0.058 A 
ATOM      3  C   UNL     1      12.754  12.463  19.998  1.00  0.00     0.012 A 
ATOM      4  C   UNL     1      10.570  13.812  18.873  1.00  0.00     0.157 A 
ATOM      5  C   UNL     1      11.486  11.875  20.014  1.00  0.00     0.051 A 
ATOM      6  C   UNL     1      10.389  12.546  19.457  1.00  0.00     0.157 A 
ENDROOT
BRANCH   1   7
ATOM      7  C   UNL     1      14.275  14.359  19.367  1.00  0.00     0.010 C 
ATOM      8  C   UNL     1      14.845  15.102  20.330  1.00  0.00     0.025 C 
BRANCH   8   9
ATOM      9  C   UNL     1      14.179  15.583  21.555  1.00  0.00     0.064 C 
ATOM     10  O   UNL     1      13.229  16.407  21.507  1.00  0.00    -0.545 OA
ATOM     11  O   UNL     1      14.658  15.171  22.791  1.00  0.00    -0.545 OA
ENDBRANCH   8   9
ENDBRANCH   1   7
BRANCH   4  12
ATOM     12  O   UNL     1       9.501  14.501  18.300  1.00  0.00    -0.504 OA
ATOM     13  H   UNL     1       9.482  14.742  17.316  1.00  0.00     0.293 HD
ENDBRANCH   4  12
BRANCH   6  14
ATOM     14  O   UNL     1       9.125  11.959  19.477  1.00  0.00    -0.504 OA
ATOM     15  H   UNL     1       8.853  11.262  18.793  1.00  0.00     0.293 HD
ENDBRANCH   6  14
TORSDOF 4
ENDMDL
MODEL 8
REMARK VINA RESULT:    -2.158      1.686      2.097
REMARK INTER + INTRA:          -2.816
REMARK INTER:                  -2.549
REMARK INTRA:                  -0.267
REMARK UNBOUND:                -0.279
REMARK SMILES O=C([O-])C=Cc1ccc(O)c(O)c1
REMARK SMILES IDX 6 1 13 2 7 3 11 4 8 5 9 6 5 7 4 8 2 9 1 10 3 11 12 12 10 14
REMARK H PARENT 12 13 10 15
REMARK Flexibility Score: inf
ROOT
ATOM      1  C   UNL     1      11.758  12.889  20.924  1.00  0.00    -0.022 A 
ATOM      2  C   UNL     1      10.624  12.211  20.455  1.00  0.00     0.058 A 
ATOM      3  C   UNL     1      12.101  14.128  20.357  1.00  0.00     0.012 A 
ATOM      4  C   UNL     1       9.869  12.731  19.398  1.00  0.00     0.157 A 
ATOM      5  C   UNL     1      11.351  14.651  19.300  1.00  0.00     0.051 A 
ATOM      6  C   UNL     1      10.236  13.956  18.814  1.00  0.00     0.157 A 
ENDROOT
BRANCH   1   7
ATOM      7  C   UNL     1      12.504  12.342  22.076  1.00  0.00     0.010 C 
ATOM      8  C   UNL     1      12.273  12.641  23.365  1.00  0.00     0.025 C 
BRANCH   8   9
ATOM      9  C   UNL     1      11.364  13.693  23.857  1.00  0.00     0.064 C 
ATOM     10  O   UNL     1      11.780  14.850  24.125  1.00  0.00    -0.545 OA
ATOM     11  O   UNL     1      10.033  13.379  24.095  1.00  0.00    -0.545 OA
ENDBRANCH   8   9
ENDBRANCH   1   7
BRANCH   4  12
ATOM     12  O   UNL     1       8.759  12.020  18.944  1.00  0.00    -0.504 OA
ATOM     13  H   UNL     1       8.842  11.101  18.525  1.00  0.00     0.293 HD
ENDBRANCH   4  12
BRANCH   6  14
ATOM     14  O   UNL     1       9.490  14.479  17.758  1.00  0.00    -0.504 OA
ATOM     15  H   UNL     1       8.739  13.952  17.327  1.00  0.00     0.293 HD
ENDBRANCH   6  14
TORSDOF 4
ENDMDL
