MODEL 1
REMARK VINA RESULT:     0.700      0.000      0.000
REMARK INTER + INTRA:           0.932
REMARK INTER:                   0.762
REMARK INTRA:                   0.170
REMARK UNBOUND:                 0.170
REMARK SMILES CC1(C)CC[C@@]2(C(=O)[O-])CC[C@@]3(C)C(=CC[C@@H]4[C@@]5(C)CC[C@@H](O)C(C)(C)[C@H]5CC[C@]43C)[C@H]2C1
REMARK SMILES IDX 6 1 5 2 10 3 32 4 4 5 11 6 14 7 33 8 2 9 12 10 15 11 1 12
REMARK SMILES IDX 3 13 13 14 30 15 16 16 17 17 29 18 31 19 18 20 28 21 27 22
REMARK SMILES IDX 20 23 19 24 24 25 21 26 22 27 25 28 26 29 7 30 8 31 9 32
REMARK SMILES IDX 23 33
REMARK H PARENT 23 34
REMARK Flexibility Score: inf
ROOT
ATOM      1  C   UNL     1     -16.062   2.904  23.245  1.00  0.00     0.017 C 
ATOM      2  C   UNL     1     -17.611   2.739  23.440  1.00  0.00     0.014 C 
ATOM      3  C   UNL     1     -15.406   3.111  24.635  1.00  0.00     0.014 C 
ATOM      4  C   UNL     1     -15.458   1.625  22.566  1.00  0.00     0.028 C 
ATOM      5  C   UNL     1     -18.249   1.845  22.363  1.00  0.00     0.007 C 
ATOM      6  C   UNL     1     -13.867   3.165  24.570  1.00  0.00     0.013 C 
ATOM      7  C   UNL     1     -13.916   1.540  22.704  1.00  0.00    -0.064 C 
ATOM      8  C   UNL     1     -16.234   0.351  22.965  1.00  0.00     0.015 C 
ATOM      9  C   UNL     1     -17.697   0.380  22.411  1.00  0.00    -0.035 C 
ATOM     10  C   UNL     1     -13.209   1.832  24.058  1.00  0.00    -0.006 C 
ATOM     11  C   UNL     1     -13.236   1.570  21.535  1.00  0.00    -0.027 C 
ATOM     12  C   UNL     1     -17.734  -0.226  20.991  1.00  0.00     0.011 C 
ATOM     13  C   UNL     1     -18.599  -0.483  23.321  1.00  0.00     0.011 C 
ATOM     14  C   UNL     1     -13.549   0.724  25.125  1.00  0.00     0.017 C 
ATOM     15  C   UNL     1     -11.589   1.963  23.896  1.00  0.00    -0.020 C 
ATOM     16  C   UNL     1     -11.799   1.947  21.382  1.00  0.00     0.032 C 
ATOM     17  C   UNL     1     -11.229   2.731  22.591  1.00  0.00     0.006 C 
ATOM     18  C   UNL     1     -11.020   2.791  25.061  1.00  0.00     0.008 C 
ATOM     19  C   UNL     1     -10.893   0.561  23.863  1.00  0.00     0.012 C 
ATOM     20  C   UNL     1      -9.690   3.216  22.408  1.00  0.00    -0.025 C 
ATOM     21  C   UNL     1      -9.508   2.920  25.082  1.00  0.00     0.005 C 
ATOM     22  C   UNL     1      -8.758   3.073  23.715  1.00  0.00     0.003 C 
ATOM     23  C   UNL     1      -9.709   4.711  21.931  1.00  0.00     0.010 C 
ATOM     24  C   UNL     1      -9.014   2.394  21.255  1.00  0.00     0.012 C 
ATOM     25  C   UNL     1      -7.606   4.175  23.838  1.00  0.00    -0.006 C 
ATOM     26  C   UNL     1      -9.588   5.704  23.090  1.00  0.00     0.033 C 
ATOM     27  C   UNL     1      -8.224   5.623  23.819  1.00  0.00     0.120 C 
ATOM     28  C   UNL     1      -6.560   4.052  22.689  1.00  0.00     0.014 C 
ATOM     29  C   UNL     1      -6.743   3.943  25.125  1.00  0.00     0.014 C 
ENDROOT
BRANCH   1  30
ATOM     30  C   UNL     1     -15.810   4.148  22.393  1.00  0.00     0.048 C 
ATOM     31  O   UNL     1     -16.275   4.214  21.223  1.00  0.00    -0.550 OA
ATOM     32  O   UNL     1     -15.085   5.230  22.881  1.00  0.00    -0.550 OA
ENDBRANCH   1  30
BRANCH  27  33
ATOM     33  O   UNL     1      -8.389   6.120  25.125  1.00  0.00    -0.393 OA
ATOM     34  H   UNL     1      -7.593   6.679  25.327  1.00  0.00     0.210 HD
ENDBRANCH  27  33
TORSDOF 2
ENDMDL
MODEL 2
REMARK VINA RESULT:     1.912      2.040      3.517
REMARK INTER + INTRA:           2.250
REMARK INTER:                   2.483
REMARK INTRA:                  -0.233
REMARK UNBOUND:                 0.170
REMARK SMILES CC1(C)CC[C@@]2(C(=O)[O-])CC[C@@]3(C)C(=CC[C@@H]4[C@@]5(C)CC[C@@H](O)C(C)(C)[C@H]5CC[C@]43C)[C@H]2C1
REMARK SMILES IDX 6 1 5 2 10 3 32 4 4 5 11 6 14 7 33 8 2 9 12 10 15 11 1 12
REMARK SMILES IDX 3 13 13 14 30 15 16 16 17 17 29 18 31 19 18 20 28 21 27 22
REMARK SMILES IDX 20 23 19 24 24 25 21 26 22 27 25 28 26 29 7 30 8 31 9 32
REMARK SMILES IDX 23 33
REMARK H PARENT 23 34
REMARK Flexibility Score: inf
ROOT
ATOM      1  C   UNL     1     -14.523   0.871  22.458  1.00  0.00     0.017 C 
ATOM      2  C   UNL     1     -15.818   0.060  22.098  1.00  0.00     0.014 C 
ATOM      3  C   UNL     1     -13.311   0.210  21.753  1.00  0.00     0.014 C 
ATOM      4  C   UNL     1     -14.660   2.359  21.980  1.00  0.00     0.028 C 
ATOM      5  C   UNL     1     -17.080   0.940  22.083  1.00  0.00     0.007 C 
ATOM      6  C   UNL     1     -12.002   0.999  21.944  1.00  0.00     0.013 C 
ATOM      7  C   UNL     1     -13.302   3.106  21.934  1.00  0.00    -0.064 C 
ATOM      8  C   UNL     1     -15.523   2.467  20.705  1.00  0.00     0.015 C 
ATOM      9  C   UNL     1     -17.006   2.055  20.986  1.00  0.00    -0.035 C 
ATOM     10  C   UNL     1     -12.037   2.442  21.319  1.00  0.00    -0.006 C 
ATOM     11  C   UNL     1     -13.205   4.166  22.768  1.00  0.00    -0.027 C 
ATOM     12  C   UNL     1     -17.815   3.286  21.454  1.00  0.00     0.011 C 
ATOM     13  C   UNL     1     -17.644   1.537  19.677  1.00  0.00     0.011 C 
ATOM     14  C   UNL     1     -12.195   2.254  19.764  1.00  0.00     0.017 C 
ATOM     15  C   UNL     1     -10.676   3.289  21.638  1.00  0.00    -0.020 C 
ATOM     16  C   UNL     1     -11.927   4.768  23.253  1.00  0.00     0.032 C 
ATOM     17  C   UNL     1     -10.699   3.836  23.094  1.00  0.00     0.006 C 
ATOM     18  C   UNL     1      -9.456   2.358  21.541  1.00  0.00     0.008 C 
ATOM     19  C   UNL     1     -10.496   4.490  20.651  1.00  0.00     0.012 C 
ATOM     20  C   UNL     1      -9.316   4.445  23.687  1.00  0.00    -0.025 C 
ATOM     21  C   UNL     1      -8.111   3.036  21.731  1.00  0.00     0.005 C 
ATOM     22  C   UNL     1      -8.003   4.183  22.791  1.00  0.00     0.003 C 
ATOM     23  C   UNL     1      -9.105   3.852  25.125  1.00  0.00     0.010 C 
ATOM     24  C   UNL     1      -9.461   5.998  23.868  1.00  0.00     0.012 C 
ATOM     25  C   UNL     1      -6.644   4.040  23.622  1.00  0.00    -0.006 C 
ATOM     26  C   UNL     1      -8.225   2.600  25.125  1.00  0.00     0.033 C 
ATOM     27  C   UNL     1      -6.767   2.883  24.684  1.00  0.00     0.120 C 
ATOM     28  C   UNL     1      -6.268   5.363  24.354  1.00  0.00     0.014 C 
ATOM     29  C   UNL     1      -5.424   3.808  22.668  1.00  0.00     0.014 C 
ENDROOT
BRANCH   1  30
ATOM     30  C   UNL     1     -14.311   0.799  23.971  1.00  0.00     0.048 C 
ATOM     31  O   UNL     1     -14.763   1.711  24.714  1.00  0.00    -0.550 OA
ATOM     32  O   UNL     1     -13.636  -0.265  24.560  1.00  0.00    -0.550 OA
ENDBRANCH   1  30
BRANCH  27  33
ATOM     33  O   UNL     1      -6.212   1.686  24.194  1.00  0.00    -0.393 OA
ATOM     34  H   UNL     1      -6.589   1.540  23.286  1.00  0.00     0.210 HD
ENDBRANCH  27  33
TORSDOF 2
ENDMDL
MODEL 3
REMARK VINA RESULT:     3.246      2.064      3.582
REMARK INTER + INTRA:           3.701
REMARK INTER:                   3.698
REMARK INTRA:                   0.003
REMARK UNBOUND:                 0.170
REMARK SMILES CC1(C)CC[C@@]2(C(=O)[O-])CC[C@@]3(C)C(=CC[C@@H]4[C@@]5(C)CC[C@@H](O)C(C)(C)[C@H]5CC[C@]43C)[C@H]2C1
REMARK SMILES IDX 6 1 5 2 10 3 32 4 4 5 11 6 14 7 33 8 2 9 12 10 15 11 1 12
REMARK SMILES IDX 3 13 13 14 30 15 16 16 17 17 29 18 31 19 18 20 28 21 27 22
REMARK SMILES IDX 20 23 19 24 24 25 21 26 22 27 25 28 26 29 7 30 8 31 9 32
REMARK SMILES IDX 23 33
REMARK H PARENT 23 34
REMARK Flexibility Score: inf
ROOT
ATOM      1  C   UNL     1     -17.651   0.812  22.013  1.00  0.00     0.017 C 
ATOM      2  C   UNL     1     -19.185   0.522  21.853  1.00  0.00     0.014 C 
ATOM      3  C   UNL     1     -17.392   2.306  21.692  1.00  0.00     0.014 C 
ATOM      4  C   UNL     1     -17.187   0.503  23.480  1.00  0.00     0.028 C 
ATOM      5  C   UNL     1     -19.675  -0.598  22.788  1.00  0.00     0.007 C 
ATOM      6  C   UNL     1     -15.929   2.727  21.934  1.00  0.00     0.013 C 
ATOM      7  C   UNL     1     -15.812   1.131  23.823  1.00  0.00    -0.064 C 
ATOM      8  C   UNL     1     -18.315   0.772  24.499  1.00  0.00     0.015 C 
ATOM      9  C   UNL     1     -19.510  -0.217  24.298  1.00  0.00    -0.035 C 
ATOM     10  C   UNL     1     -15.476   2.599  23.434  1.00  0.00    -0.006 C 
ATOM     11  C   UNL     1     -14.838   0.242  24.123  1.00  0.00    -0.027 C 
ATOM     12  C   UNL     1     -19.277  -1.501  25.125  1.00  0.00     0.011 C 
ATOM     13  C   UNL     1     -20.808   0.448  24.808  1.00  0.00     0.011 C 
ATOM     14  C   UNL     1     -16.351   3.617  24.257  1.00  0.00     0.017 C 
ATOM     15  C   UNL     1     -13.892   2.946  23.635  1.00  0.00    -0.020 C 
ATOM     16  C   UNL     1     -13.370   0.513  24.050  1.00  0.00     0.032 C 
ATOM     17  C   UNL     1     -13.007   1.747  23.185  1.00  0.00     0.006 C 
ATOM     18  C   UNL     1     -13.507   4.133  22.736  1.00  0.00     0.008 C 
ATOM     19  C   UNL     1     -13.556   3.288  25.125  1.00  0.00     0.012 C 
ATOM     20  C   UNL     1     -11.412   2.010  23.032  1.00  0.00    -0.025 C 
ATOM     21  C   UNL     1     -12.076   4.619  22.886  1.00  0.00     0.005 C 
ATOM     22  C   UNL     1     -10.952   3.552  23.115  1.00  0.00     0.003 C 
ATOM     23  C   UNL     1     -10.950   1.391  21.666  1.00  0.00     0.010 C 
ATOM     24  C   UNL     1     -10.640   1.227  24.154  1.00  0.00     0.012 C 
ATOM     25  C   UNL     1      -9.663   3.913  22.240  1.00  0.00    -0.006 C 
ATOM     26  C   UNL     1     -10.943   2.412  20.526  1.00  0.00     0.033 C 
ATOM     27  C   UNL     1      -9.901   3.540  20.729  1.00  0.00     0.120 C 
ATOM     28  C   UNL     1      -8.389   3.176  22.752  1.00  0.00     0.014 C 
ATOM     29  C   UNL     1      -9.282   5.424  22.399  1.00  0.00     0.014 C 
ENDROOT
BRANCH   1  30
ATOM     30  C   UNL     1     -16.887  -0.048  21.005  1.00  0.00     0.048 C 
ATOM     31  O   UNL     1     -16.020  -0.868  21.406  1.00  0.00    -0.550 OA
ATOM     32  O   UNL     1     -17.135   0.041  19.639  1.00  0.00    -0.550 OA
ENDBRANCH   1  30
BRANCH  27  33
ATOM     33  O   UNL     1     -10.315   4.664  19.990  1.00  0.00    -0.393 OA
ATOM     34  H   UNL     1     -10.448   5.406  20.637  1.00  0.00     0.210 HD
ENDBRANCH  27  33
TORSDOF 2
ENDMDL
