MODEL 1
REMARK VINA RESULT:    -3.322      0.000      0.000
REMARK INTER + INTRA:          -9.533
REMARK INTER:                  -6.429
REMARK INTRA:                  -3.104
REMARK UNBOUND:                -3.104
REMARK SMILES CCCCCCCCCCCCCCCCCC(=O)[O-]
REMARK SMILES IDX 10 1 11 2 12 3 13 4 14 5 15 6 16 7 17 8 18 9 19 10 20 11
REMARK SMILES IDX 9 12 8 13 7 14 6 15 5 16 4 17 3 18 2 19 1 20
REMARK H PARENT
REMARK Flexibility Score: inf
ROOT
ATOM      1  C   UNL     1       8.326  -3.795  -6.687  1.00  0.00     0.000 C 
ENDROOT
BRANCH   1   2
ATOM      2  C   UNL     1       7.859  -2.425  -7.210  1.00  0.00     0.000 C 
BRANCH   2   3
ATOM      3  C   UNL     1       8.651  -1.963  -8.444  1.00  0.00     0.000 C 
BRANCH   3   4
ATOM      4  C   UNL     1       7.859  -2.131  -9.749  1.00  0.00     0.000 C 
BRANCH   4   5
ATOM      5  C   UNL     1       6.355  -2.260  -9.464  1.00  0.00     0.000 C 
BRANCH   5   6
ATOM      6  C   UNL     1       5.763  -3.581  -9.982  1.00  0.00     0.000 C 
BRANCH   6   7
ATOM      7  C   UNL     1       4.702  -4.165  -9.034  1.00  0.00     0.006 C 
BRANCH   7   8
ATOM      8  C   UNL     1       4.496  -3.296  -7.786  1.00  0.00     0.053 C 
BRANCH   8   9
ATOM      9  C   UNL     1       3.902  -4.076  -6.654  1.00  0.00     0.041 C 
ATOM     10  O   UNL     1       4.552  -4.245  -5.591  1.00  0.00    -0.550 OA
ATOM     11  O   UNL     1       2.639  -4.641  -6.785  1.00  0.00    -0.550 OA
ENDBRANCH   8   9
ENDBRANCH   7   8
ENDBRANCH   6   7
ENDBRANCH   5   6
ENDBRANCH   4   5
ENDBRANCH   3   4
ENDBRANCH   2   3
ENDBRANCH   1   2
BRANCH   1  12
ATOM     12  C   UNL     1       9.797  -4.085  -7.025  1.00  0.00     0.000 C 
BRANCH  12  13
ATOM     13  C   UNL     1       9.995  -5.473  -7.651  1.00  0.00    -0.000 C 
BRANCH  13  14
ATOM     14  C   UNL     1       9.699  -5.443  -9.157  1.00  0.00    -0.000 C 
BRANCH  14  15
ATOM     15  C   UNL     1       8.339  -6.068  -9.514  1.00  0.00    -0.000 C 
BRANCH  15  16
ATOM     16  C   UNL     1       7.927  -7.279  -8.651  1.00  0.00    -0.000 C 
BRANCH  16  17
ATOM     17  C   UNL     1       6.570  -7.141  -7.938  1.00  0.00    -0.000 C 
BRANCH  17  18
ATOM     18  C   UNL     1       6.708  -6.976  -6.418  1.00  0.00    -0.000 C 
BRANCH  18  19
ATOM     19  C   UNL     1       7.574  -8.091  -5.821  1.00  0.00    -0.003 C 
ATOM     20  C   UNL     1       8.699  -7.518  -4.964  1.00  0.00     0.004 C 
ENDBRANCH  18  19
ENDBRANCH  17  18
ENDBRANCH  16  17
ENDBRANCH  15  16
ENDBRANCH  14  15
ENDBRANCH  13  14
ENDBRANCH  12  13
ENDBRANCH   1  12
TORSDOF 16
ENDMDL
MODEL 2
REMARK VINA RESULT:    -3.321      1.982      5.109
REMARK INTER + INTRA:          -9.531
REMARK INTER:                  -7.618
REMARK INTRA:                  -1.913
REMARK UNBOUND:                -3.104
REMARK SMILES CCCCCCCCCCCCCCCCCC(=O)[O-]
REMARK SMILES IDX 10 1 11 2 12 3 13 4 14 5 15 6 16 7 17 8 18 9 19 10 20 11
REMARK SMILES IDX 9 12 8 13 7 14 6 15 5 16 4 17 3 18 2 19 1 20
REMARK H PARENT
REMARK Flexibility Score: inf
ROOT
ATOM      1  C   UNL     1       6.083  -2.508  -9.357  1.00  0.00     0.000 C 
ENDROOT
BRANCH   1   2
ATOM      2  C   UNL     1       7.518  -2.319  -8.832  1.00  0.00     0.000 C 
BRANCH   2   3
ATOM      3  C   UNL     1       7.638  -2.605  -7.326  1.00  0.00     0.000 C 
BRANCH   3   4
ATOM      4  C   UNL     1       8.893  -3.417  -6.979  1.00  0.00     0.000 C 
BRANCH   4   5
ATOM      5  C   UNL     1       8.939  -4.726  -7.782  1.00  0.00     0.000 C 
BRANCH   5   6
ATOM      6  C   UNL     1       9.795  -5.809  -7.105  1.00  0.00     0.000 C 
BRANCH   6   7
ATOM      7  C   UNL     1       8.952  -6.816  -6.305  1.00  0.00     0.006 C 
BRANCH   7   8
ATOM      8  C   UNL     1       7.542  -6.984  -6.887  1.00  0.00     0.053 C 
BRANCH   8   9
ATOM      9  C   UNL     1       6.481  -6.730  -5.860  1.00  0.00     0.041 C 
ATOM     10  O   UNL     1       6.517  -5.686  -5.157  1.00  0.00    -0.550 OA
ATOM     11  O   UNL     1       5.468  -7.660  -5.660  1.00  0.00    -0.550 OA
ENDBRANCH   8   9
ENDBRANCH   7   8
ENDBRANCH   6   7
ENDBRANCH   5   6
ENDBRANCH   4   5
ENDBRANCH   3   4
ENDBRANCH   2   3
ENDBRANCH   1   2
BRANCH   1  12
ATOM     12  C   UNL     1       5.846  -3.913  -9.933  1.00  0.00     0.000 C 
BRANCH  12  13
ATOM     13  C   UNL     1       5.238  -4.876  -8.904  1.00  0.00    -0.000 C 
BRANCH  13  14
ATOM     14  C   UNL     1       3.704  -4.791  -8.913  1.00  0.00    -0.000 C 
BRANCH  14  15
ATOM     15  C   UNL     1       3.119  -4.377  -7.551  1.00  0.00    -0.000 C 
BRANCH  15  16
ATOM     16  C   UNL     1       4.127  -3.741  -6.571  1.00  0.00    -0.000 C 
BRANCH  16  17
ATOM     17  C   UNL     1       3.678  -3.713  -5.099  1.00  0.00    -0.000 C 
BRANCH  17  18
ATOM     18  C   UNL     1       2.554  -2.701  -4.837  1.00  0.00    -0.000 C 
BRANCH  18  19
ATOM     19  C   UNL     1       1.830  -3.013  -3.522  1.00  0.00    -0.003 C 
ATOM     20  C   UNL     1       2.528  -2.352  -2.337  1.00  0.00     0.004 C 
ENDBRANCH  18  19
ENDBRANCH  17  18
ENDBRANCH  16  17
ENDBRANCH  15  16
ENDBRANCH  14  15
ENDBRANCH  13  14
ENDBRANCH  12  13
ENDBRANCH   1  12
TORSDOF 16
ENDMDL
MODEL 3
REMARK VINA RESULT:    -3.316      2.396      5.375
REMARK INTER + INTRA:          -9.522
REMARK INTER:                  -7.690
REMARK INTRA:                  -1.832
REMARK UNBOUND:                -3.104
REMARK SMILES CCCCCCCCCCCCCCCCCC(=O)[O-]
REMARK SMILES IDX 10 1 11 2 12 3 13 4 14 5 15 6 16 7 17 8 18 9 19 10 20 11
REMARK SMILES IDX 9 12 8 13 7 14 6 15 5 16 4 17 3 18 2 19 1 20
REMARK H PARENT
REMARK Flexibility Score: inf
ROOT
ATOM      1  C   UNL     1       5.663  -6.900  -6.419  1.00  0.00     0.000 C 
ENDROOT
BRANCH   1   2
ATOM      2  C   UNL     1       6.849  -6.358  -5.601  1.00  0.00     0.000 C 
BRANCH   2   3
ATOM      3  C   UNL     1       7.474  -5.102  -6.230  1.00  0.00     0.000 C 
BRANCH   3   4
ATOM      4  C   UNL     1       8.956  -5.296  -6.585  1.00  0.00     0.000 C 
BRANCH   4   5
ATOM      5  C   UNL     1       9.660  -3.941  -6.757  1.00  0.00     0.000 C 
BRANCH   5   6
ATOM      6  C   UNL     1      10.030  -3.646  -8.219  1.00  0.00     0.000 C 
BRANCH   6   7
ATOM      7  C   UNL     1       9.399  -2.343  -8.739  1.00  0.00     0.006 C 
BRANCH   7   8
ATOM      8  C   UNL     1       7.986  -2.122  -8.184  1.00  0.00     0.053 C 
BRANCH   8   9
ATOM      9  C   UNL     1       6.931  -2.559  -9.154  1.00  0.00     0.041 C 
ATOM     10  O   UNL     1       5.890  -1.870  -9.310  1.00  0.00    -0.550 OA
ATOM     11  O   UNL     1       7.085  -3.742  -9.865  1.00  0.00    -0.550 OA
ENDBRANCH   8   9
ENDBRANCH   7   8
ENDBRANCH   6   7
ENDBRANCH   5   6
ENDBRANCH   4   5
ENDBRANCH   3   4
ENDBRANCH   2   3
ENDBRANCH   1   2
BRANCH   1  12
ATOM     12  C   UNL     1       5.820  -6.644  -7.926  1.00  0.00     0.000 C 
BRANCH  12  13
ATOM     13  C   UNL     1       4.470  -6.531  -8.648  1.00  0.00    -0.000 C 
BRANCH  13  14
ATOM     14  C   UNL     1       4.073  -5.061  -8.842  1.00  0.00    -0.000 C 
BRANCH  14  15
ATOM     15  C   UNL     1       3.241  -4.505  -7.673  1.00  0.00    -0.000 C 
BRANCH  15  16
ATOM     16  C   UNL     1       4.000  -3.556  -6.722  1.00  0.00    -0.000 C 
BRANCH  16  17
ATOM     17  C   UNL     1       3.628  -3.687  -5.234  1.00  0.00    -0.000 C 
BRANCH  17  18
ATOM     18  C   UNL     1       2.611  -2.631  -4.779  1.00  0.00    -0.000 C 
BRANCH  18  19
ATOM     19  C   UNL     1       1.902  -3.070  -3.492  1.00  0.00    -0.003 C 
ATOM     20  C   UNL     1       2.488  -2.368  -2.271  1.00  0.00     0.004 C 
ENDBRANCH  18  19
ENDBRANCH  17  18
ENDBRANCH  16  17
ENDBRANCH  15  16
ENDBRANCH  14  15
ENDBRANCH  13  14
ENDBRANCH  12  13
ENDBRANCH   1  12
TORSDOF 16
ENDMDL
MODEL 4
REMARK VINA RESULT:    -3.308      2.424      4.269
REMARK INTER + INTRA:          -9.506
REMARK INTER:                  -6.586
REMARK INTRA:                  -2.920
REMARK UNBOUND:                -3.104
REMARK SMILES CCCCCCCCCCCCCCCCCC(=O)[O-]
REMARK SMILES IDX 10 1 11 2 12 3 13 4 14 5 15 6 16 7 17 8 18 9 19 10 20 11
REMARK SMILES IDX 9 12 8 13 7 14 6 15 5 16 4 17 3 18 2 19 1 20
REMARK H PARENT
REMARK Flexibility Score: inf
ROOT
ATOM      1  C   UNL     1       4.322  -7.009  -8.346  1.00  0.00     0.000 C 
ENDROOT
BRANCH   1   2
ATOM      2  C   UNL     1       3.761  -6.088  -9.445  1.00  0.00     0.000 C 
BRANCH   2   3
ATOM      3  C   UNL     1       3.343  -4.711  -8.905  1.00  0.00     0.000 C 
BRANCH   3   4
ATOM      4  C   UNL     1       3.745  -4.506  -7.438  1.00  0.00     0.000 C 
BRANCH   4   5
ATOM      5  C   UNL     1       4.709  -3.318  -7.295  1.00  0.00     0.000 C 
BRANCH   5   6
ATOM      6  C   UNL     1       4.897  -2.544  -8.610  1.00  0.00     0.000 C 
BRANCH   6   7
ATOM      7  C   UNL     1       6.342  -2.607  -9.133  1.00  0.00     0.006 C 
BRANCH   7   8
ATOM      8  C   UNL     1       7.372  -2.590  -7.995  1.00  0.00     0.053 C 
BRANCH   8   9
ATOM      9  C   UNL     1       8.587  -1.791  -8.353  1.00  0.00     0.041 C 
ATOM     10  O   UNL     1       9.733  -2.211  -8.050  1.00  0.00    -0.550 OA
ATOM     11  O   UNL     1       8.451  -0.567  -8.997  1.00  0.00    -0.550 OA
ENDBRANCH   8   9
ENDBRANCH   7   8
ENDBRANCH   6   7
ENDBRANCH   5   6
ENDBRANCH   4   5
ENDBRANCH   3   4
ENDBRANCH   2   3
ENDBRANCH   1   2
BRANCH   1  12
ATOM     12  C   UNL     1       5.768  -7.449  -8.627  1.00  0.00     0.000 C 
BRANCH  12  13
ATOM     13  C   UNL     1       6.330  -6.836  -9.916  1.00  0.00    -0.000 C 
BRANCH  13  14
ATOM     14  C   UNL     1       7.503  -5.893  -9.610  1.00  0.00    -0.000 C 
BRANCH  14  15
ATOM     15  C   UNL     1       8.732  -6.628  -9.047  1.00  0.00    -0.000 C 
BRANCH  15  16
ATOM     16  C   UNL     1       9.683  -5.759  -8.198  1.00  0.00    -0.000 C 
BRANCH  16  17
ATOM     17  C   UNL     1       9.283  -5.608  -6.719  1.00  0.00    -0.000 C 
BRANCH  17  18
ATOM     18  C   UNL     1       8.928  -6.946  -6.057  1.00  0.00    -0.000 C 
BRANCH  18  19
ATOM     19  C   UNL     1       7.533  -6.892  -5.422  1.00  0.00    -0.003 C 
ATOM     20  C   UNL     1       6.854  -5.553  -5.695  1.00  0.00     0.004 C 
ENDBRANCH  18  19
ENDBRANCH  17  18
ENDBRANCH  16  17
ENDBRANCH  15  16
ENDBRANCH  14  15
ENDBRANCH  13  14
ENDBRANCH  12  13
ENDBRANCH   1  12
TORSDOF 16
ENDMDL
MODEL 5
REMARK VINA RESULT:    -3.294      1.831      4.645
REMARK INTER + INTRA:          -9.479
REMARK INTER:                  -6.339
REMARK INTRA:                  -3.139
REMARK UNBOUND:                -3.104
REMARK SMILES CCCCCCCCCCCCCCCCCC(=O)[O-]
REMARK SMILES IDX 10 1 11 2 12 3 13 4 14 5 15 6 16 7 17 8 18 9 19 10 20 11
REMARK SMILES IDX 9 12 8 13 7 14 6 15 5 16 4 17 3 18 2 19 1 20
REMARK H PARENT
REMARK Flexibility Score: inf
ROOT
ATOM      1  C   UNL     1       7.780  -6.590  -5.628  1.00  0.00     0.000 C 
ENDROOT
BRANCH   1   2
ATOM      2  C   UNL     1       8.708  -5.625  -6.387  1.00  0.00     0.000 C 
BRANCH   2   3
ATOM      3  C   UNL     1       9.757  -6.360  -7.237  1.00  0.00     0.000 C 
BRANCH   3   4
ATOM      4  C   UNL     1       9.294  -6.581  -8.684  1.00  0.00     0.000 C 
BRANCH   4   5
ATOM      5  C   UNL     1       8.223  -5.554  -9.079  1.00  0.00     0.000 C 
BRANCH   5   6
ATOM      6  C   UNL     1       7.079  -6.174  -9.898  1.00  0.00     0.000 C 
BRANCH   6   7
ATOM      7  C   UNL     1       6.155  -7.061  -9.046  1.00  0.00     0.006 C 
BRANCH   7   8
ATOM      8  C   UNL     1       4.689  -6.614  -9.123  1.00  0.00     0.053 C 
BRANCH   8   9
ATOM      9  C   UNL     1       3.783  -7.538  -8.368  1.00  0.00     0.041 C 
ATOM     10  O   UNL     1       3.303  -7.189  -7.259  1.00  0.00    -0.550 OA
ATOM     11  O   UNL     1       3.492  -8.798  -8.877  1.00  0.00    -0.550 OA
ENDBRANCH   8   9
ENDBRANCH   7   8
ENDBRANCH   6   7
ENDBRANCH   5   6
ENDBRANCH   4   5
ENDBRANCH   3   4
ENDBRANCH   2   3
ENDBRANCH   1   2
BRANCH   1  12
ATOM     12  C   UNL     1       6.336  -6.071  -5.539  1.00  0.00     0.000 C 
BRANCH  12  13
ATOM     13  C   UNL     1       6.222  -4.582  -5.895  1.00  0.00    -0.000 C 
BRANCH  13  14
ATOM     14  C   UNL     1       4.767  -4.202  -6.207  1.00  0.00    -0.000 C 
BRANCH  14  15
ATOM     15  C   UNL     1       4.621  -3.424  -7.527  1.00  0.00    -0.000 C 
BRANCH  15  16
ATOM     16  C   UNL     1       5.842  -2.568  -7.922  1.00  0.00    -0.000 C 
BRANCH  16  17
ATOM     17  C   UNL     1       6.168  -2.550  -9.426  1.00  0.00    -0.000 C 
BRANCH  17  18
ATOM     18  C   UNL     1       7.589  -2.054  -9.723  1.00  0.00    -0.000 C 
BRANCH  18  19
ATOM     19  C   UNL     1       8.395  -1.888  -8.429  1.00  0.00    -0.003 C 
ATOM     20  C   UNL     1       9.830  -2.374  -8.606  1.00  0.00     0.004 C 
ENDBRANCH  18  19
ENDBRANCH  17  18
ENDBRANCH  16  17
ENDBRANCH  15  16
ENDBRANCH  14  15
ENDBRANCH  13  14
ENDBRANCH  12  13
ENDBRANCH   1  12
TORSDOF 16
ENDMDL
MODEL 6
REMARK VINA RESULT:    -3.290      1.662      4.861
REMARK INTER + INTRA:          -9.472
REMARK INTER:                  -6.640
REMARK INTRA:                  -2.832
REMARK UNBOUND:                -3.104
REMARK SMILES CCCCCCCCCCCCCCCCCC(=O)[O-]
REMARK SMILES IDX 10 1 11 2 12 3 13 4 14 5 15 6 16 7 17 8 18 9 19 10 20 11
REMARK SMILES IDX 9 12 8 13 7 14 6 15 5 16 4 17 3 18 2 19 1 20
REMARK H PARENT
REMARK Flexibility Score: inf
ROOT
ATOM      1  C   UNL     1       4.378  -3.820  -6.788  1.00  0.00     0.000 C 
ENDROOT
BRANCH   1   2
ATOM      2  C   UNL     1       3.369  -4.634  -7.617  1.00  0.00     0.000 C 
BRANCH   2   3
ATOM      3  C   UNL     1       3.918  -6.009  -8.031  1.00  0.00     0.000 C 
BRANCH   3   4
ATOM      4  C   UNL     1       4.195  -6.104  -9.538  1.00  0.00     0.000 C 
BRANCH   4   5
ATOM      5  C   UNL     1       5.695  -6.299  -9.808  1.00  0.00     0.000 C 
BRANCH   5   6
ATOM      6  C   UNL     1       6.553  -6.131  -8.544  1.00  0.00     0.000 C 
BRANCH   6   7
ATOM      7  C   UNL     1       7.248  -7.437  -8.122  1.00  0.00     0.006 C 
BRANCH   7   8
ATOM      8  C   UNL     1       7.694  -7.409  -6.654  1.00  0.00     0.053 C 
BRANCH   8   9
ATOM      9  C   UNL     1       6.571  -7.033  -5.737  1.00  0.00     0.041 C 
ATOM     10  O   UNL     1       6.619  -5.958  -5.084  1.00  0.00    -0.550 OA
ATOM     11  O   UNL     1       5.483  -7.884  -5.581  1.00  0.00    -0.550 OA
ENDBRANCH   8   9
ENDBRANCH   7   8
ENDBRANCH   6   7
ENDBRANCH   5   6
ENDBRANCH   4   5
ENDBRANCH   3   4
ENDBRANCH   2   3
ENDBRANCH   1   2
BRANCH   1  12
ATOM     12  C   UNL     1       5.242  -2.891  -7.657  1.00  0.00     0.000 C 
BRANCH  12  13
ATOM     13  C   UNL     1       4.491  -2.372  -8.891  1.00  0.00    -0.000 C 
BRANCH  13  14
ATOM     14  C   UNL     1       5.467  -2.045 -10.030  1.00  0.00    -0.000 C 
BRANCH  14  15
ATOM     15  C   UNL     1       6.838  -2.722  -9.858  1.00  0.00    -0.000 C 
BRANCH  15  16
ATOM     16  C   UNL     1       8.042  -1.759  -9.800  1.00  0.00    -0.000 C 
BRANCH  16  17
ATOM     17  C   UNL     1       8.953  -1.927  -8.571  1.00  0.00    -0.000 C 
BRANCH  17  18
ATOM     18  C   UNL     1      10.018  -3.015  -8.762  1.00  0.00    -0.000 C 
BRANCH  18  19
ATOM     19  C   UNL     1       9.909  -4.088  -7.672  1.00  0.00    -0.003 C 
ATOM     20  C   UNL     1       8.772  -3.777  -6.703  1.00  0.00     0.004 C 
ENDBRANCH  18  19
ENDBRANCH  17  18
ENDBRANCH  16  17
ENDBRANCH  15  16
ENDBRANCH  14  15
ENDBRANCH  13  14
ENDBRANCH  12  13
ENDBRANCH   1  12
TORSDOF 16
ENDMDL
MODEL 7
REMARK VINA RESULT:    -3.268      1.830      4.102
REMARK INTER + INTRA:          -9.429
REMARK INTER:                  -6.677
REMARK INTRA:                  -2.752
REMARK UNBOUND:                -3.104
REMARK SMILES CCCCCCCCCCCCCCCCCC(=O)[O-]
REMARK SMILES IDX 10 1 11 2 12 3 13 4 14 5 15 6 16 7 17 8 18 9 19 10 20 11
REMARK SMILES IDX 9 12 8 13 7 14 6 15 5 16 4 17 3 18 2 19 1 20
REMARK H PARENT
REMARK Flexibility Score: inf
ROOT
ATOM      1  C   UNL     1       6.068  -4.702  -6.022  1.00  0.00     0.000 C 
ENDROOT
BRANCH   1   2
ATOM      2  C   UNL     1       4.683  -4.146  -5.648  1.00  0.00     0.000 C 
BRANCH   2   3
ATOM      3  C   UNL     1       3.988  -3.448  -6.828  1.00  0.00     0.000 C 
BRANCH   3   4
ATOM      4  C   UNL     1       4.985  -2.895  -7.856  1.00  0.00     0.000 C 
BRANCH   4   5
ATOM      5  C   UNL     1       4.582  -3.301  -9.282  1.00  0.00     0.000 C 
BRANCH   5   6
ATOM      6  C   UNL     1       3.314  -4.168  -9.318  1.00  0.00     0.000 C 
BRANCH   6   7
ATOM      7  C   UNL     1       3.578  -5.582  -9.862  1.00  0.00     0.006 C 
BRANCH   7   8
ATOM      8  C   UNL     1       4.813  -6.229  -9.221  1.00  0.00     0.053 C 
BRANCH   8   9
ATOM      9  C   UNL     1       4.438  -7.295  -8.238  1.00  0.00     0.041 C 
ATOM     10  O   UNL     1       3.504  -7.100  -7.418  1.00  0.00    -0.550 OA
ATOM     11  O   UNL     1       5.139  -8.495  -8.209  1.00  0.00    -0.550 OA
ENDBRANCH   8   9
ENDBRANCH   7   8
ENDBRANCH   6   7
ENDBRANCH   5   6
ENDBRANCH   4   5
ENDBRANCH   3   4
ENDBRANCH   2   3
ENDBRANCH   1   2
BRANCH   1  12
ATOM     12  C   UNL     1       6.401  -6.006  -5.279  1.00  0.00     0.000 C 
BRANCH  12  13
ATOM     13  C   UNL     1       7.430  -6.865  -6.027  1.00  0.00    -0.000 C 
BRANCH  13  14
ATOM     14  C   UNL     1       8.779  -6.139  -6.133  1.00  0.00    -0.000 C 
BRANCH  14  15
ATOM     15  C   UNL     1       9.312  -6.071  -7.575  1.00  0.00    -0.000 C 
BRANCH  15  16
ATOM     16  C   UNL     1       8.377  -5.378  -8.588  1.00  0.00    -0.000 C 
BRANCH  16  17
ATOM     17  C   UNL     1       8.845  -3.992  -9.067  1.00  0.00    -0.000 C 
BRANCH  17  18
ATOM     18  C   UNL     1       8.668  -2.901  -8.002  1.00  0.00    -0.000 C 
BRANCH  18  19
ATOM     19  C   UNL     1       8.556  -1.516  -8.650  1.00  0.00    -0.003 C 
ATOM     20  C   UNL     1       7.838  -1.591  -9.994  1.00  0.00     0.004 C 
ENDBRANCH  18  19
ENDBRANCH  17  18
ENDBRANCH  16  17
ENDBRANCH  15  16
ENDBRANCH  14  15
ENDBRANCH  13  14
ENDBRANCH  12  13
ENDBRANCH   1  12
TORSDOF 16
ENDMDL
MODEL 8
REMARK VINA RESULT:    -3.215      1.560      4.687
REMARK INTER + INTRA:          -9.326
REMARK INTER:                  -7.197
REMARK INTRA:                  -2.129
REMARK UNBOUND:                -3.104
REMARK SMILES CCCCCCCCCCCCCCCCCC(=O)[O-]
REMARK SMILES IDX 10 1 11 2 12 3 13 4 14 5 15 6 16 7 17 8 18 9 19 10 20 11
REMARK SMILES IDX 9 12 8 13 7 14 6 15 5 16 4 17 3 18 2 19 1 20
REMARK H PARENT
REMARK Flexibility Score: inf
ROOT
ATOM      1  C   UNL     1       6.622  -2.755  -7.595  1.00  0.00     0.000 C 
ENDROOT
BRANCH   1   2
ATOM      2  C   UNL     1       7.873  -3.062  -6.753  1.00  0.00     0.000 C 
BRANCH   2   3
ATOM      3  C   UNL     1       9.168  -3.011  -7.580  1.00  0.00     0.000 C 
BRANCH   3   4
ATOM      4  C   UNL     1       9.891  -4.365  -7.627  1.00  0.00     0.000 C 
BRANCH   4   5
ATOM      5  C   UNL     1       9.115  -5.371  -8.491  1.00  0.00     0.000 C 
BRANCH   5   6
ATOM      6  C   UNL     1       8.874  -6.709  -7.773  1.00  0.00     0.000 C 
BRANCH   6   7
ATOM      7  C   UNL     1       8.762  -6.550  -6.247  1.00  0.00     0.006 C 
BRANCH   7   8
ATOM      8  C   UNL     1       7.762  -7.539  -5.633  1.00  0.00     0.053 C 
BRANCH   8   9
ATOM      9  C   UNL     1       6.363  -7.004  -5.656  1.00  0.00     0.041 C 
ATOM     10  O   UNL     1       5.436  -7.676  -6.177  1.00  0.00    -0.550 OA
ATOM     11  O   UNL     1       6.088  -5.748  -5.126  1.00  0.00    -0.550 OA
ENDBRANCH   8   9
ENDBRANCH   7   8
ENDBRANCH   6   7
ENDBRANCH   5   6
ENDBRANCH   4   5
ENDBRANCH   3   4
ENDBRANCH   2   3
ENDBRANCH   1   2
BRANCH   1  12
ATOM     12  C   UNL     1       6.964  -2.369  -9.042  1.00  0.00     0.000 C 
BRANCH  12  13
ATOM     13  C   UNL     1       5.830  -2.697 -10.023  1.00  0.00    -0.000 C 
BRANCH  13  14
ATOM     14  C   UNL     1       4.473  -2.245  -9.465  1.00  0.00    -0.000 C 
BRANCH  14  15
ATOM     15  C   UNL     1       3.340  -3.244  -9.761  1.00  0.00    -0.000 C 
BRANCH  15  16
ATOM     16  C   UNL     1       3.677  -4.721  -9.471  1.00  0.00    -0.000 C 
BRANCH  16  17
ATOM     17  C   UNL     1       3.964  -5.048  -7.994  1.00  0.00    -0.000 C 
BRANCH  17  18
ATOM     18  C   UNL     1       2.916  -4.462  -7.038  1.00  0.00    -0.000 C 
BRANCH  18  19
ATOM     19  C   UNL     1       3.586  -3.678  -5.904  1.00  0.00    -0.003 C 
ATOM     20  C   UNL     1       2.552  -2.940  -5.058  1.00  0.00     0.004 C 
ENDBRANCH  18  19
ENDBRANCH  17  18
ENDBRANCH  16  17
ENDBRANCH  15  16
ENDBRANCH  14  15
ENDBRANCH  13  14
ENDBRANCH  12  13
ENDBRANCH   1  12
TORSDOF 16
ENDMDL
MODEL 9
REMARK VINA RESULT:    -3.200      1.600      4.836
REMARK INTER + INTRA:          -9.298
REMARK INTER:                  -6.765
REMARK INTRA:                  -2.534
REMARK UNBOUND:                -3.104
REMARK SMILES CCCCCCCCCCCCCCCCCC(=O)[O-]
REMARK SMILES IDX 10 1 11 2 12 3 13 4 14 5 15 6 16 7 17 8 18 9 19 10 20 11
REMARK SMILES IDX 9 12 8 13 7 14 6 15 5 16 4 17 3 18 2 19 1 20
REMARK H PARENT
REMARK Flexibility Score: inf
ROOT
ATOM      1  C   UNL     1       7.291  -4.689  -6.224  1.00  0.00     0.000 C 
ENDROOT
BRANCH   1   2
ATOM      2  C   UNL     1       6.720  -5.873  -5.424  1.00  0.00     0.000 C 
BRANCH   2   3
ATOM      3  C   UNL     1       7.582  -7.140  -5.547  1.00  0.00     0.000 C 
BRANCH   3   4
ATOM      4  C   UNL     1       6.915  -8.225  -6.405  1.00  0.00     0.000 C 
BRANCH   4   5
ATOM      5  C   UNL     1       7.561  -8.298  -7.797  1.00  0.00     0.000 C 
BRANCH   5   6
ATOM      6  C   UNL     1       6.540  -8.136  -8.935  1.00  0.00     0.000 C 
BRANCH   6   7
ATOM      7  C   UNL     1       5.942  -6.720  -8.995  1.00  0.00     0.006 C 
BRANCH   7   8
ATOM      8  C   UNL     1       4.416  -6.742  -9.160  1.00  0.00     0.053 C 
BRANCH   8   9
ATOM      9  C   UNL     1       3.711  -6.592  -7.847  1.00  0.00     0.041 C 
ATOM     10  O   UNL     1       3.106  -7.570  -7.338  1.00  0.00    -0.550 OA
ATOM     11  O   UNL     1       3.698  -5.363  -7.199  1.00  0.00    -0.550 OA
ENDBRANCH   8   9
ENDBRANCH   7   8
ENDBRANCH   6   7
ENDBRANCH   5   6
ENDBRANCH   4   5
ENDBRANCH   3   4
ENDBRANCH   2   3
ENDBRANCH   1   2
BRANCH   1  12
ATOM     12  C   UNL     1       8.720  -4.951  -6.727  1.00  0.00     0.000 C 
BRANCH  12  13
ATOM     13  C   UNL     1       9.438  -3.664  -7.156  1.00  0.00    -0.000 C 
BRANCH  13  14
ATOM     14  C   UNL     1       8.430  -2.535  -7.419  1.00  0.00    -0.000 C 
BRANCH  14  15
ATOM     15  C   UNL     1       8.571  -1.921  -8.823  1.00  0.00    -0.000 C 
BRANCH  15  16
ATOM     16  C   UNL     1       7.267  -1.858  -9.645  1.00  0.00    -0.000 C 
BRANCH  16  17
ATOM     17  C   UNL     1       6.327  -3.064  -9.472  1.00  0.00    -0.000 C 
BRANCH  17  18
ATOM     18  C   UNL     1       4.970  -2.683  -8.866  1.00  0.00    -0.000 C 
BRANCH  18  19
ATOM     19  C   UNL     1       3.947  -2.369  -9.964  1.00  0.00    -0.003 C 
ATOM     20  C   UNL     1       2.943  -3.506 -10.124  1.00  0.00     0.004 C 
ENDBRANCH  18  19
ENDBRANCH  17  18
ENDBRANCH  16  17
ENDBRANCH  15  16
ENDBRANCH  14  15
ENDBRANCH  13  14
ENDBRANCH  12  13
ENDBRANCH   1  12
TORSDOF 16
ENDMDL
