MODEL 1
REMARK VINA RESULT:    -4.866      0.000      0.000
REMARK INTER + INTRA:          -5.151
REMARK INTER:                  -5.151
REMARK INTRA:                   0.000
REMARK UNBOUND:                 0.000
REMARK SMILES O=c1ccc2cc(O)c(O)cc2o1
REMARK SMILES IDX 4 1 3 2 2 3 1 4 13 5 12 6 11 7 9 8 7 9 6 10 5 11 8 12 10 14
REMARK H PARENT 8 13 10 15
REMARK Flexibility Score: inf
ROOT
ATOM      1  C   UNL     1      43.707  20.996  -4.722  1.00  0.00     0.019 A 
ATOM      2  C   UNL     1      44.401  20.188  -5.622  1.00  0.00     0.094 A 
ATOM      3  C   UNL     1      44.575  18.832  -5.324  1.00  0.00     0.336 A 
ATOM      4  O   UNL     1      45.198  18.089  -6.125  1.00  0.00    -0.246 OA
ATOM      5  O   UNL     1      44.084  18.323  -4.197  1.00  0.00    -0.423 OA
ATOM      6  C   UNL     1      43.415  19.057  -3.311  1.00  0.00     0.142 A 
ATOM      7  C   UNL     1      42.922  18.467  -2.144  1.00  0.00     0.098 A 
ATOM      8  C   UNL     1      42.218  19.232  -1.206  1.00  0.00     0.161 A 
ATOM      9  C   UNL     1      42.004  20.603  -1.438  1.00  0.00     0.158 A 
ATOM     10  C   UNL     1      42.496  21.200  -2.608  1.00  0.00     0.062 A 
ATOM     11  C   UNL     1      43.201  20.432  -3.545  1.00  0.00     0.022 A 
ENDROOT
BRANCH   9  12
ATOM     12  O   UNL     1      41.303  21.367  -0.505  1.00  0.00    -0.504 OA
ATOM     13  H   UNL     1      41.763  21.773   0.301  1.00  0.00     0.293 HD
ENDBRANCH   9  12
BRANCH   8  14
ATOM     14  O   UNL     1      41.739  18.614  -0.051  1.00  0.00    -0.504 OA
ATOM     15  H   UNL     1      41.186  19.112   0.635  1.00  0.00     0.293 HD
ENDBRANCH   8  14
TORSDOF 2
ENDMDL
MODEL 2
REMARK VINA RESULT:    -4.603      1.588      2.533
REMARK INTER + INTRA:          -4.872
REMARK INTER:                  -4.872
REMARK INTRA:                   0.000
REMARK UNBOUND:                 0.000
REMARK SMILES O=c1ccc2cc(O)c(O)cc2o1
REMARK SMILES IDX 4 1 3 2 2 3 1 4 13 5 12 6 11 7 9 8 7 9 6 10 5 11 8 12 10 14
REMARK H PARENT 8 13 10 15
REMARK Flexibility Score: inf
ROOT
ATOM      1  C   UNL     1      44.025  18.480  -4.759  1.00  0.00     0.019 A 
ATOM      2  C   UNL     1      44.491  19.566  -5.499  1.00  0.00     0.094 A 
ATOM      3  C   UNL     1      44.206  20.862  -5.057  1.00  0.00     0.336 A 
ATOM      4  O   UNL     1      44.618  21.854  -5.712  1.00  0.00    -0.246 OA
ATOM      5  O   UNL     1      43.499  21.053  -3.945  1.00  0.00    -0.423 OA
ATOM      6  C   UNL     1      43.036  20.046  -3.209  1.00  0.00     0.142 A 
ATOM      7  C   UNL     1      42.300  20.308  -2.050  1.00  0.00     0.098 A 
ATOM      8  C   UNL     1      41.809  19.254  -1.269  1.00  0.00     0.161 A 
ATOM      9  C   UNL     1      42.057  17.923  -1.652  1.00  0.00     0.158 A 
ATOM     10  C   UNL     1      42.795  17.655  -2.814  1.00  0.00     0.062 A 
ATOM     11  C   UNL     1      43.286  18.711  -3.594  1.00  0.00     0.022 A 
ENDROOT
BRANCH   9  12
ATOM     12  O   UNL     1      41.568  16.872  -0.877  1.00  0.00    -0.504 OA
ATOM     13  H   UNL     1      41.148  17.033   0.031  1.00  0.00     0.293 HD
ENDBRANCH   9  12
BRANCH   8  14
ATOM     14  O   UNL     1      41.078  19.548  -0.119  1.00  0.00    -0.504 OA
ATOM     15  H   UNL     1      40.240  19.037   0.131  1.00  0.00     0.293 HD
ENDBRANCH   8  14
TORSDOF 2
ENDMDL
MODEL 3
REMARK VINA RESULT:    -4.285      2.055      3.247
REMARK INTER + INTRA:          -4.535
REMARK INTER:                  -4.535
REMARK INTRA:                   0.000
REMARK UNBOUND:                 0.000
REMARK SMILES O=c1ccc2cc(O)c(O)cc2o1
REMARK SMILES IDX 4 1 3 2 2 3 1 4 13 5 12 6 11 7 9 8 7 9 6 10 5 11 8 12 10 14
REMARK H PARENT 8 13 10 15
REMARK Flexibility Score: inf
ROOT
ATOM      1  C   UNL     1      42.072  20.269  -2.489  1.00  0.00     0.019 A 
ATOM      2  C   UNL     1      42.786  21.088  -3.362  1.00  0.00     0.094 A 
ATOM      3  C   UNL     1      43.717  20.507  -4.230  1.00  0.00     0.336 A 
ATOM      4  O   UNL     1      44.371  21.230  -5.025  1.00  0.00    -0.246 OA
ATOM      5  O   UNL     1      43.916  19.190  -4.219  1.00  0.00    -0.423 OA
ATOM      6  C   UNL     1      43.256  18.373  -3.403  1.00  0.00     0.142 A 
ATOM      7  C   UNL     1      43.507  16.998  -3.437  1.00  0.00     0.098 A 
ATOM      8  C   UNL     1      42.817  16.131  -2.582  1.00  0.00     0.161 A 
ATOM      9  C   UNL     1      41.865  16.644  -1.681  1.00  0.00     0.158 A 
ATOM     10  C   UNL     1      41.609  18.023  -1.643  1.00  0.00     0.062 A 
ATOM     11  C   UNL     1      42.301  18.889  -2.501  1.00  0.00     0.022 A 
ENDROOT
BRANCH   9  12
ATOM     12  O   UNL     1      41.177  15.782  -0.828  1.00  0.00    -0.504 OA
ATOM     13  H   UNL     1      40.457  16.119  -0.201  1.00  0.00     0.293 HD
ENDBRANCH   9  12
BRANCH   8  14
ATOM     14  O   UNL     1      43.090  14.765  -2.640  1.00  0.00    -0.504 OA
ATOM     15  H   UNL     1      42.955  14.155  -1.842  1.00  0.00     0.293 HD
ENDBRANCH   8  14
TORSDOF 2
ENDMDL
MODEL 4
REMARK VINA RESULT:    -4.140      5.693      7.713
REMARK INTER + INTRA:          -4.382
REMARK INTER:                  -4.382
REMARK INTRA:                   0.000
REMARK UNBOUND:                 0.000
REMARK SMILES O=c1ccc2cc(O)c(O)cc2o1
REMARK SMILES IDX 4 1 3 2 2 3 1 4 13 5 12 6 11 7 9 8 7 9 6 10 5 11 8 12 10 14
REMARK H PARENT 8 13 10 15
REMARK Flexibility Score: inf
ROOT
ATOM      1  C   UNL     1      46.913  16.588  -4.250  1.00  0.00     0.019 A 
ATOM      2  C   UNL     1      45.589  16.752  -3.846  1.00  0.00     0.094 A 
ATOM      3  C   UNL     1      44.987  15.756  -3.070  1.00  0.00     0.336 A 
ATOM      4  O   UNL     1      43.792  15.887  -2.696  1.00  0.00    -0.246 OA
ATOM      5  O   UNL     1      45.671  14.668  -2.723  1.00  0.00    -0.423 OA
ATOM      6  C   UNL     1      46.936  14.471  -3.086  1.00  0.00     0.142 A 
ATOM      7  C   UNL     1      47.604  13.309  -2.691  1.00  0.00     0.098 A 
ATOM      8  C   UNL     1      48.935  13.094  -3.069  1.00  0.00     0.161 A 
ATOM      9  C   UNL     1      49.607  14.053  -3.851  1.00  0.00     0.158 A 
ATOM     10  C   UNL     1      48.940  15.221  -4.249  1.00  0.00     0.062 A 
ATOM     11  C   UNL     1      47.607  15.434  -3.870  1.00  0.00     0.022 A 
ENDROOT
BRANCH   9  12
ATOM     12  O   UNL     1      50.931  13.841  -4.228  1.00  0.00    -0.504 OA
ATOM     13  H   UNL     1      51.529  13.194  -3.727  1.00  0.00     0.293 HD
ENDBRANCH   9  12
BRANCH   8  14
ATOM     14  O   UNL     1      49.574  11.924  -2.659  1.00  0.00    -0.504 OA
ATOM     15  H   UNL     1      50.583  11.844  -2.634  1.00  0.00     0.293 HD
ENDBRANCH   8  14
TORSDOF 2
ENDMDL
MODEL 5
REMARK VINA RESULT:    -4.132      7.083      9.504
REMARK INTER + INTRA:          -4.374
REMARK INTER:                  -4.374
REMARK INTRA:                   0.000
REMARK UNBOUND:                 0.000
REMARK SMILES O=c1ccc2cc(O)c(O)cc2o1
REMARK SMILES IDX 4 1 3 2 2 3 1 4 13 5 12 6 11 7 9 8 7 9 6 10 5 11 8 12 10 14
REMARK H PARENT 8 13 10 15
REMARK Flexibility Score: inf
ROOT
ATOM      1  C   UNL     1      48.260  15.928  -4.168  1.00  0.00     0.019 A 
ATOM      2  C   UNL     1      47.327  15.016  -3.675  1.00  0.00     0.094 A 
ATOM      3  C   UNL     1      47.673  13.663  -3.603  1.00  0.00     0.336 A 
ATOM      4  O   UNL     1      46.844  12.825  -3.161  1.00  0.00    -0.246 OA
ATOM      5  O   UNL     1      48.877  13.254  -3.998  1.00  0.00    -0.423 OA
ATOM      6  C   UNL     1      49.796  14.090  -4.474  1.00  0.00     0.142 A 
ATOM      7  C   UNL     1      51.044  13.604  -4.874  1.00  0.00     0.098 A 
ATOM      8  C   UNL     1      52.018  14.476  -5.376  1.00  0.00     0.161 A 
ATOM      9  C   UNL     1      51.740  15.852  -5.478  1.00  0.00     0.158 A 
ATOM     10  C   UNL     1      50.490  16.346  -5.077  1.00  0.00     0.062 A 
ATOM     11  C   UNL     1      49.517  15.470  -4.576  1.00  0.00     0.022 A 
ENDROOT
BRANCH   9  12
ATOM     12  O   UNL     1      52.708  16.722  -5.977  1.00  0.00    -0.504 OA
ATOM     13  H   UNL     1      53.680  16.447  -6.055  1.00  0.00     0.293 HD
ENDBRANCH   9  12
BRANCH   8  14
ATOM     14  O   UNL     1      53.252  13.959  -5.767  1.00  0.00    -0.504 OA
ATOM     15  H   UNL     1      53.379  12.979  -5.987  1.00  0.00     0.293 HD
ENDBRANCH   8  14
TORSDOF 2
ENDMDL
MODEL 6
REMARK VINA RESULT:    -4.129      1.832      4.645
REMARK INTER + INTRA:          -4.370
REMARK INTER:                  -4.370
REMARK INTRA:                   0.000
REMARK UNBOUND:                 0.000
REMARK SMILES O=c1ccc2cc(O)c(O)cc2o1
REMARK SMILES IDX 4 1 3 2 2 3 1 4 13 5 12 6 11 7 9 8 7 9 6 10 5 11 8 12 10 14
REMARK H PARENT 8 13 10 15
REMARK Flexibility Score: inf
ROOT
ATOM      1  C   UNL     1      43.019  20.345  -2.377  1.00  0.00     0.019 A 
ATOM      2  C   UNL     1      42.105  21.008  -1.559  1.00  0.00     0.094 A 
ATOM      3  C   UNL     1      41.178  20.257  -0.828  1.00  0.00     0.336 A 
ATOM      4  O   UNL     1      40.345  20.838  -0.085  1.00  0.00    -0.246 OA
ATOM      5  O   UNL     1      41.171  18.929  -0.915  1.00  0.00    -0.423 OA
ATOM      6  C   UNL     1      42.025  18.257  -1.682  1.00  0.00     0.142 A 
ATOM      7  C   UNL     1      41.971  16.861  -1.732  1.00  0.00     0.098 A 
ATOM      8  C   UNL     1      42.866  16.145  -2.537  1.00  0.00     0.161 A 
ATOM      9  C   UNL     1      43.827  16.834  -3.300  1.00  0.00     0.158 A 
ATOM     10  C   UNL     1      43.886  18.234  -3.253  1.00  0.00     0.062 A 
ATOM     11  C   UNL     1      42.989  18.949  -2.447  1.00  0.00     0.022 A 
ENDROOT
BRANCH   9  12
ATOM     12  O   UNL     1      44.719  16.123  -4.102  1.00  0.00    -0.504 OA
ATOM     13  H   UNL     1      45.637  15.857  -3.768  1.00  0.00     0.293 HD
ENDBRANCH   9  12
BRANCH   8  14
ATOM     14  O   UNL     1      42.786  14.754  -2.565  1.00  0.00    -0.504 OA
ATOM     15  H   UNL     1      43.520  14.165  -2.189  1.00  0.00     0.293 HD
ENDBRANCH   8  14
TORSDOF 2
ENDMDL
MODEL 7
REMARK VINA RESULT:    -4.068      6.224      8.918
REMARK INTER + INTRA:          -4.306
REMARK INTER:                  -4.306
REMARK INTRA:                   0.000
REMARK UNBOUND:                 0.000
REMARK SMILES O=c1ccc2cc(O)c(O)cc2o1
REMARK SMILES IDX 4 1 3 2 2 3 1 4 13 5 12 6 11 7 9 8 7 9 6 10 5 11 8 12 10 14
REMARK H PARENT 8 13 10 15
REMARK Flexibility Score: inf
ROOT
ATOM      1  C   UNL     1      48.223  13.354  -3.135  1.00  0.00     0.019 A 
ATOM      2  C   UNL     1      46.934  13.756  -2.789  1.00  0.00     0.094 A 
ATOM      3  C   UNL     1      46.486  15.019  -3.191  1.00  0.00     0.336 A 
ATOM      4  O   UNL     1      45.325  15.399  -2.888  1.00  0.00    -0.246 OA
ATOM      5  O   UNL     1      47.280  15.823  -3.894  1.00  0.00    -0.423 OA
ATOM      6  C   UNL     1      48.517  15.478  -4.246  1.00  0.00     0.142 A 
ATOM      7  C   UNL     1      49.306  16.364  -4.985  1.00  0.00     0.098 A 
ATOM      8  C   UNL     1      50.608  16.011  -5.359  1.00  0.00     0.161 A 
ATOM      9  C   UNL     1      51.127  14.756  -4.990  1.00  0.00     0.158 A 
ATOM     10  C   UNL     1      50.339  13.863  -4.248  1.00  0.00     0.062 A 
ATOM     11  C   UNL     1      49.036  14.219  -3.875  1.00  0.00     0.022 A 
ENDROOT
BRANCH   9  12
ATOM     12  O   UNL     1      52.423  14.401  -5.361  1.00  0.00    -0.504 OA
ATOM     13  H   UNL     1      52.599  13.684  -6.054  1.00  0.00     0.293 HD
ENDBRANCH   9  12
BRANCH   8  14
ATOM     14  O   UNL     1      51.370  16.916  -6.096  1.00  0.00    -0.504 OA
ATOM     15  H   UNL     1      50.945  17.650  -6.650  1.00  0.00     0.293 HD
ENDBRANCH   8  14
TORSDOF 2
ENDMDL
MODEL 8
REMARK VINA RESULT:    -3.989      5.249      7.909
REMARK INTER + INTRA:          -4.222
REMARK INTER:                  -4.222
REMARK INTRA:                   0.000
REMARK UNBOUND:                 0.000
REMARK SMILES O=c1ccc2cc(O)c(O)cc2o1
REMARK SMILES IDX 4 1 3 2 2 3 1 4 13 5 12 6 11 7 9 8 7 9 6 10 5 11 8 12 10 14
REMARK H PARENT 8 13 10 15
REMARK Flexibility Score: inf
ROOT
ATOM      1  C   UNL     1      46.542  14.455  -2.918  1.00  0.00     0.019 A 
ATOM      2  C   UNL     1      45.400  15.255  -2.935  1.00  0.00     0.094 A 
ATOM      3  C   UNL     1      45.434  16.473  -3.622  1.00  0.00     0.336 A 
ATOM      4  O   UNL     1      44.412  17.208  -3.648  1.00  0.00    -0.246 OA
ATOM      5  O   UNL     1      46.542  16.861  -4.249  1.00  0.00    -0.423 OA
ATOM      6  C   UNL     1      47.653  16.129  -4.259  1.00  0.00     0.142 A 
ATOM      7  C   UNL     1      48.786  16.587  -4.936  1.00  0.00     0.098 A 
ATOM      8  C   UNL     1      49.960  15.824  -4.951  1.00  0.00     0.161 A 
ATOM      9  C   UNL     1      50.000  14.586  -4.282  1.00  0.00     0.158 A 
ATOM     10  C   UNL     1      48.865  14.122  -3.601  1.00  0.00     0.062 A 
ATOM     11  C   UNL     1      47.691  14.888  -3.587  1.00  0.00     0.022 A 
ENDROOT
BRANCH   9  12
ATOM     12  O   UNL     1      51.167  13.825  -4.295  1.00  0.00    -0.504 OA
ATOM     13  H   UNL     1      51.380  13.166  -3.556  1.00  0.00     0.293 HD
ENDBRANCH   9  12
BRANCH   8  14
ATOM     14  O   UNL     1      51.074  16.309  -5.635  1.00  0.00    -0.504 OA
ATOM     15  H   UNL     1      51.050  17.179  -6.153  1.00  0.00     0.293 HD
ENDBRANCH   8  14
TORSDOF 2
ENDMDL
MODEL 9
REMARK VINA RESULT:    -3.883      6.912      8.349
REMARK INTER + INTRA:          -4.110
REMARK INTER:                  -4.110
REMARK INTRA:                   0.000
REMARK UNBOUND:                 0.000
REMARK SMILES O=c1ccc2cc(O)c(O)cc2o1
REMARK SMILES IDX 4 1 3 2 2 3 1 4 13 5 12 6 11 7 9 8 7 9 6 10 5 11 8 12 10 14
REMARK H PARENT 8 13 10 15
REMARK Flexibility Score: inf
ROOT
ATOM      1  C   UNL     1      50.103  16.131  -5.247  1.00  0.00     0.019 A 
ATOM      2  C   UNL     1      51.307  15.732  -5.826  1.00  0.00     0.094 A 
ATOM      3  C   UNL     1      51.782  14.439  -5.585  1.00  0.00     0.336 A 
ATOM      4  O   UNL     1      52.867  14.062  -6.099  1.00  0.00    -0.246 OA
ATOM      5  O   UNL     1      51.093  13.602  -4.812  1.00  0.00    -0.423 OA
ATOM      6  C   UNL     1      49.941  13.941  -4.240  1.00  0.00     0.142 A 
ATOM      7  C   UNL     1      49.261  13.020  -3.439  1.00  0.00     0.098 A 
ATOM      8  C   UNL     1      48.047  13.367  -2.832  1.00  0.00     0.161 A 
ATOM      9  C   UNL     1      47.507  14.652  -3.030  1.00  0.00     0.158 A 
ATOM     10  C   UNL     1      48.186  15.580  -3.834  1.00  0.00     0.062 A 
ATOM     11  C   UNL     1      49.400  15.230  -4.440  1.00  0.00     0.022 A 
ENDROOT
BRANCH   9  12
ATOM     12  O   UNL     1      46.299  15.000  -2.428  1.00  0.00    -0.504 OA
ATOM     13  H   UNL     1      46.221  15.813  -1.829  1.00  0.00     0.293 HD
ENDBRANCH   9  12
BRANCH   8  14
ATOM     14  O   UNL     1      47.394  12.426  -2.039  1.00  0.00    -0.504 OA
ATOM     15  H   UNL     1      47.438  12.452  -1.027  1.00  0.00     0.293 HD
ENDBRANCH   8  14
TORSDOF 2
ENDMDL
