MODEL 1
REMARK VINA RESULT:    13.740      0.000      0.000
REMARK INTER + INTRA:          16.009
REMARK INTER:                  16.150
REMARK INTRA:                  -0.141
REMARK UNBOUND:                -0.141
REMARK SMILES O=C([O-])C=Cc1ccc(O)c(O)c1
REMARK SMILES IDX 6 1 13 2 7 3 11 4 8 5 9 6 5 7 4 8 2 9 1 10 3 11 12 12 10 14
REMARK H PARENT 12 13 10 15
REMARK Flexibility Score: inf
ROOT
ATOM      1  C   UNL     1      15.998  50.613  60.000  1.00  0.00    -0.022 A 
ATOM      2  C   UNL     1      15.975  51.999  59.748  1.00  0.00     0.058 A 
ATOM      3  C   UNL     1      15.363  50.124  61.149  1.00  0.00     0.012 A 
ATOM      4  C   UNL     1      15.352  52.882  60.641  1.00  0.00     0.157 A 
ATOM      5  C   UNL     1      14.744  50.998  62.046  1.00  0.00     0.051 A 
ATOM      6  C   UNL     1      14.735  52.376  61.807  1.00  0.00     0.157 A 
ENDROOT
BRANCH   1   7
ATOM      7  C   UNL     1      16.635  49.644  59.074  1.00  0.00     0.010 C 
ATOM      8  C   UNL     1      16.068  48.489  58.699  1.00  0.00     0.025 C 
BRANCH   8   9
ATOM      9  C   UNL     1      16.726  47.556  57.767  1.00  0.00     0.064 C 
ATOM     10  O   UNL     1      17.145  46.434  58.156  1.00  0.00    -0.545 OA
ATOM     11  O   UNL     1      16.885  47.920  56.437  1.00  0.00    -0.545 OA
ENDBRANCH   8   9
ENDBRANCH   1   7
BRANCH   4  12
ATOM     12  O   UNL     1      15.368  54.244  60.327  1.00  0.00    -0.504 OA
ATOM     13  H   UNL     1      15.521  54.607  59.398  1.00  0.00     0.293 HD
ENDBRANCH   4  12
BRANCH   6  14
ATOM     14  O   UNL     1      14.104  53.196  62.745  1.00  0.00    -0.504 OA
ATOM     15  H   UNL     1      14.123  54.205  62.716  1.00  0.00     0.293 HD
ENDBRANCH   6  14
TORSDOF 4
ENDMDL
