MODEL 1
REMARK VINA RESULT:    -3.970      0.000      0.000
REMARK INTER + INTRA:          -7.966
REMARK INTER:                  -6.755
REMARK INTRA:                  -1.211
REMARK UNBOUND:                -1.211
REMARK SMILES CCCCCCCCCCCCCC(=O)[O-]
REMARK SMILES IDX 8 1 9 2 10 3 11 4 12 5 13 6 14 7 15 8 16 9 7 10 6 11 5 12
REMARK SMILES IDX 4 13 3 14 2 15 1 16
REMARK H PARENT
REMARK Flexibility Score: inf
ROOT
ATOM      1  C   UNL     1       5.291  -7.899   3.952  1.00  0.00     0.000 C 
ENDROOT
BRANCH   1   2
ATOM      2  C   UNL     1       4.340  -9.107   3.840  1.00  0.00     0.000 C 
BRANCH   2   3
ATOM      3  C   UNL     1       2.852  -8.792   4.073  1.00  0.00     0.000 C 
BRANCH   3   4
ATOM      4  C   UNL     1       2.630  -7.431   4.750  1.00  0.00     0.000 C 
BRANCH   4   5
ATOM      5  C   UNL     1       1.131  -7.132   4.902  1.00  0.00     0.006 C 
BRANCH   5   6
ATOM      6  C   UNL     1       0.256  -8.282   4.389  1.00  0.00     0.053 C 
BRANCH   6   7
ATOM      7  C   UNL     1      -1.200  -7.934   4.432  1.00  0.00     0.041 C 
ATOM      8  O   UNL     1      -1.858  -7.823   3.364  1.00  0.00    -0.550 OA
ATOM      9  O   UNL     1      -1.823  -7.698   5.651  1.00  0.00    -0.550 OA
ENDBRANCH   6   7
ENDBRANCH   5   6
ENDBRANCH   4   5
ENDBRANCH   3   4
ENDBRANCH   2   3
ENDBRANCH   1   2
BRANCH   1  10
ATOM     10  C   UNL     1       6.359  -8.008   5.056  1.00  0.00     0.000 C 
BRANCH  10  11
ATOM     11  C   UNL     1       7.517  -7.018   4.867  1.00  0.00    -0.000 C 
BRANCH  11  12
ATOM     12  C   UNL     1       7.391  -6.277   3.528  1.00  0.00    -0.000 C 
BRANCH  12  13
ATOM     13  C   UNL     1       7.779  -4.793   3.633  1.00  0.00    -0.000 C 
BRANCH  13  14
ATOM     14  C   UNL     1       7.221  -4.122   4.896  1.00  0.00    -0.000 C 
BRANCH  14  15
ATOM     15  C   UNL     1       5.762  -3.694   4.691  1.00  0.00    -0.003 C 
ATOM     16  C   UNL     1       4.823  -4.484   5.597  1.00  0.00     0.004 C 
ENDBRANCH  14  15
ENDBRANCH  13  14
ENDBRANCH  12  13
ENDBRANCH  11  12
ENDBRANCH  10  11
ENDBRANCH   1  10
TORSDOF 12
ENDMDL
MODEL 2
REMARK VINA RESULT:    -3.807      1.126      2.086
REMARK INTER + INTRA:          -7.690
REMARK INTER:                  -6.586
REMARK INTRA:                  -1.103
REMARK UNBOUND:                -1.211
REMARK SMILES CCCCCCCCCCCCCC(=O)[O-]
REMARK SMILES IDX 8 1 9 2 10 3 11 4 12 5 13 6 14 7 15 8 16 9 7 10 6 11 5 12
REMARK SMILES IDX 4 13 3 14 2 15 1 16
REMARK H PARENT
REMARK Flexibility Score: inf
ROOT
ATOM      1  C   UNL     1       5.453  -8.337   3.644  1.00  0.00     0.000 C 
ENDROOT
BRANCH   1   2
ATOM      2  C   UNL     1       4.878  -9.567   2.914  1.00  0.00     0.000 C 
BRANCH   2   3
ATOM      3  C   UNL     1       3.448  -9.961   3.323  1.00  0.00     0.000 C 
BRANCH   3   4
ATOM      4  C   UNL     1       2.665  -8.796   3.949  1.00  0.00     0.000 C 
BRANCH   4   5
ATOM      5  C   UNL     1       1.163  -9.111   4.002  1.00  0.00     0.006 C 
BRANCH   5   6
ATOM      6  C   UNL     1       0.330  -7.896   4.430  1.00  0.00     0.053 C 
BRANCH   6   7
ATOM      7  C   UNL     1      -1.138  -8.193   4.412  1.00  0.00     0.041 C 
ATOM      8  O   UNL     1      -1.649  -8.914   5.309  1.00  0.00    -0.550 OA
ATOM      9  O   UNL     1      -1.935  -7.703   3.386  1.00  0.00    -0.550 OA
ENDBRANCH   6   7
ENDBRANCH   5   6
ENDBRANCH   4   5
ENDBRANCH   3   4
ENDBRANCH   2   3
ENDBRANCH   1   2
BRANCH   1  10
ATOM     10  C   UNL     1       6.094  -8.630   5.013  1.00  0.00     0.000 C 
BRANCH  10  11
ATOM     11  C   UNL     1       6.032  -7.432   5.971  1.00  0.00    -0.000 C 
BRANCH  11  12
ATOM     12  C   UNL     1       5.572  -6.165   5.235  1.00  0.00    -0.000 C 
BRANCH  12  13
ATOM     13  C   UNL     1       6.583  -5.013   5.349  1.00  0.00    -0.000 C 
BRANCH  13  14
ATOM     14  C   UNL     1       7.013  -4.464   3.981  1.00  0.00    -0.000 C 
BRANCH  14  15
ATOM     15  C   UNL     1       7.692  -5.553   3.142  1.00  0.00    -0.003 C 
ATOM     16  C   UNL     1       8.959  -6.063   3.822  1.00  0.00     0.004 C 
ENDBRANCH  14  15
ENDBRANCH  13  14
ENDBRANCH  12  13
ENDBRANCH  11  12
ENDBRANCH  10  11
ENDBRANCH   1  10
TORSDOF 12
ENDMDL
MODEL 3
REMARK VINA RESULT:    -3.801      3.950      6.103
REMARK INTER + INTRA:          -7.678
REMARK INTER:                  -6.229
REMARK INTRA:                  -1.449
REMARK UNBOUND:                -1.211
REMARK SMILES CCCCCCCCCCCCCC(=O)[O-]
REMARK SMILES IDX 8 1 9 2 10 3 11 4 12 5 13 6 14 7 15 8 16 9 7 10 6 11 5 12
REMARK SMILES IDX 4 13 3 14 2 15 1 16
REMARK H PARENT
REMARK Flexibility Score: inf
ROOT
ATOM      1  C   UNL     1       3.794  -9.775   2.959  1.00  0.00     0.000 C 
ENDROOT
BRANCH   1   2
ATOM      2  C   UNL     1       5.259  -9.420   3.286  1.00  0.00     0.000 C 
BRANCH   2   3
ATOM      3  C   UNL     1       5.560  -9.199   4.779  1.00  0.00     0.000 C 
BRANCH   3   4
ATOM      4  C   UNL     1       6.420  -7.952   5.035  1.00  0.00     0.000 C 
BRANCH   4   5
ATOM      5  C   UNL     1       6.456  -7.047   3.794  1.00  0.00     0.006 C 
BRANCH   5   6
ATOM      6  C   UNL     1       6.951  -5.632   4.123  1.00  0.00     0.053 C 
BRANCH   6   7
ATOM      7  C   UNL     1       7.931  -5.137   3.105  1.00  0.00     0.041 C 
ATOM      8  O   UNL     1       8.654  -4.136   3.354  1.00  0.00    -0.550 OA
ATOM      9  O   UNL     1       8.022  -5.758   1.866  1.00  0.00    -0.550 OA
ENDBRANCH   6   7
ENDBRANCH   5   6
ENDBRANCH   4   5
ENDBRANCH   3   4
ENDBRANCH   2   3
ENDBRANCH   1   2
BRANCH   1  10
ATOM     10  C   UNL     1       2.838  -9.782   4.165  1.00  0.00     0.000 C 
BRANCH  10  11
ATOM     11  C   UNL     1       1.718  -8.738   4.046  1.00  0.00    -0.000 C 
BRANCH  11  12
ATOM     12  C   UNL     1       1.762  -7.751   5.222  1.00  0.00    -0.000 C 
BRANCH  12  13
ATOM     13  C   UNL     1       2.880  -6.706   5.077  1.00  0.00    -0.000 C 
BRANCH  13  14
ATOM     14  C   UNL     1       2.884  -5.680   6.220  1.00  0.00    -0.000 C 
BRANCH  14  15
ATOM     15  C   UNL     1       4.099  -4.749   6.117  1.00  0.00    -0.003 C 
ATOM     16  C   UNL     1       3.678  -3.337   5.722  1.00  0.00     0.004 C 
ENDBRANCH  14  15
ENDBRANCH  13  14
ENDBRANCH  12  13
ENDBRANCH  11  12
ENDBRANCH  10  11
ENDBRANCH   1  10
TORSDOF 12
ENDMDL
MODEL 4
REMARK VINA RESULT:    -3.795      3.969      7.029
REMARK INTER + INTRA:          -7.669
REMARK INTER:                  -6.573
REMARK INTRA:                  -1.096
REMARK UNBOUND:                -1.211
REMARK SMILES CCCCCCCCCCCCCC(=O)[O-]
REMARK SMILES IDX 8 1 9 2 10 3 11 4 12 5 13 6 14 7 15 8 16 9 7 10 6 11 5 12
REMARK SMILES IDX 4 13 3 14 2 15 1 16
REMARK H PARENT
REMARK Flexibility Score: inf
ROOT
ATOM      1  C   UNL     1       2.337  -4.597   5.865  1.00  0.00     0.000 C 
ENDROOT
BRANCH   1   2
ATOM      2  C   UNL     1       3.801  -4.170   6.091  1.00  0.00     0.000 C 
BRANCH   2   3
ATOM      3  C   UNL     1       4.858  -5.203   5.664  1.00  0.00     0.000 C 
BRANCH   3   4
ATOM      4  C   UNL     1       5.956  -4.600   4.776  1.00  0.00     0.000 C 
BRANCH   4   5
ATOM      5  C   UNL     1       7.345  -5.090   5.212  1.00  0.00     0.006 C 
BRANCH   5   6
ATOM      6  C   UNL     1       7.975  -6.038   4.183  1.00  0.00     0.053 C 
BRANCH   6   7
ATOM      7  C   UNL     1       8.282  -5.336   2.896  1.00  0.00     0.041 C 
ATOM      8  O   UNL     1       7.911  -5.832   1.799  1.00  0.00    -0.550 OA
ATOM      9  O   UNL     1       9.007  -4.152   2.905  1.00  0.00    -0.550 OA
ENDBRANCH   6   7
ENDBRANCH   5   6
ENDBRANCH   4   5
ENDBRANCH   3   4
ENDBRANCH   2   3
ENDBRANCH   1   2
BRANCH   1  10
ATOM     10  C   UNL     1       2.067  -6.107   6.003  1.00  0.00     0.000 C 
BRANCH  10  11
ATOM     11  C   UNL     1       0.872  -6.580   5.164  1.00  0.00    -0.000 C 
BRANCH  11  12
ATOM     12  C   UNL     1       1.175  -7.926   4.489  1.00  0.00    -0.000 C 
BRANCH  12  13
ATOM     13  C   UNL     1       2.681  -8.186   4.332  1.00  0.00    -0.000 C 
BRANCH  13  14
ATOM     14  C   UNL     1       2.983  -9.470   3.547  1.00  0.00    -0.000 C 
BRANCH  14  15
ATOM     15  C   UNL     1       4.476  -9.569   3.209  1.00  0.00    -0.003 C 
ATOM     16  C   UNL     1       5.251  -8.387   3.786  1.00  0.00     0.004 C 
ENDBRANCH  14  15
ENDBRANCH  13  14
ENDBRANCH  12  13
ENDBRANCH  11  12
ENDBRANCH  10  11
ENDBRANCH   1  10
TORSDOF 12
ENDMDL
MODEL 5
REMARK VINA RESULT:    -3.745      3.631      5.442
REMARK INTER + INTRA:          -7.583
REMARK INTER:                  -6.275
REMARK INTRA:                  -1.308
REMARK UNBOUND:                -1.211
REMARK SMILES CCCCCCCCCCCCCC(=O)[O-]
REMARK SMILES IDX 8 1 9 2 10 3 11 4 12 5 13 6 14 7 15 8 16 9 7 10 6 11 5 12
REMARK SMILES IDX 4 13 3 14 2 15 1 16
REMARK H PARENT
REMARK Flexibility Score: inf
ROOT
ATOM      1  C   UNL     1       2.259  -7.422   4.720  1.00  0.00     0.000 C 
ENDROOT
BRANCH   1   2
ATOM      2  C   UNL     1       0.955  -6.713   5.138  1.00  0.00     0.000 C 
BRANCH   2   3
ATOM      3  C   UNL     1       1.111  -5.232   5.526  1.00  0.00     0.000 C 
BRANCH   3   4
ATOM      4  C   UNL     1       2.537  -4.882   5.979  1.00  0.00     0.000 C 
BRANCH   4   5
ATOM      5  C   UNL     1       2.791  -3.371   5.869  1.00  0.00     0.006 C 
BRANCH   5   6
ATOM      6  C   UNL     1       4.268  -3.049   5.606  1.00  0.00     0.053 C 
BRANCH   6   7
ATOM      7  C   UNL     1       4.436  -1.724   4.928  1.00  0.00     0.041 C 
ATOM      8  O   UNL     1       4.885  -1.665   3.753  1.00  0.00    -0.550 OA
ATOM      9  O   UNL     1       4.130  -0.552   5.607  1.00  0.00    -0.550 OA
ENDBRANCH   6   7
ENDBRANCH   5   6
ENDBRANCH   4   5
ENDBRANCH   3   4
ENDBRANCH   2   3
ENDBRANCH   1   2
BRANCH   1  10
ATOM     10  C   UNL     1       2.069  -8.768   3.998  1.00  0.00     0.000 C 
BRANCH  10  11
ATOM     11  C   UNL     1       3.239  -9.737   4.222  1.00  0.00    -0.000 C 
BRANCH  11  12
ATOM     12  C   UNL     1       4.440  -9.358   3.342  1.00  0.00    -0.000 C 
BRANCH  12  13
ATOM     13  C   UNL     1       5.639  -8.857   4.161  1.00  0.00    -0.000 C 
BRANCH  13  14
ATOM     14  C   UNL     1       6.048  -7.422   3.797  1.00  0.00    -0.000 C 
BRANCH  14  15
ATOM     15  C   UNL     1       5.841  -6.474   4.985  1.00  0.00    -0.003 C 
ATOM     16  C   UNL     1       5.545  -7.251   6.265  1.00  0.00     0.004 C 
ENDBRANCH  14  15
ENDBRANCH  13  14
ENDBRANCH  12  13
ENDBRANCH  11  12
ENDBRANCH  10  11
ENDBRANCH   1  10
TORSDOF 12
ENDMDL
MODEL 6
REMARK VINA RESULT:    -3.700      3.795      5.610
REMARK INTER + INTRA:          -7.506
REMARK INTER:                  -6.246
REMARK INTRA:                  -1.260
REMARK UNBOUND:                -1.211
REMARK SMILES CCCCCCCCCCCCCC(=O)[O-]
REMARK SMILES IDX 8 1 9 2 10 3 11 4 12 5 13 6 14 7 15 8 16 9 7 10 6 11 5 12
REMARK SMILES IDX 4 13 3 14 2 15 1 16
REMARK H PARENT
REMARK Flexibility Score: inf
ROOT
ATOM      1  C   UNL     1       1.390  -6.678   5.110  1.00  0.00     0.000 C 
ENDROOT
BRANCH   1   2
ATOM      2  C   UNL     1       0.932  -5.318   5.673  1.00  0.00     0.000 C 
BRANCH   2   3
ATOM      3  C   UNL     1       1.542  -4.933   7.032  1.00  0.00     0.000 C 
BRANCH   3   4
ATOM      4  C   UNL     1       2.152  -3.523   7.033  1.00  0.00     0.000 C 
BRANCH   4   5
ATOM      5  C   UNL     1       2.962  -3.275   5.752  1.00  0.00     0.006 C 
BRANCH   5   6
ATOM      6  C   UNL     1       4.345  -2.679   6.047  1.00  0.00     0.053 C 
BRANCH   6   7
ATOM      7  C   UNL     1       4.642  -1.504   5.167  1.00  0.00     0.041 C 
ATOM      8  O   UNL     1       5.294  -1.659   4.101  1.00  0.00    -0.550 OA
ATOM      9  O   UNL     1       4.230  -0.232   5.543  1.00  0.00    -0.550 OA
ENDBRANCH   6   7
ENDBRANCH   5   6
ENDBRANCH   4   5
ENDBRANCH   3   4
ENDBRANCH   2   3
ENDBRANCH   1   2
BRANCH   1  10
ATOM     10  C   UNL     1       2.760  -7.167   5.614  1.00  0.00     0.000 C 
BRANCH  10  11
ATOM     11  C   UNL     1       3.549  -7.939   4.548  1.00  0.00    -0.000 C 
BRANCH  11  12
ATOM     12  C   UNL     1       5.027  -7.521   4.548  1.00  0.00    -0.000 C 
BRANCH  12  13
ATOM     13  C   UNL     1       5.241  -6.101   5.096  1.00  0.00    -0.000 C 
BRANCH  13  14
ATOM     14  C   UNL     1       6.589  -5.500   4.673  1.00  0.00    -0.000 C 
BRANCH  14  15
ATOM     15  C   UNL     1       7.318  -6.425   3.691  1.00  0.00    -0.003 C 
ATOM     16  C   UNL     1       7.698  -5.683   2.413  1.00  0.00     0.004 C 
ENDBRANCH  14  15
ENDBRANCH  13  14
ENDBRANCH  12  13
ENDBRANCH  11  12
ENDBRANCH  10  11
ENDBRANCH   1  10
TORSDOF 12
ENDMDL
MODEL 7
REMARK VINA RESULT:    -3.692      3.536      5.888
REMARK INTER + INTRA:          -7.494
REMARK INTER:                  -6.314
REMARK INTRA:                  -1.179
REMARK UNBOUND:                -1.211
REMARK SMILES CCCCCCCCCCCCCC(=O)[O-]
REMARK SMILES IDX 8 1 9 2 10 3 11 4 12 5 13 6 14 7 15 8 16 9 7 10 6 11 5 12
REMARK SMILES IDX 4 13 3 14 2 15 1 16
REMARK H PARENT
REMARK Flexibility Score: inf
ROOT
ATOM      1  C   UNL     1       5.887  -8.198   3.923  1.00  0.00     0.000 C 
ENDROOT
BRANCH   1   2
ATOM      2  C   UNL     1       6.355  -6.922   4.651  1.00  0.00     0.000 C 
BRANCH   2   3
ATOM      3  C   UNL     1       7.282  -6.005   3.835  1.00  0.00     0.000 C 
BRANCH   3   4
ATOM      4  C   UNL     1       7.023  -4.513   4.093  1.00  0.00     0.000 C 
BRANCH   4   5
ATOM      5  C   UNL     1       5.725  -4.312   4.890  1.00  0.00     0.006 C 
BRANCH   5   6
ATOM      6  C   UNL     1       5.738  -3.009   5.699  1.00  0.00     0.053 C 
BRANCH   6   7
ATOM      7  C   UNL     1       4.883  -1.954   5.067  1.00  0.00     0.041 C 
ATOM      8  O   UNL     1       4.991  -1.703   3.838  1.00  0.00    -0.550 OA
ATOM      9  O   UNL     1       3.992  -1.224   5.842  1.00  0.00    -0.550 OA
ENDBRANCH   6   7
ENDBRANCH   5   6
ENDBRANCH   4   5
ENDBRANCH   3   4
ENDBRANCH   2   3
ENDBRANCH   1   2
BRANCH   1  10
ATOM     10  C   UNL     1       4.366  -8.434   3.927  1.00  0.00     0.000 C 
BRANCH  10  11
ATOM     11  C   UNL     1       3.615  -7.473   4.860  1.00  0.00    -0.000 C 
BRANCH  11  12
ATOM     12  C   UNL     1       2.099  -7.706   4.782  1.00  0.00    -0.000 C 
BRANCH  12  13
ATOM     13  C   UNL     1       1.287  -6.478   5.223  1.00  0.00    -0.000 C 
BRANCH  13  14
ATOM     14  C   UNL     1       2.105  -5.505   6.086  1.00  0.00    -0.000 C 
BRANCH  14  15
ATOM     15  C   UNL     1       1.804  -4.050   5.705  1.00  0.00    -0.003 C 
ATOM     16  C   UNL     1       0.414  -3.633   6.176  1.00  0.00     0.004 C 
ENDBRANCH  14  15
ENDBRANCH  13  14
ENDBRANCH  12  13
ENDBRANCH  11  12
ENDBRANCH  10  11
ENDBRANCH   1  10
TORSDOF 12
ENDMDL
MODEL 8
REMARK VINA RESULT:    -3.622      1.241      2.195
REMARK INTER + INTRA:          -7.375
REMARK INTER:                  -6.509
REMARK INTRA:                  -0.865
REMARK UNBOUND:                -1.211
REMARK SMILES CCCCCCCCCCCCCC(=O)[O-]
REMARK SMILES IDX 8 1 9 2 10 3 11 4 12 5 13 6 14 7 15 8 16 9 7 10 6 11 5 12
REMARK SMILES IDX 4 13 3 14 2 15 1 16
REMARK H PARENT
REMARK Flexibility Score: inf
ROOT
ATOM      1  C   UNL     1       6.887  -6.661   3.990  1.00  0.00     0.000 C 
ENDROOT
BRANCH   1   2
ATOM      2  C   UNL     1       5.959  -7.839   3.634  1.00  0.00     0.000 C 
BRANCH   2   3
ATOM      3  C   UNL     1       4.635  -7.888   4.416  1.00  0.00     0.000 C 
BRANCH   3   4
ATOM      4  C   UNL     1       3.779  -9.113   4.061  1.00  0.00     0.000 C 
BRANCH   4   5
ATOM      5  C   UNL     1       2.286  -8.752   4.044  1.00  0.00     0.006 C 
BRANCH   5   6
ATOM      6  C   UNL     1       1.987  -7.482   4.851  1.00  0.00     0.053 C 
BRANCH   6   7
ATOM      7  C   UNL     1       0.520  -7.183   4.894  1.00  0.00     0.041 C 
ATOM      8  O   UNL     1      -0.265  -7.742   4.083  1.00  0.00    -0.550 OA
ATOM      9  O   UNL     1       0.024  -6.262   5.808  1.00  0.00    -0.550 OA
ENDBRANCH   6   7
ENDBRANCH   5   6
ENDBRANCH   4   5
ENDBRANCH   3   4
ENDBRANCH   2   3
ENDBRANCH   1   2
BRANCH   1  10
ATOM     10  C   UNL     1       7.618  -6.019   2.796  1.00  0.00     0.000 C 
BRANCH  10  11
ATOM     11  C   UNL     1       8.502  -4.833   3.205  1.00  0.00    -0.000 C 
BRANCH  11  12
ATOM     12  C   UNL     1       8.469  -4.621   4.725  1.00  0.00    -0.000 C 
BRANCH  12  13
ATOM     13  C   UNL     1       8.140  -3.172   5.115  1.00  0.00    -0.000 C 
BRANCH  13  14
ATOM     14  C   UNL     1       6.787  -3.042   5.829  1.00  0.00    -0.000 C 
BRANCH  14  15
ATOM     15  C   UNL     1       5.628  -3.308   4.861  1.00  0.00    -0.003 C 
ATOM     16  C   UNL     1       4.898  -2.016   4.505  1.00  0.00     0.004 C 
ENDBRANCH  14  15
ENDBRANCH  13  14
ENDBRANCH  12  13
ENDBRANCH  11  12
ENDBRANCH  10  11
ENDBRANCH   1  10
TORSDOF 12
ENDMDL
MODEL 9
REMARK VINA RESULT:    -3.599      3.559      5.851
REMARK INTER + INTRA:          -7.335
REMARK INTER:                  -5.776
REMARK INTRA:                  -1.559
REMARK UNBOUND:                -1.211
REMARK SMILES CCCCCCCCCCCCCC(=O)[O-]
REMARK SMILES IDX 8 1 9 2 10 3 11 4 12 5 13 6 14 7 15 8 16 9 7 10 6 11 5 12
REMARK SMILES IDX 4 13 3 14 2 15 1 16
REMARK H PARENT
REMARK Flexibility Score: inf
ROOT
ATOM      1  C   UNL     1       6.870  -4.663   4.034  1.00  0.00     0.000 C 
ENDROOT
BRANCH   1   2
ATOM      2  C   UNL     1       7.216  -4.323   5.497  1.00  0.00     0.000 C 
BRANCH   2   3
ATOM      3  C   UNL     1       6.021  -4.311   6.467  1.00  0.00     0.000 C 
BRANCH   3   4
ATOM      4  C   UNL     1       4.680  -4.566   5.762  1.00  0.00     0.000 C 
BRANCH   4   5
ATOM      5  C   UNL     1       3.692  -3.422   6.034  1.00  0.00     0.006 C 
BRANCH   5   6
ATOM      6  C   UNL     1       4.385  -2.054   6.072  1.00  0.00     0.053 C 
BRANCH   6   7
ATOM      7  C   UNL     1       4.719  -1.562   4.697  1.00  0.00     0.041 C 
ATOM      8  O   UNL     1       3.876  -1.660   3.766  1.00  0.00    -0.550 OA
ATOM      9  O   UNL     1       5.973  -1.026   4.435  1.00  0.00    -0.550 OA
ENDBRANCH   6   7
ENDBRANCH   5   6
ENDBRANCH   4   5
ENDBRANCH   3   4
ENDBRANCH   2   3
ENDBRANCH   1   2
BRANCH   1  10
ATOM     10  C   UNL     1       7.471  -5.980   3.509  1.00  0.00     0.000 C 
BRANCH  10  11
ATOM     11  C   UNL     1       6.477  -7.149   3.553  1.00  0.00    -0.000 C 
BRANCH  11  12
ATOM     12  C   UNL     1       6.429  -7.776   4.954  1.00  0.00    -0.000 C 
BRANCH  12  13
ATOM     13  C   UNL     1       5.024  -8.268   5.335  1.00  0.00    -0.000 C 
BRANCH  13  14
ATOM     14  C   UNL     1       4.006  -8.095   4.198  1.00  0.00    -0.000 C 
BRANCH  14  15
ATOM     15  C   UNL     1       2.671  -7.563   4.733  1.00  0.00    -0.003 C 
ATOM     16  C   UNL     1       1.504  -8.422   4.256  1.00  0.00     0.004 C 
ENDBRANCH  14  15
ENDBRANCH  13  14
ENDBRANCH  12  13
ENDBRANCH  11  12
ENDBRANCH  10  11
ENDBRANCH   1  10
TORSDOF 12
ENDMDL
