MODEL 1
REMARK VINA RESULT:    -6.703      0.000      0.000
REMARK INTER + INTRA:         -14.189
REMARK INTER:                 -11.013
REMARK INTRA:                  -3.176
REMARK UNBOUND:                -3.176
REMARK SMILES C[C@H]1O[C@@H](OC[C@@H]2O[C@@H](Oc3c(-c4ccc(O)c(O)c4)oc4cc(O)cc(O)c4c3=O)[C@H](O)[C@H](O)[C@H]2O)[C@@H](O)[C@@H](O)[C@@H]1O
REMARK SMILES IDX 7 1 36 2 34 3 32 4 9 5 8 6 6 7 5 8 4 9 1 10 2 11 42 12 3 13
REMARK SMILES IDX 40 14 38 15 43 16 41 18 39 20 37 22 35 24 10 26 11 27 12 28
REMARK SMILES IDX 30 29 21 30 29 31 31 32 22 33 27 34 23 35 26 36 24 37 13 38
REMARK SMILES IDX 20 39 14 40 18 41 15 42 16 43 19 44 17 46 28 48 25 50 33 52
REMARK H PARENT 43 17 41 19 39 21 37 23 35 25 19 45 17 47 28 49 25 51 33 53
REMARK Flexibility Score: inf
ROOT
ATOM      1  C   UNL     1      10.242  88.862  81.276  1.00  0.00     0.180 C 
ATOM      2  C   UNL     1       9.152  89.679  82.038  1.00  0.00     0.177 C 
ATOM      3  C   UNL     1       8.823  88.976  83.375  1.00  0.00     0.180 C 
ATOM      4  C   UNL     1       8.352  87.513  83.147  1.00  0.00     0.214 C 
ATOM      5  C   UNL     1       8.958  86.961  81.836  1.00  0.00     0.339 C 
ATOM      6  O   UNL     1      10.267  87.481  81.631  1.00  0.00    -0.332 OA
ENDROOT
BRANCH   1   7
ATOM      7  C   UNL     1      10.119  89.015  79.761  1.00  0.00     0.198 C 
BRANCH   7   8
ATOM      8  O   UNL     1       8.807  89.405  79.452  1.00  0.00    -0.347 OA
BRANCH   8   9
ATOM      9  C   UNL     1       8.253  88.575  78.436  1.00  0.00     0.281 C 
ATOM     10  C   UNL     1       8.003  90.320  75.148  1.00  0.00     0.041 C 
ATOM     11  C   UNL     1       7.495  89.605  76.406  1.00  0.00     0.150 C 
ATOM     12  C   UNL     1       6.612  90.533  77.267  1.00  0.00     0.174 C 
ATOM     13  O   UNL     1       8.601  89.118  77.157  1.00  0.00    -0.344 OA
ATOM     14  C   UNL     1       5.959  89.719  78.405  1.00  0.00     0.179 C 
ATOM     15  C   UNL     1       6.742  88.421  78.714  1.00  0.00     0.202 C 
BRANCH  12  16
ATOM     16  O   UNL     1       5.619  91.122  76.470  1.00  0.00    -0.388 OA
ATOM     17  H   UNL     1       6.084  91.660  75.769  1.00  0.00     0.211 HD
ENDBRANCH  12  16
BRANCH  14  18
ATOM     18  O   UNL     1       5.801  90.516  79.555  1.00  0.00    -0.387 OA
ATOM     19  H   UNL     1       4.851  90.799  79.617  1.00  0.00     0.211 HD
ENDBRANCH  14  18
BRANCH  15  20
ATOM     20  O   UNL     1       6.521  88.001  80.039  1.00  0.00    -0.385 OA
ATOM     21  H   UNL     1       6.478  87.004  80.032  1.00  0.00     0.211 HD
ENDBRANCH  15  20
ENDBRANCH   8   9
ENDBRANCH   7   8
ENDBRANCH   1   7
BRANCH   2  22
ATOM     22  O   UNL     1       9.627  90.983  82.292  1.00  0.00    -0.387 OA
ATOM     23  H   UNL     1       9.090  91.597  81.737  1.00  0.00     0.211 HD
ENDBRANCH   2  22
BRANCH   3  24
ATOM     24  O   UNL     1       7.885  89.715  84.125  1.00  0.00    -0.387 OA
ATOM     25  H   UNL     1       7.717  89.204  84.956  1.00  0.00     0.211 HD
ENDBRANCH   3  24
BRANCH   5  26
ATOM     26  O   UNL     1       8.973  85.532  81.895  1.00  0.00    -0.454 OA
BRANCH  26  27
ATOM     27  C   UNL     1       8.315  84.696  80.992  1.00  0.00     0.214 A 
ATOM     28  C   UNL     1       8.931  84.328  79.779  1.00  0.00     0.180 A 
ATOM     29  C   UNL     1       6.966  84.351  81.209  1.00  0.00     0.239 A 
ATOM     30  O   UNL     1       8.259  83.588  78.899  1.00  0.00    -0.452 OA
ATOM     31  C   UNL     1       6.267  83.642  80.217  1.00  0.00     0.111 A 
ATOM     32  O   UNL     1       6.392  84.751  82.255  1.00  0.00    -0.285 OA
ATOM     33  C   UNL     1       6.986  83.252  79.048  1.00  0.00     0.146 A 
ATOM     34  C   UNL     1       4.867  83.421  80.265  1.00  0.00     0.134 A 
ATOM     35  C   UNL     1       6.330  82.590  78.008  1.00  0.00     0.094 A 
ATOM     36  C   UNL     1       4.215  82.852  79.147  1.00  0.00     0.093 A 
ATOM     37  C   UNL     1       4.944  82.438  78.029  1.00  0.00     0.123 A 
BRANCH  28  38
ATOM     38  C   UNL     1      10.241  84.875  79.355  1.00  0.00     0.025 A 
ATOM     39  C   UNL     1      10.254  85.726  78.234  1.00  0.00     0.062 A 
ATOM     40  C   UNL     1      11.429  84.656  80.072  1.00  0.00     0.016 A 
ATOM     41  C   UNL     1      11.374  86.521  77.954  1.00  0.00     0.158 A 
ATOM     42  C   UNL     1      12.583  85.352  79.720  1.00  0.00     0.051 A 
ATOM     43  C   UNL     1      12.552  86.344  78.718  1.00  0.00     0.157 A 
BRANCH  41  44
ATOM     44  O   UNL     1      11.280  87.484  76.937  1.00  0.00    -0.504 OA
ATOM     45  H   UNL     1      10.651  88.277  76.983  1.00  0.00     0.293 HD
ENDBRANCH  41  44
BRANCH  43  46
ATOM     46  O   UNL     1      13.671  87.162  78.532  1.00  0.00    -0.504 OA
ATOM     47  H   UNL     1      13.883  87.571  77.623  1.00  0.00     0.293 HD
ENDBRANCH  43  46
ENDBRANCH  28  38
BRANCH  34  48
ATOM     48  O   UNL     1       4.096  83.806  81.369  1.00  0.00    -0.507 OA
ATOM     49  H   UNL     1       3.298  83.252  81.647  1.00  0.00     0.293 HD
ENDBRANCH  34  48
BRANCH  37  50
ATOM     50  O   UNL     1       4.276  81.902  76.926  1.00  0.00    -0.508 OA
ATOM     51  H   UNL     1       4.683  81.911  76.006  1.00  0.00     0.293 HD
ENDBRANCH  37  50
ENDBRANCH  26  27
ENDBRANCH   5  26
BRANCH   4  52
ATOM     52  O   UNL     1       6.947  87.425  83.075  1.00  0.00    -0.384 OA
ATOM     53  H   UNL     1       6.650  87.045  83.945  1.00  0.00     0.211 HD
ENDBRANCH   4  52
TORSDOF 16
ENDMDL
MODEL 2
REMARK VINA RESULT:    -6.660      1.695      7.058
REMARK INTER + INTRA:         -14.118
REMARK INTER:                 -11.363
REMARK INTRA:                  -2.755
REMARK UNBOUND:                -3.176
REMARK SMILES C[C@H]1O[C@@H](OC[C@@H]2O[C@@H](Oc3c(-c4ccc(O)c(O)c4)oc4cc(O)cc(O)c4c3=O)[C@H](O)[C@H](O)[C@H]2O)[C@@H](O)[C@@H](O)[C@@H]1O
REMARK SMILES IDX 7 1 36 2 34 3 32 4 9 5 8 6 6 7 5 8 4 9 1 10 2 11 42 12 3 13
REMARK SMILES IDX 40 14 38 15 43 16 41 18 39 20 37 22 35 24 10 26 11 27 12 28
REMARK SMILES IDX 30 29 21 30 29 31 31 32 22 33 27 34 23 35 26 36 24 37 13 38
REMARK SMILES IDX 20 39 14 40 18 41 15 42 16 43 19 44 17 46 28 48 25 50 33 52
REMARK H PARENT 43 17 41 19 39 21 37 23 35 25 19 45 17 47 28 49 25 51 33 53
REMARK Flexibility Score: inf
ROOT
ATOM      1  C   UNL     1       8.080  83.961  78.530  1.00  0.00     0.180 C 
ATOM      2  C   UNL     1       7.267  82.629  78.542  1.00  0.00     0.177 C 
ATOM      3  C   UNL     1       5.850  82.886  77.979  1.00  0.00     0.180 C 
ATOM      4  C   UNL     1       5.110  83.988  78.788  1.00  0.00     0.214 C 
ATOM      5  C   UNL     1       6.135  84.952  79.428  1.00  0.00     0.339 C 
ATOM      6  O   UNL     1       7.260  85.126  78.574  1.00  0.00    -0.332 OA
ENDROOT
BRANCH   1   7
ATOM      7  C   UNL     1       9.123  84.006  79.645  1.00  0.00     0.198 C 
BRANCH   7   8
ATOM      8  O   UNL     1      10.080  84.982  79.329  1.00  0.00    -0.347 OA
BRANCH   8   9
ATOM      9  C   UNL     1      10.126  85.997  80.328  1.00  0.00     0.281 C 
ATOM     10  C   UNL     1       9.903  89.430  78.885  1.00  0.00     0.041 C 
ATOM     11  C   UNL     1      10.540  88.258  79.642  1.00  0.00     0.150 C 
ATOM     12  C   UNL     1      11.817  87.756  78.936  1.00  0.00     0.174 C 
ATOM     13  O   UNL     1       9.590  87.207  79.780  1.00  0.00    -0.344 OA
ATOM     14  C   UNL     1      12.534  86.723  79.833  1.00  0.00     0.179 C 
ATOM     15  C   UNL     1      11.572  86.080  80.860  1.00  0.00     0.202 C 
BRANCH  12  16
ATOM     16  O   UNL     1      12.673  88.836  78.673  1.00  0.00    -0.388 OA
ATOM     17  H   UNL     1      12.740  88.925  77.681  1.00  0.00     0.211 HD
ENDBRANCH  12  16
BRANCH  14  18
ATOM     18  O   UNL     1      13.180  85.750  79.048  1.00  0.00    -0.387 OA
ATOM     19  H   UNL     1      13.936  86.180  78.569  1.00  0.00     0.211 HD
ENDBRANCH  14  18
BRANCH  15  20
ATOM     20  O   UNL     1      12.030  84.808  81.254  1.00  0.00    -0.385 OA
ATOM     21  H   UNL     1      11.237  84.291  81.568  1.00  0.00     0.211 HD
ENDBRANCH  15  20
ENDBRANCH   8   9
ENDBRANCH   7   8
ENDBRANCH   1   7
BRANCH   2  22
ATOM     22  O   UNL     1       7.923  81.664  77.749  1.00  0.00    -0.387 OA
ATOM     23  H   UNL     1       7.369  80.848  77.773  1.00  0.00     0.211 HD
ENDBRANCH   2  22
BRANCH   3  24
ATOM     24  O   UNL     1       5.100  81.694  77.916  1.00  0.00    -0.387 OA
ATOM     25  H   UNL     1       5.608  81.009  78.419  1.00  0.00     0.211 HD
ENDBRANCH   3  24
BRANCH   5  26
ATOM     26  O   UNL     1       5.493  86.202  79.699  1.00  0.00    -0.454 OA
BRANCH  26  27
ATOM     27  C   UNL     1       6.067  87.245  80.427  1.00  0.00     0.214 A 
ATOM     28  C   UNL     1       6.139  88.543  79.882  1.00  0.00     0.180 A 
ATOM     29  C   UNL     1       6.729  86.972  81.640  1.00  0.00     0.239 A 
ATOM     30  O   UNL     1       6.755  89.507  80.563  1.00  0.00    -0.452 OA
ATOM     31  C   UNL     1       7.440  88.000  82.285  1.00  0.00     0.111 A 
ATOM     32  O   UNL     1       6.735  85.795  82.084  1.00  0.00    -0.285 OA
ATOM     33  C   UNL     1       7.406  89.300  81.698  1.00  0.00     0.146 A 
ATOM     34  C   UNL     1       8.288  87.774  83.400  1.00  0.00     0.134 A 
ATOM     35  C   UNL     1       8.134  90.347  82.267  1.00  0.00     0.094 A 
ATOM     36  C   UNL     1       9.099  88.828  83.879  1.00  0.00     0.093 A 
ATOM     37  C   UNL     1       9.018  90.104  83.317  1.00  0.00     0.123 A 
BRANCH  28  38
ATOM     38  C   UNL     1       5.711  88.847  78.497  1.00  0.00     0.025 A 
ATOM     39  C   UNL     1       4.400  89.329  78.317  1.00  0.00     0.062 A 
ATOM     40  C   UNL     1       6.576  88.765  77.394  1.00  0.00     0.016 A 
ATOM     41  C   UNL     1       4.019  89.925  77.107  1.00  0.00     0.158 A 
ATOM     42  C   UNL     1       6.158  89.244  76.154  1.00  0.00     0.051 A 
ATOM     43  C   UNL     1       4.917  89.898  76.013  1.00  0.00     0.157 A 
BRANCH  41  44
ATOM     44  O   UNL     1       2.765  90.552  77.029  1.00  0.00    -0.504 OA
ATOM     45  H   UNL     1       1.976  90.281  77.604  1.00  0.00     0.293 HD
ENDBRANCH  41  44
BRANCH  43  46
ATOM     46  O   UNL     1       4.618  90.544  74.809  1.00  0.00    -0.504 OA
ATOM     47  H   UNL     1       5.052  90.257  73.933  1.00  0.00     0.293 HD
ENDBRANCH  43  46
ENDBRANCH  28  38
BRANCH  34  48
ATOM     48  O   UNL     1       8.392  86.515  84.005  1.00  0.00    -0.507 OA
ATOM     49  H   UNL     1       8.442  86.441  85.011  1.00  0.00     0.293 HD
ENDBRANCH  34  48
BRANCH  37  50
ATOM     50  O   UNL     1       9.847  91.123  83.791  1.00  0.00    -0.508 OA
ATOM     51  H   UNL     1      10.439  91.653  83.174  1.00  0.00     0.293 HD
ENDBRANCH  37  50
ENDBRANCH  26  27
ENDBRANCH   5  26
BRANCH   4  52
ATOM     52  O   UNL     1       4.304  83.435  79.804  1.00  0.00    -0.384 OA
ATOM     53  H   UNL     1       4.196  82.472  79.576  1.00  0.00     0.211 HD
ENDBRANCH   4  52
TORSDOF 16
ENDMDL
MODEL 3
REMARK VINA RESULT:    -6.644      2.379      4.679
REMARK INTER + INTRA:         -14.092
REMARK INTER:                 -11.448
REMARK INTRA:                  -2.644
REMARK UNBOUND:                -3.176
REMARK SMILES C[C@H]1O[C@@H](OC[C@@H]2O[C@@H](Oc3c(-c4ccc(O)c(O)c4)oc4cc(O)cc(O)c4c3=O)[C@H](O)[C@H](O)[C@H]2O)[C@@H](O)[C@@H](O)[C@@H]1O
REMARK SMILES IDX 7 1 36 2 34 3 32 4 9 5 8 6 6 7 5 8 4 9 1 10 2 11 42 12 3 13
REMARK SMILES IDX 40 14 38 15 43 16 41 18 39 20 37 22 35 24 10 26 11 27 12 28
REMARK SMILES IDX 30 29 21 30 29 31 31 32 22 33 27 34 23 35 26 36 24 37 13 38
REMARK SMILES IDX 20 39 14 40 18 41 15 42 16 43 19 44 17 46 28 48 25 50 33 52
REMARK H PARENT 43 17 41 19 39 21 37 23 35 25 19 45 17 47 28 49 25 51 33 53
REMARK Flexibility Score: inf
ROOT
ATOM      1  C   UNL     1      11.888  86.016  82.666  1.00  0.00     0.180 C 
ATOM      2  C   UNL     1      11.670  84.918  83.753  1.00  0.00     0.177 C 
ATOM      3  C   UNL     1      10.756  83.808  83.185  1.00  0.00     0.180 C 
ATOM      4  C   UNL     1       9.395  84.383  82.705  1.00  0.00     0.214 C 
ATOM      5  C   UNL     1       9.562  85.864  82.295  1.00  0.00     0.339 C 
ATOM      6  O   UNL     1      10.839  86.079  81.703  1.00  0.00    -0.332 OA
ENDROOT
BRANCH   1   7
ATOM      7  C   UNL     1      12.122  87.395  83.282  1.00  0.00     0.198 C 
BRANCH   7   8
ATOM      8  O   UNL     1      13.462  87.758  83.080  1.00  0.00    -0.347 OA
BRANCH   8   9
ATOM      9  C   UNL     1      13.643  89.161  83.251  1.00  0.00     0.281 C 
ATOM     10  C   UNL     1      10.646  91.124  82.214  1.00  0.00     0.041 C 
ATOM     11  C   UNL     1      12.104  90.652  82.174  1.00  0.00     0.150 C 
ATOM     12  C   UNL     1      12.435  89.948  80.841  1.00  0.00     0.174 C 
ATOM     13  O   UNL     1      12.357  89.791  83.278  1.00  0.00    -0.344 OA
ATOM     14  C   UNL     1      13.953  89.677  80.760  1.00  0.00     0.179 C 
ATOM     15  C   UNL     1      14.614  89.656  82.158  1.00  0.00     0.202 C 
BRANCH  12  16
ATOM     16  O   UNL     1      12.035  90.753  79.764  1.00  0.00    -0.388 OA
ATOM     17  H   UNL     1      11.393  91.429  80.122  1.00  0.00     0.211 HD
ENDBRANCH  12  16
BRANCH  14  18
ATOM     18  O   UNL     1      14.205  88.489  80.048  1.00  0.00    -0.387 OA
ATOM     19  H   UNL     1      13.574  88.437  79.284  1.00  0.00     0.211 HD
ENDBRANCH  14  18
BRANCH  15  20
ATOM     20  O   UNL     1      15.789  88.880  82.150  1.00  0.00    -0.385 OA
ATOM     21  H   UNL     1      15.633  88.111  81.533  1.00  0.00     0.211 HD
ENDBRANCH  15  20
ENDBRANCH   8   9
ENDBRANCH   7   8
ENDBRANCH   1   7
BRANCH   2  22
ATOM     22  O   UNL     1      12.913  84.364  84.125  1.00  0.00    -0.387 OA
ATOM     23  H   UNL     1      13.008  84.501  85.098  1.00  0.00     0.211 HD
ENDBRANCH   2  22
BRANCH   3  24
ATOM     24  O   UNL     1      10.581  82.762  84.116  1.00  0.00    -0.387 OA
ATOM     25  H   UNL     1      11.311  82.846  84.779  1.00  0.00     0.211 HD
ENDBRANCH   3  24
BRANCH   5  26
ATOM     26  O   UNL     1       8.509  86.220  81.394  1.00  0.00    -0.454 OA
BRANCH  26  27
ATOM     27  C   UNL     1       7.860  85.325  80.543  1.00  0.00     0.214 A 
ATOM     28  C   UNL     1       8.304  85.148  79.217  1.00  0.00     0.180 A 
ATOM     29  C   UNL     1       6.655  84.717  80.950  1.00  0.00     0.239 A 
ATOM     30  O   UNL     1       7.628  84.344  78.399  1.00  0.00    -0.452 OA
ATOM     31  C   UNL     1       5.928  83.943  80.029  1.00  0.00     0.111 A 
ATOM     32  O   UNL     1       6.216  84.942  82.107  1.00  0.00    -0.285 OA
ATOM     33  C   UNL     1       6.483  83.762  78.727  1.00  0.00     0.146 A 
ATOM     34  C   UNL     1       4.621  83.456  80.289  1.00  0.00     0.134 A 
ATOM     35  C   UNL     1       5.780  83.046  77.756  1.00  0.00     0.094 A 
ATOM     36  C   UNL     1       3.891  82.836  79.249  1.00  0.00     0.093 A 
ATOM     37  C   UNL     1       4.471  82.632  77.994  1.00  0.00     0.123 A 
BRANCH  28  38
ATOM     38  C   UNL     1       9.398  85.958  78.631  1.00  0.00     0.025 A 
ATOM     39  C   UNL     1       9.104  87.293  78.295  1.00  0.00     0.062 A 
ATOM     40  C   UNL     1      10.711  85.482  78.492  1.00  0.00     0.016 A 
ATOM     41  C   UNL     1      10.135  88.206  78.031  1.00  0.00     0.158 A 
ATOM     42  C   UNL     1      11.724  86.358  78.108  1.00  0.00     0.051 A 
ATOM     43  C   UNL     1      11.467  87.736  77.952  1.00  0.00     0.157 A 
BRANCH  41  44
ATOM     44  O   UNL     1       9.811  89.564  77.878  1.00  0.00    -0.504 OA
ATOM     45  H   UNL     1       9.921  90.063  77.003  1.00  0.00     0.293 HD
ENDBRANCH  41  44
BRANCH  43  46
ATOM     46  O   UNL     1      12.540  88.614  77.768  1.00  0.00    -0.504 OA
ATOM     47  H   UNL     1      12.966  89.102  78.555  1.00  0.00     0.293 HD
ENDBRANCH  43  46
ENDBRANCH  28  38
BRANCH  34  48
ATOM     48  O   UNL     1       4.004  83.626  81.535  1.00  0.00    -0.507 OA
ATOM     49  H   UNL     1       4.325  83.096  82.333  1.00  0.00     0.293 HD
ENDBRANCH  34  48
BRANCH  37  50
ATOM     50  O   UNL     1       3.722  82.039  76.974  1.00  0.00    -0.508 OA
ATOM     51  H   UNL     1       3.283  82.588  76.255  1.00  0.00     0.293 HD
ENDBRANCH  37  50
ENDBRANCH  26  27
ENDBRANCH   5  26
BRANCH   4  52
ATOM     52  O   UNL     1       8.410  84.295  83.710  1.00  0.00    -0.384 OA
ATOM     53  H   UNL     1       8.549  85.083  84.303  1.00  0.00     0.211 HD
ENDBRANCH   4  52
TORSDOF 16
ENDMDL
MODEL 4
REMARK VINA RESULT:    -6.332      2.115      5.996
REMARK INTER + INTRA:         -13.579
REMARK INTER:                 -10.925
REMARK INTRA:                  -2.653
REMARK UNBOUND:                -3.176
REMARK SMILES C[C@H]1O[C@@H](OC[C@@H]2O[C@@H](Oc3c(-c4ccc(O)c(O)c4)oc4cc(O)cc(O)c4c3=O)[C@H](O)[C@H](O)[C@H]2O)[C@@H](O)[C@@H](O)[C@@H]1O
REMARK SMILES IDX 7 1 36 2 34 3 32 4 9 5 8 6 6 7 5 8 4 9 1 10 2 11 42 12 3 13
REMARK SMILES IDX 40 14 38 15 43 16 41 18 39 20 37 22 35 24 10 26 11 27 12 28
REMARK SMILES IDX 30 29 21 30 29 31 31 32 22 33 27 34 23 35 26 36 24 37 13 38
REMARK SMILES IDX 20 39 14 40 18 41 15 42 16 43 19 44 17 46 28 48 25 50 33 52
REMARK H PARENT 43 17 41 19 39 21 37 23 35 25 19 45 17 47 28 49 25 51 33 53
REMARK Flexibility Score: inf
ROOT
ATOM      1  C   UNL     1       8.047  86.802  77.498  1.00  0.00     0.180 C 
ATOM      2  C   UNL     1       7.241  87.864  76.687  1.00  0.00     0.177 C 
ATOM      3  C   UNL     1       7.895  89.253  76.866  1.00  0.00     0.180 C 
ATOM      4  C   UNL     1       7.976  89.654  78.365  1.00  0.00     0.214 C 
ATOM      5  C   UNL     1       8.035  88.387  79.248  1.00  0.00     0.339 C 
ATOM      6  O   UNL     1       8.769  87.356  78.597  1.00  0.00    -0.332 OA
ENDROOT
BRANCH   1   7
ATOM      7  C   UNL     1       7.163  85.651  77.974  1.00  0.00     0.198 C 
BRANCH   7   8
ATOM      8  O   UNL     1       7.874  84.896  78.919  1.00  0.00    -0.347 OA
BRANCH   8   9
ATOM      9  C   UNL     1       7.583  83.508  78.790  1.00  0.00     0.281 C 
ATOM     10  C   UNL     1       4.109  82.886  77.582  1.00  0.00     0.041 C 
ATOM     11  C   UNL     1       5.291  82.838  78.557  1.00  0.00     0.150 C 
ATOM     12  C   UNL     1       4.986  83.614  79.856  1.00  0.00     0.174 C 
ATOM     13  O   UNL     1       6.455  83.353  77.920  1.00  0.00    -0.344 OA
ATOM     14  C   UNL     1       6.111  83.368  80.884  1.00  0.00     0.179 C 
ATOM     15  C   UNL     1       7.427  82.917  80.208  1.00  0.00     0.202 C 
BRANCH  12  16
ATOM     16  O   UNL     1       3.756  83.195  80.384  1.00  0.00    -0.388 OA
ATOM     17  H   UNL     1       3.801  83.320  81.374  1.00  0.00     0.211 HD
ENDBRANCH  12  16
BRANCH  14  18
ATOM     18  O   UNL     1       6.304  84.507  81.688  1.00  0.00    -0.387 OA
ATOM     19  H   UNL     1       5.505  84.628  82.264  1.00  0.00     0.211 HD
ENDBRANCH  14  18
BRANCH  15  20
ATOM     20  O   UNL     1       8.542  83.240  81.005  1.00  0.00    -0.385 OA
ATOM     21  H   UNL     1       8.197  83.661  81.841  1.00  0.00     0.211 HD
ENDBRANCH  15  20
ENDBRANCH   8   9
ENDBRANCH   7   8
ENDBRANCH   1   7
BRANCH   2  22
ATOM     22  O   UNL     1       7.237  87.514  75.320  1.00  0.00    -0.387 OA
ATOM     23  H   UNL     1       6.331  87.707  74.978  1.00  0.00     0.211 HD
ENDBRANCH   2  22
BRANCH   3  24
ATOM     24  O   UNL     1       7.232  90.234  76.099  1.00  0.00    -0.387 OA
ATOM     25  H   UNL     1       7.491  90.082  75.155  1.00  0.00     0.211 HD
ENDBRANCH   3  24
BRANCH   5  26
ATOM     26  O   UNL     1       8.624  88.724  80.507  1.00  0.00    -0.454 OA
BRANCH  26  27
ATOM     27  C   UNL     1       9.576  87.945  81.169  1.00  0.00     0.214 A 
ATOM     28  C   UNL     1      10.943  88.058  80.844  1.00  0.00     0.180 A 
ATOM     29  C   UNL     1       9.160  86.923  82.045  1.00  0.00     0.239 A 
ATOM     30  O   UNL     1      11.826  87.256  81.436  1.00  0.00    -0.452 OA
ATOM     31  C   UNL     1      10.116  86.044  82.582  1.00  0.00     0.111 A 
ATOM     32  O   UNL     1       7.932  86.771  82.270  1.00  0.00    -0.285 OA
ATOM     33  C   UNL     1      11.486  86.270  82.254  1.00  0.00     0.146 A 
ATOM     34  C   UNL     1       9.772  84.879  83.315  1.00  0.00     0.134 A 
ATOM     35  C   UNL     1      12.474  85.399  82.717  1.00  0.00     0.094 A 
ATOM     36  C   UNL     1      10.783  83.958  83.670  1.00  0.00     0.093 A 
ATOM     37  C   UNL     1      12.123  84.220  83.375  1.00  0.00     0.123 A 
BRANCH  28  38
ATOM     38  C   UNL     1      11.429  88.915  79.738  1.00  0.00     0.025 A 
ATOM     39  C   UNL     1      11.943  88.268  78.598  1.00  0.00     0.062 A 
ATOM     40  C   UNL     1      11.309  90.314  79.745  1.00  0.00     0.016 A 
ATOM     41  C   UNL     1      12.133  88.974  77.402  1.00  0.00     0.158 A 
ATOM     42  C   UNL     1      11.617  91.037  78.595  1.00  0.00     0.051 A 
ATOM     43  C   UNL     1      11.952  90.378  77.395  1.00  0.00     0.157 A 
BRANCH  41  44
ATOM     44  O   UNL     1      12.475  88.259  76.243  1.00  0.00    -0.504 OA
ATOM     45  H   UNL     1      13.293  88.470  75.684  1.00  0.00     0.293 HD
ENDBRANCH  41  44
BRANCH  43  46
ATOM     46  O   UNL     1      12.054  91.120  76.214  1.00  0.00    -0.504 OA
ATOM     47  H   UNL     1      11.357  91.821  75.967  1.00  0.00     0.293 HD
ENDBRANCH  43  46
ENDBRANCH  28  38
BRANCH  34  48
ATOM     48  O   UNL     1       8.444  84.580  83.645  1.00  0.00    -0.507 OA
ATOM     49  H   UNL     1       8.239  83.822  84.280  1.00  0.00     0.293 HD
ENDBRANCH  34  48
BRANCH  37  50
ATOM     50  O   UNL     1      13.103  83.283  83.713  1.00  0.00    -0.508 OA
ATOM     51  H   UNL     1      13.066  82.335  83.378  1.00  0.00     0.293 HD
ENDBRANCH  37  50
ENDBRANCH  26  27
ENDBRANCH   5  26
BRANCH   4  52
ATOM     52  O   UNL     1       6.868  90.433  78.755  1.00  0.00    -0.384 OA
ATOM     53  H   UNL     1       6.499  89.999  79.571  1.00  0.00     0.211 HD
ENDBRANCH   4  52
TORSDOF 16
ENDMDL
MODEL 5
REMARK VINA RESULT:    -6.086      2.095      6.550
REMARK INTER + INTRA:         -13.175
REMARK INTER:                 -11.020
REMARK INTRA:                  -2.155
REMARK UNBOUND:                -3.176
REMARK SMILES C[C@H]1O[C@@H](OC[C@@H]2O[C@@H](Oc3c(-c4ccc(O)c(O)c4)oc4cc(O)cc(O)c4c3=O)[C@H](O)[C@H](O)[C@H]2O)[C@@H](O)[C@@H](O)[C@@H]1O
REMARK SMILES IDX 7 1 36 2 34 3 32 4 9 5 8 6 6 7 5 8 4 9 1 10 2 11 42 12 3 13
REMARK SMILES IDX 40 14 38 15 43 16 41 18 39 20 37 22 35 24 10 26 11 27 12 28
REMARK SMILES IDX 30 29 21 30 29 31 31 32 22 33 27 34 23 35 26 36 24 37 13 38
REMARK SMILES IDX 20 39 14 40 18 41 15 42 16 43 19 44 17 46 28 48 25 50 33 52
REMARK H PARENT 43 17 41 19 39 21 37 23 35 25 19 45 17 47 28 49 25 51 33 53
REMARK Flexibility Score: inf
ROOT
ATOM      1  C   UNL     1       9.241  84.298  82.525  1.00  0.00     0.180 C 
ATOM      2  C   UNL     1       8.507  83.515  83.658  1.00  0.00     0.177 C 
ATOM      3  C   UNL     1       7.123  83.049  83.149  1.00  0.00     0.180 C 
ATOM      4  C   UNL     1       6.263  84.250  82.666  1.00  0.00     0.214 C 
ATOM      5  C   UNL     1       7.180  85.401  82.193  1.00  0.00     0.339 C 
ATOM      6  O   UNL     1       8.354  84.885  81.575  1.00  0.00    -0.332 OA
ENDROOT
BRANCH   1   7
ATOM      7  C   UNL     1      10.193  85.354  83.081  1.00  0.00     0.198 C 
BRANCH   7   8
ATOM      8  O   UNL     1      10.643  86.158  82.023  1.00  0.00    -0.347 OA
BRANCH   8   9
ATOM      9  C   UNL     1      12.055  86.342  82.084  1.00  0.00     0.281 C 
ATOM     10  C   UNL     1      13.180  89.379  80.234  1.00  0.00     0.041 C 
ATOM     11  C   UNL     1      13.074  87.883  80.555  1.00  0.00     0.150 C 
ATOM     12  C   UNL     1      12.407  87.103  79.403  1.00  0.00     0.174 C 
ATOM     13  O   UNL     1      12.356  87.706  81.770  1.00  0.00    -0.344 OA
ATOM     14  C   UNL     1      12.507  85.586  79.676  1.00  0.00     0.179 C 
ATOM     15  C   UNL     1      12.716  85.280  81.178  1.00  0.00     0.202 C 
BRANCH  12  16
ATOM     16  O   UNL     1      13.037  87.412  78.188  1.00  0.00    -0.388 OA
ATOM     17  H   UNL     1      12.493  87.001  77.459  1.00  0.00     0.211 HD
ENDBRANCH  12  16
BRANCH  14  18
ATOM     18  O   UNL     1      11.383  84.915  79.161  1.00  0.00    -0.387 OA
ATOM     19  H   UNL     1      11.403  84.977  78.170  1.00  0.00     0.211 HD
ENDBRANCH  14  18
BRANCH  15  20
ATOM     20  O   UNL     1      12.249  83.992  81.501  1.00  0.00    -0.385 OA
ATOM     21  H   UNL     1      13.011  83.492  81.906  1.00  0.00     0.211 HD
ENDBRANCH  15  20
ENDBRANCH   8   9
ENDBRANCH   7   8
ENDBRANCH   1   7
BRANCH   2  22
ATOM     22  O   UNL     1       9.275  82.394  84.035  1.00  0.00    -0.387 OA
ATOM     23  H   UNL     1       9.684  82.606  84.908  1.00  0.00     0.211 HD
ENDBRANCH   2  22
BRANCH   3  24
ATOM     24  O   UNL     1       6.450  82.284  84.124  1.00  0.00    -0.387 OA
ATOM     25  H   UNL     1       6.061  82.924  84.771  1.00  0.00     0.211 HD
ENDBRANCH   3  24
BRANCH   5  26
ATOM     26  O   UNL     1       6.449  86.240  81.294  1.00  0.00    -0.454 OA
BRANCH  26  27
ATOM     27  C   UNL     1       7.027  87.009  80.283  1.00  0.00     0.214 A 
ATOM     28  C   UNL     1       6.964  86.589  78.939  1.00  0.00     0.180 A 
ATOM     29  C   UNL     1       7.822  88.124  80.617  1.00  0.00     0.239 A 
ATOM     30  O   UNL     1       7.583  87.300  77.999  1.00  0.00    -0.452 OA
ATOM     31  C   UNL     1       8.528  88.796  79.604  1.00  0.00     0.111 A 
ATOM     32  O   UNL     1       7.945  88.449  81.826  1.00  0.00    -0.285 OA
ATOM     33  C   UNL     1       8.355  88.344  78.261  1.00  0.00     0.146 A 
ATOM     34  C   UNL     1       9.495  89.800  79.869  1.00  0.00     0.134 A 
ATOM     35  C   UNL     1       9.070  88.941  77.221  1.00  0.00     0.094 A 
ATOM     36  C   UNL     1      10.282  90.302  78.808  1.00  0.00     0.093 A 
ATOM     37  C   UNL     1      10.067  89.876  77.495  1.00  0.00     0.123 A 
BRANCH  28  38
ATOM     38  C   UNL     1       6.382  85.285  78.541  1.00  0.00     0.025 A 
ATOM     39  C   UNL     1       7.279  84.244  78.236  1.00  0.00     0.062 A 
ATOM     40  C   UNL     1       5.002  85.030  78.550  1.00  0.00     0.016 A 
ATOM     41  C   UNL     1       6.832  82.918  78.153  1.00  0.00     0.158 A 
ATOM     42  C   UNL     1       4.540  83.732  78.345  1.00  0.00     0.051 A 
ATOM     43  C   UNL     1       5.443  82.654  78.225  1.00  0.00     0.157 A 
BRANCH  41  44
ATOM     44  O   UNL     1       7.782  81.892  78.026  1.00  0.00    -0.504 OA
ATOM     45  H   UNL     1       8.687  81.918  78.480  1.00  0.00     0.293 HD
ENDBRANCH  41  44
BRANCH  43  46
ATOM     46  O   UNL     1       4.948  81.346  78.226  1.00  0.00    -0.504 OA
ATOM     47  H   UNL     1       4.672  80.885  79.091  1.00  0.00     0.293 HD
ENDBRANCH  43  46
ENDBRANCH  28  38
BRANCH  34  48
ATOM     48  O   UNL     1       9.736  90.268  81.167  1.00  0.00    -0.507 OA
ATOM     49  H   UNL     1       9.554  89.671  81.961  1.00  0.00     0.293 HD
ENDBRANCH  34  48
BRANCH  37  50
ATOM     50  O   UNL     1      10.875  90.368  76.467  1.00  0.00    -0.508 OA
ATOM     51  H   UNL     1      11.875  90.254  76.480  1.00  0.00     0.293 HD
ENDBRANCH  37  50
ENDBRANCH  26  27
ENDBRANCH   5  26
BRANCH   4  52
ATOM     52  O   UNL     1       5.417  84.728  83.687  1.00  0.00    -0.384 OA
ATOM     53  H   UNL     1       5.927  84.628  84.536  1.00  0.00     0.211 HD
ENDBRANCH   4  52
TORSDOF 16
ENDMDL
MODEL 6
REMARK VINA RESULT:    -5.999      2.878      5.231
REMARK INTER + INTRA:         -13.032
REMARK INTER:                 -11.089
REMARK INTRA:                  -1.943
REMARK UNBOUND:                -3.176
REMARK SMILES C[C@H]1O[C@@H](OC[C@@H]2O[C@@H](Oc3c(-c4ccc(O)c(O)c4)oc4cc(O)cc(O)c4c3=O)[C@H](O)[C@H](O)[C@H]2O)[C@@H](O)[C@@H](O)[C@@H]1O
REMARK SMILES IDX 7 1 36 2 34 3 32 4 9 5 8 6 6 7 5 8 4 9 1 10 2 11 42 12 3 13
REMARK SMILES IDX 40 14 38 15 43 16 41 18 39 20 37 22 35 24 10 26 11 27 12 28
REMARK SMILES IDX 30 29 21 30 29 31 31 32 22 33 27 34 23 35 26 36 24 37 13 38
REMARK SMILES IDX 20 39 14 40 18 41 15 42 16 43 19 44 17 46 28 48 25 50 33 52
REMARK H PARENT 43 17 41 19 39 21 37 23 35 25 19 45 17 47 28 49 25 51 33 53
REMARK Flexibility Score: inf
ROOT
ATOM      1  C   UNL     1      11.629  86.701  82.782  1.00  0.00     0.180 C 
ATOM      2  C   UNL     1      11.577  85.446  83.710  1.00  0.00     0.177 C 
ATOM      3  C   UNL     1      10.955  84.261  82.937  1.00  0.00     0.180 C 
ATOM      4  C   UNL     1       9.536  84.610  82.408  1.00  0.00     0.214 C 
ATOM      5  C   UNL     1       9.415  86.136  82.189  1.00  0.00     0.339 C 
ATOM      6  O   UNL     1      10.653  86.678  81.743  1.00  0.00    -0.332 OA
ENDROOT
BRANCH   1   7
ATOM      7  C   UNL     1      11.528  88.004  83.573  1.00  0.00     0.198 C 
BRANCH   7   8
ATOM      8  O   UNL     1      12.544  88.871  83.145  1.00  0.00    -0.347 OA
BRANCH   8   9
ATOM      9  C   UNL     1      13.632  88.146  82.580  1.00  0.00     0.281 C 
ATOM     10  C   UNL     1      16.908  89.070  84.107  1.00  0.00     0.041 C 
ATOM     11  C   UNL     1      15.863  88.925  82.994  1.00  0.00     0.150 C 
ATOM     12  C   UNL     1      15.430  90.300  82.441  1.00  0.00     0.174 C 
ATOM     13  O   UNL     1      14.741  88.201  83.486  1.00  0.00    -0.344 OA
ATOM     14  C   UNL     1      14.541  90.101  81.195  1.00  0.00     0.179 C 
ATOM     15  C   UNL     1      13.892  88.698  81.162  1.00  0.00     0.202 C 
BRANCH  12  16
ATOM     16  O   UNL     1      16.562  91.057  82.106  1.00  0.00    -0.388 OA
ATOM     17  H   UNL     1      17.274  90.416  81.825  1.00  0.00     0.211 HD
ENDBRANCH  12  16
BRANCH  14  18
ATOM     18  O   UNL     1      13.576  91.122  81.108  1.00  0.00    -0.387 OA
ATOM     19  H   UNL     1      12.674  90.711  81.154  1.00  0.00     0.211 HD
ENDBRANCH  14  18
BRANCH  15  20
ATOM     20  O   UNL     1      12.702  88.708  80.408  1.00  0.00    -0.385 OA
ATOM     21  H   UNL     1      12.538  89.651  80.126  1.00  0.00     0.211 HD
ENDBRANCH  15  20
ENDBRANCH   8   9
ENDBRANCH   7   8
ENDBRANCH   1   7
BRANCH   2  22
ATOM     22  O   UNL     1      12.883  85.109  84.125  1.00  0.00    -0.387 OA
ATOM     23  H   UNL     1      13.493  85.770  83.719  1.00  0.00     0.211 HD
ENDBRANCH   2  22
BRANCH   3  24
ATOM     24  O   UNL     1      10.945  83.088  83.721  1.00  0.00    -0.387 OA
ATOM     25  H   UNL     1       9.998  82.891  83.929  1.00  0.00     0.211 HD
ENDBRANCH   3  24
BRANCH   5  26
ATOM     26  O   UNL     1       8.370  86.389  81.246  1.00  0.00    -0.454 OA
BRANCH  26  27
ATOM     27  C   UNL     1       7.770  85.413  80.449  1.00  0.00     0.214 A 
ATOM     28  C   UNL     1       8.247  85.161  79.147  1.00  0.00     0.180 A 
ATOM     29  C   UNL     1       6.579  84.792  80.876  1.00  0.00     0.239 A 
ATOM     30  O   UNL     1       7.616  84.276  78.376  1.00  0.00    -0.452 OA
ATOM     31  C   UNL     1       5.898  83.930  80.000  1.00  0.00     0.111 A 
ATOM     32  O   UNL     1       6.109  85.081  82.006  1.00  0.00    -0.285 OA
ATOM     33  C   UNL     1       6.486  83.678  78.724  1.00  0.00     0.146 A 
ATOM     34  C   UNL     1       4.604  83.414  80.270  1.00  0.00     0.134 A 
ATOM     35  C   UNL     1       5.829  82.870  77.793  1.00  0.00     0.094 A 
ATOM     36  C   UNL     1       3.919  82.697  79.264  1.00  0.00     0.093 A 
ATOM     37  C   UNL     1       4.530  82.426  78.037  1.00  0.00     0.123 A 
BRANCH  28  38
ATOM     38  C   UNL     1       9.324  85.967  78.525  1.00  0.00     0.025 A 
ATOM     39  C   UNL     1       8.980  87.247  78.050  1.00  0.00     0.062 A 
ATOM     40  C   UNL     1      10.663  85.548  78.479  1.00  0.00     0.016 A 
ATOM     41  C   UNL     1       9.976  88.183  77.736  1.00  0.00     0.158 A 
ATOM     42  C   UNL     1      11.647  86.435  78.049  1.00  0.00     0.051 A 
ATOM     43  C   UNL     1      11.331  87.777  77.751  1.00  0.00     0.157 A 
BRANCH  41  44
ATOM     44  O   UNL     1       9.593  89.501  77.441  1.00  0.00    -0.504 OA
ATOM     45  H   UNL     1       8.684  89.879  77.680  1.00  0.00     0.293 HD
ENDBRANCH  41  44
BRANCH  43  46
ATOM     46  O   UNL     1      12.367  88.687  77.521  1.00  0.00    -0.504 OA
ATOM     47  H   UNL     1      12.543  89.065  76.592  1.00  0.00     0.293 HD
ENDBRANCH  43  46
ENDBRANCH  28  38
BRANCH  34  48
ATOM     48  O   UNL     1       3.957  83.649  81.489  1.00  0.00    -0.507 OA
ATOM     49  H   UNL     1       4.112  83.028  82.271  1.00  0.00     0.293 HD
ENDBRANCH  34  48
BRANCH  37  50
ATOM     50  O   UNL     1       3.823  81.737  77.048  1.00  0.00    -0.508 OA
ATOM     51  H   UNL     1       4.261  81.031  76.481  1.00  0.00     0.293 HD
ENDBRANCH  37  50
ENDBRANCH  26  27
ENDBRANCH   5  26
BRANCH   4  52
ATOM     52  O   UNL     1       8.530  84.194  83.304  1.00  0.00    -0.384 OA
ATOM     53  H   UNL     1       8.463  83.206  83.203  1.00  0.00     0.211 HD
ENDBRANCH   4  52
TORSDOF 16
ENDMDL
MODEL 7
REMARK VINA RESULT:    -5.913      2.223      6.862
REMARK INTER + INTRA:         -12.892
REMARK INTER:                 -10.642
REMARK INTRA:                  -2.250
REMARK UNBOUND:                -3.176
REMARK SMILES C[C@H]1O[C@@H](OC[C@@H]2O[C@@H](Oc3c(-c4ccc(O)c(O)c4)oc4cc(O)cc(O)c4c3=O)[C@H](O)[C@H](O)[C@H]2O)[C@@H](O)[C@@H](O)[C@@H]1O
REMARK SMILES IDX 7 1 36 2 34 3 32 4 9 5 8 6 6 7 5 8 4 9 1 10 2 11 42 12 3 13
REMARK SMILES IDX 40 14 38 15 43 16 41 18 39 20 37 22 35 24 10 26 11 27 12 28
REMARK SMILES IDX 30 29 21 30 29 31 31 32 22 33 27 34 23 35 26 36 24 37 13 38
REMARK SMILES IDX 20 39 14 40 18 41 15 42 16 43 19 44 17 46 28 48 25 50 33 52
REMARK H PARENT 43 17 41 19 39 21 37 23 35 25 19 45 17 47 28 49 25 51 33 53
REMARK Flexibility Score: inf
ROOT
ATOM      1  C   UNL     1      10.628  88.680  80.313  1.00  0.00     0.180 C 
ATOM      2  C   UNL     1      11.831  87.684  80.300  1.00  0.00     0.177 C 
ATOM      3  C   UNL     1      12.198  87.341  78.838  1.00  0.00     0.180 C 
ATOM      4  C   UNL     1      10.984  86.746  78.072  1.00  0.00     0.214 C 
ATOM      5  C   UNL     1       9.665  87.264  78.689  1.00  0.00     0.339 C 
ATOM      6  O   UNL     1       9.816  88.604  79.143  1.00  0.00    -0.332 OA
ENDROOT
BRANCH   1   7
ATOM      7  C   UNL     1       9.767  88.523  81.565  1.00  0.00     0.198 C 
BRANCH   7   8
ATOM      8  O   UNL     1       9.882  87.204  82.029  1.00  0.00    -0.347 OA
BRANCH   8   9
ATOM      9  C   UNL     1      10.176  87.174  83.422  1.00  0.00     0.281 C 
ATOM     10  C   UNL     1      13.798  86.602  84.104  1.00  0.00     0.041 C 
ATOM     11  C   UNL     1      12.296  86.298  84.125  1.00  0.00     0.150 C 
ATOM     12  C   UNL     1      11.967  85.012  83.338  1.00  0.00     0.174 C 
ATOM     13  O   UNL     1      11.577  87.410  83.602  1.00  0.00    -0.344 OA
ATOM     14  C   UNL     1      10.486  84.634  83.557  1.00  0.00     0.179 C 
ATOM     15  C   UNL     1       9.636  85.848  83.998  1.00  0.00     0.202 C 
BRANCH  12  16
ATOM     16  O   UNL     1      12.796  83.965  83.767  1.00  0.00    -0.388 OA
ATOM     17  H   UNL     1      13.332  84.308  84.537  1.00  0.00     0.211 HD
ENDBRANCH  12  16
BRANCH  14  18
ATOM     18  O   UNL     1       9.957  84.020  82.406  1.00  0.00    -0.387 OA
ATOM     19  H   UNL     1      10.393  83.136  82.289  1.00  0.00     0.211 HD
ENDBRANCH  14  18
BRANCH  15  20
ATOM     20  O   UNL     1       8.282  85.671  83.652  1.00  0.00    -0.385 OA
ATOM     21  H   UNL     1       8.084  84.695  83.720  1.00  0.00     0.211 HD
ENDBRANCH  15  20
ENDBRANCH   8   9
ENDBRANCH   7   8
ENDBRANCH   1   7
BRANCH   2  22
ATOM     22  O   UNL     1      12.940  88.272  80.942  1.00  0.00    -0.387 OA
ATOM     23  H   UNL     1      13.262  87.621  81.612  1.00  0.00     0.211 HD
ENDBRANCH   2  22
BRANCH   3  24
ATOM     24  O   UNL     1      13.321  86.490  78.779  1.00  0.00    -0.387 OA
ATOM     25  H   UNL     1      13.840  86.643  79.607  1.00  0.00     0.211 HD
ENDBRANCH   3  24
BRANCH   5  26
ATOM     26  O   UNL     1       8.624  87.164  77.712  1.00  0.00    -0.454 OA
BRANCH  26  27
ATOM     27  C   UNL     1       7.419  87.867  77.766  1.00  0.00     0.214 A 
ATOM     28  C   UNL     1       6.342  87.382  78.535  1.00  0.00     0.180 A 
ATOM     29  C   UNL     1       7.215  88.974  76.919  1.00  0.00     0.239 A 
ATOM     30  O   UNL     1       5.178  88.029  78.516  1.00  0.00    -0.452 OA
ATOM     31  C   UNL     1       5.946  89.576  76.865  1.00  0.00     0.111 A 
ATOM     32  O   UNL     1       8.151  89.355  76.171  1.00  0.00    -0.285 OA
ATOM     33  C   UNL     1       4.930  89.064  77.726  1.00  0.00     0.146 A 
ATOM     34  C   UNL     1       5.597  90.565  75.910  1.00  0.00     0.134 A 
ATOM     35  C   UNL     1       3.637  89.589  77.680  1.00  0.00     0.094 A 
ATOM     36  C   UNL     1       4.254  90.993  75.811  1.00  0.00     0.093 A 
ATOM     37  C   UNL     1       3.284  90.509  76.693  1.00  0.00     0.123 A 
BRANCH  28  38
ATOM     38  C   UNL     1       6.390  86.077  79.235  1.00  0.00     0.025 A 
ATOM     39  C   UNL     1       6.719  84.944  78.467  1.00  0.00     0.062 A 
ATOM     40  C   UNL     1       6.215  85.947  80.622  1.00  0.00     0.016 A 
ATOM     41  C   UNL     1       7.086  83.742  79.090  1.00  0.00     0.158 A 
ATOM     42  C   UNL     1       6.458  84.719  81.234  1.00  0.00     0.051 A 
ATOM     43  C   UNL     1       6.969  83.632  80.496  1.00  0.00     0.157 A 
BRANCH  41  44
ATOM     44  O   UNL     1       7.579  82.695  78.296  1.00  0.00    -0.504 OA
ATOM     45  H   UNL     1       6.980  82.074  77.765  1.00  0.00     0.293 HD
ENDBRANCH  41  44
BRANCH  43  46
ATOM     46  O   UNL     1       7.392  82.485  81.175  1.00  0.00    -0.504 OA
ATOM     47  H   UNL     1       6.792  81.665  81.253  1.00  0.00     0.293 HD
ENDBRANCH  43  46
ENDBRANCH  28  38
BRANCH  34  48
ATOM     48  O   UNL     1       6.538  91.090  75.014  1.00  0.00    -0.507 OA
ATOM     49  H   UNL     1       7.340  91.595  75.363  1.00  0.00     0.293 HD
ENDBRANCH  34  48
BRANCH  37  50
ATOM     50  O   UNL     1       1.957  90.927  76.560  1.00  0.00    -0.508 OA
ATOM     51  H   UNL     1       1.196  90.402  76.956  1.00  0.00     0.293 HD
ENDBRANCH  37  50
ENDBRANCH  26  27
ENDBRANCH   5  26
BRANCH   4  52
ATOM     52  O   UNL     1      10.986  85.336  78.111  1.00  0.00    -0.384 OA
ATOM     53  H   UNL     1      10.525  85.037  77.282  1.00  0.00     0.211 HD
ENDBRANCH   4  52
TORSDOF 16
ENDMDL
MODEL 8
REMARK VINA RESULT:    -5.909      2.097      5.654
REMARK INTER + INTRA:         -12.885
REMARK INTER:                 -10.682
REMARK INTRA:                  -2.203
REMARK UNBOUND:                -3.176
REMARK SMILES C[C@H]1O[C@@H](OC[C@@H]2O[C@@H](Oc3c(-c4ccc(O)c(O)c4)oc4cc(O)cc(O)c4c3=O)[C@H](O)[C@H](O)[C@H]2O)[C@@H](O)[C@@H](O)[C@@H]1O
REMARK SMILES IDX 7 1 36 2 34 3 32 4 9 5 8 6 6 7 5 8 4 9 1 10 2 11 42 12 3 13
REMARK SMILES IDX 40 14 38 15 43 16 41 18 39 20 37 22 35 24 10 26 11 27 12 28
REMARK SMILES IDX 30 29 21 30 29 31 31 32 22 33 27 34 23 35 26 36 24 37 13 38
REMARK SMILES IDX 20 39 14 40 18 41 15 42 16 43 19 44 17 46 28 48 25 50 33 52
REMARK H PARENT 43 17 41 19 39 21 37 23 35 25 19 45 17 47 28 49 25 51 33 53
REMARK Flexibility Score: inf
ROOT
ATOM      1  C   UNL     1       9.219  84.934  83.798  1.00  0.00     0.180 C 
ATOM      2  C   UNL     1      10.202  83.891  83.179  1.00  0.00     0.177 C 
ATOM      3  C   UNL     1      11.518  84.598  82.780  1.00  0.00     0.180 C 
ATOM      4  C   UNL     1      11.257  85.763  81.785  1.00  0.00     0.214 C 
ATOM      5  C   UNL     1       9.829  86.322  81.988  1.00  0.00     0.339 C 
ATOM      6  O   UNL     1       9.461  86.270  83.361  1.00  0.00    -0.332 OA
ENDROOT
BRANCH   1   7
ATOM      7  C   UNL     1       7.758  84.558  83.558  1.00  0.00     0.198 C 
BRANCH   7   8
ATOM      8  O   UNL     1       7.484  84.663  82.186  1.00  0.00    -0.347 OA
BRANCH   8   9
ATOM      9  C   UNL     1       7.002  83.428  81.664  1.00  0.00     0.281 C 
ATOM     10  C   UNL     1       8.541  82.573  78.375  1.00  0.00     0.041 C 
ATOM     11  C   UNL     1       7.416  82.925  79.355  1.00  0.00     0.150 C 
ATOM     12  C   UNL     1       6.752  84.271  78.996  1.00  0.00     0.174 C 
ATOM     13  O   UNL     1       7.930  82.951  80.682  1.00  0.00    -0.344 OA
ATOM     14  C   UNL     1       5.501  84.484  79.875  1.00  0.00     0.179 C 
ATOM     15  C   UNL     1       5.555  83.646  81.175  1.00  0.00     0.202 C 
BRANCH  12  16
ATOM     16  O   UNL     1       6.391  84.279  77.641  1.00  0.00    -0.388 OA
ATOM     17  H   UNL     1       5.436  84.566  77.590  1.00  0.00     0.211 HD
ENDBRANCH  12  16
BRANCH  14  18
ATOM     18  O   UNL     1       5.314  85.852  80.147  1.00  0.00    -0.387 OA
ATOM     19  H   UNL     1       4.994  86.299  79.320  1.00  0.00     0.211 HD
ENDBRANCH  14  18
BRANCH  15  20
ATOM     20  O   UNL     1       4.771  84.233  82.187  1.00  0.00    -0.385 OA
ATOM     21  H   UNL     1       4.646  83.548  82.901  1.00  0.00     0.211 HD
ENDBRANCH  15  20
ENDBRANCH   8   9
ENDBRANCH   7   8
ENDBRANCH   1   7
BRANCH   2  22
ATOM     22  O   UNL     1      10.475  82.879  84.122  1.00  0.00    -0.387 OA
ATOM     23  H   UNL     1       9.916  82.102  83.880  1.00  0.00     0.211 HD
ENDBRANCH   2  22
BRANCH   3  24
ATOM     24  O   UNL     1      12.459  83.679  82.272  1.00  0.00    -0.387 OA
ATOM     25  H   UNL     1      13.313  84.169  82.176  1.00  0.00     0.211 HD
ENDBRANCH   3  24
BRANCH   5  26
ATOM     26  O   UNL     1       9.778  87.661  81.489  1.00  0.00    -0.454 OA
BRANCH  26  27
ATOM     27  C   UNL     1       9.337  88.014  80.213  1.00  0.00     0.214 A 
ATOM     28  C   UNL     1      10.249  88.486  79.246  1.00  0.00     0.180 A 
ATOM     29  C   UNL     1       7.957  88.061  79.935  1.00  0.00     0.239 A 
ATOM     30  O   UNL     1       9.798  88.885  78.059  1.00  0.00    -0.452 OA
ATOM     31  C   UNL     1       7.518  88.569  78.700  1.00  0.00     0.111 A 
ATOM     32  O   UNL     1       7.140  87.719  80.828  1.00  0.00    -0.285 OA
ATOM     33  C   UNL     1       8.511  88.964  77.753  1.00  0.00     0.146 A 
ATOM     34  C   UNL     1       6.154  88.831  78.410  1.00  0.00     0.134 A 
ATOM     35  C   UNL     1       8.134  89.522  76.530  1.00  0.00     0.094 A 
ATOM     36  C   UNL     1       5.815  89.502  77.213  1.00  0.00     0.093 A 
ATOM     37  C   UNL     1       6.799  89.841  76.281  1.00  0.00     0.123 A 
BRANCH  28  38
ATOM     38  C   UNL     1      11.678  88.725  79.552  1.00  0.00     0.025 A 
ATOM     39  C   UNL     1      11.984  89.796  80.414  1.00  0.00     0.062 A 
ATOM     40  C   UNL     1      12.708  87.884  79.101  1.00  0.00     0.016 A 
ATOM     41  C   UNL     1      13.255  89.904  80.995  1.00  0.00     0.158 A 
ATOM     42  C   UNL     1      14.004  88.063  79.581  1.00  0.00     0.051 A 
ATOM     43  C   UNL     1      14.277  89.014  80.586  1.00  0.00     0.157 A 
BRANCH  41  44
ATOM     44  O   UNL     1      13.464  90.878  81.984  1.00  0.00    -0.504 OA
ATOM     45  H   UNL     1      14.386  91.155  82.301  1.00  0.00     0.293 HD
ENDBRANCH  41  44
BRANCH  43  46
ATOM     46  O   UNL     1      15.539  89.028  81.187  1.00  0.00    -0.504 OA
ATOM     47  H   UNL     1      15.661  88.782  82.168  1.00  0.00     0.293 HD
ENDBRANCH  43  46
ENDBRANCH  28  38
BRANCH  34  48
ATOM     48  O   UNL     1       5.132  88.497  79.308  1.00  0.00    -0.507 OA
ATOM     49  H   UNL     1       5.348  87.988  80.152  1.00  0.00     0.293 HD
ENDBRANCH  34  48
BRANCH  37  50
ATOM     50  O   UNL     1       6.443  90.527  75.117  1.00  0.00    -0.508 OA
ATOM     51  H   UNL     1       5.992  91.425  75.150  1.00  0.00     0.293 HD
ENDBRANCH  37  50
ENDBRANCH  26  27
ENDBRANCH   5  26
BRANCH   4  52
ATOM     52  O   UNL     1      11.400  85.346  80.447  1.00  0.00    -0.384 OA
ATOM     53  H   UNL     1      12.345  85.535  80.198  1.00  0.00     0.211 HD
ENDBRANCH   4  52
TORSDOF 16
ENDMDL
MODEL 9
REMARK VINA RESULT:    -5.744      1.919      5.699
REMARK INTER + INTRA:         -12.613
REMARK INTER:                 -10.630
REMARK INTRA:                  -1.983
REMARK UNBOUND:                -3.176
REMARK SMILES C[C@H]1O[C@@H](OC[C@@H]2O[C@@H](Oc3c(-c4ccc(O)c(O)c4)oc4cc(O)cc(O)c4c3=O)[C@H](O)[C@H](O)[C@H]2O)[C@@H](O)[C@@H](O)[C@@H]1O
REMARK SMILES IDX 7 1 36 2 34 3 32 4 9 5 8 6 6 7 5 8 4 9 1 10 2 11 42 12 3 13
REMARK SMILES IDX 40 14 38 15 43 16 41 18 39 20 37 22 35 24 10 26 11 27 12 28
REMARK SMILES IDX 30 29 21 30 29 31 31 32 22 33 27 34 23 35 26 36 24 37 13 38
REMARK SMILES IDX 20 39 14 40 18 41 15 42 16 43 19 44 17 46 28 48 25 50 33 52
REMARK H PARENT 43 17 41 19 39 21 37 23 35 25 19 45 17 47 28 49 25 51 33 53
REMARK Flexibility Score: inf
ROOT
ATOM      1  C   UNL     1       8.174  84.417  83.136  1.00  0.00     0.180 C 
ATOM      2  C   UNL     1       9.466  83.561  82.956  1.00  0.00     0.177 C 
ATOM      3  C   UNL     1      10.709  84.470  83.095  1.00  0.00     0.180 C 
ATOM      4  C   UNL     1      10.676  85.636  82.068  1.00  0.00     0.214 C 
ATOM      5  C   UNL     1       9.214  85.971  81.695  1.00  0.00     0.339 C 
ATOM      6  O   UNL     1       8.357  85.795  82.818  1.00  0.00    -0.332 OA
ENDROOT
BRANCH   1   7
ATOM      7  C   UNL     1       6.994  83.847  82.351  1.00  0.00     0.198 C 
BRANCH   7   8
ATOM      8  O   UNL     1       7.435  83.495  81.066  1.00  0.00    -0.347 OA
BRANCH   8   9
ATOM      9  C   UNL     1       6.883  84.364  80.080  1.00  0.00     0.281 C 
ATOM     10  C   UNL     1       3.577  83.178  78.824  1.00  0.00     0.041 C 
ATOM     11  C   UNL     1       5.059  83.563  78.744  1.00  0.00     0.150 C 
ATOM     12  C   UNL     1       5.939  82.354  78.360  1.00  0.00     0.174 C 
ATOM     13  O   UNL     1       5.475  84.118  79.986  1.00  0.00    -0.344 OA
ATOM     14  C   UNL     1       7.383  82.828  78.090  1.00  0.00     0.179 C 
ATOM     15  C   UNL     1       7.688  84.181  78.776  1.00  0.00     0.202 C 
BRANCH  12  16
ATOM     16  O   UNL     1       5.419  81.730  77.216  1.00  0.00    -0.388 OA
ATOM     17  H   UNL     1       4.432  81.649  77.346  1.00  0.00     0.211 HD
ENDBRANCH  12  16
BRANCH  14  18
ATOM     18  O   UNL     1       8.308  81.835  78.465  1.00  0.00    -0.387 OA
ATOM     19  H   UNL     1       9.225  82.198  78.353  1.00  0.00     0.211 HD
ENDBRANCH  14  18
BRANCH  15  20
ATOM     20  O   UNL     1       9.068  84.324  79.019  1.00  0.00    -0.385 OA
ATOM     21  H   UNL     1       9.513  83.487  78.709  1.00  0.00     0.211 HD
ENDBRANCH  15  20
ENDBRANCH   8   9
ENDBRANCH   7   8
ENDBRANCH   1   7
BRANCH   2  22
ATOM     22  O   UNL     1       9.507  82.550  83.940  1.00  0.00    -0.387 OA
ATOM     23  H   UNL     1       8.586  82.209  84.039  1.00  0.00     0.211 HD
ENDBRANCH   2  22
BRANCH   3  24
ATOM     24  O   UNL     1      11.902  83.724  82.999  1.00  0.00    -0.387 OA
ATOM     25  H   UNL     1      11.950  83.379  82.073  1.00  0.00     0.211 HD
ENDBRANCH   3  24
BRANCH   5  26
ATOM     26  O   UNL     1       9.154  87.313  81.205  1.00  0.00    -0.454 OA
BRANCH  26  27
ATOM     27  C   UNL     1       8.630  87.680  79.964  1.00  0.00     0.214 A 
ATOM     28  C   UNL     1       9.478  88.146  78.939  1.00  0.00     0.180 A 
ATOM     29  C   UNL     1       7.234  87.747  79.784  1.00  0.00     0.239 A 
ATOM     30  O   UNL     1       8.951  88.559  77.788  1.00  0.00    -0.452 OA
ATOM     31  C   UNL     1       6.718  88.269  78.585  1.00  0.00     0.111 A 
ATOM     32  O   UNL     1       6.477  87.410  80.730  1.00  0.00    -0.285 OA
ATOM     33  C   UNL     1       7.647  88.657  77.574  1.00  0.00     0.146 A 
ATOM     34  C   UNL     1       5.341  88.551  78.392  1.00  0.00     0.134 A 
ATOM     35  C   UNL     1       7.194  89.228  76.383  1.00  0.00     0.094 A 
ATOM     36  C   UNL     1       4.928  89.234  77.226  1.00  0.00     0.093 A 
ATOM     37  C   UNL     1       5.850  89.566  76.229  1.00  0.00     0.123 A 
BRANCH  28  38
ATOM     38  C   UNL     1      10.929  88.365  79.147  1.00  0.00     0.025 A 
ATOM     39  C   UNL     1      11.308  89.421  79.997  1.00  0.00     0.062 A 
ATOM     40  C   UNL     1      11.913  87.517  78.614  1.00  0.00     0.016 A 
ATOM     41  C   UNL     1      12.618  89.506  80.488  1.00  0.00     0.158 A 
ATOM     42  C   UNL     1      13.242  87.675  79.003  1.00  0.00     0.051 A 
ATOM     43  C   UNL     1      13.597  88.609  79.997  1.00  0.00     0.157 A 
BRANCH  41  44
ATOM     44  O   UNL     1      12.909  90.465  81.472  1.00  0.00    -0.504 OA
ATOM     45  H   UNL     1      13.708  91.086  81.419  1.00  0.00     0.293 HD
ENDBRANCH  41  44
BRANCH  43  46
ATOM     46  O   UNL     1      14.899  88.600  80.508  1.00  0.00    -0.504 OA
ATOM     47  H   UNL     1      15.525  87.814  80.348  1.00  0.00     0.293 HD
ENDBRANCH  43  46
ENDBRANCH  28  38
BRANCH  34  48
ATOM     48  O   UNL     1       4.379  88.225  79.357  1.00  0.00    -0.507 OA
ATOM     49  H   UNL     1       4.182  87.256  79.566  1.00  0.00     0.293 HD
ENDBRANCH  34  48
BRANCH  37  50
ATOM     50  O   UNL     1       5.423  90.263  75.097  1.00  0.00    -0.508 OA
ATOM     51  H   UNL     1       6.070  90.570  74.390  1.00  0.00     0.293 HD
ENDBRANCH  37  50
ENDBRANCH  26  27
ENDBRANCH   5  26
BRANCH   4  52
ATOM     52  O   UNL     1      11.386  85.314  80.893  1.00  0.00    -0.384 OA
ATOM     53  H   UNL     1      12.258  85.788  80.960  1.00  0.00     0.211 HD
ENDBRANCH   4  52
TORSDOF 16
ENDMDL
