MODEL 1
REMARK VINA RESULT:    -7.635      0.000      0.000
REMARK INTER + INTRA:         -12.962
REMARK INTER:                 -10.536
REMARK INTRA:                  -2.426
REMARK UNBOUND:                -2.426
REMARK SMILES CC[C@H](CC[C@H](C)[C@@H]1CC[C@@H]2[C@H]3CC=C4C[C@H](O)CC[C@]4(C)[C@H]3CC[C@@]21C)C(C)C
REMARK SMILES IDX 5 1 4 2 3 3 2 4 1 5 28 6 29 7 30 8 6 9 7 10 8 11 9 12 26 13
REMARK SMILES IDX 10 14 11 15 25 16 27 17 12 18 24 19 23 20 13 21 21 22 14 23
REMARK SMILES IDX 15 24 20 25 22 26 16 27 19 28 17 29 18 30
REMARK H PARENT 18 31
REMARK Flexibility Score: inf
ROOT
ATOM      1  C   UNL     1     -24.267 -26.611 110.506  1.00  0.00     0.004 C 
ENDROOT
BRANCH   1   2
ATOM      2  C   UNL     1     -25.759 -26.455 110.115  1.00  0.00     0.004 C 
BRANCH   2   3
ATOM      3  C   UNL     1     -26.453 -27.780 109.675  1.00  0.00    -0.009 C 
BRANCH   3   4
ATOM      4  C   UNL     1     -25.463 -28.712 108.909  1.00  0.00     0.000 C 
ATOM      5  C   UNL     1     -25.682 -28.713 107.394  1.00  0.00     0.004 C 
ENDBRANCH   3   4
BRANCH   3   6
ATOM      6  C   UNL     1     -27.180 -28.506 110.860  1.00  0.00    -0.014 C 
ATOM      7  C   UNL     1     -26.894 -30.024 110.875  1.00  0.00     0.007 C 
ATOM      8  C   UNL     1     -28.707 -28.302 110.803  1.00  0.00     0.007 C 
ENDBRANCH   3   6
ENDBRANCH   2   3
ENDBRANCH   1   2
BRANCH   1   9
ATOM      9  C   UNL     1     -23.878 -25.989 111.879  1.00  0.00    -0.011 C 
ATOM     10  C   UNL     1     -22.598 -25.150 111.729  1.00  0.00     0.008 C 
BRANCH   9  11
ATOM     11  C   UNL     1     -23.804 -27.041 113.051  1.00  0.00    -0.002 C 
ATOM     12  C   UNL     1     -23.829 -28.481 112.515  1.00  0.00     0.005 C 
ATOM     13  C   UNL     1     -24.933 -27.014 114.141  1.00  0.00    -0.026 C 
ATOM     14  C   UNL     1     -24.384 -29.372 113.617  1.00  0.00     0.005 C 
ATOM     15  C   UNL     1     -24.827 -28.442 114.752  1.00  0.00    -0.001 C 
ATOM     16  C   UNL     1     -26.331 -26.782 113.489  1.00  0.00     0.007 C 
ATOM     17  C   UNL     1     -24.643 -25.936 115.236  1.00  0.00     0.012 C 
ATOM     18  C   UNL     1     -26.085 -28.967 115.502  1.00  0.00     0.000 C 
ATOM     19  C   UNL     1     -27.522 -27.234 114.343  1.00  0.00     0.005 C 
ATOM     20  C   UNL     1     -27.402 -28.731 114.722  1.00  0.00     0.003 C 
ATOM     21  C   UNL     1     -26.197 -28.364 116.910  1.00  0.00     0.031 C 
ATOM     22  C   UNL     1     -28.650 -29.359 115.487  1.00  0.00    -0.008 C 
ATOM     23  C   UNL     1     -27.372 -28.930 117.641  1.00  0.00    -0.027 C 
ATOM     24  C   UNL     1     -28.494 -29.344 117.019  1.00  0.00    -0.065 C 
ATOM     25  C   UNL     1     -28.791 -30.855 115.054  1.00  0.00     0.014 C 
ATOM     26  C   UNL     1     -29.958 -28.617 115.098  1.00  0.00     0.016 C 
ATOM     27  C   UNL     1     -29.533 -30.088 117.835  1.00  0.00     0.063 C 
ATOM     28  C   UNL     1     -29.824 -31.659 115.874  1.00  0.00     0.033 C 
ATOM     29  C   UNL     1     -29.574 -31.558 117.388  1.00  0.00     0.118 C 
BRANCH  29  30
ATOM     30  O   UNL     1     -28.360 -32.188 117.705  1.00  0.00    -0.393 OA
ATOM     31  H   UNL     1     -28.514 -32.704 118.535  1.00  0.00     0.210 HD
ENDBRANCH  29  30
ENDBRANCH   9  11
ENDBRANCH   1   9
TORSDOF 7
ENDMDL
MODEL 2
REMARK VINA RESULT:    -7.356      5.316     10.142
REMARK INTER + INTRA:         -12.577
REMARK INTER:                 -11.320
REMARK INTRA:                  -1.258
REMARK UNBOUND:                -2.426
REMARK SMILES CC[C@H](CC[C@H](C)[C@@H]1CC[C@@H]2[C@H]3CC=C4C[C@H](O)CC[C@]4(C)[C@H]3CC[C@@]21C)C(C)C
REMARK SMILES IDX 5 1 4 2 3 3 2 4 1 5 28 6 29 7 30 8 6 9 7 10 8 11 9 12 26 13
REMARK SMILES IDX 10 14 11 15 25 16 27 17 12 18 24 19 23 20 13 21 21 22 14 23
REMARK SMILES IDX 15 24 20 25 22 26 16 27 19 28 17 29 18 30
REMARK H PARENT 18 31
REMARK Flexibility Score: inf
ROOT
ATOM      1  C   UNL     1     -24.679 -27.432 109.878  1.00  0.00     0.004 C 
ENDROOT
BRANCH   1   2
ATOM      2  C   UNL     1     -23.920 -28.118 111.042  1.00  0.00     0.004 C 
BRANCH   2   3
ATOM      3  C   UNL     1     -23.249 -27.132 112.045  1.00  0.00    -0.009 C 
BRANCH   3   4
ATOM      4  C   UNL     1     -23.774 -25.675 111.847  1.00  0.00     0.000 C 
ATOM      5  C   UNL     1     -22.655 -24.632 111.782  1.00  0.00     0.004 C 
ENDBRANCH   3   4
BRANCH   3   6
ATOM      6  C   UNL     1     -23.348 -27.617 113.533  1.00  0.00    -0.014 C 
ATOM      7  C   UNL     1     -23.876 -29.064 113.640  1.00  0.00     0.007 C 
ATOM      8  C   UNL     1     -24.265 -26.704 114.372  1.00  0.00     0.007 C 
ENDBRANCH   3   6
ENDBRANCH   2   3
ENDBRANCH   1   2
BRANCH   1   9
ATOM      9  C   UNL     1     -26.222 -27.336 110.063  1.00  0.00    -0.011 C 
ATOM     10  C   UNL     1     -26.647 -28.106 111.324  1.00  0.00     0.008 C 
BRANCH   9  11
ATOM     11  C   UNL     1     -27.039 -27.739 108.777  1.00  0.00    -0.002 C 
ATOM     12  C   UNL     1     -26.135 -28.396 107.721  1.00  0.00     0.005 C 
ATOM     13  C   UNL     1     -27.791 -26.606 107.992  1.00  0.00    -0.026 C 
ATOM     14  C   UNL     1     -26.782 -28.174 106.361  1.00  0.00     0.005 C 
ATOM     15  C   UNL     1     -27.989 -27.258 106.593  1.00  0.00    -0.001 C 
ATOM     16  C   UNL     1     -26.914 -25.320 107.896  1.00  0.00     0.007 C 
ATOM     17  C   UNL     1     -29.178 -26.287 108.640  1.00  0.00     0.012 C 
ATOM     18  C   UNL     1     -28.240 -26.285 105.406  1.00  0.00     0.000 C 
ATOM     19  C   UNL     1     -27.298 -24.364 106.761  1.00  0.00     0.005 C 
ATOM     20  C   UNL     1     -27.264 -25.082 105.388  1.00  0.00     0.003 C 
ATOM     21  C   UNL     1     -29.691 -25.780 105.386  1.00  0.00     0.031 C 
ATOM     22  C   UNL     1     -27.504 -24.159 104.112  1.00  0.00    -0.008 C 
ATOM     23  C   UNL     1     -29.933 -24.900 104.202  1.00  0.00    -0.027 C 
ATOM     24  C   UNL     1     -28.971 -24.137 103.645  1.00  0.00    -0.065 C 
ATOM     25  C   UNL     1     -26.653 -24.726 102.929  1.00  0.00     0.014 C 
ATOM     26  C   UNL     1     -27.035 -22.706 104.394  1.00  0.00     0.016 C 
ATOM     27  C   UNL     1     -29.276 -23.447 102.330  1.00  0.00     0.063 C 
ATOM     28  C   UNL     1     -26.946 -24.067 101.563  1.00  0.00     0.033 C 
ATOM     29  C   UNL     1     -28.443 -24.093 101.211  1.00  0.00     0.118 C 
BRANCH  29  30
ATOM     30  O   UNL     1     -28.854 -25.421 101.015  1.00  0.00    -0.393 OA
ATOM     31  H   UNL     1     -29.763 -25.384 100.625  1.00  0.00     0.210 HD
ENDBRANCH  29  30
ENDBRANCH   9  11
ENDBRANCH   1   9
TORSDOF 7
ENDMDL
MODEL 3
REMARK VINA RESULT:    -6.891      5.673     10.722
REMARK INTER + INTRA:         -11.936
REMARK INTER:                 -10.843
REMARK INTRA:                  -1.093
REMARK UNBOUND:                -2.426
REMARK SMILES CC[C@H](CC[C@H](C)[C@@H]1CC[C@@H]2[C@H]3CC=C4C[C@H](O)CC[C@]4(C)[C@H]3CC[C@@]21C)C(C)C
REMARK SMILES IDX 5 1 4 2 3 3 2 4 1 5 28 6 29 7 30 8 6 9 7 10 8 11 9 12 26 13
REMARK SMILES IDX 10 14 11 15 25 16 27 17 12 18 24 19 23 20 13 21 21 22 14 23
REMARK SMILES IDX 15 24 20 25 22 26 16 27 19 28 17 29 18 30
REMARK H PARENT 18 31
REMARK Flexibility Score: inf
ROOT
ATOM      1  C   UNL     1     -27.967 -27.570 110.910  1.00  0.00     0.004 C 
ENDROOT
BRANCH   1   2
ATOM      2  C   UNL     1     -26.761 -28.126 111.708  1.00  0.00     0.004 C 
BRANCH   2   3
ATOM      3  C   UNL     1     -25.580 -27.122 111.876  1.00  0.00    -0.009 C 
BRANCH   3   4
ATOM      4  C   UNL     1     -25.185 -26.956 113.377  1.00  0.00     0.000 C 
ATOM      5  C   UNL     1     -25.646 -28.122 114.256  1.00  0.00     0.004 C 
ENDBRANCH   3   4
BRANCH   3   6
ATOM      6  C   UNL     1     -24.356 -27.465 110.958  1.00  0.00    -0.014 C 
ATOM      7  C   UNL     1     -24.064 -28.981 110.920  1.00  0.00     0.007 C 
ATOM      8  C   UNL     1     -23.077 -26.737 111.417  1.00  0.00     0.007 C 
ENDBRANCH   3   6
ENDBRANCH   2   3
ENDBRANCH   1   2
BRANCH   1   9
ATOM      9  C   UNL     1     -27.883 -27.766 109.367  1.00  0.00    -0.011 C 
ATOM     10  C   UNL     1     -27.226 -29.118 109.046  1.00  0.00     0.008 C 
BRANCH   9  11
ATOM     11  C   UNL     1     -27.220 -26.552 108.611  1.00  0.00    -0.002 C 
ATOM     12  C   UNL     1     -28.068 -25.276 108.745  1.00  0.00     0.005 C 
ATOM     13  C   UNL     1     -26.969 -26.689 107.067  1.00  0.00    -0.026 C 
ATOM     14  C   UNL     1     -27.757 -24.390 107.548  1.00  0.00     0.005 C 
ATOM     15  C   UNL     1     -26.839 -25.202 106.627  1.00  0.00    -0.001 C 
ATOM     16  C   UNL     1     -28.179 -27.380 106.366  1.00  0.00     0.007 C 
ATOM     17  C   UNL     1     -25.640 -27.458 106.772  1.00  0.00     0.012 C 
ATOM     18  C   UNL     1     -27.084 -24.903 105.120  1.00  0.00     0.000 C 
ATOM     19  C   UNL     1     -28.286 -27.117 104.860  1.00  0.00     0.005 C 
ATOM     20  C   UNL     1     -28.350 -25.599 104.560  1.00  0.00     0.003 C 
ATOM     21  C   UNL     1     -25.863 -25.273 104.264  1.00  0.00     0.031 C 
ATOM     22  C   UNL     1     -28.607 -25.198 103.040  1.00  0.00    -0.008 C 
ATOM     23  C   UNL     1     -26.090 -24.918 102.830  1.00  0.00    -0.027 C 
ATOM     24  C   UNL     1     -27.310 -24.918 102.257  1.00  0.00    -0.065 C 
ATOM     25  C   UNL     1     -29.452 -23.883 103.014  1.00  0.00     0.014 C 
ATOM     26  C   UNL     1     -29.414 -26.307 102.313  1.00  0.00     0.016 C 
ATOM     27  C   UNL     1     -27.447 -24.344 100.861  1.00  0.00     0.063 C 
ATOM     28  C   UNL     1     -29.600 -23.249 101.614  1.00  0.00     0.033 C 
ATOM     29  C   UNL     1     -28.241 -23.030 100.926  1.00  0.00     0.118 C 
BRANCH  29  30
ATOM     30  O   UNL     1     -27.510 -22.063 101.634  1.00  0.00    -0.393 OA
ATOM     31  H   UNL     1     -26.632 -22.468 101.846  1.00  0.00     0.210 HD
ENDBRANCH  29  30
ENDBRANCH   9  11
ENDBRANCH   1   9
TORSDOF 7
ENDMDL
MODEL 4
REMARK VINA RESULT:    -6.835      2.172      4.463
REMARK INTER + INTRA:         -11.859
REMARK INTER:                  -9.769
REMARK INTRA:                  -2.090
REMARK UNBOUND:                -2.426
REMARK SMILES CC[C@H](CC[C@H](C)[C@@H]1CC[C@@H]2[C@H]3CC=C4C[C@H](O)CC[C@]4(C)[C@H]3CC[C@@]21C)C(C)C
REMARK SMILES IDX 5 1 4 2 3 3 2 4 1 5 28 6 29 7 30 8 6 9 7 10 8 11 9 12 26 13
REMARK SMILES IDX 10 14 11 15 25 16 27 17 12 18 24 19 23 20 13 21 21 22 14 23
REMARK SMILES IDX 15 24 20 25 22 26 16 27 19 28 17 29 18 30
REMARK H PARENT 18 31
REMARK Flexibility Score: inf
ROOT
ATOM      1  C   UNL     1     -24.937 -25.718 115.648  1.00  0.00     0.004 C 
ENDROOT
BRANCH   1   2
ATOM      2  C   UNL     1     -25.430 -25.095 114.317  1.00  0.00     0.004 C 
BRANCH   2   3
ATOM      3  C   UNL     1     -25.217 -25.999 113.065  1.00  0.00    -0.009 C 
BRANCH   3   4
ATOM      4  C   UNL     1     -26.576 -26.354 112.383  1.00  0.00     0.000 C 
ATOM      5  C   UNL     1     -26.660 -27.813 111.925  1.00  0.00     0.004 C 
ENDBRANCH   3   4
BRANCH   3   6
ATOM      6  C   UNL     1     -24.169 -25.407 112.059  1.00  0.00    -0.014 C 
ATOM      7  C   UNL     1     -23.039 -26.410 111.739  1.00  0.00     0.007 C 
ATOM      8  C   UNL     1     -23.529 -24.112 112.598  1.00  0.00     0.007 C 
ENDBRANCH   3   6
ENDBRANCH   2   3
ENDBRANCH   1   2
BRANCH   1   9
ATOM      9  C   UNL     1     -26.060 -26.291 116.563  1.00  0.00    -0.011 C 
ATOM     10  C   UNL     1     -25.932 -25.703 117.978  1.00  0.00     0.008 C 
BRANCH   9  11
ATOM     11  C   UNL     1     -26.150 -27.864 116.544  1.00  0.00    -0.002 C 
ATOM     12  C   UNL     1     -25.305 -28.461 115.407  1.00  0.00     0.005 C 
ATOM     13  C   UNL     1     -27.563 -28.522 116.361  1.00  0.00    -0.026 C 
ATOM     14  C   UNL     1     -25.905 -29.812 115.048  1.00  0.00     0.005 C 
ATOM     15  C   UNL     1     -27.194 -29.951 115.867  1.00  0.00    -0.001 C 
ATOM     16  C   UNL     1     -28.401 -27.755 115.292  1.00  0.00     0.007 C 
ATOM     17  C   UNL     1     -28.334 -28.603 117.719  1.00  0.00     0.012 C 
ATOM     18  C   UNL     1     -28.307 -30.729 115.108  1.00  0.00     0.000 C 
ATOM     19  C   UNL     1     -29.544 -28.564 114.669  1.00  0.00     0.005 C 
ATOM     20  C   UNL     1     -29.021 -29.874 114.031  1.00  0.00     0.003 C 
ATOM     21  C   UNL     1     -29.343 -31.321 116.075  1.00  0.00     0.031 C 
ATOM     22  C   UNL     1     -30.092 -30.733 113.223  1.00  0.00    -0.008 C 
ATOM     23  C   UNL     1     -30.366 -32.122 115.335  1.00  0.00    -0.027 C 
ATOM     24  C   UNL     1     -30.741 -31.845 114.070  1.00  0.00    -0.065 C 
ATOM     25  C   UNL     1     -29.363 -31.431 112.030  1.00  0.00     0.014 C 
ATOM     26  C   UNL     1     -31.202 -29.816 112.644  1.00  0.00     0.016 C 
ATOM     27  C   UNL     1     -31.629 -32.842 113.351  1.00  0.00     0.063 C 
ATOM     28  C   UNL     1     -30.223 -32.472 111.280  1.00  0.00     0.033 C 
ATOM     29  C   UNL     1     -30.828 -33.521 112.229  1.00  0.00     0.118 C 
BRANCH  29  30
ATOM     30  O   UNL     1     -29.799 -34.301 112.781  1.00  0.00    -0.393 OA
ATOM     31  H   UNL     1     -29.757 -34.078 113.744  1.00  0.00     0.210 HD
ENDBRANCH  29  30
ENDBRANCH   9  11
ENDBRANCH   1   9
TORSDOF 7
ENDMDL
MODEL 5
REMARK VINA RESULT:    -6.827      4.806      9.206
REMARK INTER + INTRA:         -11.847
REMARK INTER:                 -10.052
REMARK INTRA:                  -1.795
REMARK UNBOUND:                -2.426
REMARK SMILES CC[C@H](CC[C@H](C)[C@@H]1CC[C@@H]2[C@H]3CC=C4C[C@H](O)CC[C@]4(C)[C@H]3CC[C@@]21C)C(C)C
REMARK SMILES IDX 5 1 4 2 3 3 2 4 1 5 28 6 29 7 30 8 6 9 7 10 8 11 9 12 26 13
REMARK SMILES IDX 10 14 11 15 25 16 27 17 12 18 24 19 23 20 13 21 21 22 14 23
REMARK SMILES IDX 15 24 20 25 22 26 16 27 19 28 17 29 18 30
REMARK H PARENT 18 31
REMARK Flexibility Score: inf
ROOT
ATOM      1  C   UNL     1     -24.052 -28.234 110.642  1.00  0.00     0.004 C 
ENDROOT
BRANCH   1   2
ATOM      2  C   UNL     1     -23.307 -27.237 111.566  1.00  0.00     0.004 C 
BRANCH   2   3
ATOM      3  C   UNL     1     -24.240 -26.375 112.470  1.00  0.00    -0.009 C 
BRANCH   3   4
ATOM      4  C   UNL     1     -23.856 -26.511 113.976  1.00  0.00     0.000 C 
ATOM      5  C   UNL     1     -24.884 -27.298 114.794  1.00  0.00     0.004 C 
ENDBRANCH   3   4
BRANCH   3   6
ATOM      6  C   UNL     1     -24.333 -24.883 111.997  1.00  0.00    -0.014 C 
ATOM      7  C   UNL     1     -23.112 -24.052 112.451  1.00  0.00     0.007 C 
ATOM      8  C   UNL     1     -25.608 -24.195 112.523  1.00  0.00     0.007 C 
ENDBRANCH   3   6
ENDBRANCH   2   3
ENDBRANCH   1   2
BRANCH   1   9
ATOM      9  C   UNL     1     -25.592 -28.309 110.858  1.00  0.00    -0.011 C 
ATOM     10  C   UNL     1     -25.921 -29.377 111.913  1.00  0.00     0.008 C 
BRANCH   9  11
ATOM     11  C   UNL     1     -26.411 -28.474 109.521  1.00  0.00    -0.002 C 
ATOM     12  C   UNL     1     -25.480 -28.654 108.312  1.00  0.00     0.005 C 
ATOM     13  C   UNL     1     -27.378 -27.312 109.097  1.00  0.00    -0.026 C 
ATOM     14  C   UNL     1     -26.233 -28.179 107.078  1.00  0.00     0.005 C 
ATOM     15  C   UNL     1     -27.554 -27.579 107.574  1.00  0.00    -0.001 C 
ATOM     16  C   UNL     1     -26.722 -25.921 109.354  1.00  0.00     0.007 C 
ATOM     17  C   UNL     1     -28.756 -27.422 109.827  1.00  0.00     0.012 C 
ATOM     18  C   UNL     1     -28.026 -26.373 106.712  1.00  0.00     0.000 C 
ATOM     19  C   UNL     1     -27.319 -24.768 108.538  1.00  0.00     0.005 C 
ATOM     20  C   UNL     1     -27.255 -25.065 107.019  1.00  0.00     0.003 C 
ATOM     21  C   UNL     1     -29.537 -26.133 106.854  1.00  0.00     0.031 C 
ATOM     22  C   UNL     1     -27.713 -23.881 106.057  1.00  0.00    -0.008 C 
ATOM     23  C   UNL     1     -29.986 -25.016 105.968  1.00  0.00    -0.027 C 
ATOM     24  C   UNL     1     -29.191 -23.979 105.634  1.00  0.00    -0.065 C 
ATOM     25  C   UNL     1     -26.856 -23.950 104.751  1.00  0.00     0.014 C 
ATOM     26  C   UNL     1     -27.463 -22.504 106.729  1.00  0.00     0.016 C 
ATOM     27  C   UNL     1     -29.679 -23.016 104.570  1.00  0.00     0.063 C 
ATOM     28  C   UNL     1     -27.330 -23.000 103.629  1.00  0.00     0.033 C 
ATOM     29  C   UNL     1     -28.823 -23.179 103.304  1.00  0.00     0.118 C 
BRANCH  29  30
ATOM     30  O   UNL     1     -29.031 -24.452 102.749  1.00  0.00    -0.393 OA
ATOM     31  H   UNL     1     -29.210 -24.317 101.785  1.00  0.00     0.210 HD
ENDBRANCH  29  30
ENDBRANCH   9  11
ENDBRANCH   1   9
TORSDOF 7
ENDMDL
MODEL 6
REMARK VINA RESULT:    -6.826      2.335      4.765
REMARK INTER + INTRA:         -11.846
REMARK INTER:                  -9.730
REMARK INTRA:                  -2.116
REMARK UNBOUND:                -2.426
REMARK SMILES CC[C@H](CC[C@H](C)[C@@H]1CC[C@@H]2[C@H]3CC=C4C[C@H](O)CC[C@]4(C)[C@H]3CC[C@@]21C)C(C)C
REMARK SMILES IDX 5 1 4 2 3 3 2 4 1 5 28 6 29 7 30 8 6 9 7 10 8 11 9 12 26 13
REMARK SMILES IDX 10 14 11 15 25 16 27 17 12 18 24 19 23 20 13 21 21 22 14 23
REMARK SMILES IDX 15 24 20 25 22 26 16 27 19 28 17 29 18 30
REMARK H PARENT 18 31
REMARK Flexibility Score: inf
ROOT
ATOM      1  C   UNL     1     -25.335 -26.873 115.866  1.00  0.00     0.004 C 
ENDROOT
BRANCH   1   2
ATOM      2  C   UNL     1     -25.110 -26.279 114.452  1.00  0.00     0.004 C 
BRANCH   2   3
ATOM      3  C   UNL     1     -24.641 -27.314 113.385  1.00  0.00    -0.009 C 
BRANCH   3   4
ATOM      4  C   UNL     1     -23.102 -27.220 113.140  1.00  0.00     0.000 C 
ATOM      5  C   UNL     1     -22.733 -27.062 111.663  1.00  0.00     0.004 C 
ENDBRANCH   3   4
BRANCH   3   6
ATOM      6  C   UNL     1     -25.117 -28.774 113.704  1.00  0.00    -0.014 C 
ATOM      7  C   UNL     1     -23.933 -29.728 113.970  1.00  0.00     0.007 C 
ATOM      8  C   UNL     1     -25.965 -29.362 112.558  1.00  0.00     0.007 C 
ENDBRANCH   3   6
ENDBRANCH   2   3
ENDBRANCH   1   2
BRANCH   1   9
ATOM      9  C   UNL     1     -26.700 -26.511 116.522  1.00  0.00    -0.011 C 
ATOM     10  C   UNL     1     -26.487 -25.468 117.631  1.00  0.00     0.008 C 
BRANCH   9  11
ATOM     11  C   UNL     1     -27.528 -27.767 116.994  1.00  0.00    -0.002 C 
ATOM     12  C   UNL     1     -26.672 -29.044 116.969  1.00  0.00     0.005 C 
ATOM     13  C   UNL     1     -28.818 -28.150 116.185  1.00  0.00    -0.026 C 
ATOM     14  C   UNL     1     -27.616 -30.226 116.803  1.00  0.00     0.005 C 
ATOM     15  C   UNL     1     -29.016 -29.642 116.579  1.00  0.00    -0.001 C 
ATOM     16  C   UNL     1     -28.578 -27.999 114.651  1.00  0.00     0.007 C 
ATOM     17  C   UNL     1     -30.050 -27.303 116.642  1.00  0.00     0.012 C 
ATOM     18  C   UNL     1     -29.877 -30.504 115.612  1.00  0.00     0.000 C 
ATOM     19  C   UNL     1     -29.540 -28.802 113.768  1.00  0.00     0.005 C 
ATOM     20  C   UNL     1     -29.500 -30.310 114.122  1.00  0.00     0.003 C 
ATOM     21  C   UNL     1     -31.379 -30.244 115.808  1.00  0.00     0.031 C 
ATOM     22  C   UNL     1     -30.348 -31.271 113.178  1.00  0.00    -0.008 C 
ATOM     23  C   UNL     1     -32.194 -31.128 114.920  1.00  0.00    -0.027 C 
ATOM     24  C   UNL     1     -31.760 -31.564 113.720  1.00  0.00    -0.065 C 
ATOM     25  C   UNL     1     -29.603 -32.641 113.074  1.00  0.00     0.014 C 
ATOM     26  C   UNL     1     -30.462 -30.672 111.750  1.00  0.00     0.016 C 
ATOM     27  C   UNL     1     -32.580 -32.617 113.001  1.00  0.00     0.063 C 
ATOM     28  C   UNL     1     -30.410 -33.752 112.368  1.00  0.00     0.033 C 
ATOM     29  C   UNL     1     -31.805 -33.944 112.986  1.00  0.00     0.118 C 
BRANCH  29  30
ATOM     30  O   UNL     1     -31.672 -34.434 114.295  1.00  0.00    -0.393 OA
ATOM     31  H   UNL     1     -31.029 -35.186 114.255  1.00  0.00     0.210 HD
ENDBRANCH  29  30
ENDBRANCH   9  11
ENDBRANCH   1   9
TORSDOF 7
ENDMDL
MODEL 7
REMARK VINA RESULT:    -6.804      3.467      8.070
REMARK INTER + INTRA:         -11.815
REMARK INTER:                 -10.471
REMARK INTRA:                  -1.344
REMARK UNBOUND:                -2.426
REMARK SMILES CC[C@H](CC[C@H](C)[C@@H]1CC[C@@H]2[C@H]3CC=C4C[C@H](O)CC[C@]4(C)[C@H]3CC[C@@]21C)C(C)C
REMARK SMILES IDX 5 1 4 2 3 3 2 4 1 5 28 6 29 7 30 8 6 9 7 10 8 11 9 12 26 13
REMARK SMILES IDX 10 14 11 15 25 16 27 17 12 18 24 19 23 20 13 21 21 22 14 23
REMARK SMILES IDX 15 24 20 25 22 26 16 27 19 28 17 29 18 30
REMARK H PARENT 18 31
REMARK Flexibility Score: inf
ROOT
ATOM      1  C   UNL     1     -25.086 -27.188 114.822  1.00  0.00     0.004 C 
ENDROOT
BRANCH   1   2
ATOM      2  C   UNL     1     -26.276 -26.759 115.717  1.00  0.00     0.004 C 
BRANCH   2   3
ATOM      3  C   UNL     1     -26.132 -27.158 117.217  1.00  0.00    -0.009 C 
BRANCH   3   4
ATOM      4  C   UNL     1     -25.956 -25.901 118.125  1.00  0.00     0.000 C 
ATOM      5  C   UNL     1     -26.830 -24.718 117.697  1.00  0.00     0.004 C 
ENDBRANCH   3   4
BRANCH   3   6
ATOM      6  C   UNL     1     -27.281 -28.106 117.707  1.00  0.00    -0.014 C 
ATOM      7  C   UNL     1     -26.857 -29.591 117.691  1.00  0.00     0.007 C 
ATOM      8  C   UNL     1     -28.551 -27.956 116.845  1.00  0.00     0.007 C 
ENDBRANCH   3   6
ENDBRANCH   2   3
ENDBRANCH   1   2
BRANCH   1   9
ATOM      9  C   UNL     1     -25.339 -28.454 113.951  1.00  0.00    -0.011 C 
ATOM     10  C   UNL     1     -24.884 -29.711 114.711  1.00  0.00     0.008 C 
BRANCH   9  11
ATOM     11  C   UNL     1     -24.742 -28.350 112.496  1.00  0.00    -0.002 C 
ATOM     12  C   UNL     1     -24.097 -26.977 112.251  1.00  0.00     0.005 C 
ATOM     13  C   UNL     1     -25.718 -28.542 111.281  1.00  0.00    -0.026 C 
ATOM     14  C   UNL     1     -24.131 -26.715 110.752  1.00  0.00     0.005 C 
ATOM     15  C   UNL     1     -24.931 -27.862 110.124  1.00  0.00    -0.001 C 
ATOM     16  C   UNL     1     -27.077 -27.821 111.539  1.00  0.00     0.007 C 
ATOM     17  C   UNL     1     -25.943 -30.057 110.964  1.00  0.00     0.012 C 
ATOM     18  C   UNL     1     -25.766 -27.407 108.893  1.00  0.00     0.000 C 
ATOM     19  C   UNL     1     -27.886 -27.504 110.276  1.00  0.00     0.005 C 
ATOM     20  C   UNL     1     -27.060 -26.649 109.282  1.00  0.00     0.003 C 
ATOM     21  C   UNL     1     -26.111 -28.590 107.975  1.00  0.00     0.031 C 
ATOM     22  C   UNL     1     -27.839 -26.131 107.993  1.00  0.00    -0.008 C 
ATOM     23  C   UNL     1     -26.855 -28.127 106.765  1.00  0.00    -0.027 C 
ATOM     24  C   UNL     1     -27.665 -27.048 106.768  1.00  0.00    -0.065 C 
ATOM     25  C   UNL     1     -27.266 -24.730 107.602  1.00  0.00     0.014 C 
ATOM     26  C   UNL     1     -29.352 -25.967 108.299  1.00  0.00     0.016 C 
ATOM     27  C   UNL     1     -28.203 -26.552 105.441  1.00  0.00     0.063 C 
ATOM     28  C   UNL     1     -27.770 -24.192 106.245  1.00  0.00     0.033 C 
ATOM     29  C   UNL     1     -27.555 -25.200 105.102  1.00  0.00     0.118 C 
BRANCH  29  30
ATOM     30  O   UNL     1     -26.179 -25.371 104.882  1.00  0.00    -0.393 OA
ATOM     31  H   UNL     1     -26.087 -25.942 104.079  1.00  0.00     0.210 HD
ENDBRANCH  29  30
ENDBRANCH   9  11
ENDBRANCH   1   9
TORSDOF 7
ENDMDL
MODEL 8
REMARK VINA RESULT:    -6.760      2.569      6.852
REMARK INTER + INTRA:         -11.755
REMARK INTER:                  -9.287
REMARK INTRA:                  -2.468
REMARK UNBOUND:                -2.426
REMARK SMILES CC[C@H](CC[C@H](C)[C@@H]1CC[C@@H]2[C@H]3CC=C4C[C@H](O)CC[C@]4(C)[C@H]3CC[C@@]21C)C(C)C
REMARK SMILES IDX 5 1 4 2 3 3 2 4 1 5 28 6 29 7 30 8 6 9 7 10 8 11 9 12 26 13
REMARK SMILES IDX 10 14 11 15 25 16 27 17 12 18 24 19 23 20 13 21 21 22 14 23
REMARK SMILES IDX 15 24 20 25 22 26 16 27 19 28 17 29 18 30
REMARK H PARENT 18 31
REMARK Flexibility Score: inf
ROOT
ATOM      1  C   UNL     1     -32.028 -30.592 115.645  1.00  0.00     0.004 C 
ENDROOT
BRANCH   1   2
ATOM      2  C   UNL     1     -31.959 -31.768 114.637  1.00  0.00     0.004 C 
BRANCH   2   3
ATOM      3  C   UNL     1     -30.612 -31.872 113.859  1.00  0.00    -0.009 C 
BRANCH   3   4
ATOM      4  C   UNL     1     -30.018 -33.314 113.941  1.00  0.00     0.000 C 
ATOM      5  C   UNL     1     -29.151 -33.541 115.183  1.00  0.00     0.004 C 
ENDBRANCH   3   4
BRANCH   3   6
ATOM      6  C   UNL     1     -30.718 -31.341 112.388  1.00  0.00    -0.014 C 
ATOM      7  C   UNL     1     -30.808 -32.489 111.359  1.00  0.00     0.007 C 
ATOM      8  C   UNL     1     -29.516 -30.450 112.014  1.00  0.00     0.007 C 
ENDBRANCH   3   6
ENDBRANCH   2   3
ENDBRANCH   1   2
BRANCH   1   9
ATOM      9  C   UNL     1     -30.714 -30.325 116.436  1.00  0.00    -0.011 C 
ATOM     10  C   UNL     1     -30.940 -30.594 117.933  1.00  0.00     0.008 C 
BRANCH   9  11
ATOM     11  C   UNL     1     -30.075 -28.914 116.142  1.00  0.00    -0.002 C 
ATOM     12  C   UNL     1     -30.580 -28.336 114.811  1.00  0.00     0.005 C 
ATOM     13  C   UNL     1     -28.511 -28.817 116.038  1.00  0.00    -0.026 C 
ATOM     14  C   UNL     1     -29.521 -27.372 114.297  1.00  0.00     0.005 C 
ATOM     15  C   UNL     1     -28.322 -27.491 115.245  1.00  0.00    -0.001 C 
ATOM     16  C   UNL     1     -27.929 -30.032 115.251  1.00  0.00     0.007 C 
ATOM     17  C   UNL     1     -27.851 -28.700 117.451  1.00  0.00     0.012 C 
ATOM     18  C   UNL     1     -26.960 -27.311 114.516  1.00  0.00     0.000 C 
ATOM     19  C   UNL     1     -26.537 -29.803 114.654  1.00  0.00     0.005 C 
ATOM     20  C   UNL     1     -26.523 -28.567 113.721  1.00  0.00     0.003 C 
ATOM     21  C   UNL     1     -25.847 -26.897 115.491  1.00  0.00     0.031 C 
ATOM     22  C   UNL     1     -25.168 -28.308 112.925  1.00  0.00    -0.008 C 
ATOM     23  C   UNL     1     -24.561 -26.663 114.765  1.00  0.00    -0.027 C 
ATOM     24  C   UNL     1     -24.226 -27.316 113.635  1.00  0.00    -0.065 C 
ATOM     25  C   UNL     1     -25.526 -27.687 111.535  1.00  0.00     0.014 C 
ATOM     26  C   UNL     1     -24.416 -29.643 112.680  1.00  0.00     0.016 C 
ATOM     27  C   UNL     1     -23.000 -26.852 112.875  1.00  0.00     0.063 C 
ATOM     28  C   UNL     1     -24.307 -27.180 110.734  1.00  0.00     0.033 C 
ATOM     29  C   UNL     1     -23.435 -26.209 111.548  1.00  0.00     0.118 C 
BRANCH  29  30
ATOM     30  O   UNL     1     -24.158 -25.032 111.803  1.00  0.00    -0.393 OA
ATOM     31  H   UNL     1     -23.494 -24.306 111.910  1.00  0.00     0.210 HD
ENDBRANCH  29  30
ENDBRANCH   9  11
ENDBRANCH   1   9
TORSDOF 7
ENDMDL
MODEL 9
REMARK VINA RESULT:    -6.728      5.970     10.834
REMARK INTER + INTRA:         -11.710
REMARK INTER:                 -10.305
REMARK INTRA:                  -1.405
REMARK UNBOUND:                -2.426
REMARK SMILES CC[C@H](CC[C@H](C)[C@@H]1CC[C@@H]2[C@H]3CC=C4C[C@H](O)CC[C@]4(C)[C@H]3CC[C@@]21C)C(C)C
REMARK SMILES IDX 5 1 4 2 3 3 2 4 1 5 28 6 29 7 30 8 6 9 7 10 8 11 9 12 26 13
REMARK SMILES IDX 10 14 11 15 25 16 27 17 12 18 24 19 23 20 13 21 21 22 14 23
REMARK SMILES IDX 15 24 20 25 22 26 16 27 19 28 17 29 18 30
REMARK H PARENT 18 31
REMARK Flexibility Score: inf
ROOT
ATOM      1  C   UNL     1     -26.355 -26.084 110.113  1.00  0.00     0.004 C 
ENDROOT
BRANCH   1   2
ATOM      2  C   UNL     1     -25.980 -26.245 111.609  1.00  0.00     0.004 C 
BRANCH   2   3
ATOM      3  C   UNL     1     -24.899 -27.332 111.889  1.00  0.00    -0.009 C 
BRANCH   3   4
ATOM      4  C   UNL     1     -24.710 -28.275 110.660  1.00  0.00     0.000 C 
ATOM      5  C   UNL     1     -25.163 -29.713 110.926  1.00  0.00     0.004 C 
ENDBRANCH   3   4
BRANCH   3   6
ATOM      6  C   UNL     1     -23.547 -26.725 112.404  1.00  0.00    -0.014 C 
ATOM      7  C   UNL     1     -23.628 -25.194 112.585  1.00  0.00     0.007 C 
ATOM      8  C   UNL     1     -22.380 -27.038 111.447  1.00  0.00     0.007 C 
ENDBRANCH   3   6
ENDBRANCH   2   3
ENDBRANCH   1   2
BRANCH   1   9
ATOM      9  C   UNL     1     -27.870 -26.252 109.792  1.00  0.00    -0.011 C 
ATOM     10  C   UNL     1     -28.553 -27.066 110.903  1.00  0.00     0.008 C 
BRANCH   9  11
ATOM     11  C   UNL     1     -28.151 -26.806 108.344  1.00  0.00    -0.002 C 
ATOM     12  C   UNL     1     -26.868 -27.343 107.689  1.00  0.00     0.005 C 
ATOM     13  C   UNL     1     -28.747 -25.821 107.277  1.00  0.00    -0.026 C 
ATOM     14  C   UNL     1     -27.051 -27.256 106.181  1.00  0.00     0.005 C 
ATOM     15  C   UNL     1     -28.379 -26.529 105.941  1.00  0.00    -0.001 C 
ATOM     16  C   UNL     1     -28.070 -24.418 107.376  1.00  0.00     0.007 C 
ATOM     17  C   UNL     1     -30.300 -25.701 107.415  1.00  0.00     0.012 C 
ATOM     18  C   UNL     1     -28.352 -25.635 104.669  1.00  0.00     0.000 C 
ATOM     19  C   UNL     1     -28.182 -23.560 106.111  1.00  0.00     0.005 C 
ATOM     20  C   UNL     1     -27.598 -24.298 104.880  1.00  0.00     0.003 C 
ATOM     21  C   UNL     1     -29.769 -25.358 104.142  1.00  0.00     0.031 C 
ATOM     22  C   UNL     1     -27.524 -23.454 103.531  1.00  0.00    -0.008 C 
ATOM     23  C   UNL     1     -29.722 -24.554 102.883  1.00  0.00    -0.027 C 
ATOM     24  C   UNL     1     -28.742 -23.668 102.613  1.00  0.00    -0.065 C 
ATOM     25  C   UNL     1     -26.261 -23.914 102.733  1.00  0.00     0.014 C 
ATOM     26  C   UNL     1     -27.377 -21.940 103.842  1.00  0.00     0.016 C 
ATOM     27  C   UNL     1     -28.684 -23.065 101.223  1.00  0.00     0.063 C 
ATOM     28  C   UNL     1     -26.170 -23.341 101.302  1.00  0.00     0.033 C 
ATOM     29  C   UNL     1     -27.447 -23.603 100.486  1.00  0.00     0.118 C 
BRANCH  29  30
ATOM     30  O   UNL     1     -27.586 -24.983 100.265  1.00  0.00    -0.393 OA
ATOM     31  H   UNL     1     -28.123 -25.340 101.016  1.00  0.00     0.210 HD
ENDBRANCH  29  30
ENDBRANCH   9  11
ENDBRANCH   1   9
TORSDOF 7
ENDMDL
