MODEL 1
REMARK VINA RESULT:    -5.057      0.000      0.000
REMARK INTER + INTRA:         -10.861
REMARK INTER:                  -9.491
REMARK INTRA:                  -1.370
REMARK UNBOUND:                -1.370
REMARK SMILES CCCCCCCCC=CCCCCCCCC(=O)[O-]
REMARK SMILES IDX 10 1 9 2 11 3 12 4 13 5 14 6 15 7 16 8 17 9 18 10 19 11
REMARK SMILES IDX 20 12 8 13 7 14 6 15 5 16 4 17 3 18 2 19 1 20
REMARK H PARENT
REMARK Flexibility Score: inf
ROOT
ATOM      1  C   UNL     1      10.933  12.192  20.917  1.00  0.00    -0.031 C 
ATOM      2  C   UNL     1      11.583  11.165  20.347  1.00  0.00    -0.031 C 
ENDROOT
BRANCH   1   3
ATOM      3  C   UNL     1      11.548  12.994  22.032  1.00  0.00     0.027 C 
BRANCH   3   4
ATOM      4  C   UNL     1      12.981  12.537  22.334  1.00  0.00     0.004 C 
BRANCH   4   5
ATOM      5  C   UNL     1      13.814  13.641  23.008  1.00  0.00     0.000 C 
BRANCH   5   6
ATOM      6  C   UNL     1      15.163  13.875  22.311  1.00  0.00     0.000 C 
BRANCH   6   7
ATOM      7  C   UNL     1      16.272  14.289  23.293  1.00  0.00     0.000 C 
BRANCH   7   8
ATOM      8  C   UNL     1      17.122  13.092  23.766  1.00  0.00     0.006 C 
BRANCH   8   9
ATOM      9  C   UNL     1      16.673  12.508  25.116  1.00  0.00     0.053 C 
BRANCH   9  10
ATOM     10  C   UNL     1      15.879  11.249  24.960  1.00  0.00     0.041 C 
ATOM     11  O   UNL     1      15.308  10.734  25.957  1.00  0.00    -0.550 OA
ATOM     12  O   UNL     1      15.756  10.652  23.711  1.00  0.00    -0.550 OA
ENDBRANCH   9  10
ENDBRANCH   8   9
ENDBRANCH   7   8
ENDBRANCH   6   7
ENDBRANCH   5   6
ENDBRANCH   4   5
ENDBRANCH   3   4
ENDBRANCH   1   3
BRANCH   2  13
ATOM     13  C   UNL     1      10.941  10.323  19.280  1.00  0.00     0.027 C 
BRANCH  13  14
ATOM     14  C   UNL     1       9.533  10.831  18.943  1.00  0.00     0.004 C 
BRANCH  14  15
ATOM     15  C   UNL     1       8.516   9.679  18.977  1.00  0.00     0.000 C 
BRANCH  15  16
ATOM     16  C   UNL     1       9.149   8.336  19.374  1.00  0.00     0.000 C 
BRANCH  16  17
ATOM     17  C   UNL     1       8.520   7.098  18.705  1.00  0.00    -0.000 C 
BRANCH  17  18
ATOM     18  C   UNL     1       9.552   6.119  18.109  1.00  0.00    -0.000 C 
BRANCH  18  19
ATOM     19  C   UNL     1      10.988   6.448  18.542  1.00  0.00    -0.003 C 
ATOM     20  C   UNL     1      11.922   6.536  17.338  1.00  0.00     0.004 C 
ENDBRANCH  18  19
ENDBRANCH  17  18
ENDBRANCH  16  17
ENDBRANCH  15  16
ENDBRANCH  14  15
ENDBRANCH  13  14
ENDBRANCH   2  13
TORSDOF 15
ENDMDL
MODEL 2
REMARK VINA RESULT:    -4.910      3.747      7.303
REMARK INTER + INTRA:         -10.585
REMARK INTER:                  -8.345
REMARK INTRA:                  -2.240
REMARK UNBOUND:                -1.370
REMARK SMILES CCCCCCCCC=CCCCCCCCC(=O)[O-]
REMARK SMILES IDX 10 1 9 2 11 3 12 4 13 5 14 6 15 7 16 8 17 9 18 10 19 11
REMARK SMILES IDX 20 12 8 13 7 14 6 15 5 16 4 17 3 18 2 19 1 20
REMARK H PARENT
REMARK Flexibility Score: inf
ROOT
ATOM      1  C   UNL     1       8.481   8.186  18.923  1.00  0.00    -0.031 C 
ATOM      2  C   UNL     1       8.824   9.197  19.737  1.00  0.00    -0.031 C 
ENDROOT
BRANCH   1   3
ATOM      3  C   UNL     1       8.668   6.748  19.328  1.00  0.00     0.027 C 
BRANCH   3   4
ATOM      4  C   UNL     1       9.419   5.951  18.254  1.00  0.00     0.004 C 
BRANCH   4   5
ATOM      5  C   UNL     1      10.791   6.566  17.927  1.00  0.00     0.000 C 
BRANCH   5   6
ATOM      6  C   UNL     1      11.919   5.999  18.803  1.00  0.00     0.000 C 
BRANCH   6   7
ATOM      7  C   UNL     1      12.173   6.847  20.062  1.00  0.00     0.000 C 
BRANCH   7   8
ATOM      8  C   UNL     1      12.210   5.999  21.350  1.00  0.00     0.006 C 
BRANCH   8   9
ATOM      9  C   UNL     1      11.748   4.546  21.147  1.00  0.00     0.053 C 
BRANCH   9  10
ATOM     10  C   UNL     1      12.323   3.614  22.167  1.00  0.00     0.041 C 
ATOM     11  O   UNL     1      13.446   3.855  22.684  1.00  0.00    -0.550 OA
ATOM     12  O   UNL     1      11.612   2.487  22.560  1.00  0.00    -0.550 OA
ENDBRANCH   9  10
ENDBRANCH   8   9
ENDBRANCH   7   8
ENDBRANCH   6   7
ENDBRANCH   5   6
ENDBRANCH   4   5
ENDBRANCH   3   4
ENDBRANCH   1   3
BRANCH   2  13
ATOM     13  C   UNL     1       8.700  10.631  19.304  1.00  0.00     0.027 C 
BRANCH  13  14
ATOM     14  C   UNL     1      10.025  11.159  18.741  1.00  0.00     0.004 C 
BRANCH  14  15
ATOM     15  C   UNL     1      11.183  10.212  19.095  1.00  0.00     0.000 C 
BRANCH  15  16
ATOM     16  C   UNL     1      12.216  10.858  20.034  1.00  0.00     0.000 C 
BRANCH  16  17
ATOM     17  C   UNL     1      11.714  11.123  21.466  1.00  0.00    -0.000 C 
BRANCH  17  18
ATOM     18  C   UNL     1      11.438  12.611  21.765  1.00  0.00    -0.000 C 
BRANCH  18  19
ATOM     19  C   UNL     1      10.064  12.832  22.414  1.00  0.00    -0.003 C 
ATOM     20  C   UNL     1       9.434  11.509  22.836  1.00  0.00     0.004 C 
ENDBRANCH  18  19
ENDBRANCH  17  18
ENDBRANCH  16  17
ENDBRANCH  15  16
ENDBRANCH  14  15
ENDBRANCH  13  14
ENDBRANCH   2  13
TORSDOF 15
ENDMDL
MODEL 3
REMARK VINA RESULT:    -4.880      4.247      7.041
REMARK INTER + INTRA:         -10.530
REMARK INTER:                  -7.593
REMARK INTRA:                  -2.937
REMARK UNBOUND:                -1.370
REMARK SMILES CCCCCCCCC=CCCCCCCCC(=O)[O-]
REMARK SMILES IDX 10 1 9 2 11 3 12 4 13 5 14 6 15 7 16 8 17 9 18 10 19 11
REMARK SMILES IDX 20 12 8 13 7 14 6 15 5 16 4 17 3 18 2 19 1 20
REMARK H PARENT
REMARK Flexibility Score: inf
ROOT
ATOM      1  C   UNL     1       8.773   7.825  19.347  1.00  0.00    -0.031 C 
ATOM      2  C   UNL     1       8.627   7.549  20.653  1.00  0.00    -0.031 C 
ENDROOT
BRANCH   1   3
ATOM      3  C   UNL     1       8.458   6.806  18.285  1.00  0.00     0.027 C 
BRANCH   3   4
ATOM      4  C   UNL     1       9.671   5.921  17.973  1.00  0.00     0.004 C 
BRANCH   4   5
ATOM      5  C   UNL     1      10.989   6.715  17.989  1.00  0.00     0.000 C 
BRANCH   5   6
ATOM      6  C   UNL     1      12.164   5.900  18.552  1.00  0.00     0.000 C 
BRANCH   6   7
ATOM      7  C   UNL     1      12.239   5.954  20.088  1.00  0.00     0.000 C 
BRANCH   7   8
ATOM      8  C   UNL     1      11.800   4.631  20.749  1.00  0.00     0.006 C 
BRANCH   8   9
ATOM      9  C   UNL     1      12.006   4.603  22.272  1.00  0.00     0.053 C 
BRANCH   9  10
ATOM     10  C   UNL     1      13.387   4.171  22.656  1.00  0.00     0.041 C 
ATOM     11  O   UNL     1      13.860   4.490  23.779  1.00  0.00    -0.550 OA
ATOM     12  O   UNL     1      14.146   3.404  21.781  1.00  0.00    -0.550 OA
ENDBRANCH   9  10
ENDBRANCH   8   9
ENDBRANCH   7   8
ENDBRANCH   6   7
ENDBRANCH   5   6
ENDBRANCH   4   5
ENDBRANCH   3   4
ENDBRANCH   1   3
BRANCH   2  13
ATOM     13  C   UNL     1       9.007   8.544  21.714  1.00  0.00     0.027 C 
BRANCH  13  14
ATOM     14  C   UNL     1      10.499   8.451  22.055  1.00  0.00     0.004 C 
BRANCH  14  15
ATOM     15  C   UNL     1      11.236   9.733  21.638  1.00  0.00     0.000 C 
BRANCH  15  16
ATOM     16  C   UNL     1      12.001   9.577  20.314  1.00  0.00     0.000 C 
BRANCH  16  17
ATOM     17  C   UNL     1      11.412  10.362  19.126  1.00  0.00    -0.000 C 
BRANCH  17  18
ATOM     18  C   UNL     1      10.339  11.395  19.532  1.00  0.00    -0.000 C 
BRANCH  18  19
ATOM     19  C   UNL     1       9.169  11.442  18.540  1.00  0.00    -0.003 C 
ATOM     20  C   UNL     1       7.828  11.395  19.266  1.00  0.00     0.004 C 
ENDBRANCH  18  19
ENDBRANCH  17  18
ENDBRANCH  16  17
ENDBRANCH  15  16
ENDBRANCH  14  15
ENDBRANCH  13  14
ENDBRANCH   2  13
TORSDOF 15
ENDMDL
MODEL 4
REMARK VINA RESULT:    -4.862      2.594      4.053
REMARK INTER + INTRA:         -10.495
REMARK INTER:                  -8.081
REMARK INTRA:                  -2.414
REMARK UNBOUND:                -1.370
REMARK SMILES CCCCCCCCC=CCCCCCCCC(=O)[O-]
REMARK SMILES IDX 10 1 9 2 11 3 12 4 13 5 14 6 15 7 16 8 17 9 18 10 19 11
REMARK SMILES IDX 20 12 8 13 7 14 6 15 5 16 4 17 3 18 2 19 1 20
REMARK H PARENT
REMARK Flexibility Score: inf
ROOT
ATOM      1  C   UNL     1      13.696  13.432  23.203  1.00  0.00    -0.031 C 
ATOM      2  C   UNL     1      12.541  13.466  22.520  1.00  0.00    -0.031 C 
ENDROOT
BRANCH   1   3
ATOM      3  C   UNL     1      15.027  13.548  22.509  1.00  0.00     0.027 C 
BRANCH   3   4
ATOM      4  C   UNL     1      15.962  14.522  23.236  1.00  0.00     0.004 C 
BRANCH   4   5
ATOM      5  C   UNL     1      17.345  13.907  23.510  1.00  0.00     0.000 C 
BRANCH   5   6
ATOM      6  C   UNL     1      17.470  13.336  24.931  1.00  0.00     0.000 C 
BRANCH   6   7
ATOM      7  C   UNL     1      17.049  11.858  25.013  1.00  0.00     0.000 C 
BRANCH   7   8
ATOM      8  C   UNL     1      17.877  10.954  24.076  1.00  0.00     0.006 C 
BRANCH   8   9
ATOM      9  C   UNL     1      17.020  10.051  23.173  1.00  0.00     0.053 C 
BRANCH   9  10
ATOM     10  C   UNL     1      17.127   8.604  23.544  1.00  0.00     0.041 C 
ATOM     11  O   UNL     1      18.132   8.185  24.175  1.00  0.00    -0.550 OA
ATOM     12  O   UNL     1      16.108   7.722  23.205  1.00  0.00    -0.550 OA
ENDBRANCH   9  10
ENDBRANCH   8   9
ENDBRANCH   7   8
ENDBRANCH   6   7
ENDBRANCH   5   6
ENDBRANCH   4   5
ENDBRANCH   3   4
ENDBRANCH   1   3
BRANCH   2  13
ATOM     13  C   UNL     1      11.216  13.283  23.207  1.00  0.00     0.027 C 
BRANCH  13  14
ATOM     14  C   UNL     1      10.165  12.718  22.245  1.00  0.00     0.004 C 
BRANCH  14  15
ATOM     15  C   UNL     1      10.799  12.363  20.890  1.00  0.00     0.000 C 
BRANCH  15  16
ATOM     16  C   UNL     1      10.473  10.931  20.436  1.00  0.00     0.000 C 
BRANCH  16  17
ATOM     17  C   UNL     1      11.674  10.132  19.895  1.00  0.00    -0.000 C 
BRANCH  17  18
ATOM     18  C   UNL     1      13.044  10.735  20.271  1.00  0.00    -0.000 C 
BRANCH  18  19
ATOM     19  C   UNL     1      13.845   9.824  21.213  1.00  0.00    -0.003 C 
ATOM     20  C   UNL     1      13.203   9.757  22.595  1.00  0.00     0.004 C 
ENDBRANCH  18  19
ENDBRANCH  17  18
ENDBRANCH  16  17
ENDBRANCH  15  16
ENDBRANCH  14  15
ENDBRANCH  13  14
ENDBRANCH   2  13
TORSDOF 15
ENDMDL
MODEL 5
REMARK VINA RESULT:    -4.848      3.328      4.827
REMARK INTER + INTRA:         -10.469
REMARK INTER:                  -8.443
REMARK INTRA:                  -2.026
REMARK UNBOUND:                -1.370
REMARK SMILES CCCCCCCCC=CCCCCCCCC(=O)[O-]
REMARK SMILES IDX 10 1 9 2 11 3 12 4 13 5 14 6 15 7 16 8 17 9 18 10 19 11
REMARK SMILES IDX 20 12 8 13 7 14 6 15 5 16 4 17 3 18 2 19 1 20
REMARK H PARENT
REMARK Flexibility Score: inf
ROOT
ATOM      1  C   UNL     1      12.483  13.701  23.401  1.00  0.00    -0.031 C 
ATOM      2  C   UNL     1      12.287  13.063  22.237  1.00  0.00    -0.031 C 
ENDROOT
BRANCH   1   3
ATOM      3  C   UNL     1      13.867  13.980  23.925  1.00  0.00     0.027 C 
BRANCH   3   4
ATOM      4  C   UNL     1      14.936  13.741  22.852  1.00  0.00     0.004 C 
BRANCH   4   5
ATOM      5  C   UNL     1      16.295  14.353  23.239  1.00  0.00     0.000 C 
BRANCH   5   6
ATOM      6  C   UNL     1      17.235  13.335  23.904  1.00  0.00     0.000 C 
BRANCH   6   7
ATOM      7  C   UNL     1      17.020  13.238  25.424  1.00  0.00     0.000 C 
BRANCH   7   8
ATOM      8  C   UNL     1      18.311  12.862  26.181  1.00  0.00     0.006 C 
BRANCH   8   9
ATOM      9  C   UNL     1      18.958  14.043  26.924  1.00  0.00     0.053 C 
BRANCH   9  10
ATOM     10  C   UNL     1      20.079  13.613  27.818  1.00  0.00     0.041 C 
ATOM     11  O   UNL     1      20.821  14.473  28.362  1.00  0.00    -0.550 OA
ATOM     12  O   UNL     1      20.296  12.263  28.062  1.00  0.00    -0.550 OA
ENDBRANCH   9  10
ENDBRANCH   8   9
ENDBRANCH   7   8
ENDBRANCH   6   7
ENDBRANCH   5   6
ENDBRANCH   4   5
ENDBRANCH   3   4
ENDBRANCH   1   3
BRANCH   2  13
ATOM     13  C   UNL     1      10.906  12.725  21.748  1.00  0.00     0.027 C 
BRANCH  13  14
ATOM     14  C   UNL     1      10.824  11.269  21.273  1.00  0.00     0.004 C 
BRANCH  14  15
ATOM     15  C   UNL     1      11.818  11.012  20.129  1.00  0.00     0.000 C 
BRANCH  15  16
ATOM     16  C   UNL     1      12.886   9.967  20.490  1.00  0.00     0.000 C 
BRANCH  16  17
ATOM     17  C   UNL     1      14.332  10.497  20.516  1.00  0.00    -0.000 C 
BRANCH  17  18
ATOM     18  C   UNL     1      14.988  10.452  21.913  1.00  0.00    -0.000 C 
BRANCH  18  19
ATOM     19  C   UNL     1      14.141   9.676  22.931  1.00  0.00    -0.003 C 
ATOM     20  C   UNL     1      14.153  10.360  24.295  1.00  0.00     0.004 C 
ENDBRANCH  18  19
ENDBRANCH  17  18
ENDBRANCH  16  17
ENDBRANCH  15  16
ENDBRANCH  14  15
ENDBRANCH  13  14
ENDBRANCH   2  13
TORSDOF 15
ENDMDL
MODEL 6
REMARK VINA RESULT:    -4.819      2.791      7.298
REMARK INTER + INTRA:         -10.416
REMARK INTER:                  -8.112
REMARK INTRA:                  -2.304
REMARK UNBOUND:                -1.370
REMARK SMILES CCCCCCCCC=CCCCCCCCC(=O)[O-]
REMARK SMILES IDX 10 1 9 2 11 3 12 4 13 5 14 6 15 7 16 8 17 9 18 10 19 11
REMARK SMILES IDX 20 12 8 13 7 14 6 15 5 16 4 17 3 18 2 19 1 20
REMARK H PARENT
REMARK Flexibility Score: inf
ROOT
ATOM      1  C   UNL     1      12.585  13.504  22.976  1.00  0.00    -0.031 C 
ATOM      2  C   UNL     1      13.891  13.430  22.679  1.00  0.00    -0.031 C 
ENDROOT
BRANCH   1   3
ATOM      3  C   UNL     1      11.525  13.136  21.971  1.00  0.00     0.027 C 
BRANCH   3   4
ATOM      4  C   UNL     1      11.368  11.616  21.847  1.00  0.00     0.004 C 
BRANCH   4   5
ATOM      5  C   UNL     1      11.592  11.124  20.405  1.00  0.00     0.000 C 
BRANCH   5   6
ATOM      6  C   UNL     1      12.666  10.029  20.313  1.00  0.00     0.000 C 
BRANCH   6   7
ATOM      7  C   UNL     1      14.090  10.580  20.500  1.00  0.00     0.000 C 
BRANCH   7   8
ATOM      8  C   UNL     1      14.822   9.934  21.694  1.00  0.00     0.006 C 
BRANCH   8   9
ATOM      9  C   UNL     1      13.948   8.962  22.503  1.00  0.00     0.053 C 
BRANCH   9  10
ATOM     10  C   UNL     1      13.962   9.263  23.970  1.00  0.00     0.041 C 
ATOM     11  O   UNL     1      13.638  10.407  24.384  1.00  0.00    -0.550 OA
ATOM     12  O   UNL     1      14.317   8.276  24.881  1.00  0.00    -0.550 OA
ENDBRANCH   9  10
ENDBRANCH   8   9
ENDBRANCH   7   8
ENDBRANCH   6   7
ENDBRANCH   5   6
ENDBRANCH   4   5
ENDBRANCH   3   4
ENDBRANCH   1   3
BRANCH   2  13
ATOM     13  C   UNL     1      14.946  13.863  23.659  1.00  0.00     0.027 C 
BRANCH  13  14
ATOM     14  C   UNL     1      16.251  14.234  22.945  1.00  0.00     0.004 C 
BRANCH  14  15
ATOM     15  C   UNL     1      17.441  14.169  23.915  1.00  0.00     0.000 C 
BRANCH  15  16
ATOM     16  C   UNL     1      17.098  13.453  25.232  1.00  0.00     0.000 C 
BRANCH  16  17
ATOM     17  C   UNL     1      18.295  12.796  25.946  1.00  0.00    -0.000 C 
BRANCH  17  18
ATOM     18  C   UNL     1      18.346  11.261  25.794  1.00  0.00    -0.000 C 
BRANCH  18  19
ATOM     19  C   UNL     1      17.312  10.740  24.786  1.00  0.00    -0.003 C 
ATOM     20  C   UNL     1      17.956  10.453  23.433  1.00  0.00     0.004 C 
ENDBRANCH  18  19
ENDBRANCH  17  18
ENDBRANCH  16  17
ENDBRANCH  15  16
ENDBRANCH  14  15
ENDBRANCH  13  14
ENDBRANCH   2  13
TORSDOF 15
ENDMDL
MODEL 7
REMARK VINA RESULT:    -4.809      2.839      7.440
REMARK INTER + INTRA:         -10.396
REMARK INTER:                  -8.383
REMARK INTRA:                  -2.014
REMARK UNBOUND:                -1.370
REMARK SMILES CCCCCCCCC=CCCCCCCCC(=O)[O-]
REMARK SMILES IDX 10 1 9 2 11 3 12 4 13 5 14 6 15 7 16 8 17 9 18 10 19 11
REMARK SMILES IDX 20 12 8 13 7 14 6 15 5 16 4 17 3 18 2 19 1 20
REMARK H PARENT
REMARK Flexibility Score: inf
ROOT
ATOM      1  C   UNL     1      14.653  13.730  23.519  1.00  0.00    -0.031 C 
ATOM      2  C   UNL     1      15.771  14.055  22.850  1.00  0.00    -0.031 C 
ENDROOT
BRANCH   1   3
ATOM      3  C   UNL     1      13.290  13.890  22.901  1.00  0.00     0.027 C 
BRANCH   3   4
ATOM      4  C   UNL     1      12.314  12.816  23.398  1.00  0.00     0.004 C 
BRANCH   4   5
ATOM      5  C   UNL     1      10.879  13.058  22.898  1.00  0.00     0.000 C 
BRANCH   5   6
ATOM      6  C   UNL     1      10.386  11.952  21.952  1.00  0.00     0.000 C 
BRANCH   6   7
ATOM      7  C   UNL     1      10.353  12.403  20.481  1.00  0.00     0.000 C 
BRANCH   7   8
ATOM      8  C   UNL     1       9.905  11.278  19.526  1.00  0.00     0.006 C 
BRANCH   8   9
ATOM      9  C   UNL     1      11.063  10.409  19.008  1.00  0.00     0.053 C 
BRANCH   9  10
ATOM     10  C   UNL     1      11.021   9.014  19.551  1.00  0.00     0.041 C 
ATOM     11  O   UNL     1       9.972   8.578  20.093  1.00  0.00    -0.550 OA
ATOM     12  O   UNL     1      12.136   8.192  19.444  1.00  0.00    -0.550 OA
ENDBRANCH   9  10
ENDBRANCH   8   9
ENDBRANCH   7   8
ENDBRANCH   6   7
ENDBRANCH   5   6
ENDBRANCH   4   5
ENDBRANCH   3   4
ENDBRANCH   1   3
BRANCH   2  13
ATOM     13  C   UNL     1      17.127  13.959  23.493  1.00  0.00     0.027 C 
BRANCH  13  14
ATOM     14  C   UNL     1      17.019  13.514  24.956  1.00  0.00     0.004 C 
BRANCH  14  15
ATOM     15  C   UNL     1      17.506  12.066  25.123  1.00  0.00     0.000 C 
BRANCH  15  16
ATOM     16  C   UNL     1      17.782  11.372  23.779  1.00  0.00     0.000 C 
BRANCH  16  17
ATOM     17  C   UNL     1      16.962  10.092  23.528  1.00  0.00    -0.000 C 
BRANCH  17  18
ATOM     18  C   UNL     1      15.501  10.360  23.110  1.00  0.00    -0.000 C 
BRANCH  18  19
ATOM     19  C   UNL     1      15.207   9.891  21.678  1.00  0.00    -0.003 C 
ATOM     20  C   UNL     1      14.199  10.807  20.992  1.00  0.00     0.004 C 
ENDBRANCH  18  19
ENDBRANCH  17  18
ENDBRANCH  16  17
ENDBRANCH  15  16
ENDBRANCH  14  15
ENDBRANCH  13  14
ENDBRANCH   2  13
TORSDOF 15
ENDMDL
MODEL 8
REMARK VINA RESULT:    -4.797      2.227      8.327
REMARK INTER + INTRA:         -10.374
REMARK INTER:                  -9.004
REMARK INTRA:                  -1.369
REMARK UNBOUND:                -1.370
REMARK SMILES CCCCCCCCC=CCCCCCCCC(=O)[O-]
REMARK SMILES IDX 10 1 9 2 11 3 12 4 13 5 14 6 15 7 16 8 17 9 18 10 19 11
REMARK SMILES IDX 20 12 8 13 7 14 6 15 5 16 4 17 3 18 2 19 1 20
REMARK H PARENT
REMARK Flexibility Score: inf
ROOT
ATOM      1  C   UNL     1      11.581  11.196  20.458  1.00  0.00    -0.031 C 
ATOM      2  C   UNL     1      10.869  12.255  20.874  1.00  0.00    -0.031 C 
ENDROOT
BRANCH   1   3
ATOM      3  C   UNL     1      11.117  10.333  19.314  1.00  0.00     0.027 C 
BRANCH   3   4
ATOM      4  C   UNL     1       9.593  10.159  19.320  1.00  0.00     0.004 C 
BRANCH   4   5
ATOM      5  C   UNL     1       9.161   8.846  19.996  1.00  0.00     0.000 C 
BRANCH   5   6
ATOM      6  C   UNL     1       8.554   7.840  19.006  1.00  0.00     0.000 C 
BRANCH   6   7
ATOM      7  C   UNL     1       9.384   6.550  18.891  1.00  0.00     0.000 C 
BRANCH   7   8
ATOM      8  C   UNL     1      10.681   6.751  18.081  1.00  0.00     0.006 C 
BRANCH   8   9
ATOM      9  C   UNL     1      11.893   5.998  18.656  1.00  0.00     0.053 C 
BRANCH   9  10
ATOM     10  C   UNL     1      12.029   6.178  20.136  1.00  0.00     0.041 C 
ATOM     11  O   UNL     1      12.376   7.292  20.609  1.00  0.00    -0.550 OA
ATOM     12  O   UNL     1      11.757   5.119  20.994  1.00  0.00    -0.550 OA
ENDBRANCH   9  10
ENDBRANCH   8   9
ENDBRANCH   7   8
ENDBRANCH   6   7
ENDBRANCH   5   6
ENDBRANCH   4   5
ENDBRANCH   3   4
ENDBRANCH   1   3
BRANCH   2  13
ATOM     13  C   UNL     1      11.299  13.074  22.059  1.00  0.00     0.027 C 
BRANCH  13  14
ATOM     14  C   UNL     1      12.369  12.345  22.881  1.00  0.00     0.004 C 
BRANCH  14  15
ATOM     15  C   UNL     1      13.452  13.325  23.358  1.00  0.00     0.000 C 
BRANCH  15  16
ATOM     16  C   UNL     1      14.831  13.035  22.741  1.00  0.00     0.000 C 
BRANCH  16  17
ATOM     17  C   UNL     1      15.776  14.250  22.664  1.00  0.00    -0.000 C 
BRANCH  17  18
ATOM     18  C   UNL     1      17.124  14.037  23.385  1.00  0.00    -0.000 C 
BRANCH  18  19
ATOM     19  C   UNL     1      17.126  12.776  24.260  1.00  0.00    -0.003 C 
ATOM     20  C   UNL     1      17.153  13.132  25.743  1.00  0.00     0.004 C 
ENDBRANCH  18  19
ENDBRANCH  17  18
ENDBRANCH  16  17
ENDBRANCH  15  16
ENDBRANCH  14  15
ENDBRANCH  13  14
ENDBRANCH   2  13
TORSDOF 15
ENDMDL
MODEL 9
REMARK VINA RESULT:    -4.793      3.195      7.575
REMARK INTER + INTRA:         -10.365
REMARK INTER:                  -7.924
REMARK INTRA:                  -2.441
REMARK UNBOUND:                -1.370
REMARK SMILES CCCCCCCCC=CCCCCCCCC(=O)[O-]
REMARK SMILES IDX 10 1 9 2 11 3 12 4 13 5 14 6 15 7 16 8 17 9 18 10 19 11
REMARK SMILES IDX 20 12 8 13 7 14 6 15 5 16 4 17 3 18 2 19 1 20
REMARK H PARENT
REMARK Flexibility Score: inf
ROOT
ATOM      1  C   UNL     1      12.602  13.445  22.607  1.00  0.00    -0.031 C 
ATOM      2  C   UNL     1      12.977  13.692  23.872  1.00  0.00    -0.031 C 
ENDROOT
BRANCH   1   3
ATOM      3  C   UNL     1      11.181  13.091  22.260  1.00  0.00     0.027 C 
BRANCH   3   4
ATOM      4  C   UNL     1      11.071  11.661  21.716  1.00  0.00     0.004 C 
BRANCH   4   5
ATOM      5  C   UNL     1      10.987  11.628  20.180  1.00  0.00     0.000 C 
BRANCH   5   6
ATOM      6  C   UNL     1      11.628  10.368  19.578  1.00  0.00     0.000 C 
BRANCH   6   7
ATOM      7  C   UNL     1      11.235   9.087  20.332  1.00  0.00     0.000 C 
BRANCH   7   8
ATOM      8  C   UNL     1      12.375   8.047  20.367  1.00  0.00     0.006 C 
BRANCH   8   9
ATOM      9  C   UNL     1      11.964   6.661  19.842  1.00  0.00     0.053 C 
BRANCH   9  10
ATOM     10  C   UNL     1      11.409   6.716  18.453  1.00  0.00     0.041 C 
ATOM     11  O   UNL     1      10.195   6.451  18.246  1.00  0.00    -0.550 OA
ATOM     12  O   UNL     1      12.227   7.074  17.389  1.00  0.00    -0.550 OA
ENDBRANCH   9  10
ENDBRANCH   8   9
ENDBRANCH   7   8
ENDBRANCH   6   7
ENDBRANCH   5   6
ENDBRANCH   4   5
ENDBRANCH   3   4
ENDBRANCH   1   3
BRANCH   2  13
ATOM     13  C   UNL     1      14.410  13.978  24.226  1.00  0.00     0.027 C 
BRANCH  13  14
ATOM     14  C   UNL     1      15.296  14.007  22.975  1.00  0.00     0.004 C 
BRANCH  14  15
ATOM     15  C   UNL     1      16.776  13.827  23.351  1.00  0.00     0.000 C 
BRANCH  15  16
ATOM     16  C   UNL     1      17.028  12.563  24.189  1.00  0.00     0.000 C 
BRANCH  16  17
ATOM     17  C   UNL     1      16.744  11.234  23.461  1.00  0.00    -0.000 C 
BRANCH  17  18
ATOM     18  C   UNL     1      15.577  10.428  24.070  1.00  0.00    -0.000 C 
BRANCH  18  19
ATOM     19  C   UNL     1      14.381  10.320  23.113  1.00  0.00    -0.003 C 
ATOM     20  C   UNL     1      14.807  10.550  21.667  1.00  0.00     0.004 C 
ENDBRANCH  18  19
ENDBRANCH  17  18
ENDBRANCH  16  17
ENDBRANCH  15  16
ENDBRANCH  14  15
ENDBRANCH  13  14
ENDBRANCH   2  13
TORSDOF 15
ENDMDL
