MODEL 1
REMARK VINA RESULT:    -2.162      0.000      0.000
REMARK INTER + INTRA:          -6.426
REMARK INTER:                  -3.932
REMARK INTRA:                  -2.494
REMARK UNBOUND:                -2.494
REMARK SMILES CCCCCCCCCCCCCCCC(=O)[O-]
REMARK SMILES IDX 9 1 10 2 11 3 12 4 13 5 14 6 15 7 16 8 17 9 18 10 8 11 7 12
REMARK SMILES IDX 6 13 5 14 4 15 3 16 2 17 1 18
REMARK H PARENT
REMARK Flexibility Score: inf
ROOT
ATOM      1  C   UNL     1      10.771  26.655  28.439  1.00  0.00     0.000 C 
ENDROOT
BRANCH   1   2
ATOM      2  C   UNL     1       9.617  25.657  28.254  1.00  0.00     0.000 C 
BRANCH   2   3
ATOM      3  C   UNL     1       9.853  24.332  28.994  1.00  0.00     0.000 C 
BRANCH   3   4
ATOM      4  C   UNL     1      11.261  24.286  29.601  1.00  0.00     0.000 C 
BRANCH   4   5
ATOM      5  C   UNL     1      11.741  22.840  29.772  1.00  0.00     0.000 C 
BRANCH   5   6
ATOM      6  C   UNL     1      10.551  21.873  29.868  1.00  0.00     0.006 C 
BRANCH   6   7
ATOM      7  C   UNL     1      10.679  20.696  28.892  1.00  0.00     0.053 C 
BRANCH   7   8
ATOM      8  C   UNL     1       9.886  19.509  29.345  1.00  0.00     0.041 C 
ATOM      9  O   UNL     1       8.875  19.665  30.079  1.00  0.00    -0.550 OA
ATOM     10  O   UNL     1      10.244  18.232  28.929  1.00  0.00    -0.550 OA
ENDBRANCH   7   8
ENDBRANCH   6   7
ENDBRANCH   5   6
ENDBRANCH   4   5
ENDBRANCH   3   4
ENDBRANCH   2   3
ENDBRANCH   1   2
BRANCH   1  11
ATOM     11  C   UNL     1      11.488  26.981  27.118  1.00  0.00     0.000 C 
BRANCH  11  12
ATOM     12  C   UNL     1      10.925  26.188  25.927  1.00  0.00    -0.000 C 
BRANCH  12  13
ATOM     13  C   UNL     1      11.964  25.251  25.292  1.00  0.00    -0.000 C 
BRANCH  13  14
ATOM     14  C   UNL     1      11.921  23.863  25.947  1.00  0.00    -0.000 C 
BRANCH  14  15
ATOM     15  C   UNL     1      13.315  23.352  26.345  1.00  0.00    -0.000 C 
BRANCH  15  16
ATOM     16  C   UNL     1      14.277  24.492  26.722  1.00  0.00    -0.000 C 
BRANCH  16  17
ATOM     17  C   UNL     1      14.675  24.460  28.205  1.00  0.00    -0.003 C 
ATOM     18  C   UNL     1      14.503  25.814  28.892  1.00  0.00     0.004 C 
ENDBRANCH  16  17
ENDBRANCH  15  16
ENDBRANCH  14  15
ENDBRANCH  13  14
ENDBRANCH  12  13
ENDBRANCH  11  12
ENDBRANCH   1  11
TORSDOF 14
ENDMDL
MODEL 2
REMARK VINA RESULT:    -2.021      3.780      6.114
REMARK INTER + INTRA:          -6.169
REMARK INTER:                  -3.560
REMARK INTRA:                  -2.609
REMARK UNBOUND:                -2.494
REMARK SMILES CCCCCCCCCCCCCCCC(=O)[O-]
REMARK SMILES IDX 9 1 10 2 11 3 12 4 13 5 14 6 15 7 16 8 17 9 18 10 8 11 7 12
REMARK SMILES IDX 6 13 5 14 4 15 3 16 2 17 1 18
REMARK H PARENT
REMARK Flexibility Score: inf
ROOT
ATOM      1  C   UNL     1      12.550  22.560  27.596  1.00  0.00     0.000 C 
ENDROOT
BRANCH   1   2
ATOM      2  C   UNL     1      13.633  23.238  26.741  1.00  0.00     0.000 C 
BRANCH   2   3
ATOM      3  C   UNL     1      13.045  24.112  25.623  1.00  0.00     0.000 C 
BRANCH   3   4
ATOM      4  C   UNL     1      13.908  25.358  25.390  1.00  0.00     0.000 C 
BRANCH   4   5
ATOM      5  C   UNL     1      13.137  26.424  24.602  1.00  0.00     0.000 C 
BRANCH   5   6
ATOM      6  C   UNL     1      11.863  25.834  23.979  1.00  0.00     0.006 C 
BRANCH   6   7
ATOM      7  C   UNL     1      11.387  26.636  22.760  1.00  0.00     0.053 C 
BRANCH   7   8
ATOM      8  C   UNL     1      10.255  25.954  22.054  1.00  0.00     0.041 C 
ATOM      9  O   UNL     1      10.451  24.874  21.438  1.00  0.00    -0.550 OA
ATOM     10  O   UNL     1       8.977  26.496  22.105  1.00  0.00    -0.550 OA
ENDBRANCH   7   8
ENDBRANCH   6   7
ENDBRANCH   5   6
ENDBRANCH   4   5
ENDBRANCH   3   4
ENDBRANCH   2   3
ENDBRANCH   1   2
BRANCH   1  11
ATOM     11  C   UNL     1      11.147  23.137  27.340  1.00  0.00     0.000 C 
BRANCH  11  12
ATOM     12  C   UNL     1      10.414  23.507  28.639  1.00  0.00    -0.000 C 
BRANCH  12  13
ATOM     13  C   UNL     1       9.760  24.896  28.577  1.00  0.00    -0.000 C 
BRANCH  13  14
ATOM     14  C   UNL     1      10.125  25.615  27.270  1.00  0.00    -0.000 C 
BRANCH  14  15
ATOM     15  C   UNL     1      11.051  26.821  27.496  1.00  0.00    -0.000 C 
BRANCH  15  16
ATOM     16  C   UNL     1      11.678  26.830  28.900  1.00  0.00    -0.000 C 
BRANCH  16  17
ATOM     17  C   UNL     1      13.172  26.468  28.880  1.00  0.00    -0.003 C 
ATOM     18  C   UNL     1      13.525  25.367  29.878  1.00  0.00     0.004 C 
ENDBRANCH  16  17
ENDBRANCH  15  16
ENDBRANCH  14  15
ENDBRANCH  13  14
ENDBRANCH  12  13
ENDBRANCH  11  12
ENDBRANCH   1  11
TORSDOF 14
ENDMDL
MODEL 3
REMARK VINA RESULT:    -1.974     23.020     25.232
REMARK INTER + INTRA:          -6.083
REMARK INTER:                  -3.738
REMARK INTRA:                  -2.345
REMARK UNBOUND:                -2.494
REMARK SMILES CCCCCCCCCCCCCCCC(=O)[O-]
REMARK SMILES IDX 9 1 10 2 11 3 12 4 13 5 14 6 15 7 16 8 17 9 18 10 8 11 7 12
REMARK SMILES IDX 6 13 5 14 4 15 3 16 2 17 1 18
REMARK H PARENT
REMARK Flexibility Score: inf
ROOT
ATOM      1  C   UNL     1      24.877  10.474  14.506  1.00  0.00     0.000 C 
ENDROOT
BRANCH   1   2
ATOM      2  C   UNL     1      24.335  11.874  14.173  1.00  0.00     0.000 C 
BRANCH   2   3
ATOM      3  C   UNL     1      24.330  12.165  12.665  1.00  0.00     0.000 C 
BRANCH   3   4
ATOM      4  C   UNL     1      23.184  11.423  11.967  1.00  0.00     0.000 C 
BRANCH   4   5
ATOM      5  C   UNL     1      23.423  11.336  10.455  1.00  0.00     0.000 C 
BRANCH   5   6
ATOM      6  C   UNL     1      23.205   9.904   9.944  1.00  0.00     0.006 C 
BRANCH   6   7
ATOM      7  C   UNL     1      22.622   8.984  11.025  1.00  0.00     0.053 C 
BRANCH   7   8
ATOM      8  C   UNL     1      21.261   8.482  10.653  1.00  0.00     0.041 C 
ATOM      9  O   UNL     1      20.437   9.246  10.086  1.00  0.00    -0.550 OA
ATOM     10  O   UNL     1      20.914   7.160  10.905  1.00  0.00    -0.550 OA
ENDBRANCH   7   8
ENDBRANCH   6   7
ENDBRANCH   5   6
ENDBRANCH   4   5
ENDBRANCH   3   4
ENDBRANCH   2   3
ENDBRANCH   1   2
BRANCH   1  11
ATOM     11  C   UNL     1      26.216  10.177  13.810  1.00  0.00     0.000 C 
BRANCH  11  12
ATOM     12  C   UNL     1      26.215   8.826  13.077  1.00  0.00    -0.000 C 
BRANCH  12  13
ATOM     13  C   UNL     1      26.280   8.977  11.550  1.00  0.00    -0.000 C 
BRANCH  13  14
ATOM     14  C   UNL     1      27.677   9.434  11.105  1.00  0.00    -0.000 C 
BRANCH  14  15
ATOM     15  C   UNL     1      27.636  10.354   9.875  1.00  0.00    -0.000 C 
BRANCH  15  16
ATOM     16  C   UNL     1      27.074  11.749  10.199  1.00  0.00    -0.000 C 
BRANCH  16  17
ATOM     17  C   UNL     1      27.843  12.444  11.333  1.00  0.00    -0.003 C 
ATOM     18  C   UNL     1      28.260  13.870  10.976  1.00  0.00     0.004 C 
ENDBRANCH  16  17
ENDBRANCH  15  16
ENDBRANCH  14  15
ENDBRANCH  13  14
ENDBRANCH  12  13
ENDBRANCH  11  12
ENDBRANCH   1  11
TORSDOF 14
ENDMDL
MODEL 4
REMARK VINA RESULT:    -1.973      1.262      2.837
REMARK INTER + INTRA:          -6.081
REMARK INTER:                  -3.649
REMARK INTRA:                  -2.432
REMARK UNBOUND:                -2.494
REMARK SMILES CCCCCCCCCCCCCCCC(=O)[O-]
REMARK SMILES IDX 9 1 10 2 11 3 12 4 13 5 14 6 15 7 16 8 17 9 18 10 8 11 7 12
REMARK SMILES IDX 6 13 5 14 4 15 3 16 2 17 1 18
REMARK H PARENT
REMARK Flexibility Score: inf
ROOT
ATOM      1  C   UNL     1      13.445  23.730  26.398  1.00  0.00     0.000 C 
ENDROOT
BRANCH   1   2
ATOM      2  C   UNL     1      12.160  22.967  26.039  1.00  0.00     0.000 C 
BRANCH   2   3
ATOM      3  C   UNL     1      11.864  21.813  27.008  1.00  0.00     0.000 C 
BRANCH   3   4
ATOM      4  C   UNL     1      12.711  21.936  28.281  1.00  0.00     0.000 C 
BRANCH   4   5
ATOM      5  C   UNL     1      11.964  21.373  29.497  1.00  0.00     0.000 C 
BRANCH   5   6
ATOM      6  C   UNL     1      10.449  21.585  29.358  1.00  0.00     0.006 C 
BRANCH   6   7
ATOM      7  C   UNL     1       9.642  20.448  29.999  1.00  0.00     0.053 C 
BRANCH   7   8
ATOM      8  C   UNL     1       9.939  19.127  29.359  1.00  0.00     0.041 C 
ATOM      9  O   UNL     1       9.772  18.970  28.121  1.00  0.00    -0.550 OA
ATOM     10  O   UNL     1      10.431  18.077  30.125  1.00  0.00    -0.550 OA
ENDBRANCH   7   8
ENDBRANCH   6   7
ENDBRANCH   5   6
ENDBRANCH   4   5
ENDBRANCH   3   4
ENDBRANCH   2   3
ENDBRANCH   1   2
BRANCH   1  11
ATOM     11  C   UNL     1      13.302  25.250  26.208  1.00  0.00     0.000 C 
BRANCH  11  12
ATOM     12  C   UNL     1      12.105  25.626  25.321  1.00  0.00    -0.000 C 
BRANCH  12  13
ATOM     13  C   UNL     1      11.106  26.553  26.030  1.00  0.00    -0.000 C 
BRANCH  13  14
ATOM     14  C   UNL     1      10.031  25.740  26.765  1.00  0.00    -0.000 C 
BRANCH  14  15
ATOM     15  C   UNL     1      10.011  26.015  28.277  1.00  0.00    -0.000 C 
BRANCH  15  16
ATOM     16  C   UNL     1      11.023  25.150  29.049  1.00  0.00    -0.000 C 
BRANCH  16  17
ATOM     17  C   UNL     1      12.222  25.964  29.560  1.00  0.00    -0.003 C 
ATOM     18  C   UNL     1      13.427  25.088  29.900  1.00  0.00     0.004 C 
ENDBRANCH  16  17
ENDBRANCH  15  16
ENDBRANCH  14  15
ENDBRANCH  13  14
ENDBRANCH  12  13
ENDBRANCH  11  12
ENDBRANCH   1  11
TORSDOF 14
ENDMDL
MODEL 5
REMARK VINA RESULT:    -1.965      3.097      5.250
REMARK INTER + INTRA:          -6.066
REMARK INTER:                  -3.521
REMARK INTRA:                  -2.546
REMARK UNBOUND:                -2.494
REMARK SMILES CCCCCCCCCCCCCCCC(=O)[O-]
REMARK SMILES IDX 9 1 10 2 11 3 12 4 13 5 14 6 15 7 16 8 17 9 18 10 8 11 7 12
REMARK SMILES IDX 6 13 5 14 4 15 3 16 2 17 1 18
REMARK H PARENT
REMARK Flexibility Score: inf
ROOT
ATOM      1  C   UNL     1      12.473  23.260  28.602  1.00  0.00     0.000 C 
ENDROOT
BRANCH   1   2
ATOM      2  C   UNL     1      12.673  24.138  29.848  1.00  0.00     0.000 C 
BRANCH   2   3
ATOM      3  C   UNL     1      14.139  24.546  30.058  1.00  0.00     0.000 C 
BRANCH   3   4
ATOM      4  C   UNL     1      14.337  26.042  29.786  1.00  0.00     0.000 C 
BRANCH   4   5
ATOM      5  C   UNL     1      14.682  26.294  28.313  1.00  0.00     0.000 C 
BRANCH   5   6
ATOM      6  C   UNL     1      16.073  25.740  27.971  1.00  0.00     0.006 C 
BRANCH   6   7
ATOM      7  C   UNL     1      16.123  25.120  26.569  1.00  0.00     0.053 C 
BRANCH   7   8
ATOM      8  C   UNL     1      15.573  23.726  26.557  1.00  0.00     0.041 C 
ATOM      9  O   UNL     1      15.841  22.931  27.495  1.00  0.00    -0.550 OA
ATOM     10  O   UNL     1      14.736  23.317  25.525  1.00  0.00    -0.550 OA
ENDBRANCH   7   8
ENDBRANCH   6   7
ENDBRANCH   5   6
ENDBRANCH   4   5
ENDBRANCH   3   4
ENDBRANCH   2   3
ENDBRANCH   1   2
BRANCH   1  11
ATOM     11  C   UNL     1      11.038  23.331  28.053  1.00  0.00     0.000 C 
BRANCH  11  12
ATOM     12  C   UNL     1      10.106  24.171  28.940  1.00  0.00    -0.000 C 
BRANCH  12  13
ATOM     13  C   UNL     1       9.559  25.413  28.219  1.00  0.00    -0.000 C 
BRANCH  13  14
ATOM     14  C   UNL     1      10.373  26.662  28.588  1.00  0.00    -0.000 C 
BRANCH  14  15
ATOM     15  C   UNL     1      11.360  27.074  27.485  1.00  0.00    -0.000 C 
BRANCH  15  16
ATOM     16  C   UNL     1      10.998  26.475  26.115  1.00  0.00    -0.000 C 
BRANCH  16  17
ATOM     17  C   UNL     1      12.184  25.753  25.456  1.00  0.00    -0.003 C 
ATOM     18  C   UNL     1      13.226  26.719  24.895  1.00  0.00     0.004 C 
ENDBRANCH  16  17
ENDBRANCH  15  16
ENDBRANCH  14  15
ENDBRANCH  13  14
ENDBRANCH  12  13
ENDBRANCH  11  12
ENDBRANCH   1  11
TORSDOF 14
ENDMDL
MODEL 6
REMARK VINA RESULT:    -1.929     14.086     16.156
REMARK INTER + INTRA:          -6.002
REMARK INTER:                  -3.719
REMARK INTRA:                  -2.283
REMARK UNBOUND:                -2.494
REMARK SMILES CCCCCCCCCCCCCCCC(=O)[O-]
REMARK SMILES IDX 9 1 10 2 11 3 12 4 13 5 14 6 15 7 16 8 17 9 18 10 8 11 7 12
REMARK SMILES IDX 6 13 5 14 4 15 3 16 2 17 1 18
REMARK H PARENT
REMARK Flexibility Score: inf
ROOT
ATOM      1  C   UNL     1      25.056  25.403  29.046  1.00  0.00     0.000 C 
ENDROOT
BRANCH   1   2
ATOM      2  C   UNL     1      25.467  23.963  29.395  1.00  0.00     0.000 C 
BRANCH   2   3
ATOM      3  C   UNL     1      24.875  22.926  28.428  1.00  0.00     0.000 C 
BRANCH   3   4
ATOM      4  C   UNL     1      25.942  21.916  27.987  1.00  0.00     0.000 C 
BRANCH   4   5
ATOM      5  C   UNL     1      27.167  21.970  28.908  1.00  0.00     0.000 C 
BRANCH   5   6
ATOM      6  C   UNL     1      27.322  20.661  29.694  1.00  0.00     0.006 C 
BRANCH   6   7
ATOM      7  C   UNL     1      28.613  19.914  29.330  1.00  0.00     0.053 C 
BRANCH   7   8
ATOM      8  C   UNL     1      28.329  18.560  28.755  1.00  0.00     0.041 C 
ATOM      9  O   UNL     1      27.499  18.432  27.817  1.00  0.00    -0.550 OA
ATOM     10  O   UNL     1      29.006  17.445  29.233  1.00  0.00    -0.550 OA
ENDBRANCH   7   8
ENDBRANCH   6   7
ENDBRANCH   5   6
ENDBRANCH   4   5
ENDBRANCH   3   4
ENDBRANCH   2   3
ENDBRANCH   1   2
BRANCH   1  11
ATOM     11  C   UNL     1      26.252  26.369  29.021  1.00  0.00     0.000 C 
BRANCH  11  12
ATOM     12  C   UNL     1      27.398  25.916  29.939  1.00  0.00    -0.000 C 
BRANCH  12  13
ATOM     13  C   UNL     1      28.753  25.860  29.216  1.00  0.00    -0.000 C 
BRANCH  13  14
ATOM     14  C   UNL     1      28.724  26.704  27.934  1.00  0.00    -0.000 C 
BRANCH  14  15
ATOM     15  C   UNL     1      29.124  25.900  26.687  1.00  0.00    -0.000 C 
BRANCH  15  16
ATOM     16  C   UNL     1      28.623  24.446  26.734  1.00  0.00    -0.000 C 
BRANCH  16  17
ATOM     17  C   UNL     1      27.621  24.133  25.612  1.00  0.00    -0.003 C 
ATOM     18  C   UNL     1      26.455  25.119  25.570  1.00  0.00     0.004 C 
ENDBRANCH  16  17
ENDBRANCH  15  16
ENDBRANCH  14  15
ENDBRANCH  13  14
ENDBRANCH  12  13
ENDBRANCH  11  12
ENDBRANCH   1  11
TORSDOF 14
ENDMDL
MODEL 7
REMARK VINA RESULT:    -1.925      2.797      4.605
REMARK INTER + INTRA:          -5.995
REMARK INTER:                  -3.683
REMARK INTRA:                  -2.312
REMARK UNBOUND:                -2.494
REMARK SMILES CCCCCCCCCCCCCCCC(=O)[O-]
REMARK SMILES IDX 9 1 10 2 11 3 12 4 13 5 14 6 15 7 16 8 17 9 18 10 8 11 7 12
REMARK SMILES IDX 6 13 5 14 4 15 3 16 2 17 1 18
REMARK H PARENT
REMARK Flexibility Score: inf
ROOT
ATOM      1  C   UNL     1      10.448  22.256  29.478  1.00  0.00     0.000 C 
ENDROOT
BRANCH   1   2
ATOM      2  C   UNL     1      11.674  21.391  29.814  1.00  0.00     0.000 C 
BRANCH   2   3
ATOM      3  C   UNL     1      12.971  22.208  29.903  1.00  0.00     0.000 C 
BRANCH   3   4
ATOM      4  C   UNL     1      14.074  21.581  29.041  1.00  0.00     0.000 C 
BRANCH   4   5
ATOM      5  C   UNL     1      14.727  22.629  28.132  1.00  0.00     0.000 C 
BRANCH   5   6
ATOM      6  C   UNL     1      14.046  22.664  26.756  1.00  0.00     0.006 C 
BRANCH   6   7
ATOM      7  C   UNL     1      13.614  24.082  26.357  1.00  0.00     0.053 C 
BRANCH   7   8
ATOM      8  C   UNL     1      12.632  24.067  25.226  1.00  0.00     0.041 C 
ATOM      9  O   UNL     1      12.425  25.111  24.553  1.00  0.00    -0.550 OA
ATOM     10  O   UNL     1      11.970  22.891  24.894  1.00  0.00    -0.550 OA
ENDBRANCH   7   8
ENDBRANCH   6   7
ENDBRANCH   5   6
ENDBRANCH   4   5
ENDBRANCH   3   4
ENDBRANCH   2   3
ENDBRANCH   1   2
BRANCH   1  11
ATOM     11  C   UNL     1      10.734  23.281  28.368  1.00  0.00     0.000 C 
BRANCH  11  12
ATOM     12  C   UNL     1      10.072  24.642  28.634  1.00  0.00    -0.000 C 
BRANCH  12  13
ATOM     13  C   UNL     1       9.958  25.505  27.368  1.00  0.00    -0.000 C 
BRANCH  13  14
ATOM     14  C   UNL     1      10.939  26.685  27.420  1.00  0.00    -0.000 C 
BRANCH  14  15
ATOM     15  C   UNL     1      11.536  26.897  28.820  1.00  0.00    -0.000 C 
BRANCH  15  16
ATOM     16  C   UNL     1      13.074  26.889  28.815  1.00  0.00    -0.000 C 
BRANCH  16  17
ATOM     17  C   UNL     1      13.661  25.776  29.696  1.00  0.00    -0.003 C 
ATOM     18  C   UNL     1      15.122  26.024  30.067  1.00  0.00     0.004 C 
ENDBRANCH  16  17
ENDBRANCH  15  16
ENDBRANCH  14  15
ENDBRANCH  13  14
ENDBRANCH  12  13
ENDBRANCH  11  12
ENDBRANCH   1  11
TORSDOF 14
ENDMDL
MODEL 8
REMARK VINA RESULT:    -1.884     23.595     25.458
REMARK INTER + INTRA:          -5.920
REMARK INTER:                  -3.359
REMARK INTRA:                  -2.560
REMARK UNBOUND:                -2.494
REMARK SMILES CCCCCCCCCCCCCCCC(=O)[O-]
REMARK SMILES IDX 9 1 10 2 11 3 12 4 13 5 14 6 15 7 16 8 17 9 18 10 8 11 7 12
REMARK SMILES IDX 6 13 5 14 4 15 3 16 2 17 1 18
REMARK H PARENT
REMARK Flexibility Score: inf
ROOT
ATOM      1  C   UNL     1      28.161  10.237  12.719  1.00  0.00     0.000 C 
ENDROOT
BRANCH   1   2
ATOM      2  C   UNL     1      27.982   9.133  11.664  1.00  0.00     0.000 C 
BRANCH   2   3
ATOM      3  C   UNL     1      27.537   9.681  10.300  1.00  0.00     0.000 C 
BRANCH   3   4
ATOM      4  C   UNL     1      27.576  11.214  10.286  1.00  0.00     0.000 C 
BRANCH   4   5
ATOM      5  C   UNL     1      26.195  11.798   9.965  1.00  0.00     0.000 C 
BRANCH   5   6
ATOM      6  C   UNL     1      25.092  10.748  10.169  1.00  0.00     0.006 C 
BRANCH   6   7
ATOM      7  C   UNL     1      24.260  11.017  11.430  1.00  0.00     0.053 C 
BRANCH   7   8
ATOM      8  C   UNL     1      23.237  12.087  11.204  1.00  0.00     0.041 C 
ATOM      9  O   UNL     1      22.338  11.931  10.336  1.00  0.00    -0.550 OA
ATOM     10  O   UNL     1      23.256  13.243  11.975  1.00  0.00    -0.550 OA
ENDBRANCH   7   8
ENDBRANCH   6   7
ENDBRANCH   5   6
ENDBRANCH   4   5
ENDBRANCH   3   4
ENDBRANCH   2   3
ENDBRANCH   1   2
BRANCH   1  11
ATOM     11  C   UNL     1      27.226  10.059  13.927  1.00  0.00     0.000 C 
BRANCH  11  12
ATOM     12  C   UNL     1      26.597  11.383  14.390  1.00  0.00    -0.000 C 
BRANCH  12  13
ATOM     13  C   UNL     1      27.382  12.613  13.909  1.00  0.00    -0.000 C 
BRANCH  13  14
ATOM     14  C   UNL     1      26.488  13.538  13.069  1.00  0.00    -0.000 C 
BRANCH  14  15
ATOM     15  C   UNL     1      27.258  14.728  12.477  1.00  0.00    -0.000 C 
BRANCH  15  16
ATOM     16  C   UNL     1      28.730  14.393  12.183  1.00  0.00    -0.000 C 
BRANCH  16  17
ATOM     17  C   UNL     1      29.080  14.534  10.693  1.00  0.00    -0.003 C 
ATOM     18  C   UNL     1      27.942  15.142   9.875  1.00  0.00     0.004 C 
ENDBRANCH  16  17
ENDBRANCH  15  16
ENDBRANCH  14  15
ENDBRANCH  13  14
ENDBRANCH  12  13
ENDBRANCH  11  12
ENDBRANCH   1  11
TORSDOF 14
ENDMDL
MODEL 9
REMARK VINA RESULT:    -1.870     23.555     25.600
REMARK INTER + INTRA:          -5.894
REMARK INTER:                  -3.244
REMARK INTRA:                  -2.650
REMARK UNBOUND:                -2.494
REMARK SMILES CCCCCCCCCCCCCCCC(=O)[O-]
REMARK SMILES IDX 9 1 10 2 11 3 12 4 13 5 14 6 15 7 16 8 17 9 18 10 8 11 7 12
REMARK SMILES IDX 6 13 5 14 4 15 3 16 2 17 1 18
REMARK H PARENT
REMARK Flexibility Score: inf
ROOT
ATOM      1  C   UNL     1      25.846  11.352  13.804  1.00  0.00     0.000 C 
ENDROOT
BRANCH   1   2
ATOM      2  C   UNL     1      26.438   9.994  13.395  1.00  0.00     0.000 C 
BRANCH   2   3
ATOM      3  C   UNL     1      25.844   9.458  12.084  1.00  0.00     0.000 C 
BRANCH   3   4
ATOM      4  C   UNL     1      26.904   9.425  10.975  1.00  0.00     0.000 C 
BRANCH   4   5
ATOM      5  C   UNL     1      26.777  10.645  10.054  1.00  0.00     0.000 C 
BRANCH   5   6
ATOM      6  C   UNL     1      27.899  11.658  10.324  1.00  0.00     0.006 C 
BRANCH   6   7
ATOM      7  C   UNL     1      27.418  13.108  10.184  1.00  0.00     0.053 C 
BRANCH   7   8
ATOM      8  C   UNL     1      28.081  14.013  11.177  1.00  0.00     0.041 C 
ATOM      9  O   UNL     1      28.610  15.091  10.797  1.00  0.00    -0.550 OA
ATOM     10  O   UNL     1      28.086  13.681  12.526  1.00  0.00    -0.550 OA
ENDBRANCH   7   8
ENDBRANCH   6   7
ENDBRANCH   5   6
ENDBRANCH   4   5
ENDBRANCH   3   4
ENDBRANCH   2   3
ENDBRANCH   1   2
BRANCH   1  11
ATOM     11  C   UNL     1      24.472  11.615  13.165  1.00  0.00     0.000 C 
BRANCH  11  12
ATOM     12  C   UNL     1      24.450  12.894  12.314  1.00  0.00    -0.000 C 
BRANCH  12  13
ATOM     13  C   UNL     1      23.804  12.681  10.936  1.00  0.00    -0.000 C 
BRANCH  13  14
ATOM     14  C   UNL     1      22.826  11.498  10.968  1.00  0.00    -0.000 C 
BRANCH  14  15
ATOM     15  C   UNL     1      23.118  10.458   9.875  1.00  0.00    -0.000 C 
BRANCH  15  16
ATOM     16  C   UNL     1      22.447   9.102  10.154  1.00  0.00    -0.000 C 
BRANCH  16  17
ATOM     17  C   UNL     1      21.851   9.020  11.568  1.00  0.00    -0.003 C 
ATOM     18  C   UNL     1      22.561   7.994  12.449  1.00  0.00     0.004 C 
ENDBRANCH  16  17
ENDBRANCH  15  16
ENDBRANCH  14  15
ENDBRANCH  13  14
ENDBRANCH  12  13
ENDBRANCH  11  12
ENDBRANCH   1  11
TORSDOF 14
ENDMDL
