MODEL 1
REMARK VINA RESULT:    -2.281      0.000      0.000
REMARK INTER + INTRA:          -9.687
REMARK INTER:                  -5.749
REMARK INTRA:                  -3.938
REMARK UNBOUND:                -3.938
REMARK SMILES CCCCCCCCCCCCCCCCCCCCCCCCCCCC(=O)[O-]
REMARK SMILES IDX 15 1 16 2 17 3 18 4 19 5 20 6 21 7 22 8 23 9 24 10 25 11
REMARK SMILES IDX 26 12 27 13 28 14 29 15 30 16 14 17 13 18 12 19 11 20 10 21
REMARK SMILES IDX 9 22 8 23 7 24 6 25 5 26 4 27 3 28 2 29 1 30
REMARK H PARENT
REMARK Flexibility Score: inf
ROOT
ATOM      1  C   UNL     1       3.553   7.841   2.957  1.00  0.00     0.000 C 
ENDROOT
BRANCH   1   2
ATOM      2  C   UNL     1       4.670   8.579   3.713  1.00  0.00     0.000 C 
BRANCH   2   3
ATOM      3  C   UNL     1       6.065   8.002   3.422  1.00  0.00     0.000 C 
BRANCH   3   4
ATOM      4  C   UNL     1       6.051   6.461   3.333  1.00  0.00     0.000 C 
BRANCH   4   5
ATOM      5  C   UNL     1       6.524   5.910   1.978  1.00  0.00     0.000 C 
BRANCH   5   6
ATOM      6  C   UNL     1       6.280   6.884   0.816  1.00  0.00     0.000 C 
BRANCH   6   7
ATOM      7  C   UNL     1       7.578   7.607   0.426  1.00  0.00     0.000 C 
BRANCH   7   8
ATOM      8  C   UNL     1       7.321   8.957  -0.269  1.00  0.00     0.000 C 
BRANCH   8   9
ATOM      9  C   UNL     1       7.794  10.189   0.525  1.00  0.00     0.000 C 
BRANCH   9  10
ATOM     10  C   UNL     1       6.826  10.667   1.626  1.00  0.00     0.000 C 
BRANCH  10  11
ATOM     11  C   UNL     1       6.963  12.167   1.968  1.00  0.00     0.000 C 
BRANCH  11  12
ATOM     12  C   UNL     1       5.713  12.971   1.572  1.00  0.00     0.006 C 
BRANCH  12  13
ATOM     13  C   UNL     1       4.730  13.125   2.739  1.00  0.00     0.053 C 
BRANCH  13  14
ATOM     14  C   UNL     1       3.468  12.350   2.512  1.00  0.00     0.041 C 
ATOM     15  O   UNL     1       2.946  12.312   1.366  1.00  0.00    -0.550 OA
ATOM     16  O   UNL     1       2.875  11.656   3.561  1.00  0.00    -0.550 OA
ENDBRANCH  13  14
ENDBRANCH  12  13
ENDBRANCH  11  12
ENDBRANCH  10  11
ENDBRANCH   9  10
ENDBRANCH   8   9
ENDBRANCH   7   8
ENDBRANCH   6   7
ENDBRANCH   5   6
ENDBRANCH   4   5
ENDBRANCH   3   4
ENDBRANCH   2   3
ENDBRANCH   1   2
BRANCH   1  17
ATOM     17  C   UNL     1       2.886   8.720   1.886  1.00  0.00     0.000 C 
BRANCH  17  18
ATOM     18  C   UNL     1       3.450   8.418   0.489  1.00  0.00     0.000 C 
BRANCH  18  19
ATOM     19  C   UNL     1       3.964   9.681  -0.221  1.00  0.00     0.000 C 
BRANCH  19  20
ATOM     20  C   UNL     1       2.992  10.193  -1.298  1.00  0.00     0.000 C 
BRANCH  20  21
ATOM     21  C   UNL     1       3.714  10.999  -2.399  1.00  0.00     0.000 C 
BRANCH  21  22
ATOM     22  C   UNL     1       2.935  12.231  -2.889  1.00  0.00    -0.000 C 
BRANCH  22  23
ATOM     23  C   UNL     1       3.165  12.540  -4.375  1.00  0.00    -0.000 C 
BRANCH  23  24
ATOM     24  C   UNL     1       3.495  11.263  -5.157  1.00  0.00    -0.000 C 
BRANCH  24  25
ATOM     25  C   UNL     1       4.204  11.587  -6.479  1.00  0.00    -0.000 C 
BRANCH  25  26
ATOM     26  C   UNL     1       5.395  12.545  -6.304  1.00  0.00    -0.000 C 
BRANCH  26  27
ATOM     27  C   UNL     1       6.630  11.892  -5.646  1.00  0.00    -0.000 C 
BRANCH  27  28
ATOM     28  C   UNL     1       7.113  12.681  -4.417  1.00  0.00    -0.000 C 
BRANCH  28  29
ATOM     29  C   UNL     1       7.179  11.823  -3.146  1.00  0.00    -0.003 C 
ATOM     30  C   UNL     1       6.804  12.603  -1.886  1.00  0.00     0.004 C 
ENDBRANCH  28  29
ENDBRANCH  27  28
ENDBRANCH  26  27
ENDBRANCH  25  26
ENDBRANCH  24  25
ENDBRANCH  23  24
ENDBRANCH  22  23
ENDBRANCH  21  22
ENDBRANCH  20  21
ENDBRANCH  19  20
ENDBRANCH  18  19
ENDBRANCH  17  18
ENDBRANCH   1  17
TORSDOF 26
ENDMDL
MODEL 2
REMARK VINA RESULT:    -2.268      2.635      7.447
REMARK INTER + INTRA:          -9.653
REMARK INTER:                  -6.763
REMARK INTRA:                  -2.890
REMARK UNBOUND:                -3.938
REMARK SMILES CCCCCCCCCCCCCCCCCCCCCCCCCCCC(=O)[O-]
REMARK SMILES IDX 15 1 16 2 17 3 18 4 19 5 20 6 21 7 22 8 23 9 24 10 25 11
REMARK SMILES IDX 26 12 27 13 28 14 29 15 30 16 14 17 13 18 12 19 11 20 10 21
REMARK SMILES IDX 9 22 8 23 7 24 6 25 5 26 4 27 3 28 2 29 1 30
REMARK H PARENT
REMARK Flexibility Score: inf
ROOT
ATOM      1  C   UNL     1       6.321  12.074   2.014  1.00  0.00     0.000 C 
ENDROOT
BRANCH   1   2
ATOM      2  C   UNL     1       7.250  12.556   0.888  1.00  0.00     0.000 C 
BRANCH   2   3
ATOM      3  C   UNL     1       7.865  11.395   0.088  1.00  0.00     0.000 C 
BRANCH   3   4
ATOM      4  C   UNL     1       6.867  10.234  -0.113  1.00  0.00     0.000 C 
BRANCH   4   5
ATOM      5  C   UNL     1       6.062  10.324  -1.420  1.00  0.00     0.000 C 
BRANCH   5   6
ATOM      6  C   UNL     1       6.112  11.718  -2.062  1.00  0.00     0.000 C 
BRANCH   6   7
ATOM      7  C   UNL     1       4.773  12.061  -2.730  1.00  0.00     0.000 C 
BRANCH   7   8
ATOM      8  C   UNL     1       4.932  13.018  -3.927  1.00  0.00     0.000 C 
BRANCH   8   9
ATOM      9  C   UNL     1       6.274  12.895  -4.674  1.00  0.00     0.000 C 
BRANCH   9  10
ATOM     10  C   UNL     1       6.401  11.661  -5.590  1.00  0.00     0.000 C 
BRANCH  10  11
ATOM     11  C   UNL     1       7.035  11.968  -6.964  1.00  0.00     0.000 C 
BRANCH  11  12
ATOM     12  C   UNL     1       6.016  11.860  -8.112  1.00  0.00     0.006 C 
BRANCH  12  13
ATOM     13  C   UNL     1       4.601  12.249  -7.668  1.00  0.00     0.053 C 
BRANCH  13  14
ATOM     14  C   UNL     1       3.796  11.054  -7.256  1.00  0.00     0.041 C 
ATOM     15  O   UNL     1       3.236  11.027  -6.128  1.00  0.00    -0.550 OA
ATOM     16  O   UNL     1       3.651   9.975  -8.121  1.00  0.00    -0.550 OA
ENDBRANCH  13  14
ENDBRANCH  12  13
ENDBRANCH  11  12
ENDBRANCH  10  11
ENDBRANCH   9  10
ENDBRANCH   8   9
ENDBRANCH   7   8
ENDBRANCH   6   7
ENDBRANCH   5   6
ENDBRANCH   4   5
ENDBRANCH   3   4
ENDBRANCH   2   3
ENDBRANCH   1   2
BRANCH   1  17
ATOM     17  C   UNL     1       5.266  13.124   2.398  1.00  0.00     0.000 C 
BRANCH  17  18
ATOM     18  C   UNL     1       3.848  12.634   2.071  1.00  0.00     0.000 C 
BRANCH  18  19
ATOM     19  C   UNL     1       3.768  11.934   0.704  1.00  0.00     0.000 C 
BRANCH  19  20
ATOM     20  C   UNL     1       3.241  10.492   0.807  1.00  0.00     0.000 C 
BRANCH  20  21
ATOM     21  C   UNL     1       4.020   9.660   1.847  1.00  0.00     0.000 C 
BRANCH  21  22
ATOM     22  C   UNL     1       3.244   9.392   3.147  1.00  0.00    -0.000 C 
BRANCH  22  23
ATOM     23  C   UNL     1       4.040   8.567   4.168  1.00  0.00    -0.000 C 
BRANCH  23  24
ATOM     24  C   UNL     1       5.538   8.584   3.840  1.00  0.00    -0.000 C 
BRANCH  24  25
ATOM     25  C   UNL     1       6.121   7.165   3.828  1.00  0.00    -0.000 C 
BRANCH  25  26
ATOM     26  C   UNL     1       5.858   6.417   2.509  1.00  0.00    -0.000 C 
BRANCH  26  27
ATOM     27  C   UNL     1       6.594   7.018   1.292  1.00  0.00    -0.000 C 
BRANCH  27  28
ATOM     28  C   UNL     1       5.848   6.746  -0.025  1.00  0.00    -0.000 C 
BRANCH  28  29
ATOM     29  C   UNL     1       6.689   5.948  -1.032  1.00  0.00    -0.003 C 
ATOM     30  C   UNL     1       7.074   6.769  -2.262  1.00  0.00     0.004 C 
ENDBRANCH  28  29
ENDBRANCH  27  28
ENDBRANCH  26  27
ENDBRANCH  25  26
ENDBRANCH  24  25
ENDBRANCH  23  24
ENDBRANCH  22  23
ENDBRANCH  21  22
ENDBRANCH  20  21
ENDBRANCH  19  20
ENDBRANCH  18  19
ENDBRANCH  17  18
ENDBRANCH   1  17
TORSDOF 26
ENDMDL
MODEL 3
REMARK VINA RESULT:    -1.920      1.521      2.904
REMARK INTER + INTRA:          -8.777
REMARK INTER:                  -5.107
REMARK INTRA:                  -3.670
REMARK UNBOUND:                -3.938
REMARK SMILES CCCCCCCCCCCCCCCCCCCCCCCCCCCC(=O)[O-]
REMARK SMILES IDX 15 1 16 2 17 3 18 4 19 5 20 6 21 7 22 8 23 9 24 10 25 11
REMARK SMILES IDX 26 12 27 13 28 14 29 15 30 16 14 17 13 18 12 19 11 20 10 21
REMARK SMILES IDX 9 22 8 23 7 24 6 25 5 26 4 27 3 28 2 29 1 30
REMARK H PARENT
REMARK Flexibility Score: inf
ROOT
ATOM      1  C   UNL     1       7.099   6.617  -1.414  1.00  0.00     0.000 C 
ENDROOT
BRANCH   1   2
ATOM      2  C   UNL     1       6.122   6.402  -0.246  1.00  0.00     0.000 C 
BRANCH   2   3
ATOM      3  C   UNL     1       6.813   6.474   1.127  1.00  0.00     0.000 C 
BRANCH   3   4
ATOM      4  C   UNL     1       5.842   6.908   2.245  1.00  0.00     0.000 C 
BRANCH   4   5
ATOM      5  C   UNL     1       6.126   8.310   2.807  1.00  0.00     0.000 C 
BRANCH   5   6
ATOM      6  C   UNL     1       7.268   9.031   2.076  1.00  0.00     0.000 C 
BRANCH   6   7
ATOM      7  C   UNL     1       6.773  10.344   1.450  1.00  0.00     0.000 C 
BRANCH   7   8
ATOM      8  C   UNL     1       6.697  11.497   2.469  1.00  0.00     0.000 C 
BRANCH   8   9
ATOM      9  C   UNL     1       5.933  12.740   1.978  1.00  0.00     0.000 C 
BRANCH   9  10
ATOM     10  C   UNL     1       5.369  12.637   0.546  1.00  0.00     0.000 C 
BRANCH  10  11
ATOM     11  C   UNL     1       3.910  13.125   0.415  1.00  0.00     0.000 C 
BRANCH  11  12
ATOM     12  C   UNL     1       2.895  11.986   0.611  1.00  0.00     0.006 C 
BRANCH  12  13
ATOM     13  C   UNL     1       2.876  11.471   2.055  1.00  0.00     0.053 C 
BRANCH  13  14
ATOM     14  C   UNL     1       3.037   9.982   2.120  1.00  0.00     0.041 C 
ATOM     15  O   UNL     1       3.282   9.327   1.073  1.00  0.00    -0.550 OA
ATOM     16  O   UNL     1       2.934   9.320   3.338  1.00  0.00    -0.550 OA
ENDBRANCH  13  14
ENDBRANCH  12  13
ENDBRANCH  11  12
ENDBRANCH  10  11
ENDBRANCH   9  10
ENDBRANCH   8   9
ENDBRANCH   7   8
ENDBRANCH   6   7
ENDBRANCH   5   6
ENDBRANCH   4   5
ENDBRANCH   3   4
ENDBRANCH   2   3
ENDBRANCH   1   2
BRANCH   1  17
ATOM     17  C   UNL     1       6.934   7.996  -2.072  1.00  0.00     0.000 C 
BRANCH  17  18
ATOM     18  C   UNL     1       5.817   8.806  -1.396  1.00  0.00     0.000 C 
BRANCH  18  19
ATOM     19  C   UNL     1       5.703  10.233  -1.957  1.00  0.00     0.000 C 
BRANCH  19  20
ATOM     20  C   UNL     1       4.294  10.551  -2.485  1.00  0.00     0.000 C 
BRANCH  20  21
ATOM     21  C   UNL     1       4.234  11.918  -3.199  1.00  0.00     0.000 C 
BRANCH  21  22
ATOM     22  C   UNL     1       2.987  12.114  -4.078  1.00  0.00    -0.000 C 
BRANCH  22  23
ATOM     23  C   UNL     1       2.994  11.241  -5.340  1.00  0.00    -0.000 C 
BRANCH  23  24
ATOM     24  C   UNL     1       3.138  12.100  -6.602  1.00  0.00    -0.000 C 
BRANCH  24  25
ATOM     25  C   UNL     1       4.244  11.560  -7.519  1.00  0.00    -0.000 C 
BRANCH  25  26
ATOM     26  C   UNL     1       5.405  12.550  -7.710  1.00  0.00    -0.000 C 
BRANCH  26  27
ATOM     27  C   UNL     1       6.802  11.900  -7.615  1.00  0.00    -0.000 C 
BRANCH  27  28
ATOM     28  C   UNL     1       7.644  12.505  -6.479  1.00  0.00    -0.000 C 
BRANCH  28  29
ATOM     29  C   UNL     1       6.993  12.334  -5.099  1.00  0.00    -0.003 C 
ATOM     30  C   UNL     1       7.965  12.600  -3.950  1.00  0.00     0.004 C 
ENDBRANCH  28  29
ENDBRANCH  27  28
ENDBRANCH  26  27
ENDBRANCH  25  26
ENDBRANCH  24  25
ENDBRANCH  23  24
ENDBRANCH  22  23
ENDBRANCH  21  22
ENDBRANCH  20  21
ENDBRANCH  19  20
ENDBRANCH  18  19
ENDBRANCH  17  18
ENDBRANCH   1  17
TORSDOF 26
ENDMDL
MODEL 4
REMARK VINA RESULT:    -1.886      1.475      2.570
REMARK INTER + INTRA:          -8.691
REMARK INTER:                  -4.776
REMARK INTRA:                  -3.914
REMARK UNBOUND:                -3.938
REMARK SMILES CCCCCCCCCCCCCCCCCCCCCCCCCCCC(=O)[O-]
REMARK SMILES IDX 15 1 16 2 17 3 18 4 19 5 20 6 21 7 22 8 23 9 24 10 25 11
REMARK SMILES IDX 26 12 27 13 28 14 29 15 30 16 14 17 13 18 12 19 11 20 10 21
REMARK SMILES IDX 9 22 8 23 7 24 6 25 5 26 4 27 3 28 2 29 1 30
REMARK H PARENT
REMARK Flexibility Score: inf
ROOT
ATOM      1  C   UNL     1       3.907   8.285   3.800  1.00  0.00     0.000 C 
ENDROOT
BRANCH   1   2
ATOM      2  C   UNL     1       5.290   8.925   4.008  1.00  0.00     0.000 C 
BRANCH   2   3
ATOM      3  C   UNL     1       6.437   8.040   3.492  1.00  0.00     0.000 C 
BRANCH   3   4
ATOM      4  C   UNL     1       6.312   6.580   3.979  1.00  0.00     0.000 C 
BRANCH   4   5
ATOM      5  C   UNL     1       6.391   5.538   2.852  1.00  0.00     0.000 C 
BRANCH   5   6
ATOM      6  C   UNL     1       5.621   5.957   1.591  1.00  0.00     0.000 C 
BRANCH   6   7
ATOM      7  C   UNL     1       6.581   6.176   0.412  1.00  0.00     0.000 C 
BRANCH   7   8
ATOM      8  C   UNL     1       6.192   7.389  -0.454  1.00  0.00     0.000 C 
BRANCH   8   9
ATOM      9  C   UNL     1       7.330   8.399  -0.693  1.00  0.00     0.000 C 
BRANCH   9  10
ATOM     10  C   UNL     1       8.397   8.456   0.419  1.00  0.00     0.000 C 
BRANCH  10  11
ATOM     11  C   UNL     1       8.534   9.845   1.080  1.00  0.00     0.000 C 
BRANCH  11  12
ATOM     12  C   UNL     1       7.170  10.516   1.312  1.00  0.00     0.006 C 
BRANCH  12  13
ATOM     13  C   UNL     1       7.218  12.027   1.056  1.00  0.00     0.053 C 
BRANCH  13  14
ATOM     14  C   UNL     1       6.312  12.780   1.983  1.00  0.00     0.041 C 
ATOM     15  O   UNL     1       6.719  13.123   3.124  1.00  0.00    -0.550 OA
ATOM     16  O   UNL     1       5.024  13.117   1.581  1.00  0.00    -0.550 OA
ENDBRANCH  13  14
ENDBRANCH  12  13
ENDBRANCH  11  12
ENDBRANCH  10  11
ENDBRANCH   9  10
ENDBRANCH   8   9
ENDBRANCH   7   8
ENDBRANCH   6   7
ENDBRANCH   5   6
ENDBRANCH   4   5
ENDBRANCH   3   4
ENDBRANCH   2   3
ENDBRANCH   1   2
BRANCH   1  17
ATOM     17  C   UNL     1       2.962   9.180   2.983  1.00  0.00     0.000 C 
BRANCH  17  18
ATOM     18  C   UNL     1       2.910   8.738   1.512  1.00  0.00     0.000 C 
BRANCH  18  19
ATOM     19  C   UNL     1       3.985   9.425   0.654  1.00  0.00     0.000 C 
BRANCH  19  20
ATOM     20  C   UNL     1       3.386  10.386  -0.388  1.00  0.00     0.000 C 
BRANCH  20  21
ATOM     21  C   UNL     1       4.247  10.470  -1.666  1.00  0.00     0.000 C 
BRANCH  21  22
ATOM     22  C   UNL     1       4.996  11.803  -1.833  1.00  0.00    -0.000 C 
BRANCH  22  23
ATOM     23  C   UNL     1       4.910  12.369  -3.258  1.00  0.00    -0.000 C 
BRANCH  23  24
ATOM     24  C   UNL     1       4.059  11.466  -4.158  1.00  0.00    -0.000 C 
BRANCH  24  25
ATOM     25  C   UNL     1       2.876  12.235  -4.760  1.00  0.00    -0.000 C 
BRANCH  25  26
ATOM     26  C   UNL     1       3.077  12.584  -6.245  1.00  0.00    -0.000 C 
BRANCH  26  27
ATOM     27  C   UNL     1       3.257  11.351  -7.157  1.00  0.00    -0.000 C 
BRANCH  27  28
ATOM     28  C   UNL     1       4.609  11.368  -7.890  1.00  0.00    -0.000 C 
BRANCH  28  29
ATOM     29  C   UNL     1       5.521  12.515  -7.433  1.00  0.00    -0.003 C 
ATOM     30  C   UNL     1       6.848  12.022  -6.859  1.00  0.00     0.004 C 
ENDBRANCH  28  29
ENDBRANCH  27  28
ENDBRANCH  26  27
ENDBRANCH  25  26
ENDBRANCH  24  25
ENDBRANCH  23  24
ENDBRANCH  22  23
ENDBRANCH  21  22
ENDBRANCH  20  21
ENDBRANCH  19  20
ENDBRANCH  18  19
ENDBRANCH  17  18
ENDBRANCH   1  17
TORSDOF 26
ENDMDL
MODEL 5
REMARK VINA RESULT:    -1.813      3.158      5.988
REMARK INTER + INTRA:          -8.506
REMARK INTER:                  -4.222
REMARK INTRA:                  -4.284
REMARK UNBOUND:                -3.938
REMARK SMILES CCCCCCCCCCCCCCCCCCCCCCCCCCCC(=O)[O-]
REMARK SMILES IDX 15 1 16 2 17 3 18 4 19 5 20 6 21 7 22 8 23 9 24 10 25 11
REMARK SMILES IDX 26 12 27 13 28 14 29 15 30 16 14 17 13 18 12 19 11 20 10 21
REMARK SMILES IDX 9 22 8 23 7 24 6 25 5 26 4 27 3 28 2 29 1 30
REMARK H PARENT
REMARK Flexibility Score: inf
ROOT
ATOM      1  C   UNL     1       5.475   6.430   3.317  1.00  0.00     0.000 C 
ENDROOT
BRANCH   1   2
ATOM      2  C   UNL     1       6.489   5.335   2.945  1.00  0.00     0.000 C 
BRANCH   2   3
ATOM      3  C   UNL     1       6.808   5.309   1.441  1.00  0.00     0.000 C 
BRANCH   3   4
ATOM      4  C   UNL     1       5.961   6.327   0.648  1.00  0.00     0.000 C 
BRANCH   4   5
ATOM      5  C   UNL     1       6.277   6.363  -0.856  1.00  0.00     0.000 C 
BRANCH   5   6
ATOM      6  C   UNL     1       6.182   7.773  -1.457  1.00  0.00     0.000 C 
BRANCH   6   7
ATOM      7  C   UNL     1       5.152   8.622  -0.698  1.00  0.00     0.000 C 
BRANCH   7   8
ATOM      8  C   UNL     1       4.889   9.982  -1.372  1.00  0.00     0.000 C 
BRANCH   8   9
ATOM      9  C   UNL     1       5.904  10.364  -2.466  1.00  0.00     0.000 C 
BRANCH   9  10
ATOM     10  C   UNL     1       6.014  11.875  -2.755  1.00  0.00     0.000 C 
BRANCH  10  11
ATOM     11  C   UNL     1       7.395  12.306  -3.295  1.00  0.00     0.000 C 
BRANCH  11  12
ATOM     12  C   UNL     1       7.334  12.738  -4.770  1.00  0.00     0.006 C 
BRANCH  12  13
ATOM     13  C   UNL     1       6.211  12.028  -5.535  1.00  0.00     0.053 C 
BRANCH  13  14
ATOM     14  C   UNL     1       6.418  12.090  -7.018  1.00  0.00     0.041 C 
ATOM     15  O   UNL     1       5.565  12.656  -7.753  1.00  0.00    -0.550 OA
ATOM     16  O   UNL     1       7.560  11.540  -7.589  1.00  0.00    -0.550 OA
ENDBRANCH  13  14
ENDBRANCH  12  13
ENDBRANCH  11  12
ENDBRANCH  10  11
ENDBRANCH   9  10
ENDBRANCH   8   9
ENDBRANCH   7   8
ENDBRANCH   6   7
ENDBRANCH   5   6
ENDBRANCH   4   5
ENDBRANCH   3   4
ENDBRANCH   2   3
ENDBRANCH   1   2
BRANCH   1  17
ATOM     17  C   UNL     1       6.152   7.698   3.862  1.00  0.00     0.000 C 
BRANCH  17  18
ATOM     18  C   UNL     1       5.302   8.947   3.582  1.00  0.00     0.000 C 
BRANCH  18  19
ATOM     19  C   UNL     1       3.793   8.662   3.665  1.00  0.00     0.000 C 
BRANCH  19  20
ATOM     20  C   UNL     1       2.938   9.876   3.265  1.00  0.00     0.000 C 
BRANCH  20  21
ATOM     21  C   UNL     1       3.430  10.529   1.956  1.00  0.00     0.000 C 
BRANCH  21  22
ATOM     22  C   UNL     1       3.841  12.003   2.105  1.00  0.00    -0.000 C 
BRANCH  22  23
ATOM     23  C   UNL     1       4.924  12.433   1.105  1.00  0.00    -0.000 C 
BRANCH  23  24
ATOM     24  C   UNL     1       6.132  13.038   1.830  1.00  0.00    -0.000 C 
BRANCH  24  25
ATOM     25  C   UNL     1       7.381  13.025   0.937  1.00  0.00    -0.000 C 
BRANCH  25  26
ATOM     26  C   UNL     1       8.310  11.833   1.220  1.00  0.00    -0.000 C 
BRANCH  26  27
ATOM     27  C   UNL     1       7.954  10.560   0.422  1.00  0.00    -0.000 C 
BRANCH  27  28
ATOM     28  C   UNL     1       8.034   9.293   1.291  1.00  0.00    -0.000 C 
BRANCH  28  29
ATOM     29  C   UNL     1       9.424   8.641   1.268  1.00  0.00    -0.003 C 
ATOM     30  C   UNL     1       9.545   7.544   0.211  1.00  0.00     0.004 C 
ENDBRANCH  28  29
ENDBRANCH  27  28
ENDBRANCH  26  27
ENDBRANCH  25  26
ENDBRANCH  24  25
ENDBRANCH  23  24
ENDBRANCH  22  23
ENDBRANCH  21  22
ENDBRANCH  20  21
ENDBRANCH  19  20
ENDBRANCH  18  19
ENDBRANCH  17  18
ENDBRANCH   1  17
TORSDOF 26
ENDMDL
MODEL 6
REMARK VINA RESULT:    -1.774      2.466      4.082
REMARK INTER + INTRA:          -8.409
REMARK INTER:                  -5.635
REMARK INTRA:                  -2.774
REMARK UNBOUND:                -3.938
REMARK SMILES CCCCCCCCCCCCCCCCCCCCCCCCCCCC(=O)[O-]
REMARK SMILES IDX 15 1 16 2 17 3 18 4 19 5 20 6 21 7 22 8 23 9 24 10 25 11
REMARK SMILES IDX 26 12 27 13 28 14 29 15 30 16 14 17 13 18 12 19 11 20 10 21
REMARK SMILES IDX 9 22 8 23 7 24 6 25 5 26 4 27 3 28 2 29 1 30
REMARK H PARENT
REMARK Flexibility Score: inf
ROOT
ATOM      1  C   UNL     1       3.941   8.265   2.452  1.00  0.00     0.000 C 
ENDROOT
BRANCH   1   2
ATOM      2  C   UNL     1       3.023   8.967   3.468  1.00  0.00     0.000 C 
BRANCH   2   3
ATOM      3  C   UNL     1       3.184  10.496   3.456  1.00  0.00     0.000 C 
BRANCH   3   4
ATOM      4  C   UNL     1       3.921  10.994   2.194  1.00  0.00     0.000 C 
BRANCH   4   5
ATOM      5  C   UNL     1       3.825  12.513   1.975  1.00  0.00     0.000 C 
BRANCH   5   6
ATOM      6  C   UNL     1       5.123  13.125   1.428  1.00  0.00     0.000 C 
BRANCH   6   7
ATOM      7  C   UNL     1       6.316  12.772   2.330  1.00  0.00     0.000 C 
BRANCH   7   8
ATOM      8  C   UNL     1       6.642  11.266   2.322  1.00  0.00     0.000 C 
BRANCH   8   9
ATOM      9  C   UNL     1       7.726  10.848   1.311  1.00  0.00     0.000 C 
BRANCH   9  10
ATOM     10  C   UNL     1       7.274  10.831  -0.162  1.00  0.00     0.000 C 
BRANCH  10  11
ATOM     11  C   UNL     1       6.528   9.541  -0.569  1.00  0.00     0.000 C 
BRANCH  11  12
ATOM     12  C   UNL     1       6.769   8.392   0.424  1.00  0.00     0.006 C 
BRANCH  12  13
ATOM     13  C   UNL     1       7.660   7.293  -0.168  1.00  0.00     0.053 C 
BRANCH  13  14
ATOM     14  C   UNL     1       6.929   6.469  -1.185  1.00  0.00     0.041 C 
ATOM     15  O   UNL     1       6.210   5.502  -0.817  1.00  0.00    -0.550 OA
ATOM     16  O   UNL     1       7.029   6.777  -2.537  1.00  0.00    -0.550 OA
ENDBRANCH  13  14
ENDBRANCH  12  13
ENDBRANCH  11  12
ENDBRANCH  10  11
ENDBRANCH   9  10
ENDBRANCH   8   9
ENDBRANCH   7   8
ENDBRANCH   6   7
ENDBRANCH   5   6
ENDBRANCH   4   5
ENDBRANCH   3   4
ENDBRANCH   2   3
ENDBRANCH   1   2
BRANCH   1  17
ATOM     17  C   UNL     1       3.193   7.224   1.604  1.00  0.00     0.000 C 
BRANCH  17  18
ATOM     18  C   UNL     1       2.971   7.730   0.170  1.00  0.00     0.000 C 
BRANCH  18  19
ATOM     19  C   UNL     1       2.878   9.263   0.096  1.00  0.00     0.000 C 
BRANCH  19  20
ATOM     20  C   UNL     1       3.246   9.812  -1.293  1.00  0.00     0.000 C 
BRANCH  20  21
ATOM     21  C   UNL     1       3.104  11.347  -1.369  1.00  0.00     0.000 C 
BRANCH  21  22
ATOM     22  C   UNL     1       4.206  12.040  -2.188  1.00  0.00    -0.000 C 
BRANCH  22  23
ATOM     23  C   UNL     1       3.697  12.623  -3.514  1.00  0.00    -0.000 C 
BRANCH  23  24
ATOM     24  C   UNL     1       3.629  11.542  -4.599  1.00  0.00    -0.000 C 
BRANCH  24  25
ATOM     25  C   UNL     1       3.887  12.133  -5.991  1.00  0.00    -0.000 C 
BRANCH  25  26
ATOM     26  C   UNL     1       4.854  11.285  -6.835  1.00  0.00    -0.000 C 
BRANCH  26  27
ATOM     27  C   UNL     1       6.148  12.026  -7.236  1.00  0.00    -0.000 C 
BRANCH  27  28
ATOM     28  C   UNL     1       6.631  12.982  -6.133  1.00  0.00    -0.000 C 
BRANCH  28  29
ATOM     29  C   UNL     1       7.444  12.271  -5.041  1.00  0.00    -0.003 C 
ATOM     30  C   UNL     1       7.469  13.045  -3.724  1.00  0.00     0.004 C 
ENDBRANCH  28  29
ENDBRANCH  27  28
ENDBRANCH  26  27
ENDBRANCH  25  26
ENDBRANCH  24  25
ENDBRANCH  23  24
ENDBRANCH  22  23
ENDBRANCH  21  22
ENDBRANCH  20  21
ENDBRANCH  19  20
ENDBRANCH  18  19
ENDBRANCH  17  18
ENDBRANCH   1  17
TORSDOF 26
ENDMDL
MODEL 7
REMARK VINA RESULT:    -1.727      2.594      7.771
REMARK INTER + INTRA:          -8.289
REMARK INTER:                  -6.121
REMARK INTRA:                  -2.168
REMARK UNBOUND:                -3.938
REMARK SMILES CCCCCCCCCCCCCCCCCCCCCCCCCCCC(=O)[O-]
REMARK SMILES IDX 15 1 16 2 17 3 18 4 19 5 20 6 21 7 22 8 23 9 24 10 25 11
REMARK SMILES IDX 26 12 27 13 28 14 29 15 30 16 14 17 13 18 12 19 11 20 10 21
REMARK SMILES IDX 9 22 8 23 7 24 6 25 5 26 4 27 3 28 2 29 1 30
REMARK H PARENT
REMARK Flexibility Score: inf
ROOT
ATOM      1  C   UNL     1       7.710  10.884   1.277  1.00  0.00     0.000 C 
ENDROOT
BRANCH   1   2
ATOM      2  C   UNL     1       7.797  11.861   0.093  1.00  0.00     0.000 C 
BRANCH   2   3
ATOM      3  C   UNL     1       6.448  12.529  -0.226  1.00  0.00     0.000 C 
BRANCH   3   4
ATOM      4  C   UNL     1       6.416  13.125  -1.649  1.00  0.00     0.000 C 
BRANCH   4   5
ATOM      5  C   UNL     1       5.078  12.922  -2.379  1.00  0.00     0.000 C 
BRANCH   5   6
ATOM      6  C   UNL     1       4.603  11.462  -2.369  1.00  0.00     0.000 C 
BRANCH   6   7
ATOM      7  C   UNL     1       3.194  11.341  -2.969  1.00  0.00     0.000 C 
BRANCH   7   8
ATOM      8  C   UNL     1       3.207  11.276  -4.508  1.00  0.00     0.000 C 
BRANCH   8   9
ATOM      9  C   UNL     1       3.195  12.647  -5.210  1.00  0.00     0.000 C 
BRANCH   9  10
ATOM     10  C   UNL     1       4.052  12.733  -6.489  1.00  0.00     0.000 C 
BRANCH  10  11
ATOM     11  C   UNL     1       5.144  11.645  -6.582  1.00  0.00     0.000 C 
BRANCH  11  12
ATOM     12  C   UNL     1       6.287  12.047  -7.530  1.00  0.00     0.006 C 
BRANCH  12  13
ATOM     13  C   UNL     1       7.383  12.841  -6.810  1.00  0.00     0.053 C 
BRANCH  13  14
ATOM     14  C   UNL     1       7.524  12.426  -5.377  1.00  0.00     0.041 C 
ATOM     15  O   UNL     1       8.220  13.115  -4.584  1.00  0.00    -0.550 OA
ATOM     16  O   UNL     1       6.875  11.288  -4.911  1.00  0.00    -0.550 OA
ENDBRANCH  13  14
ENDBRANCH  12  13
ENDBRANCH  11  12
ENDBRANCH  10  11
ENDBRANCH   9  10
ENDBRANCH   8   9
ENDBRANCH   7   8
ENDBRANCH   6   7
ENDBRANCH   5   6
ENDBRANCH   4   5
ENDBRANCH   3   4
ENDBRANCH   2   3
ENDBRANCH   1   2
BRANCH   1  17
ATOM     17  C   UNL     1       8.389   9.537   0.980  1.00  0.00     0.000 C 
BRANCH  17  18
ATOM     18  C   UNL     1       7.391   8.374   1.090  1.00  0.00     0.000 C 
BRANCH  18  19
ATOM     19  C   UNL     1       7.141   7.685  -0.262  1.00  0.00     0.000 C 
BRANCH  19  20
ATOM     20  C   UNL     1       6.099   8.423  -1.120  1.00  0.00     0.000 C 
BRANCH  20  21
ATOM     21  C   UNL     1       4.750   8.583  -0.387  1.00  0.00     0.000 C 
BRANCH  21  22
ATOM     22  C   UNL     1       4.276   7.315   0.341  1.00  0.00    -0.000 C 
BRANCH  22  23
ATOM     23  C   UNL     1       3.334   7.609   1.518  1.00  0.00    -0.000 C 
BRANCH  23  24
ATOM     24  C   UNL     1       3.233   9.117   1.776  1.00  0.00    -0.000 C 
BRANCH  24  25
ATOM     25  C   UNL     1       4.073   9.531   2.992  1.00  0.00    -0.000 C 
BRANCH  25  26
ATOM     26  C   UNL     1       4.527   8.334   3.845  1.00  0.00    -0.000 C 
BRANCH  26  27
ATOM     27  C   UNL     1       6.046   8.306   4.124  1.00  0.00    -0.000 C 
BRANCH  27  28
ATOM     28  C   UNL     1       6.583   6.870   4.248  1.00  0.00    -0.000 C 
BRANCH  28  29
ATOM     29  C   UNL     1       6.421   6.060   2.954  1.00  0.00    -0.003 C 
ATOM     30  C   UNL     1       6.351   4.554   3.204  1.00  0.00     0.004 C 
ENDBRANCH  28  29
ENDBRANCH  27  28
ENDBRANCH  26  27
ENDBRANCH  25  26
ENDBRANCH  24  25
ENDBRANCH  23  24
ENDBRANCH  22  23
ENDBRANCH  21  22
ENDBRANCH  20  21
ENDBRANCH  19  20
ENDBRANCH  18  19
ENDBRANCH  17  18
ENDBRANCH   1  17
TORSDOF 26
ENDMDL
MODEL 8
REMARK VINA RESULT:    -1.540      2.633      5.571
REMARK INTER + INTRA:          -7.819
REMARK INTER:                  -3.950
REMARK INTRA:                  -3.868
REMARK UNBOUND:                -3.938
REMARK SMILES CCCCCCCCCCCCCCCCCCCCCCCCCCCC(=O)[O-]
REMARK SMILES IDX 15 1 16 2 17 3 18 4 19 5 20 6 21 7 22 8 23 9 24 10 25 11
REMARK SMILES IDX 26 12 27 13 28 14 29 15 30 16 14 17 13 18 12 19 11 20 10 21
REMARK SMILES IDX 9 22 8 23 7 24 6 25 5 26 4 27 3 28 2 29 1 30
REMARK H PARENT
REMARK Flexibility Score: inf
ROOT
ATOM      1  C   UNL     1       6.716   6.924   3.119  1.00  0.00     0.000 C 
ENDROOT
BRANCH   1   2
ATOM      2  C   UNL     1       5.728   7.823   3.881  1.00  0.00     0.000 C 
BRANCH   2   3
ATOM      3  C   UNL     1       4.304   7.764   3.301  1.00  0.00     0.000 C 
BRANCH   3   4
ATOM      4  C   UNL     1       3.521   9.071   3.548  1.00  0.00     0.000 C 
BRANCH   4   5
ATOM      5  C   UNL     1       3.755  10.150   2.479  1.00  0.00     0.000 C 
BRANCH   5   6
ATOM      6  C   UNL     1       3.005  11.458   2.769  1.00  0.00     0.000 C 
BRANCH   6   7
ATOM      7  C   UNL     1       3.813  12.671   2.285  1.00  0.00     0.000 C 
BRANCH   7   8
ATOM      8  C   UNL     1       3.427  13.114   0.861  1.00  0.00     0.000 C 
BRANCH   8   9
ATOM      9  C   UNL     1       3.916  12.176  -0.259  1.00  0.00     0.000 C 
BRANCH   9  10
ATOM     10  C   UNL     1       2.875  11.867  -1.353  1.00  0.00     0.000 C 
BRANCH  10  11
ATOM     11  C   UNL     1       3.000  12.766  -2.603  1.00  0.00     0.000 C 
BRANCH  11  12
ATOM     12  C   UNL     1       3.338  11.960  -3.868  1.00  0.00     0.006 C 
BRANCH  12  13
ATOM     13  C   UNL     1       3.336  12.833  -5.129  1.00  0.00     0.053 C 
BRANCH  13  14
ATOM     14  C   UNL     1       4.287  12.319  -6.167  1.00  0.00     0.041 C 
ATOM     15  O   UNL     1       5.528  12.470  -6.017  1.00  0.00    -0.550 OA
ATOM     16  O   UNL     1       3.805  11.659  -7.291  1.00  0.00    -0.550 OA
ENDBRANCH  13  14
ENDBRANCH  12  13
ENDBRANCH  11  12
ENDBRANCH  10  11
ENDBRANCH   9  10
ENDBRANCH   8   9
ENDBRANCH   7   8
ENDBRANCH   6   7
ENDBRANCH   5   6
ENDBRANCH   4   5
ENDBRANCH   3   4
ENDBRANCH   2   3
ENDBRANCH   1   2
BRANCH   1  17
ATOM     17  C   UNL     1       6.065   6.221   1.917  1.00  0.00     0.000 C 
BRANCH  17  18
ATOM     18  C   UNL     1       6.390   6.948   0.603  1.00  0.00     0.000 C 
BRANCH  18  19
ATOM     19  C   UNL     1       5.127   7.309  -0.196  1.00  0.00     0.000 C 
BRANCH  19  20
ATOM     20  C   UNL     1       4.990   8.823  -0.436  1.00  0.00     0.000 C 
BRANCH  20  21
ATOM     21  C   UNL     1       6.197   9.401  -1.205  1.00  0.00     0.000 C 
BRANCH  21  22
ATOM     22  C   UNL     1       5.894   9.765  -2.669  1.00  0.00    -0.000 C 
BRANCH  22  23
ATOM     23  C   UNL     1       6.591  11.053  -3.129  1.00  0.00    -0.000 C 
BRANCH  23  24
ATOM     24  C   UNL     1       6.469  12.153  -2.066  1.00  0.00    -0.000 C 
BRANCH  24  25
ATOM     25  C   UNL     1       7.824  12.442  -1.407  1.00  0.00    -0.000 C 
BRANCH  25  26
ATOM     26  C   UNL     1       7.692  13.037   0.005  1.00  0.00    -0.000 C 
BRANCH  26  27
ATOM     27  C   UNL     1       8.219  12.113   1.124  1.00  0.00    -0.000 C 
BRANCH  27  28
ATOM     28  C   UNL     1       7.178  11.062   1.543  1.00  0.00    -0.000 C 
BRANCH  28  29
ATOM     29  C   UNL     1       7.793   9.677   1.789  1.00  0.00    -0.003 C 
ATOM     30  C   UNL     1       9.131   9.489   1.074  1.00  0.00     0.004 C 
ENDBRANCH  28  29
ENDBRANCH  27  28
ENDBRANCH  26  27
ENDBRANCH  25  26
ENDBRANCH  24  25
ENDBRANCH  23  24
ENDBRANCH  22  23
ENDBRANCH  21  22
ENDBRANCH  20  21
ENDBRANCH  19  20
ENDBRANCH  18  19
ENDBRANCH  17  18
ENDBRANCH   1  17
TORSDOF 26
ENDMDL
MODEL 9
REMARK VINA RESULT:    -1.282      2.367      5.235
REMARK INTER + INTRA:          -7.170
REMARK INTER:                  -4.516
REMARK INTRA:                  -2.654
REMARK UNBOUND:                -3.938
REMARK SMILES CCCCCCCCCCCCCCCCCCCCCCCCCCCC(=O)[O-]
REMARK SMILES IDX 15 1 16 2 17 3 18 4 19 5 20 6 21 7 22 8 23 9 24 10 25 11
REMARK SMILES IDX 26 12 27 13 28 14 29 15 30 16 14 17 13 18 12 19 11 20 10 21
REMARK SMILES IDX 9 22 8 23 7 24 6 25 5 26 4 27 3 28 2 29 1 30
REMARK H PARENT
REMARK Flexibility Score: inf
ROOT
ATOM      1  C   UNL     1       4.195  10.524  -0.534  1.00  0.00     0.000 C 
ENDROOT
BRANCH   1   2
ATOM      2  C   UNL     1       2.941   9.685  -0.830  1.00  0.00     0.000 C 
BRANCH   2   3
ATOM      3  C   UNL     1       2.875   8.400   0.013  1.00  0.00     0.000 C 
BRANCH   3   4
ATOM      4  C   UNL     1       3.845   8.440   1.213  1.00  0.00     0.000 C 
BRANCH   4   5
ATOM      5  C   UNL     1       3.288   9.183   2.439  1.00  0.00     0.000 C 
BRANCH   5   6
ATOM      6  C   UNL     1       3.856   8.661   3.767  1.00  0.00     0.000 C 
BRANCH   6   7
ATOM      7  C   UNL     1       5.333   9.054   3.922  1.00  0.00     0.000 C 
BRANCH   7   8
ATOM      8  C   UNL     1       6.278   7.838   3.898  1.00  0.00     0.000 C 
BRANCH   8   9
ATOM      9  C   UNL     1       5.628   6.528   3.414  1.00  0.00     0.000 C 
BRANCH   9  10
ATOM     10  C   UNL     1       6.610   5.365   3.168  1.00  0.00     0.000 C 
BRANCH  10  11
ATOM     11  C   UNL     1       6.714   4.940   1.687  1.00  0.00     0.000 C 
BRANCH  11  12
ATOM     12  C   UNL     1       5.986   5.918   0.749  1.00  0.00     0.006 C 
BRANCH  12  13
ATOM     13  C   UNL     1       6.896   7.063   0.288  1.00  0.00     0.053 C 
BRANCH  13  14
ATOM     14  C   UNL     1       7.261   6.938  -1.161  1.00  0.00     0.041 C 
ATOM     15  O   UNL     1       6.654   7.623  -2.027  1.00  0.00    -0.550 OA
ATOM     16  O   UNL     1       8.281   6.080  -1.553  1.00  0.00    -0.550 OA
ENDBRANCH  13  14
ENDBRANCH  12  13
ENDBRANCH  11  12
ENDBRANCH  10  11
ENDBRANCH   9  10
ENDBRANCH   8   9
ENDBRANCH   7   8
ENDBRANCH   6   7
ENDBRANCH   5   6
ENDBRANCH   4   5
ENDBRANCH   3   4
ENDBRANCH   2   3
ENDBRANCH   1   2
BRANCH   1  17
ATOM     17  C   UNL     1       3.879  11.786   0.285  1.00  0.00     0.000 C 
BRANCH  17  18
ATOM     18  C   UNL     1       5.165  12.488   0.746  1.00  0.00     0.000 C 
BRANCH  18  19
ATOM     19  C   UNL     1       6.202  11.503   1.311  1.00  0.00     0.000 C 
BRANCH  19  20
ATOM     20  C   UNL     1       7.417  11.324   0.384  1.00  0.00     0.000 C 
BRANCH  20  21
ATOM     21  C   UNL     1       7.809  12.639  -0.322  1.00  0.00     0.000 C 
BRANCH  21  22
ATOM     22  C   UNL     1       7.699  12.586  -1.855  1.00  0.00    -0.000 C 
BRANCH  22  23
ATOM     23  C   UNL     1       6.322  13.019  -2.378  1.00  0.00    -0.000 C 
BRANCH  23  24
ATOM     24  C   UNL     1       6.272  12.959  -3.910  1.00  0.00    -0.000 C 
BRANCH  24  25
ATOM     25  C   UNL     1       6.285  11.509  -4.410  1.00  0.00    -0.000 C 
BRANCH  25  26
ATOM     26  C   UNL     1       5.682  11.352  -5.817  1.00  0.00    -0.000 C 
BRANCH  26  27
ATOM     27  C   UNL     1       4.888  12.586  -6.298  1.00  0.00    -0.000 C 
BRANCH  27  28
ATOM     28  C   UNL     1       3.637  12.191  -7.099  1.00  0.00    -0.000 C 
BRANCH  28  29
ATOM     29  C   UNL     1       3.870  10.975  -8.008  1.00  0.00    -0.003 C 
ATOM     30  C   UNL     1       2.970   9.792  -7.654  1.00  0.00     0.004 C 
ENDBRANCH  28  29
ENDBRANCH  27  28
ENDBRANCH  26  27
ENDBRANCH  25  26
ENDBRANCH  24  25
ENDBRANCH  23  24
ENDBRANCH  22  23
ENDBRANCH  21  22
ENDBRANCH  20  21
ENDBRANCH  19  20
ENDBRANCH  18  19
ENDBRANCH  17  18
ENDBRANCH   1  17
TORSDOF 26
ENDMDL
