MODEL 1
REMARK VINA RESULT:    26.441      0.000      0.000
REMARK INTER + INTRA:          65.304
REMARK INTER:                  66.631
REMARK INTRA:                  -1.327
REMARK UNBOUND:                -1.327
REMARK SMILES CCCCCCCCCCCCCCCCCCCCCCCCCCCC(=O)[O-]
REMARK SMILES IDX 15 1 16 2 17 3 18 4 19 5 20 6 21 7 22 8 23 9 24 10 25 11
REMARK SMILES IDX 26 12 27 13 28 14 29 15 30 16 14 17 13 18 12 19 11 20 10 21
REMARK SMILES IDX 9 22 8 23 7 24 6 25 5 26 4 27 3 28 2 29 1 30
REMARK H PARENT
REMARK Flexibility Score: inf
ROOT
ATOM      1  C   UNL     1       6.100  16.886  42.979  1.00  0.00     0.000 C 
ENDROOT
BRANCH   1   2
ATOM      2  C   UNL     1       5.367  16.955  44.328  1.00  0.00     0.000 C 
BRANCH   2   3
ATOM      3  C   UNL     1       5.107  18.401  44.784  1.00  0.00     0.000 C 
BRANCH   3   4
ATOM      4  C   UNL     1       5.833  18.749  46.094  1.00  0.00     0.000 C 
BRANCH   4   5
ATOM      5  C   UNL     1       5.344  17.903  47.289  1.00  0.00     0.000 C 
BRANCH   5   6
ATOM      6  C   UNL     1       6.330  17.853  48.471  1.00  0.00     0.000 C 
BRANCH   6   7
ATOM      7  C   UNL     1       6.274  19.057  49.432  1.00  0.00     0.000 C 
BRANCH   7   8
ATOM      8  C   UNL     1       4.861  19.578  49.759  1.00  0.00     0.000 C 
BRANCH   8   9
ATOM      9  C   UNL     1       4.804  20.392  51.063  1.00  0.00     0.000 C 
BRANCH   9  10
ATOM     10  C   UNL     1       4.030  19.669  52.180  1.00  0.00     0.000 C 
BRANCH  10  11
ATOM     11  C   UNL     1       3.937  20.440  53.510  1.00  0.00     0.000 C 
BRANCH  11  12
ATOM     12  C   UNL     1       5.214  21.237  53.860  1.00  0.00     0.006 C 
BRANCH  12  13
ATOM     13  C   UNL     1       5.405  21.450  55.369  1.00  0.00     0.053 C 
BRANCH  13  14
ATOM     14  C   UNL     1       6.815  21.182  55.801  1.00  0.00     0.041 C 
ATOM     15  O   UNL     1       7.651  22.125  55.848  1.00  0.00    -0.550 OA
ATOM     16  O   UNL     1       7.214  19.890  56.125  1.00  0.00    -0.550 OA
ENDBRANCH  13  14
ENDBRANCH  12  13
ENDBRANCH  11  12
ENDBRANCH  10  11
ENDBRANCH   9  10
ENDBRANCH   8   9
ENDBRANCH   7   8
ENDBRANCH   6   7
ENDBRANCH   5   6
ENDBRANCH   4   5
ENDBRANCH   3   4
ENDBRANCH   2   3
ENDBRANCH   1   2
BRANCH   1  17
ATOM     17  C   UNL     1       7.118  15.736  42.966  1.00  0.00     0.000 C 
BRANCH  17  18
ATOM     18  C   UNL     1       8.186  15.881  44.061  1.00  0.00     0.000 C 
BRANCH  18  19
ATOM     19  C   UNL     1       8.836  14.535  44.427  1.00  0.00     0.000 C 
BRANCH  19  20
ATOM     20  C   UNL     1      10.332  14.485  44.079  1.00  0.00     0.000 C 
BRANCH  20  21
ATOM     21  C   UNL     1      10.705  13.256  43.237  1.00  0.00     0.000 C 
BRANCH  21  22
ATOM     22  C   UNL     1      12.229  13.060  43.203  1.00  0.00    -0.000 C 
BRANCH  22  23
ATOM     23  C   UNL     1      12.641  11.652  42.745  1.00  0.00    -0.000 C 
BRANCH  23  24
ATOM     24  C   UNL     1      13.529  10.933  43.774  1.00  0.00    -0.000 C 
BRANCH  24  25
ATOM     25  C   UNL     1      15.020  11.298  43.642  1.00  0.00    -0.000 C 
BRANCH  25  26
ATOM     26  C   UNL     1      15.749  11.578  44.969  1.00  0.00    -0.000 C 
BRANCH  26  27
ATOM     27  C   UNL     1      14.882  11.281  46.206  1.00  0.00    -0.000 C 
BRANCH  27  28
ATOM     28  C   UNL     1      15.525  11.781  47.510  1.00  0.00    -0.000 C 
BRANCH  28  29
ATOM     29  C   UNL     1      14.917  13.104  48.000  1.00  0.00    -0.003 C 
ATOM     30  C   UNL     1      15.759  13.711  49.121  1.00  0.00     0.004 C 
ENDBRANCH  28  29
ENDBRANCH  27  28
ENDBRANCH  26  27
ENDBRANCH  25  26
ENDBRANCH  24  25
ENDBRANCH  23  24
ENDBRANCH  22  23
ENDBRANCH  21  22
ENDBRANCH  20  21
ENDBRANCH  19  20
ENDBRANCH  18  19
ENDBRANCH  17  18
ENDBRANCH   1  17
TORSDOF 26
ENDMDL
MODEL 2
REMARK VINA RESULT:    27.102      8.029     11.066
REMARK INTER + INTRA:          66.970
REMARK INTER:                  68.050
REMARK INTRA:                  -1.080
REMARK UNBOUND:                -1.327
REMARK SMILES CCCCCCCCCCCCCCCCCCCCCCCCCCCC(=O)[O-]
REMARK SMILES IDX 15 1 16 2 17 3 18 4 19 5 20 6 21 7 22 8 23 9 24 10 25 11
REMARK SMILES IDX 26 12 27 13 28 14 29 15 30 16 14 17 13 18 12 19 11 20 10 21
REMARK SMILES IDX 9 22 8 23 7 24 6 25 5 26 4 27 3 28 2 29 1 30
REMARK H PARENT
REMARK Flexibility Score: inf
ROOT
ATOM      1  C   UNL     1       2.818  10.283  44.951  1.00  0.00     0.000 C 
ENDROOT
BRANCH   1   2
ATOM      2  C   UNL     1       4.334  10.531  44.907  1.00  0.00     0.000 C 
BRANCH   2   3
ATOM      3  C   UNL     1       4.955  10.140  43.556  1.00  0.00     0.000 C 
BRANCH   3   4
ATOM      4  C   UNL     1       6.428  10.565  43.437  1.00  0.00     0.000 C 
BRANCH   4   5
ATOM      5  C   UNL     1       6.755  11.822  44.270  1.00  0.00     0.000 C 
BRANCH   5   6
ATOM      6  C   UNL     1       7.906  11.631  45.276  1.00  0.00     0.000 C 
BRANCH   6   7
ATOM      7  C   UNL     1       9.001  12.716  45.244  1.00  0.00     0.000 C 
BRANCH   7   8
ATOM      8  C   UNL     1       8.809  13.819  44.186  1.00  0.00     0.000 C 
BRANCH   8   9
ATOM      9  C   UNL     1       9.242  15.211  44.679  1.00  0.00     0.000 C 
BRANCH   9  10
ATOM     10  C   UNL     1       9.548  15.238  46.187  1.00  0.00     0.000 C 
BRANCH  10  11
ATOM     11  C   UNL     1       8.755  16.284  46.993  1.00  0.00     0.000 C 
BRANCH  11  12
ATOM     12  C   UNL     1       7.222  16.134  46.870  1.00  0.00     0.006 C 
BRANCH  12  13
ATOM     13  C   UNL     1       6.457  17.433  47.168  1.00  0.00     0.053 C 
BRANCH  13  14
ATOM     14  C   UNL     1       5.749  17.959  45.956  1.00  0.00     0.041 C 
ATOM     15  O   UNL     1       5.398  17.170  45.037  1.00  0.00    -0.550 OA
ATOM     16  O   UNL     1       5.501  19.321  45.828  1.00  0.00    -0.550 OA
ENDBRANCH  13  14
ENDBRANCH  12  13
ENDBRANCH  11  12
ENDBRANCH  10  11
ENDBRANCH   9  10
ENDBRANCH   8   9
ENDBRANCH   7   8
ENDBRANCH   6   7
ENDBRANCH   5   6
ENDBRANCH   4   5
ENDBRANCH   3   4
ENDBRANCH   2   3
ENDBRANCH   1   2
BRANCH   1  17
ATOM     17  C   UNL     1       2.261  10.537  46.361  1.00  0.00     0.000 C 
BRANCH  17  18
ATOM     18  C   UNL     1       2.002   9.235  47.136  1.00  0.00     0.000 C 
BRANCH  18  19
ATOM     19  C   UNL     1       3.232   8.781  47.943  1.00  0.00     0.000 C 
BRANCH  19  20
ATOM     20  C   UNL     1       3.041   8.950  49.459  1.00  0.00     0.000 C 
BRANCH  20  21
ATOM     21  C   UNL     1       4.370   8.941  50.230  1.00  0.00     0.000 C 
BRANCH  21  22
ATOM     22  C   UNL     1       4.120   8.958  51.745  1.00  0.00    -0.000 C 
BRANCH  22  23
ATOM     23  C   UNL     1       2.856   9.741  52.134  1.00  0.00    -0.000 C 
BRANCH  23  24
ATOM     24  C   UNL     1       2.299   9.319  53.505  1.00  0.00    -0.000 C 
BRANCH  24  25
ATOM     25  C   UNL     1       2.552  10.367  54.606  1.00  0.00    -0.000 C 
BRANCH  25  26
ATOM     26  C   UNL     1       3.952  10.324  55.245  1.00  0.00    -0.000 C 
BRANCH  26  27
ATOM     27  C   UNL     1       4.548   8.906  55.296  1.00  0.00    -0.000 C 
BRANCH  27  28
ATOM     28  C   UNL     1       3.603   7.894  55.963  1.00  0.00    -0.000 C 
BRANCH  28  29
ATOM     29  C   UNL     1       3.662   6.506  55.308  1.00  0.00    -0.003 C 
ATOM     30  C   UNL     1       3.931   6.620  53.808  1.00  0.00     0.004 C 
ENDBRANCH  28  29
ENDBRANCH  27  28
ENDBRANCH  26  27
ENDBRANCH  25  26
ENDBRANCH  24  25
ENDBRANCH  23  24
ENDBRANCH  22  23
ENDBRANCH  21  22
ENDBRANCH  20  21
ENDBRANCH  19  20
ENDBRANCH  18  19
ENDBRANCH  17  18
ENDBRANCH   1  17
TORSDOF 26
ENDMDL
MODEL 3
REMARK VINA RESULT:    28.194      3.249     12.165
REMARK INTER + INTRA:          69.721
REMARK INTER:                  70.754
REMARK INTRA:                  -1.033
REMARK UNBOUND:                -1.327
REMARK SMILES CCCCCCCCCCCCCCCCCCCCCCCCCCCC(=O)[O-]
REMARK SMILES IDX 15 1 16 2 17 3 18 4 19 5 20 6 21 7 22 8 23 9 24 10 25 11
REMARK SMILES IDX 26 12 27 13 28 14 29 15 30 16 14 17 13 18 12 19 11 20 10 21
REMARK SMILES IDX 9 22 8 23 7 24 6 25 5 26 4 27 3 28 2 29 1 30
REMARK H PARENT
REMARK Flexibility Score: inf
ROOT
ATOM      1  C   UNL     1       8.854  14.615  45.474  1.00  0.00     0.000 C 
ENDROOT
BRANCH   1   2
ATOM      2  C   UNL     1       8.551  14.511  43.971  1.00  0.00     0.000 C 
BRANCH   2   3
ATOM      3  C   UNL     1       9.817  14.627  43.106  1.00  0.00     0.000 C 
BRANCH   3   4
ATOM      4  C   UNL     1      11.108  14.407  43.912  1.00  0.00     0.000 C 
BRANCH   4   5
ATOM      5  C   UNL     1      12.254  13.828  43.056  1.00  0.00     0.000 C 
BRANCH   5   6
ATOM      6  C   UNL     1      12.156  12.310  42.815  1.00  0.00     0.000 C 
BRANCH   6   7
ATOM      7  C   UNL     1      13.121  11.443  43.647  1.00  0.00     0.000 C 
BRANCH   7   8
ATOM      8  C   UNL     1      14.619  11.747  43.454  1.00  0.00     0.000 C 
BRANCH   8   9
ATOM      9  C   UNL     1      15.538  10.746  44.176  1.00  0.00     0.000 C 
BRANCH   9  10
ATOM     10  C   UNL     1      15.176  10.572  45.661  1.00  0.00     0.000 C 
BRANCH  10  11
ATOM     11  C   UNL     1      14.761  11.867  46.385  1.00  0.00     0.000 C 
BRANCH  11  12
ATOM     12  C   UNL     1      15.848  12.428  47.330  1.00  0.00     0.006 C 
BRANCH  12  13
ATOM     13  C   UNL     1      15.334  12.709  48.750  1.00  0.00     0.053 C 
BRANCH  13  14
ATOM     14  C   UNL     1      14.013  13.419  48.739  1.00  0.00     0.041 C 
ATOM     15  O   UNL     1      13.767  14.281  47.853  1.00  0.00    -0.550 OA
ATOM     16  O   UNL     1      13.066  13.149  49.721  1.00  0.00    -0.550 OA
ENDBRANCH  13  14
ENDBRANCH  12  13
ENDBRANCH  11  12
ENDBRANCH  10  11
ENDBRANCH   9  10
ENDBRANCH   8   9
ENDBRANCH   7   8
ENDBRANCH   6   7
ENDBRANCH   5   6
ENDBRANCH   4   5
ENDBRANCH   3   4
ENDBRANCH   2   3
ENDBRANCH   1   2
BRANCH   1  17
ATOM     17  C   UNL     1       8.079  15.778  46.111  1.00  0.00     0.000 C 
BRANCH  17  18
ATOM     18  C   UNL     1       6.615  15.836  45.645  1.00  0.00     0.000 C 
BRANCH  18  19
ATOM     19  C   UNL     1       5.681  16.419  46.721  1.00  0.00     0.000 C 
BRANCH  19  20
ATOM     20  C   UNL     1       6.339  17.552  47.525  1.00  0.00     0.000 C 
BRANCH  20  21
ATOM     21  C   UNL     1       5.603  18.892  47.374  1.00  0.00     0.000 C 
BRANCH  21  22
ATOM     22  C   UNL     1       4.949  19.306  48.701  1.00  0.00    -0.000 C 
BRANCH  22  23
ATOM     23  C   UNL     1       5.890  19.146  49.906  1.00  0.00    -0.000 C 
BRANCH  23  24
ATOM     24  C   UNL     1       5.964  20.417  50.771  1.00  0.00    -0.000 C 
BRANCH  24  25
ATOM     25  C   UNL     1       5.717  20.142  52.266  1.00  0.00    -0.000 C 
BRANCH  25  26
ATOM     26  C   UNL     1       4.301  20.473  52.771  1.00  0.00    -0.000 C 
BRANCH  26  27
ATOM     27  C   UNL     1       4.237  21.790  53.564  1.00  0.00    -0.000 C 
BRANCH  27  28
ATOM     28  C   UNL     1       3.647  21.603  54.972  1.00  0.00    -0.000 C 
BRANCH  28  29
ATOM     29  C   UNL     1       4.630  21.998  56.084  1.00  0.00    -0.003 C 
ATOM     30  C   UNL     1       6.053  22.115  55.540  1.00  0.00     0.004 C 
ENDBRANCH  28  29
ENDBRANCH  27  28
ENDBRANCH  26  27
ENDBRANCH  25  26
ENDBRANCH  24  25
ENDBRANCH  23  24
ENDBRANCH  22  23
ENDBRANCH  21  22
ENDBRANCH  20  21
ENDBRANCH  19  20
ENDBRANCH  18  19
ENDBRANCH  17  18
ENDBRANCH   1  17
TORSDOF 26
ENDMDL
MODEL 4
REMARK VINA RESULT:    28.210      7.990      9.859
REMARK INTER + INTRA:          69.762
REMARK INTER:                  69.960
REMARK INTRA:                  -0.198
REMARK UNBOUND:                -1.327
REMARK SMILES CCCCCCCCCCCCCCCCCCCCCCCCCCCC(=O)[O-]
REMARK SMILES IDX 15 1 16 2 17 3 18 4 19 5 20 6 21 7 22 8 23 9 24 10 25 11
REMARK SMILES IDX 26 12 27 13 28 14 29 15 30 16 14 17 13 18 12 19 11 20 10 21
REMARK SMILES IDX 9 22 8 23 7 24 6 25 5 26 4 27 3 28 2 29 1 30
REMARK H PARENT
REMARK Flexibility Score: inf
ROOT
ATOM      1  C   UNL     1       3.239  10.506  45.144  1.00  0.00     0.000 C 
ENDROOT
BRANCH   1   2
ATOM      2  C   UNL     1       1.992  10.392  46.034  1.00  0.00     0.000 C 
BRANCH   2   3
ATOM      3  C   UNL     1       2.129   9.294  47.102  1.00  0.00     0.000 C 
BRANCH   3   4
ATOM      4  C   UNL     1       0.800   8.992  47.816  1.00  0.00     0.000 C 
BRANCH   4   5
ATOM      5  C   UNL     1       0.325  10.159  48.708  1.00  0.00     0.000 C 
BRANCH   5   6
ATOM      6  C   UNL     1       0.428   9.879  50.219  1.00  0.00     0.000 C 
BRANCH   6   7
ATOM      7  C   UNL     1       1.757   9.255  50.689  1.00  0.00     0.000 C 
BRANCH   7   8
ATOM      8  C   UNL     1       2.180   9.604  52.129  1.00  0.00     0.000 C 
BRANCH   8   9
ATOM      9  C   UNL     1       3.588   9.097  52.485  1.00  0.00     0.000 C 
BRANCH   9  10
ATOM     10  C   UNL     1       4.340  10.048  53.433  1.00  0.00     0.000 C 
BRANCH  10  11
ATOM     11  C   UNL     1       3.703  10.216  54.826  1.00  0.00     0.000 C 
BRANCH  11  12
ATOM     12  C   UNL     1       2.999   8.942  55.346  1.00  0.00     0.006 C 
BRANCH  12  13
ATOM     13  C   UNL     1       3.977   7.849  55.802  1.00  0.00     0.053 C 
BRANCH  13  14
ATOM     14  C   UNL     1       3.774   6.566  55.054  1.00  0.00     0.041 C 
ATOM     15  O   UNL     1       3.922   5.461  55.644  1.00  0.00    -0.550 OA
ATOM     16  O   UNL     1       3.448   6.588  53.703  1.00  0.00    -0.550 OA
ENDBRANCH  13  14
ENDBRANCH  12  13
ENDBRANCH  11  12
ENDBRANCH  10  11
ENDBRANCH   9  10
ENDBRANCH   8   9
ENDBRANCH   7   8
ENDBRANCH   6   7
ENDBRANCH   5   6
ENDBRANCH   4   5
ENDBRANCH   3   4
ENDBRANCH   2   3
ENDBRANCH   1   2
BRANCH   1  17
ATOM     17  C   UNL     1       4.475  10.878  45.977  1.00  0.00     0.000 C 
BRANCH  17  18
ATOM     18  C   UNL     1       5.757  10.950  45.131  1.00  0.00     0.000 C 
BRANCH  18  19
ATOM     19  C   UNL     1       6.884  11.720  45.842  1.00  0.00     0.000 C 
BRANCH  19  20
ATOM     20  C   UNL     1       8.165  11.808  44.997  1.00  0.00     0.000 C 
BRANCH  20  21
ATOM     21  C   UNL     1       8.937  13.117  45.224  1.00  0.00     0.000 C 
BRANCH  21  22
ATOM     22  C   UNL     1       9.679  13.540  43.947  1.00  0.00    -0.000 C 
BRANCH  22  23
ATOM     23  C   UNL     1       9.820  15.065  43.815  1.00  0.00    -0.000 C 
BRANCH  23  24
ATOM     24  C   UNL     1       8.476  15.797  43.968  1.00  0.00    -0.000 C 
BRANCH  24  25
ATOM     25  C   UNL     1       7.894  15.694  45.390  1.00  0.00    -0.000 C 
BRANCH  25  26
ATOM     26  C   UNL     1       6.363  15.546  45.465  1.00  0.00    -0.000 C 
BRANCH  26  27
ATOM     27  C   UNL     1       5.676  16.733  46.164  1.00  0.00    -0.000 C 
BRANCH  27  28
ATOM     28  C   UNL     1       6.662  17.587  46.977  1.00  0.00    -0.000 C 
BRANCH  28  29
ATOM     29  C   UNL     1       6.128  17.941  48.373  1.00  0.00    -0.003 C 
ATOM     30  C   UNL     1       7.172  17.650  49.450  1.00  0.00     0.004 C 
ENDBRANCH  28  29
ENDBRANCH  27  28
ENDBRANCH  26  27
ENDBRANCH  25  26
ENDBRANCH  24  25
ENDBRANCH  23  24
ENDBRANCH  22  23
ENDBRANCH  21  22
ENDBRANCH  20  21
ENDBRANCH  19  20
ENDBRANCH  18  19
ENDBRANCH  17  18
ENDBRANCH   1  17
TORSDOF 26
ENDMDL
MODEL 5
REMARK VINA RESULT:    28.403      8.343     11.538
REMARK INTER + INTRA:          70.247
REMARK INTER:                  70.376
REMARK INTRA:                  -0.130
REMARK UNBOUND:                -1.327
REMARK SMILES CCCCCCCCCCCCCCCCCCCCCCCCCCCC(=O)[O-]
REMARK SMILES IDX 15 1 16 2 17 3 18 4 19 5 20 6 21 7 22 8 23 9 24 10 25 11
REMARK SMILES IDX 26 12 27 13 28 14 29 15 30 16 14 17 13 18 12 19 11 20 10 21
REMARK SMILES IDX 9 22 8 23 7 24 6 25 5 26 4 27 3 28 2 29 1 30
REMARK H PARENT
REMARK Flexibility Score: inf
ROOT
ATOM      1  C   UNL     1       2.660   8.788  46.948  1.00  0.00     0.000 C 
ENDROOT
BRANCH   1   2
ATOM      2  C   UNL     1       2.747  10.001  46.009  1.00  0.00     0.000 C 
BRANCH   2   3
ATOM      3  C   UNL     1       4.197  10.456  45.767  1.00  0.00     0.000 C 
BRANCH   3   4
ATOM      4  C   UNL     1       4.608  10.361  44.288  1.00  0.00     0.000 C 
BRANCH   4   5
ATOM      5  C   UNL     1       6.065  10.810  44.045  1.00  0.00     0.000 C 
BRANCH   5   6
ATOM      6  C   UNL     1       6.830  11.191  45.327  1.00  0.00     0.000 C 
BRANCH   6   7
ATOM      7  C   UNL     1       8.322  11.526  45.133  1.00  0.00     0.000 C 
BRANCH   7   8
ATOM      8  C   UNL     1       8.717  12.984  45.437  1.00  0.00     0.000 C 
BRANCH   8   9
ATOM      9  C   UNL     1       9.235  13.740  44.200  1.00  0.00     0.000 C 
BRANCH   9  10
ATOM     10  C   UNL     1       8.743  15.197  44.147  1.00  0.00     0.000 C 
BRANCH  10  11
ATOM     11  C   UNL     1       7.384  15.451  44.825  1.00  0.00     0.000 C 
BRANCH  11  12
ATOM     12  C   UNL     1       7.390  16.644  45.807  1.00  0.00     0.006 C 
BRANCH  12  13
ATOM     13  C   UNL     1       6.036  16.873  46.496  1.00  0.00     0.053 C 
BRANCH  13  14
ATOM     14  C   UNL     1       6.183  17.610  47.793  1.00  0.00     0.041 C 
ATOM     15  O   UNL     1       6.968  17.178  48.680  1.00  0.00    -0.550 OA
ATOM     16  O   UNL     1       5.435  18.758  48.034  1.00  0.00    -0.550 OA
ENDBRANCH  13  14
ENDBRANCH  12  13
ENDBRANCH  11  12
ENDBRANCH  10  11
ENDBRANCH   9  10
ENDBRANCH   8   9
ENDBRANCH   7   8
ENDBRANCH   6   7
ENDBRANCH   5   6
ENDBRANCH   4   5
ENDBRANCH   3   4
ENDBRANCH   2   3
ENDBRANCH   1   2
BRANCH   1  17
ATOM     17  C   UNL     1       1.428   8.889  47.860  1.00  0.00     0.000 C 
BRANCH  17  18
ATOM     18  C   UNL     1       1.781   9.368  49.278  1.00  0.00     0.000 C 
BRANCH  18  19
ATOM     19  C   UNL     1       3.167   8.875  49.733  1.00  0.00     0.000 C 
BRANCH  19  20
ATOM     20  C   UNL     1       3.466   9.225  51.200  1.00  0.00     0.000 C 
BRANCH  20  21
ATOM     21  C   UNL     1       2.273   8.956  52.130  1.00  0.00     0.000 C 
BRANCH  21  22
ATOM     22  C   UNL     1       2.653   9.223  53.594  1.00  0.00    -0.000 C 
BRANCH  22  23
ATOM     23  C   UNL     1       3.019  10.692  53.858  1.00  0.00    -0.000 C 
BRANCH  23  24
ATOM     24  C   UNL     1       3.121  11.014  55.359  1.00  0.00    -0.000 C 
BRANCH  24  25
ATOM     25  C   UNL     1       4.034  10.036  56.123  1.00  0.00    -0.000 C 
BRANCH  25  26
ATOM     26  C   UNL     1       4.343   8.717  55.392  1.00  0.00    -0.000 C 
BRANCH  26  27
ATOM     27  C   UNL     1       3.679   7.494  56.049  1.00  0.00    -0.000 C 
BRANCH  27  28
ATOM     28  C   UNL     1       3.934   6.195  55.269  1.00  0.00    -0.000 C 
BRANCH  28  29
ATOM     29  C   UNL     1       4.280   6.448  53.794  1.00  0.00    -0.003 C 
ATOM     30  C   UNL     1       3.251   5.798  52.870  1.00  0.00     0.004 C 
ENDBRANCH  28  29
ENDBRANCH  27  28
ENDBRANCH  26  27
ENDBRANCH  25  26
ENDBRANCH  24  25
ENDBRANCH  23  24
ENDBRANCH  22  23
ENDBRANCH  21  22
ENDBRANCH  20  21
ENDBRANCH  19  20
ENDBRANCH  18  19
ENDBRANCH  17  18
ENDBRANCH   1  17
TORSDOF 26
ENDMDL
MODEL 6
REMARK VINA RESULT:    28.739      4.189     12.714
REMARK INTER + INTRA:          71.095
REMARK INTER:                  70.903
REMARK INTRA:                   0.192
REMARK UNBOUND:                -1.327
REMARK SMILES CCCCCCCCCCCCCCCCCCCCCCCCCCCC(=O)[O-]
REMARK SMILES IDX 15 1 16 2 17 3 18 4 19 5 20 6 21 7 22 8 23 9 24 10 25 11
REMARK SMILES IDX 26 12 27 13 28 14 29 15 30 16 14 17 13 18 12 19 11 20 10 21
REMARK SMILES IDX 9 22 8 23 7 24 6 25 5 26 4 27 3 28 2 29 1 30
REMARK H PARENT
REMARK Flexibility Score: inf
ROOT
ATOM      1  C   UNL     1       7.699  16.710  48.079  1.00  0.00     0.000 C 
ENDROOT
BRANCH   1   2
ATOM      2  C   UNL     1       6.950  16.019  46.929  1.00  0.00     0.000 C 
BRANCH   2   3
ATOM      3  C   UNL     1       7.902  15.444  45.866  1.00  0.00     0.000 C 
BRANCH   3   4
ATOM      4  C   UNL     1       9.368  15.431  46.330  1.00  0.00     0.000 C 
BRANCH   4   5
ATOM      5  C   UNL     1      10.355  15.141  45.179  1.00  0.00     0.000 C 
BRANCH   5   6
ATOM      6  C   UNL     1       9.678  14.843  43.828  1.00  0.00     0.000 C 
BRANCH   6   7
ATOM      7  C   UNL     1      10.571  14.154  42.777  1.00  0.00     0.000 C 
BRANCH   7   8
ATOM      8  C   UNL     1      11.791  13.400  43.339  1.00  0.00     0.000 C 
BRANCH   8   9
ATOM      9  C   UNL     1      12.235  12.223  42.452  1.00  0.00     0.000 C 
BRANCH   9  10
ATOM     10  C   UNL     1      11.998  10.856  43.116  1.00  0.00     0.000 C 
BRANCH  10  11
ATOM     11  C   UNL     1      13.202  10.296  43.898  1.00  0.00     0.000 C 
BRANCH  11  12
ATOM     12  C   UNL     1      14.032  11.378  44.623  1.00  0.00     0.006 C 
BRANCH  12  13
ATOM     13  C   UNL     1      15.137  10.799  45.520  1.00  0.00     0.053 C 
BRANCH  13  14
ATOM     14  C   UNL     1      16.014  11.870  46.095  1.00  0.00     0.041 C 
ATOM     15  O   UNL     1      16.963  12.344  45.414  1.00  0.00    -0.550 OA
ATOM     16  O   UNL     1      15.801  12.327  47.392  1.00  0.00    -0.550 OA
ENDBRANCH  13  14
ENDBRANCH  12  13
ENDBRANCH  11  12
ENDBRANCH  10  11
ENDBRANCH   9  10
ENDBRANCH   8   9
ENDBRANCH   7   8
ENDBRANCH   6   7
ENDBRANCH   5   6
ENDBRANCH   4   5
ENDBRANCH   3   4
ENDBRANCH   2   3
ENDBRANCH   1   2
BRANCH   1  17
ATOM     17  C   UNL     1       6.786  17.707  48.808  1.00  0.00     0.000 C 
BRANCH  17  18
ATOM     18  C   UNL     1       5.482  17.982  48.042  1.00  0.00     0.000 C 
BRANCH  18  19
ATOM     19  C   UNL     1       5.238  19.486  47.824  1.00  0.00     0.000 C 
BRANCH  19  20
ATOM     20  C   UNL     1       5.336  20.296  49.126  1.00  0.00     0.000 C 
BRANCH  20  21
ATOM     21  C   UNL     1       5.486  19.406  50.370  1.00  0.00     0.000 C 
BRANCH  21  22
ATOM     22  C   UNL     1       5.181  20.200  51.648  1.00  0.00    -0.000 C 
BRANCH  22  23
ATOM     23  C   UNL     1       3.822  19.835  52.268  1.00  0.00    -0.000 C 
BRANCH  23  24
ATOM     24  C   UNL     1       3.793  20.048  53.792  1.00  0.00    -0.000 C 
BRANCH  24  25
ATOM     25  C   UNL     1       4.193  21.476  54.208  1.00  0.00    -0.000 C 
BRANCH  25  26
ATOM     26  C   UNL     1       5.689  21.809  54.061  1.00  0.00    -0.000 C 
BRANCH  26  27
ATOM     27  C   UNL     1       6.394  22.021  55.413  1.00  0.00    -0.000 C 
BRANCH  27  28
ATOM     28  C   UNL     1       6.892  20.705  56.031  1.00  0.00    -0.000 C 
BRANCH  28  29
ATOM     29  C   UNL     1       8.424  20.608  56.064  1.00  0.00    -0.003 C 
ATOM     30  C   UNL     1       9.059  21.996  56.122  1.00  0.00     0.004 C 
ENDBRANCH  28  29
ENDBRANCH  27  28
ENDBRANCH  26  27
ENDBRANCH  25  26
ENDBRANCH  24  25
ENDBRANCH  23  24
ENDBRANCH  22  23
ENDBRANCH  21  22
ENDBRANCH  20  21
ENDBRANCH  19  20
ENDBRANCH  18  19
ENDBRANCH  17  18
ENDBRANCH   1  17
TORSDOF 26
ENDMDL
MODEL 7
REMARK VINA RESULT:    28.842      1.553      2.197
REMARK INTER + INTRA:          71.352
REMARK INTER:                  69.822
REMARK INTRA:                   1.531
REMARK UNBOUND:                -1.327
REMARK SMILES CCCCCCCCCCCCCCCCCCCCCCCCCCCC(=O)[O-]
REMARK SMILES IDX 15 1 16 2 17 3 18 4 19 5 20 6 21 7 22 8 23 9 24 10 25 11
REMARK SMILES IDX 26 12 27 13 28 14 29 15 30 16 14 17 13 18 12 19 11 20 10 21
REMARK SMILES IDX 9 22 8 23 7 24 6 25 5 26 4 27 3 28 2 29 1 30
REMARK H PARENT
REMARK Flexibility Score: inf
ROOT
ATOM      1  C   UNL     1       8.171  16.213  46.716  1.00  0.00     0.000 C 
ENDROOT
BRANCH   1   2
ATOM      2  C   UNL     1       7.212  15.362  45.869  1.00  0.00     0.000 C 
BRANCH   2   3
ATOM      3  C   UNL     1       5.762  15.872  45.930  1.00  0.00     0.000 C 
BRANCH   3   4
ATOM      4  C   UNL     1       5.647  17.369  45.595  1.00  0.00     0.000 C 
BRANCH   4   5
ATOM      5  C   UNL     1       6.308  18.270  46.659  1.00  0.00     0.000 C 
BRANCH   5   6
ATOM      6  C   UNL     1       5.626  18.221  48.039  1.00  0.00     0.000 C 
BRANCH   6   7
ATOM      7  C   UNL     1       6.508  17.714  49.197  1.00  0.00     0.000 C 
BRANCH   7   8
ATOM      8  C   UNL     1       7.394  18.780  49.869  1.00  0.00     0.000 C 
BRANCH   8   9
ATOM      9  C   UNL     1       6.876  19.212  51.252  1.00  0.00     0.000 C 
BRANCH   9  10
ATOM     10  C   UNL     1       5.925  20.420  51.179  1.00  0.00     0.000 C 
BRANCH  10  11
ATOM     11  C   UNL     1       4.912  20.522  52.335  1.00  0.00     0.000 C 
BRANCH  11  12
ATOM     12  C   UNL     1       4.421  21.961  52.608  1.00  0.00     0.006 C 
BRANCH  12  13
ATOM     13  C   UNL     1       3.644  22.100  53.926  1.00  0.00     0.053 C 
BRANCH  13  14
ATOM     14  C   UNL     1       4.206  21.223  55.004  1.00  0.00     0.041 C 
ATOM     15  O   UNL     1       3.520  20.273  55.468  1.00  0.00    -0.550 OA
ATOM     16  O   UNL     1       5.475  21.471  55.516  1.00  0.00    -0.550 OA
ENDBRANCH  13  14
ENDBRANCH  12  13
ENDBRANCH  11  12
ENDBRANCH  10  11
ENDBRANCH   9  10
ENDBRANCH   8   9
ENDBRANCH   7   8
ENDBRANCH   6   7
ENDBRANCH   5   6
ENDBRANCH   4   5
ENDBRANCH   3   4
ENDBRANCH   2   3
ENDBRANCH   1   2
BRANCH   1  17
ATOM     17  C   UNL     1       9.557  15.555  46.803  1.00  0.00     0.000 C 
BRANCH  17  18
ATOM     18  C   UNL     1      10.073  15.085  45.433  1.00  0.00     0.000 C 
BRANCH  18  19
ATOM     19  C   UNL     1       9.044  15.309  44.311  1.00  0.00     0.000 C 
BRANCH  19  20
ATOM     20  C   UNL     1       8.897  14.088  43.389  1.00  0.00     0.000 C 
BRANCH  20  21
ATOM     21  C   UNL     1       9.962  13.012  43.655  1.00  0.00     0.000 C 
BRANCH  21  22
ATOM     22  C   UNL     1      11.370  13.561  43.382  1.00  0.00    -0.000 C 
BRANCH  22  23
ATOM     23  C   UNL     1      12.164  12.702  42.385  1.00  0.00    -0.000 C 
BRANCH  23  24
ATOM     24  C   UNL     1      12.894  11.531  43.066  1.00  0.00    -0.000 C 
BRANCH  24  25
ATOM     25  C   UNL     1      13.603  11.942  44.371  1.00  0.00    -0.000 C 
BRANCH  25  26
ATOM     26  C   UNL     1      14.876  11.143  44.707  1.00  0.00    -0.000 C 
BRANCH  26  27
ATOM     27  C   UNL     1      15.707  11.782  45.834  1.00  0.00    -0.000 C 
BRANCH  27  28
ATOM     28  C   UNL     1      15.143  11.471  47.230  1.00  0.00    -0.000 C 
BRANCH  28  29
ATOM     29  C   UNL     1      14.797  12.738  48.026  1.00  0.00    -0.003 C 
ATOM     30  C   UNL     1      16.064  13.468  48.471  1.00  0.00     0.004 C 
ENDBRANCH  28  29
ENDBRANCH  27  28
ENDBRANCH  26  27
ENDBRANCH  25  26
ENDBRANCH  24  25
ENDBRANCH  23  24
ENDBRANCH  22  23
ENDBRANCH  21  22
ENDBRANCH  20  21
ENDBRANCH  19  20
ENDBRANCH  18  19
ENDBRANCH  17  18
ENDBRANCH   1  17
TORSDOF 26
ENDMDL
MODEL 8
REMARK VINA RESULT:    29.037      2.875      5.837
REMARK INTER + INTRA:          71.846
REMARK INTER:                  71.742
REMARK INTRA:                   0.103
REMARK UNBOUND:                -1.327
REMARK SMILES CCCCCCCCCCCCCCCCCCCCCCCCCCCC(=O)[O-]
REMARK SMILES IDX 15 1 16 2 17 3 18 4 19 5 20 6 21 7 22 8 23 9 24 10 25 11
REMARK SMILES IDX 26 12 27 13 28 14 29 15 30 16 14 17 13 18 12 19 11 20 10 21
REMARK SMILES IDX 9 22 8 23 7 24 6 25 5 26 4 27 3 28 2 29 1 30
REMARK H PARENT
REMARK Flexibility Score: inf
ROOT
ATOM      1  C   UNL     1       5.927  18.523  48.830  1.00  0.00     0.000 C 
ENDROOT
BRANCH   1   2
ATOM      2  C   UNL     1       5.404  19.762  49.575  1.00  0.00     0.000 C 
BRANCH   2   3
ATOM      3  C   UNL     1       5.439  19.590  51.103  1.00  0.00     0.000 C 
BRANCH   3   4
ATOM      4  C   UNL     1       5.079  20.883  51.853  1.00  0.00     0.000 C 
BRANCH   4   5
ATOM      5  C   UNL     1       4.106  20.639  53.026  1.00  0.00     0.000 C 
BRANCH   5   6
ATOM      6  C   UNL     1       4.627  21.132  54.390  1.00  0.00     0.000 C 
BRANCH   6   7
ATOM      7  C   UNL     1       6.153  21.329  54.484  1.00  0.00     0.000 C 
BRANCH   7   8
ATOM      8  C   UNL     1       6.876  20.420  55.497  1.00  0.00     0.000 C 
BRANCH   8   9
ATOM      9  C   UNL     1       8.300  20.038  55.056  1.00  0.00     0.000 C 
BRANCH   9  10
ATOM     10  C   UNL     1       9.053  19.225  56.124  1.00  0.00     0.000 C 
BRANCH  10  11
ATOM     11  C   UNL     1      10.567  19.077  55.880  1.00  0.00     0.000 C 
BRANCH  11  12
ATOM     12  C   UNL     1      11.352  20.401  56.016  1.00  0.00     0.006 C 
BRANCH  12  13
ATOM     13  C   UNL     1      12.871  20.226  55.866  1.00  0.00     0.053 C 
BRANCH  13  14
ATOM     14  C   UNL     1      13.472  21.270  54.973  1.00  0.00     0.041 C 
ATOM     15  O   UNL     1      14.336  22.068  55.426  1.00  0.00    -0.550 OA
ATOM     16  O   UNL     1      13.059  21.380  53.649  1.00  0.00    -0.550 OA
ENDBRANCH  13  14
ENDBRANCH  12  13
ENDBRANCH  11  12
ENDBRANCH  10  11
ENDBRANCH   9  10
ENDBRANCH   8   9
ENDBRANCH   7   8
ENDBRANCH   6   7
ENDBRANCH   5   6
ENDBRANCH   4   5
ENDBRANCH   3   4
ENDBRANCH   2   3
ENDBRANCH   1   2
BRANCH   1  17
ATOM     17  C   UNL     1       5.447  18.517  47.371  1.00  0.00     0.000 C 
BRANCH  17  18
ATOM     18  C   UNL     1       6.258  17.555  46.488  1.00  0.00     0.000 C 
BRANCH  18  19
ATOM     19  C   UNL     1       7.001  16.490  47.313  1.00  0.00     0.000 C 
BRANCH  19  20
ATOM     20  C   UNL     1       7.927  15.615  46.453  1.00  0.00     0.000 C 
BRANCH  20  21
ATOM     21  C   UNL     1       7.434  14.164  46.336  1.00  0.00     0.000 C 
BRANCH  21  22
ATOM     22  C   UNL     1       8.561  13.244  45.842  1.00  0.00    -0.000 C 
BRANCH  22  23
ATOM     23  C   UNL     1       8.912  13.470  44.363  1.00  0.00    -0.000 C 
BRANCH  23  24
ATOM     24  C   UNL     1       9.047  14.961  44.009  1.00  0.00    -0.000 C 
BRANCH  24  25
ATOM     25  C   UNL     1      10.417  15.314  43.400  1.00  0.00    -0.000 C 
BRANCH  25  26
ATOM     26  C   UNL     1      11.163  14.142  42.736  1.00  0.00    -0.000 C 
BRANCH  26  27
ATOM     27  C   UNL     1      11.764  13.157  43.755  1.00  0.00    -0.000 C 
BRANCH  27  28
ATOM     28  C   UNL     1      12.459  11.963  43.081  1.00  0.00    -0.000 C 
BRANCH  28  29
ATOM     29  C   UNL     1      13.787  11.592  43.757  1.00  0.00    -0.003 C 
ATOM     30  C   UNL     1      14.756  10.966  42.755  1.00  0.00     0.004 C 
ENDBRANCH  28  29
ENDBRANCH  27  28
ENDBRANCH  26  27
ENDBRANCH  25  26
ENDBRANCH  24  25
ENDBRANCH  23  24
ENDBRANCH  22  23
ENDBRANCH  21  22
ENDBRANCH  20  21
ENDBRANCH  19  20
ENDBRANCH  18  19
ENDBRANCH  17  18
ENDBRANCH   1  17
TORSDOF 26
ENDMDL
MODEL 9
REMARK VINA RESULT:    29.052      4.789     13.109
REMARK INTER + INTRA:          71.882
REMARK INTER:                  72.928
REMARK INTRA:                  -1.047
REMARK UNBOUND:                -1.327
REMARK SMILES CCCCCCCCCCCCCCCCCCCCCCCCCCCC(=O)[O-]
REMARK SMILES IDX 15 1 16 2 17 3 18 4 19 5 20 6 21 7 22 8 23 9 24 10 25 11
REMARK SMILES IDX 26 12 27 13 28 14 29 15 30 16 14 17 13 18 12 19 11 20 10 21
REMARK SMILES IDX 9 22 8 23 7 24 6 25 5 26 4 27 3 28 2 29 1 30
REMARK H PARENT
REMARK Flexibility Score: inf
ROOT
ATOM      1  C   UNL     1       8.220  14.975  45.177  1.00  0.00     0.000 C 
ENDROOT
BRANCH   1   2
ATOM      2  C   UNL     1       9.031  15.393  43.941  1.00  0.00     0.000 C 
BRANCH   2   3
ATOM      3  C   UNL     1      10.435  14.764  43.917  1.00  0.00     0.000 C 
BRANCH   3   4
ATOM      4  C   UNL     1      10.396  13.227  43.953  1.00  0.00     0.000 C 
BRANCH   4   5
ATOM      5  C   UNL     1      10.921  12.588  42.650  1.00  0.00     0.000 C 
BRANCH   5   6
ATOM      6  C   UNL     1      12.405  12.880  42.357  1.00  0.00     0.000 C 
BRANCH   6   7
ATOM      7  C   UNL     1      13.385  12.536  43.497  1.00  0.00     0.000 C 
BRANCH   7   8
ATOM      8  C   UNL     1      13.327  11.082  44.003  1.00  0.00     0.000 C 
BRANCH   8   9
ATOM      9  C   UNL     1      14.703  10.528  44.411  1.00  0.00     0.000 C 
BRANCH   9  10
ATOM     10  C   UNL     1      15.464  11.470  45.361  1.00  0.00     0.000 C 
BRANCH  10  11
ATOM     11  C   UNL     1      16.365  12.507  44.664  1.00  0.00     0.000 C 
BRANCH  11  12
ATOM     12  C   UNL     1      17.604  11.893  43.975  1.00  0.00     0.006 C 
BRANCH  12  13
ATOM     13  C   UNL     1      18.261  12.834  42.953  1.00  0.00     0.053 C 
BRANCH  13  14
ATOM     14  C   UNL     1      17.450  14.075  42.729  1.00  0.00     0.041 C 
ATOM     15  O   UNL     1      16.438  14.041  41.978  1.00  0.00    -0.550 OA
ATOM     16  O   UNL     1      17.826  15.273  43.327  1.00  0.00    -0.550 OA
ENDBRANCH  13  14
ENDBRANCH  12  13
ENDBRANCH  11  12
ENDBRANCH  10  11
ENDBRANCH   9  10
ENDBRANCH   8   9
ENDBRANCH   7   8
ENDBRANCH   6   7
ENDBRANCH   5   6
ENDBRANCH   4   5
ENDBRANCH   3   4
ENDBRANCH   2   3
ENDBRANCH   1   2
BRANCH   1  17
ATOM     17  C   UNL     1       7.377  16.148  45.702  1.00  0.00     0.000 C 
BRANCH  17  18
ATOM     18  C   UNL     1       6.003  15.699  46.225  1.00  0.00     0.000 C 
BRANCH  18  19
ATOM     19  C   UNL     1       5.430  16.671  47.272  1.00  0.00     0.000 C 
BRANCH  19  20
ATOM     20  C   UNL     1       6.364  17.860  47.549  1.00  0.00     0.000 C 
BRANCH  20  21
ATOM     21  C   UNL     1       5.630  19.210  47.524  1.00  0.00     0.000 C 
BRANCH  21  22
ATOM     22  C   UNL     1       4.840  19.425  48.824  1.00  0.00    -0.000 C 
BRANCH  22  23
ATOM     23  C   UNL     1       5.715  19.303  50.082  1.00  0.00    -0.000 C 
BRANCH  23  24
ATOM     24  C   UNL     1       4.926  19.564  51.377  1.00  0.00    -0.000 C 
BRANCH  24  25
ATOM     25  C   UNL     1       5.231  20.940  52.000  1.00  0.00    -0.000 C 
BRANCH  25  26
ATOM     26  C   UNL     1       4.117  21.520  52.891  1.00  0.00    -0.000 C 
BRANCH  26  27
ATOM     27  C   UNL     1       4.494  21.550  54.383  1.00  0.00    -0.000 C 
BRANCH  27  28
ATOM     28  C   UNL     1       5.259  20.291  54.823  1.00  0.00    -0.000 C 
BRANCH  28  29
ATOM     29  C   UNL     1       6.355  20.595  55.855  1.00  0.00    -0.003 C 
ATOM     30  C   UNL     1       7.706  20.809  55.174  1.00  0.00     0.004 C 
ENDBRANCH  28  29
ENDBRANCH  27  28
ENDBRANCH  26  27
ENDBRANCH  25  26
ENDBRANCH  24  25
ENDBRANCH  23  24
ENDBRANCH  22  23
ENDBRANCH  21  22
ENDBRANCH  20  21
ENDBRANCH  19  20
ENDBRANCH  18  19
ENDBRANCH  17  18
ENDBRANCH   1  17
TORSDOF 26
ENDMDL
