MODEL 1
REMARK VINA RESULT:    -3.497      0.000      0.000
REMARK INTER + INTRA:          -7.374
REMARK INTER:                  -5.949
REMARK INTRA:                  -1.424
REMARK UNBOUND:                -1.424
REMARK SMILES CCCCCCCCCCCCCC(=O)[O-]
REMARK SMILES IDX 8 1 9 2 10 3 11 4 12 5 13 6 14 7 15 8 16 9 7 10 6 11 5 12
REMARK SMILES IDX 4 13 3 14 2 15 1 16
REMARK H PARENT
REMARK Flexibility Score: inf
ROOT
ATOM      1  C   UNL     1     -14.678 -15.616   3.289  1.00  0.00     0.000 C 
ENDROOT
BRANCH   1   2
ATOM      2  C   UNL     1     -13.428 -15.502   2.403  1.00  0.00     0.000 C 
BRANCH   2   3
ATOM      3  C   UNL     1     -13.464 -14.273   1.480  1.00  0.00     0.000 C 
BRANCH   3   4
ATOM      4  C   UNL     1     -12.533 -13.146   1.960  1.00  0.00     0.000 C 
BRANCH   4   5
ATOM      5  C   UNL     1     -13.293 -12.026   2.688  1.00  0.00     0.006 C 
BRANCH   5   6
ATOM      6  C   UNL     1     -12.629 -11.623   4.012  1.00  0.00     0.053 C 
BRANCH   6   7
ATOM      7  C   UNL     1     -13.358 -12.233   5.167  1.00  0.00     0.041 C 
ATOM      8  O   UNL     1     -12.719 -12.688   6.151  1.00  0.00    -0.550 OA
ATOM      9  O   UNL     1     -14.743 -12.340   5.137  1.00  0.00    -0.550 OA
ENDBRANCH   6   7
ENDBRANCH   5   6
ENDBRANCH   4   5
ENDBRANCH   3   4
ENDBRANCH   2   3
ENDBRANCH   1   2
BRANCH   1  10
ATOM     10  C   UNL     1     -14.289 -15.797   4.764  1.00  0.00     0.000 C 
BRANCH  10  11
ATOM     11  C   UNL     1     -15.448 -16.333   5.619  1.00  0.00    -0.000 C 
BRANCH  11  12
ATOM     12  C   UNL     1     -15.079 -17.622   6.377  1.00  0.00    -0.000 C 
BRANCH  12  13
ATOM     13  C   UNL     1     -14.576 -18.734   5.441  1.00  0.00    -0.000 C 
BRANCH  13  14
ATOM     14  C   UNL     1     -13.199 -19.277   5.858  1.00  0.00    -0.000 C 
BRANCH  14  15
ATOM     15  C   UNL     1     -12.053 -18.678   5.028  1.00  0.00    -0.003 C 
ATOM     16  C   UNL     1     -12.271 -18.826   3.521  1.00  0.00     0.004 C 
ENDBRANCH  14  15
ENDBRANCH  13  14
ENDBRANCH  12  13
ENDBRANCH  11  12
ENDBRANCH  10  11
ENDBRANCH   1  10
TORSDOF 12
ENDMDL
MODEL 2
REMARK VINA RESULT:    -3.446      2.427      6.334
REMARK INTER + INTRA:          -7.288
REMARK INTER:                  -5.958
REMARK INTRA:                  -1.330
REMARK UNBOUND:                -1.424
REMARK SMILES CCCCCCCCCCCCCC(=O)[O-]
REMARK SMILES IDX 8 1 9 2 10 3 11 4 12 5 13 6 14 7 15 8 16 9 7 10 6 11 5 12
REMARK SMILES IDX 4 13 3 14 2 15 1 16
REMARK H PARENT
REMARK Flexibility Score: inf
ROOT
ATOM      1  C   UNL     1     -13.905 -15.838   3.660  1.00  0.00     0.000 C 
ENDROOT
BRANCH   1   2
ATOM      2  C   UNL     1     -14.549 -15.425   4.993  1.00  0.00     0.000 C 
BRANCH   2   3
ATOM      3  C   UNL     1     -15.295 -16.582   5.677  1.00  0.00     0.000 C 
BRANCH   3   4
ATOM      4  C   UNL     1     -14.886 -17.958   5.123  1.00  0.00     0.000 C 
BRANCH   4   5
ATOM      5  C   UNL     1     -14.001 -18.746   6.102  1.00  0.00     0.006 C 
BRANCH   5   6
ATOM      6  C   UNL     1     -13.066 -19.734   5.390  1.00  0.00     0.053 C 
BRANCH   6   7
ATOM      7  C   UNL     1     -12.039 -18.997   4.591  1.00  0.00     0.041 C 
ATOM      8  O   UNL     1     -12.116 -18.965   3.335  1.00  0.00    -0.550 OA
ATOM      9  O   UNL     1     -10.969 -18.383   5.231  1.00  0.00    -0.550 OA
ENDBRANCH   6   7
ENDBRANCH   5   6
ENDBRANCH   4   5
ENDBRANCH   3   4
ENDBRANCH   2   3
ENDBRANCH   1   2
BRANCH   1  10
ATOM     10  C   UNL     1     -14.193 -14.796   2.568  1.00  0.00     0.000 C 
BRANCH  10  11
ATOM     11  C   UNL     1     -12.999 -14.586   1.623  1.00  0.00    -0.000 C 
BRANCH  11  12
ATOM     12  C   UNL     1     -12.367 -13.189   1.769  1.00  0.00    -0.000 C 
BRANCH  12  13
ATOM     13  C   UNL     1     -13.247 -12.223   2.578  1.00  0.00    -0.000 C 
BRANCH  13  14
ATOM     14  C   UNL     1     -12.553 -11.722   3.855  1.00  0.00    -0.000 C 
BRANCH  14  15
ATOM     15  C   UNL     1     -13.330 -12.087   5.130  1.00  0.00    -0.003 C 
ATOM     16  C   UNL     1     -14.822 -11.763   5.030  1.00  0.00     0.004 C 
ENDBRANCH  14  15
ENDBRANCH  13  14
ENDBRANCH  12  13
ENDBRANCH  11  12
ENDBRANCH  10  11
ENDBRANCH   1  10
TORSDOF 12
ENDMDL
MODEL 3
REMARK VINA RESULT:    -3.398      2.828      5.830
REMARK INTER + INTRA:          -7.207
REMARK INTER:                  -5.769
REMARK INTRA:                  -1.438
REMARK UNBOUND:                -1.424
REMARK SMILES CCCCCCCCCCCCCC(=O)[O-]
REMARK SMILES IDX 8 1 9 2 10 3 11 4 12 5 13 6 14 7 15 8 16 9 7 10 6 11 5 12
REMARK SMILES IDX 4 13 3 14 2 15 1 16
REMARK H PARENT
REMARK Flexibility Score: inf
ROOT
ATOM      1  C   UNL     1     -12.796 -14.586   1.328  1.00  0.00     0.000 C 
ENDROOT
BRANCH   1   2
ATOM      2  C   UNL     1     -14.286 -14.771   1.652  1.00  0.00     0.000 C 
BRANCH   2   3
ATOM      3  C   UNL     1     -14.553 -15.999   2.538  1.00  0.00     0.000 C 
BRANCH   3   4
ATOM      4  C   UNL     1     -13.260 -16.718   2.959  1.00  0.00     0.000 C 
BRANCH   4   5
ATOM      5  C   UNL     1     -13.442 -18.241   3.063  1.00  0.00     0.006 C 
BRANCH   5   6
ATOM      6  C   UNL     1     -12.138 -18.970   3.418  1.00  0.00     0.053 C 
BRANCH   6   7
ATOM      7  C   UNL     1     -11.811 -18.778   4.865  1.00  0.00     0.041 C 
ATOM      8  O   UNL     1     -12.704 -18.923   5.741  1.00  0.00    -0.550 OA
ATOM      9  O   UNL     1     -10.531 -18.394   5.244  1.00  0.00    -0.550 OA
ENDBRANCH   6   7
ENDBRANCH   5   6
ENDBRANCH   4   5
ENDBRANCH   3   4
ENDBRANCH   2   3
ENDBRANCH   1   2
BRANCH   1  10
ATOM     10  C   UNL     1     -12.320 -13.180   1.724  1.00  0.00     0.000 C 
BRANCH  10  11
ATOM     11  C   UNL     1     -13.455 -12.144   1.699  1.00  0.00    -0.000 C 
BRANCH  11  12
ATOM     12  C   UNL     1     -13.739 -11.543   3.088  1.00  0.00    -0.000 C 
BRANCH  12  13
ATOM     13  C   UNL     1     -12.583 -11.764   4.076  1.00  0.00    -0.000 C 
BRANCH  13  14
ATOM     14  C   UNL     1     -13.049 -12.391   5.400  1.00  0.00    -0.000 C 
BRANCH  14  15
ATOM     15  C   UNL     1     -13.960 -13.610   5.186  1.00  0.00    -0.003 C 
ATOM     16  C   UNL     1     -15.377 -13.395   5.720  1.00  0.00     0.004 C 
ENDBRANCH  14  15
ENDBRANCH  13  14
ENDBRANCH  12  13
ENDBRANCH  11  12
ENDBRANCH  10  11
ENDBRANCH   1  10
TORSDOF 12
ENDMDL
MODEL 4
REMARK VINA RESULT:    -3.385     19.545     21.493
REMARK INTER + INTRA:          -7.185
REMARK INTER:                  -6.523
REMARK INTRA:                  -0.662
REMARK UNBOUND:                -1.424
REMARK SMILES CCCCCCCCCCCCCC(=O)[O-]
REMARK SMILES IDX 8 1 9 2 10 3 11 4 12 5 13 6 14 7 15 8 16 9 7 10 6 11 5 12
REMARK SMILES IDX 4 13 3 14 2 15 1 16
REMARK H PARENT
REMARK Flexibility Score: inf
ROOT
ATOM      1  C   UNL     1      -1.414  -7.412  20.688  1.00  0.00     0.000 C 
ENDROOT
BRANCH   1   2
ATOM      2  C   UNL     1      -0.698  -6.090  21.004  1.00  0.00     0.000 C 
BRANCH   2   3
ATOM      3  C   UNL     1      -0.658  -5.134  19.801  1.00  0.00     0.000 C 
BRANCH   3   4
ATOM      4  C   UNL     1       0.766  -4.929  19.255  1.00  0.00     0.000 C 
BRANCH   4   5
ATOM      5  C   UNL     1       1.848  -5.294  20.285  1.00  0.00     0.006 C 
BRANCH   5   6
ATOM      6  C   UNL     1       3.267  -5.222  19.704  1.00  0.00     0.053 C 
BRANCH   6   7
ATOM      7  C   UNL     1       3.501  -6.357  18.758  1.00  0.00     0.041 C 
ATOM      8  O   UNL     1       3.463  -6.164  17.515  1.00  0.00    -0.550 OA
ATOM      9  O   UNL     1       3.715  -7.639  19.249  1.00  0.00    -0.550 OA
ENDBRANCH   6   7
ENDBRANCH   5   6
ENDBRANCH   4   5
ENDBRANCH   3   4
ENDBRANCH   2   3
ENDBRANCH   1   2
BRANCH   1  10
ATOM     10  C   UNL     1      -2.248  -7.290  19.403  1.00  0.00     0.000 C 
BRANCH  10  11
ATOM     11  C   UNL     1      -3.310  -8.394  19.282  1.00  0.00    -0.000 C 
BRANCH  11  12
ATOM     12  C   UNL     1      -4.321  -8.122  18.152  1.00  0.00    -0.000 C 
BRANCH  12  13
ATOM     13  C   UNL     1      -5.579  -8.999  18.260  1.00  0.00    -0.000 C 
BRANCH  13  14
ATOM     14  C   UNL     1      -5.630  -9.797  19.573  1.00  0.00    -0.000 C 
BRANCH  14  15
ATOM     15  C   UNL     1      -7.059 -10.221  19.949  1.00  0.00    -0.003 C 
ATOM     16  C   UNL     1      -8.073  -9.943  18.839  1.00  0.00     0.004 C 
ENDBRANCH  14  15
ENDBRANCH  13  14
ENDBRANCH  12  13
ENDBRANCH  11  12
ENDBRANCH  10  11
ENDBRANCH   1  10
TORSDOF 12
ENDMDL
MODEL 5
REMARK VINA RESULT:    -3.353      2.441      6.143
REMARK INTER + INTRA:          -7.130
REMARK INTER:                  -5.846
REMARK INTRA:                  -1.284
REMARK UNBOUND:                -1.424
REMARK SMILES CCCCCCCCCCCCCC(=O)[O-]
REMARK SMILES IDX 8 1 9 2 10 3 11 4 12 5 13 6 14 7 15 8 16 9 7 10 6 11 5 12
REMARK SMILES IDX 4 13 3 14 2 15 1 16
REMARK H PARENT
REMARK Flexibility Score: inf
ROOT
ATOM      1  C   UNL     1     -14.376 -15.224   4.484  1.00  0.00     0.000 C 
ENDROOT
BRANCH   1   2
ATOM      2  C   UNL     1     -15.204 -16.516   4.548  1.00  0.00     0.000 C 
BRANCH   2   3
ATOM      3  C   UNL     1     -15.554 -16.927   5.987  1.00  0.00     0.000 C 
BRANCH   3   4
ATOM      4  C   UNL     1     -14.666 -18.071   6.508  1.00  0.00     0.000 C 
BRANCH   4   5
ATOM      5  C   UNL     1     -14.563 -19.236   5.511  1.00  0.00     0.006 C 
BRANCH   5   6
ATOM      6  C   UNL     1     -13.149 -19.829   5.438  1.00  0.00     0.053 C 
BRANCH   6   7
ATOM      7  C   UNL     1     -12.220 -18.879   4.751  1.00  0.00     0.041 C 
ATOM      8  O   UNL     1     -11.202 -18.442   5.351  1.00  0.00    -0.550 OA
ATOM      9  O   UNL     1     -12.502 -18.438   3.463  1.00  0.00    -0.550 OA
ENDBRANCH   6   7
ENDBRANCH   5   6
ENDBRANCH   4   5
ENDBRANCH   3   4
ENDBRANCH   2   3
ENDBRANCH   1   2
BRANCH   1  10
ATOM     10  C   UNL     1     -14.781 -14.258   5.609  1.00  0.00     0.000 C 
BRANCH  10  11
ATOM     11  C   UNL     1     -14.577 -12.784   5.223  1.00  0.00    -0.000 C 
BRANCH  11  12
ATOM     12  C   UNL     1     -13.100 -12.354   5.285  1.00  0.00    -0.000 C 
BRANCH  12  13
ATOM     13  C   UNL     1     -12.567 -11.873   3.925  1.00  0.00    -0.000 C 
BRANCH  13  14
ATOM     14  C   UNL     1     -13.678 -11.739   2.870  1.00  0.00    -0.000 C 
BRANCH  14  15
ATOM     15  C   UNL     1     -13.427 -12.619   1.636  1.00  0.00    -0.003 C 
ATOM     16  C   UNL     1     -12.027 -13.236   1.621  1.00  0.00     0.004 C 
ENDBRANCH  14  15
ENDBRANCH  13  14
ENDBRANCH  12  13
ENDBRANCH  11  12
ENDBRANCH  10  11
ENDBRANCH   1  10
TORSDOF 12
ENDMDL
MODEL 6
REMARK VINA RESULT:    -3.312      1.628      3.018
REMARK INTER + INTRA:          -7.059
REMARK INTER:                  -5.523
REMARK INTRA:                  -1.536
REMARK UNBOUND:                -1.424
REMARK SMILES CCCCCCCCCCCCCC(=O)[O-]
REMARK SMILES IDX 8 1 9 2 10 3 11 4 12 5 13 6 14 7 15 8 16 9 7 10 6 11 5 12
REMARK SMILES IDX 4 13 3 14 2 15 1 16
REMARK H PARENT
REMARK Flexibility Score: inf
ROOT
ATOM      1  C   UNL     1     -15.421 -17.702   6.456  1.00  0.00     0.000 C 
ENDROOT
BRANCH   1   2
ATOM      2  C   UNL     1     -15.611 -16.292   5.875  1.00  0.00     0.000 C 
BRANCH   2   3
ATOM      3  C   UNL     1     -14.999 -16.138   4.473  1.00  0.00     0.000 C 
BRANCH   3   4
ATOM      4  C   UNL     1     -14.280 -14.791   4.286  1.00  0.00     0.000 C 
BRANCH   4   5
ATOM      5  C   UNL     1     -14.582 -13.801   5.423  1.00  0.00     0.006 C 
BRANCH   5   6
ATOM      6  C   UNL     1     -13.393 -12.883   5.740  1.00  0.00     0.053 C 
BRANCH   6   7
ATOM      7  C   UNL     1     -13.295 -11.788   4.725  1.00  0.00     0.041 C 
ATOM      8  O   UNL     1     -12.361 -11.788   3.881  1.00  0.00    -0.550 OA
ATOM      9  O   UNL     1     -14.209 -10.741   4.741  1.00  0.00    -0.550 OA
ENDBRANCH   6   7
ENDBRANCH   5   6
ENDBRANCH   4   5
ENDBRANCH   3   4
ENDBRANCH   2   3
ENDBRANCH   1   2
BRANCH   1  10
ATOM     10  C   UNL     1     -15.387 -18.754   5.337  1.00  0.00     0.000 C 
BRANCH  10  11
ATOM     11  C   UNL     1     -14.167 -19.683   5.437  1.00  0.00    -0.000 C 
BRANCH  11  12
ATOM     12  C   UNL     1     -12.880 -18.931   5.826  1.00  0.00    -0.000 C 
BRANCH  12  13
ATOM     13  C   UNL     1     -11.941 -18.709   4.630  1.00  0.00    -0.000 C 
BRANCH  13  14
ATOM     14  C   UNL     1     -12.518 -19.262   3.316  1.00  0.00    -0.000 C 
BRANCH  14  15
ATOM     15  C   UNL     1     -12.792 -18.158   2.283  1.00  0.00    -0.003 C 
ATOM     16  C   UNL     1     -14.130 -18.336   1.564  1.00  0.00     0.004 C 
ENDBRANCH  14  15
ENDBRANCH  13  14
ENDBRANCH  12  13
ENDBRANCH  11  12
ENDBRANCH  10  11
ENDBRANCH   1  10
TORSDOF 12
ENDMDL
MODEL 7
REMARK VINA RESULT:    -3.235      1.850      2.783
REMARK INTER + INTRA:          -6.928
REMARK INTER:                  -5.708
REMARK INTRA:                  -1.220
REMARK UNBOUND:                -1.424
REMARK SMILES CCCCCCCCCCCCCC(=O)[O-]
REMARK SMILES IDX 8 1 9 2 10 3 11 4 12 5 13 6 14 7 15 8 16 9 7 10 6 11 5 12
REMARK SMILES IDX 4 13 3 14 2 15 1 16
REMARK H PARENT
REMARK Flexibility Score: inf
ROOT
ATOM      1  C   UNL     1     -15.093 -14.959   5.093  1.00  0.00     0.000 C 
ENDROOT
BRANCH   1   2
ATOM      2  C   UNL     1     -15.666 -13.695   5.752  1.00  0.00     0.000 C 
BRANCH   2   3
ATOM      3  C   UNL     1     -14.844 -12.435   5.436  1.00  0.00     0.000 C 
BRANCH   3   4
ATOM      4  C   UNL     1     -13.330 -12.710   5.399  1.00  0.00     0.000 C 
BRANCH   4   5
ATOM      5  C   UNL     1     -12.615 -11.915   4.295  1.00  0.00     0.006 C 
BRANCH   5   6
ATOM      6  C   UNL     1     -13.314 -12.031   2.934  1.00  0.00     0.053 C 
BRANCH   6   7
ATOM      7  C   UNL     1     -12.764 -13.189   2.162  1.00  0.00     0.041 C 
ATOM      8  O   UNL     1     -13.373 -14.291   2.152  1.00  0.00    -0.550 OA
ATOM      9  O   UNL     1     -11.554 -13.065   1.491  1.00  0.00    -0.550 OA
ENDBRANCH   6   7
ENDBRANCH   5   6
ENDBRANCH   4   5
ENDBRANCH   3   4
ENDBRANCH   2   3
ENDBRANCH   1   2
BRANCH   1  10
ATOM     10  C   UNL     1     -16.057 -16.145   5.255  1.00  0.00     0.000 C 
BRANCH  10  11
ATOM     11  C   UNL     1     -15.767 -16.972   6.518  1.00  0.00    -0.000 C 
BRANCH  11  12
ATOM     12  C   UNL     1     -16.021 -18.477   6.312  1.00  0.00    -0.000 C 
BRANCH  12  13
ATOM     13  C   UNL     1     -14.936 -19.148   5.454  1.00  0.00    -0.000 C 
BRANCH  13  14
ATOM     14  C   UNL     1     -13.546 -19.088   6.109  1.00  0.00    -0.000 C 
BRANCH  14  15
ATOM     15  C   UNL     1     -12.426 -18.824   5.091  1.00  0.00    -0.003 C 
ATOM     16  C   UNL     1     -12.792 -17.745   4.071  1.00  0.00     0.004 C 
ENDBRANCH  14  15
ENDBRANCH  13  14
ENDBRANCH  12  13
ENDBRANCH  11  12
ENDBRANCH  10  11
ENDBRANCH   1  10
TORSDOF 12
ENDMDL
MODEL 8
REMARK VINA RESULT:    -3.224      3.007      6.030
REMARK INTER + INTRA:          -6.911
REMARK INTER:                  -5.563
REMARK INTRA:                  -1.348
REMARK UNBOUND:                -1.424
REMARK SMILES CCCCCCCCCCCCCC(=O)[O-]
REMARK SMILES IDX 8 1 9 2 10 3 11 4 12 5 13 6 14 7 15 8 16 9 7 10 6 11 5 12
REMARK SMILES IDX 4 13 3 14 2 15 1 16
REMARK H PARENT
REMARK Flexibility Score: inf
ROOT
ATOM      1  C   UNL     1     -15.695 -16.561   6.383  1.00  0.00     0.000 C 
ENDROOT
BRANCH   1   2
ATOM      2  C   UNL     1     -15.349 -18.028   6.681  1.00  0.00     0.000 C 
BRANCH   2   3
ATOM      3  C   UNL     1     -14.707 -18.743   5.481  1.00  0.00     0.000 C 
BRANCH   3   4
ATOM      4  C   UNL     1     -13.237 -19.120   5.733  1.00  0.00     0.000 C 
BRANCH   4   5
ATOM      5  C   UNL     1     -12.273 -18.398   4.778  1.00  0.00     0.006 C 
BRANCH   5   6
ATOM      6  C   UNL     1     -12.951 -17.959   3.473  1.00  0.00     0.053 C 
BRANCH   6   7
ATOM      7  C   UNL     1     -12.614 -18.907   2.366  1.00  0.00     0.041 C 
ATOM      8  O   UNL     1     -11.448 -19.371   2.262  1.00  0.00    -0.550 OA
ATOM      9  O   UNL     1     -13.576 -19.243   1.421  1.00  0.00    -0.550 OA
ENDBRANCH   6   7
ENDBRANCH   5   6
ENDBRANCH   4   5
ENDBRANCH   3   4
ENDBRANCH   2   3
ENDBRANCH   1   2
BRANCH   1  10
ATOM     10  C   UNL     1     -16.094 -16.382   4.910  1.00  0.00     0.000 C 
BRANCH  10  11
ATOM     11  C   UNL     1     -15.325 -15.240   4.225  1.00  0.00    -0.000 C 
BRANCH  11  12
ATOM     12  C   UNL     1     -14.181 -14.690   5.098  1.00  0.00    -0.000 C 
BRANCH  12  13
ATOM     13  C   UNL     1     -14.354 -13.199   5.427  1.00  0.00    -0.000 C 
BRANCH  13  14
ATOM     14  C   UNL     1     -13.032 -12.417   5.334  1.00  0.00    -0.000 C 
BRANCH  14  15
ATOM     15  C   UNL     1     -12.940 -11.565   4.059  1.00  0.00    -0.003 C 
ATOM     16  C   UNL     1     -12.633 -12.394   2.811  1.00  0.00     0.004 C 
ENDBRANCH  14  15
ENDBRANCH  13  14
ENDBRANCH  12  13
ENDBRANCH  11  12
ENDBRANCH  10  11
ENDBRANCH   1  10
TORSDOF 12
ENDMDL
MODEL 9
REMARK VINA RESULT:    -3.140      2.395      4.779
REMARK INTER + INTRA:          -6.767
REMARK INTER:                  -4.799
REMARK INTRA:                  -1.967
REMARK UNBOUND:                -1.424
REMARK SMILES CCCCCCCCCCCCCC(=O)[O-]
REMARK SMILES IDX 8 1 9 2 10 3 11 4 12 5 13 6 14 7 15 8 16 9 7 10 6 11 5 12
REMARK SMILES IDX 4 13 3 14 2 15 1 16
REMARK H PARENT
REMARK Flexibility Score: inf
ROOT
ATOM      1  C   UNL     1     -11.786 -19.125   3.721  1.00  0.00     0.000 C 
ENDROOT
BRANCH   1   2
ATOM      2  C   UNL     1     -12.216 -18.383   4.996  1.00  0.00     0.000 C 
BRANCH   2   3
ATOM      3  C   UNL     1     -13.184 -19.205   5.863  1.00  0.00     0.000 C 
BRANCH   3   4
ATOM      4  C   UNL     1     -14.394 -18.383   6.340  1.00  0.00     0.000 C 
BRANCH   4   5
ATOM      5  C   UNL     1     -15.051 -17.589   5.199  1.00  0.00     0.006 C 
BRANCH   5   6
ATOM      6  C   UNL     1     -15.340 -16.131   5.582  1.00  0.00     0.053 C 
BRANCH   6   7
ATOM      7  C   UNL     1     -14.441 -15.205   4.825  1.00  0.00     0.041 C 
ATOM      8  O   UNL     1     -13.955 -15.558   3.718  1.00  0.00    -0.550 OA
ATOM      9  O   UNL     1     -14.101 -13.970   5.363  1.00  0.00    -0.550 OA
ENDBRANCH   6   7
ENDBRANCH   5   6
ENDBRANCH   4   5
ENDBRANCH   3   4
ENDBRANCH   2   3
ENDBRANCH   1   2
BRANCH   1  10
ATOM     10  C   UNL     1     -12.724 -18.790   2.551  1.00  0.00     0.000 C 
BRANCH  10  11
ATOM     11  C   UNL     1     -13.449 -20.030   2.002  1.00  0.00    -0.000 C 
BRANCH  11  12
ATOM     12  C   UNL     1     -14.860 -20.201   2.594  1.00  0.00    -0.000 C 
BRANCH  12  13
ATOM     13  C   UNL     1     -15.140 -21.642   3.049  1.00  0.00    -0.000 C 
BRANCH  13  14
ATOM     14  C   UNL     1     -15.502 -21.730   4.541  1.00  0.00    -0.000 C 
BRANCH  14  15
ATOM     15  C   UNL     1     -14.489 -22.560   5.345  1.00  0.00    -0.003 C 
ATOM     16  C   UNL     1     -13.213 -22.864   4.558  1.00  0.00     0.004 C 
ENDBRANCH  14  15
ENDBRANCH  13  14
ENDBRANCH  12  13
ENDBRANCH  11  12
ENDBRANCH  10  11
ENDBRANCH   1  10
TORSDOF 12
ENDMDL
