MODEL 1
REMARK VINA RESULT:    20.616      0.000      0.000
REMARK INTER + INTRA:          55.436
REMARK INTER:                  54.361
REMARK INTRA:                   1.075
REMARK UNBOUND:                 1.075
REMARK SMILES CCCCCCCCCCCCCCCCCCCCCCCCCCCCCC(=O)[O-]
REMARK SMILES IDX 16 1 17 2 18 3 19 4 20 5 21 6 22 7 23 8 24 9 25 10 26 11
REMARK SMILES IDX 27 12 28 13 29 14 30 15 31 16 32 17 15 18 14 19 13 20 12 21
REMARK SMILES IDX 11 22 10 23 9 24 8 25 7 26 6 27 5 28 4 29 3 30 2 31 1 32
REMARK H PARENT
REMARK Flexibility Score: inf
ROOT
ATOM      1  C   UNL     1     -32.394  20.948 -10.570  1.00  0.00     0.000 C 
ENDROOT
BRANCH   1   2
ATOM      2  C   UNL     1     -32.964  22.038  -9.641  1.00  0.00     0.000 C 
BRANCH   2   3
ATOM      3  C   UNL     1     -32.257  23.405  -9.705  1.00  0.00     0.000 C 
BRANCH   3   4
ATOM      4  C   UNL     1     -30.779  23.367 -10.137  1.00  0.00     0.000 C 
BRANCH   4   5
ATOM      5  C   UNL     1     -30.465  22.235 -11.130  1.00  0.00     0.000 C 
BRANCH   5   6
ATOM      6  C   UNL     1     -29.102  21.571 -10.861  1.00  0.00     0.000 C 
BRANCH   6   7
ATOM      7  C   UNL     1     -28.260  21.268 -12.116  1.00  0.00     0.000 C 
BRANCH   7   8
ATOM      8  C   UNL     1     -27.385  22.432 -12.611  1.00  0.00     0.000 C 
BRANCH   8   9
ATOM      9  C   UNL     1     -25.926  22.326 -12.130  1.00  0.00     0.000 C 
BRANCH   9  10
ATOM     10  C   UNL     1     -25.588  23.359 -11.042  1.00  0.00     0.000 C 
BRANCH  10  11
ATOM     11  C   UNL     1     -25.649  22.762  -9.629  1.00  0.00     0.000 C 
BRANCH  11  12
ATOM     12  C   UNL     1     -24.254  22.359  -9.137  1.00  0.00     0.000 C 
BRANCH  12  13
ATOM     13  C   UNL     1     -24.321  21.779  -7.716  1.00  0.00     0.006 C 
BRANCH  13  14
ATOM     14  C   UNL     1     -22.928  21.509  -7.133  1.00  0.00     0.053 C 
BRANCH  14  15
ATOM     15  C   UNL     1     -22.367  22.721  -6.455  1.00  0.00     0.041 C 
ATOM     16  O   UNL     1     -22.347  23.831  -7.051  1.00  0.00    -0.550 OA
ATOM     17  O   UNL     1     -21.862  22.625  -5.163  1.00  0.00    -0.550 OA
ENDBRANCH  14  15
ENDBRANCH  13  14
ENDBRANCH  12  13
ENDBRANCH  11  12
ENDBRANCH  10  11
ENDBRANCH   9  10
ENDBRANCH   8   9
ENDBRANCH   7   8
ENDBRANCH   6   7
ENDBRANCH   5   6
ENDBRANCH   4   5
ENDBRANCH   3   4
ENDBRANCH   2   3
ENDBRANCH   1   2
BRANCH   1  18
ATOM     18  C   UNL     1     -32.617  19.505 -10.066  1.00  0.00     0.000 C 
BRANCH  18  19
ATOM     19  C   UNL     1     -31.498  18.501 -10.412  1.00  0.00     0.000 C 
BRANCH  19  20
ATOM     20  C   UNL     1     -31.868  17.011 -10.283  1.00  0.00     0.000 C 
BRANCH  20  21
ATOM     21  C   UNL     1     -30.763  16.062 -10.776  1.00  0.00     0.000 C 
BRANCH  21  22
ATOM     22  C   UNL     1     -29.356  16.619 -10.504  1.00  0.00     0.000 C 
BRANCH  22  23
ATOM     23  C   UNL     1     -29.084  17.931 -11.262  1.00  0.00     0.000 C 
BRANCH  23  24
ATOM     24  C   UNL     1     -28.904  17.702 -12.777  1.00  0.00    -0.000 C 
BRANCH  24  25
ATOM     25  C   UNL     1     -29.032  16.231 -13.209  1.00  0.00    -0.000 C 
BRANCH  25  26
ATOM     26  C   UNL     1     -28.650  16.007 -14.680  1.00  0.00    -0.000 C 
BRANCH  26  27
ATOM     27  C   UNL     1     -29.789  16.340 -15.663  1.00  0.00    -0.000 C 
BRANCH  27  28
ATOM     28  C   UNL     1     -29.971  17.838 -15.976  1.00  0.00    -0.000 C 
BRANCH  28  29
ATOM     29  C   UNL     1     -30.739  18.096 -17.282  1.00  0.00    -0.000 C 
BRANCH  29  30
ATOM     30  C   UNL     1     -30.902  19.602 -17.540  1.00  0.00    -0.000 C 
BRANCH  30  31
ATOM     31  C   UNL     1     -29.861  20.147 -18.530  1.00  0.00    -0.003 C 
ATOM     32  C   UNL     1     -28.719  20.896 -17.841  1.00  0.00     0.004 C 
ENDBRANCH  30  31
ENDBRANCH  29  30
ENDBRANCH  28  29
ENDBRANCH  27  28
ENDBRANCH  26  27
ENDBRANCH  25  26
ENDBRANCH  24  25
ENDBRANCH  23  24
ENDBRANCH  22  23
ENDBRANCH  21  22
ENDBRANCH  20  21
ENDBRANCH  19  20
ENDBRANCH  18  19
ENDBRANCH   1  18
TORSDOF 28
ENDMDL
MODEL 2
REMARK VINA RESULT:    20.649      3.680      8.801
REMARK INTER + INTRA:          55.523
REMARK INTER:                  55.965
REMARK INTRA:                  -0.442
REMARK UNBOUND:                 1.075
REMARK SMILES CCCCCCCCCCCCCCCCCCCCCCCCCCCCCC(=O)[O-]
REMARK SMILES IDX 16 1 17 2 18 3 19 4 20 5 21 6 22 7 23 8 24 9 25 10 26 11
REMARK SMILES IDX 27 12 28 13 29 14 30 15 31 16 32 17 15 18 14 19 13 20 12 21
REMARK SMILES IDX 11 22 10 23 9 24 8 25 7 26 6 27 5 28 4 29 3 30 2 31 1 32
REMARK H PARENT
REMARK Flexibility Score: inf
ROOT
ATOM      1  C   UNL     1     -32.967  21.724  -9.649  1.00  0.00     0.000 C 
ENDROOT
BRANCH   1   2
ATOM      2  C   UNL     1     -32.482  20.743 -10.736  1.00  0.00     0.000 C 
BRANCH   2   3
ATOM      3  C   UNL     1     -31.697  19.520 -10.227  1.00  0.00     0.000 C 
BRANCH   3   4
ATOM      4  C   UNL     1     -32.505  18.214 -10.111  1.00  0.00     0.000 C 
BRANCH   4   5
ATOM      5  C   UNL     1     -31.627  16.974  -9.871  1.00  0.00     0.000 C 
BRANCH   5   6
ATOM      6  C   UNL     1     -31.404  16.150 -11.152  1.00  0.00     0.000 C 
BRANCH   6   7
ATOM      7  C   UNL     1     -30.076  15.368 -11.208  1.00  0.00     0.000 C 
BRANCH   7   8
ATOM      8  C   UNL     1     -28.809  16.226 -11.056  1.00  0.00     0.000 C 
BRANCH   8   9
ATOM      9  C   UNL     1     -29.051  17.709 -11.391  1.00  0.00     0.000 C 
BRANCH   9  10
ATOM     10  C   UNL     1     -29.044  17.980 -12.904  1.00  0.00     0.000 C 
BRANCH  10  11
ATOM     11  C   UNL     1     -28.824  16.702 -13.727  1.00  0.00     0.000 C 
BRANCH  11  12
ATOM     12  C   UNL     1     -29.754  16.660 -14.944  1.00  0.00     0.000 C 
BRANCH  12  13
ATOM     13  C   UNL     1     -29.249  17.598 -16.052  1.00  0.00     0.006 C 
BRANCH  13  14
ATOM     14  C   UNL     1     -30.248  17.720 -17.209  1.00  0.00     0.053 C 
BRANCH  14  15
ATOM     15  C   UNL     1     -30.496  19.150 -17.579  1.00  0.00     0.041 C 
ATOM     16  O   UNL     1     -31.670  19.607 -17.595  1.00  0.00    -0.550 OA
ATOM     17  O   UNL     1     -29.430  19.979 -17.908  1.00  0.00    -0.550 OA
ENDBRANCH  14  15
ENDBRANCH  13  14
ENDBRANCH  12  13
ENDBRANCH  11  12
ENDBRANCH  10  11
ENDBRANCH   9  10
ENDBRANCH   8   9
ENDBRANCH   7   8
ENDBRANCH   6   7
ENDBRANCH   5   6
ENDBRANCH   4   5
ENDBRANCH   3   4
ENDBRANCH   2   3
ENDBRANCH   1   2
BRANCH   1  18
ATOM     18  C   UNL     1     -32.631  23.204  -9.936  1.00  0.00     0.000 C 
BRANCH  18  19
ATOM     19  C   UNL     1     -31.193  23.474 -10.428  1.00  0.00     0.000 C 
BRANCH  19  20
ATOM     20  C   UNL     1     -30.485  22.289 -11.114  1.00  0.00     0.000 C 
BRANCH  20  21
ATOM     21  C   UNL     1     -29.016  22.125 -10.689  1.00  0.00     0.000 C 
BRANCH  21  22
ATOM     22  C   UNL     1     -28.301  21.026 -11.490  1.00  0.00     0.000 C 
BRANCH  22  23
ATOM     23  C   UNL     1     -27.900  21.489 -12.902  1.00  0.00     0.000 C 
BRANCH  23  24
ATOM     24  C   UNL     1     -26.498  22.133 -12.928  1.00  0.00    -0.000 C 
BRANCH  24  25
ATOM     25  C   UNL     1     -26.468  23.592 -12.442  1.00  0.00    -0.000 C 
BRANCH  25  26
ATOM     26  C   UNL     1     -25.158  23.954 -11.724  1.00  0.00    -0.000 C 
BRANCH  26  27
ATOM     27  C   UNL     1     -25.223  23.750 -10.199  1.00  0.00    -0.000 C 
BRANCH  27  28
ATOM     28  C   UNL     1     -24.764  22.365  -9.699  1.00  0.00    -0.000 C 
BRANCH  28  29
ATOM     29  C   UNL     1     -25.174  22.078  -8.247  1.00  0.00    -0.000 C 
BRANCH  29  30
ATOM     30  C   UNL     1     -24.459  20.829  -7.707  1.00  0.00    -0.000 C 
BRANCH  30  31
ATOM     31  C   UNL     1     -23.156  21.170  -6.966  1.00  0.00    -0.003 C 
ATOM     32  C   UNL     1     -23.026  22.660  -6.648  1.00  0.00     0.004 C 
ENDBRANCH  30  31
ENDBRANCH  29  30
ENDBRANCH  28  29
ENDBRANCH  27  28
ENDBRANCH  26  27
ENDBRANCH  25  26
ENDBRANCH  24  25
ENDBRANCH  23  24
ENDBRANCH  22  23
ENDBRANCH  21  22
ENDBRANCH  20  21
ENDBRANCH  19  20
ENDBRANCH  18  19
ENDBRANCH   1  18
TORSDOF 28
ENDMDL
MODEL 3
REMARK VINA RESULT:    20.863      6.656     10.631
REMARK INTER + INTRA:          56.088
REMARK INTER:                  56.231
REMARK INTRA:                  -0.142
REMARK UNBOUND:                 1.075
REMARK SMILES CCCCCCCCCCCCCCCCCCCCCCCCCCCCCC(=O)[O-]
REMARK SMILES IDX 16 1 17 2 18 3 19 4 20 5 21 6 22 7 23 8 24 9 25 10 26 11
REMARK SMILES IDX 27 12 28 13 29 14 30 15 31 16 32 17 15 18 14 19 13 20 12 21
REMARK SMILES IDX 11 22 10 23 9 24 8 25 7 26 6 27 5 28 4 29 3 30 2 31 1 32
REMARK H PARENT
REMARK Flexibility Score: inf
ROOT
ATOM      1  C   UNL     1     -31.799  17.994 -10.388  1.00  0.00     0.000 C 
ENDROOT
BRANCH   1   2
ATOM      2  C   UNL     1     -32.078  16.666  -9.655  1.00  0.00     0.000 C 
BRANCH   2   3
ATOM      3  C   UNL     1     -33.321  16.657  -8.745  1.00  0.00     0.000 C 
BRANCH   3   4
ATOM      4  C   UNL     1     -33.145  15.945  -7.390  1.00  0.00     0.000 C 
BRANCH   4   5
ATOM      5  C   UNL     1     -34.024  14.690  -7.245  1.00  0.00     0.000 C 
BRANCH   5   6
ATOM      6  C   UNL     1     -33.778  13.945  -5.920  1.00  0.00     0.000 C 
BRANCH   6   7
ATOM      7  C   UNL     1     -32.783  12.770  -6.002  1.00  0.00     0.000 C 
BRANCH   7   8
ATOM      8  C   UNL     1     -33.392  11.381  -5.749  1.00  0.00     0.000 C 
BRANCH   8   9
ATOM      9  C   UNL     1     -33.274  10.449  -6.968  1.00  0.00     0.000 C 
BRANCH   9  10
ATOM     10  C   UNL     1     -32.142  10.867  -7.922  1.00  0.00     0.000 C 
BRANCH  10  11
ATOM     11  C   UNL     1     -31.313   9.668  -8.405  1.00  0.00     0.000 C 
BRANCH  11  12
ATOM     12  C   UNL     1     -31.958   8.343  -7.984  1.00  0.00     0.000 C 
BRANCH  12  13
ATOM     13  C   UNL     1     -31.424   7.179  -8.833  1.00  0.00     0.006 C 
BRANCH  13  14
ATOM     14  C   UNL     1     -31.335   5.872  -8.036  1.00  0.00     0.053 C 
BRANCH  14  15
ATOM     15  C   UNL     1     -29.931   5.582  -7.602  1.00  0.00     0.041 C 
ATOM     16  O   UNL     1     -29.171   4.891  -8.331  1.00  0.00    -0.550 OA
ATOM     17  O   UNL     1     -29.462   6.073  -6.389  1.00  0.00    -0.550 OA
ENDBRANCH  14  15
ENDBRANCH  13  14
ENDBRANCH  12  13
ENDBRANCH  11  12
ENDBRANCH  10  11
ENDBRANCH   9  10
ENDBRANCH   8   9
ENDBRANCH   7   8
ENDBRANCH   6   7
ENDBRANCH   5   6
ENDBRANCH   4   5
ENDBRANCH   3   4
ENDBRANCH   2   3
ENDBRANCH   1   2
BRANCH   1  18
ATOM     18  C   UNL     1     -32.892  19.068 -10.194  1.00  0.00     0.000 C 
BRANCH  18  19
ATOM     19  C   UNL     1     -32.518  20.487 -10.668  1.00  0.00     0.000 C 
BRANCH  19  20
ATOM     20  C   UNL     1     -32.783  21.624  -9.662  1.00  0.00     0.000 C 
BRANCH  20  21
ATOM     21  C   UNL     1     -31.537  22.471  -9.353  1.00  0.00     0.000 C 
BRANCH  21  22
ATOM     22  C   UNL     1     -30.566  22.526 -10.543  1.00  0.00     0.000 C 
BRANCH  22  23
ATOM     23  C   UNL     1     -29.451  21.469 -10.445  1.00  0.00     0.000 C 
BRANCH  23  24
ATOM     24  C   UNL     1     -29.795  20.185 -11.228  1.00  0.00    -0.000 C 
BRANCH  24  25
ATOM     25  C   UNL     1     -29.089  18.923 -10.704  1.00  0.00    -0.000 C 
BRANCH  25  26
ATOM     26  C   UNL     1     -28.640  17.980 -11.832  1.00  0.00    -0.000 C 
BRANCH  26  27
ATOM     27  C   UNL     1     -28.794  16.489 -11.477  1.00  0.00    -0.000 C 
BRANCH  27  28
ATOM     28  C   UNL     1     -29.440  15.615 -12.570  1.00  0.00    -0.000 C 
BRANCH  28  29
ATOM     29  C   UNL     1     -29.237  16.169 -13.989  1.00  0.00    -0.000 C 
BRANCH  29  30
ATOM     30  C   UNL     1     -28.147  15.386 -14.738  1.00  0.00    -0.000 C 
BRANCH  30  31
ATOM     31  C   UNL     1     -28.093  13.907 -14.323  1.00  0.00    -0.003 C 
ATOM     32  C   UNL     1     -27.175  13.072 -15.218  1.00  0.00     0.004 C 
ENDBRANCH  30  31
ENDBRANCH  29  30
ENDBRANCH  28  29
ENDBRANCH  27  28
ENDBRANCH  26  27
ENDBRANCH  25  26
ENDBRANCH  24  25
ENDBRANCH  23  24
ENDBRANCH  22  23
ENDBRANCH  21  22
ENDBRANCH  20  21
ENDBRANCH  19  20
ENDBRANCH  18  19
ENDBRANCH   1  18
TORSDOF 28
ENDMDL
MODEL 4
REMARK VINA RESULT:    20.964      6.759     10.836
REMARK INTER + INTRA:          56.354
REMARK INTER:                  54.946
REMARK INTRA:                   1.409
REMARK UNBOUND:                 1.075
REMARK SMILES CCCCCCCCCCCCCCCCCCCCCCCCCCCCCC(=O)[O-]
REMARK SMILES IDX 16 1 17 2 18 3 19 4 20 5 21 6 22 7 23 8 24 9 25 10 26 11
REMARK SMILES IDX 27 12 28 13 29 14 30 15 31 16 32 17 15 18 14 19 13 20 12 21
REMARK SMILES IDX 11 22 10 23 9 24 8 25 7 26 6 27 5 28 4 29 3 30 2 31 1 32
REMARK H PARENT
REMARK Flexibility Score: inf
ROOT
ATOM      1  C   UNL     1     -32.417  17.391  -9.796  1.00  0.00     0.000 C 
ENDROOT
BRANCH   1   2
ATOM      2  C   UNL     1     -33.653  17.217  -8.888  1.00  0.00     0.000 C 
BRANCH   2   3
ATOM      3  C   UNL     1     -33.737  15.881  -8.127  1.00  0.00     0.000 C 
BRANCH   3   4
ATOM      4  C   UNL     1     -33.055  15.860  -6.746  1.00  0.00     0.000 C 
BRANCH   4   5
ATOM      5  C   UNL     1     -33.441  14.638  -5.895  1.00  0.00     0.000 C 
BRANCH   5   6
ATOM      6  C   UNL     1     -33.609  13.359  -6.737  1.00  0.00     0.000 C 
BRANCH   6   7
ATOM      7  C   UNL     1     -33.104  12.064  -6.070  1.00  0.00     0.000 C 
BRANCH   7   8
ATOM      8  C   UNL     1     -33.116  10.819  -6.973  1.00  0.00     0.000 C 
BRANCH   8   9
ATOM      9  C   UNL     1     -32.275  11.002  -8.249  1.00  0.00     0.000 C 
BRANCH   9  10
ATOM     10  C   UNL     1     -31.135   9.975  -8.356  1.00  0.00     0.000 C 
BRANCH  10  11
ATOM     11  C   UNL     1     -31.640   8.579  -8.751  1.00  0.00     0.000 C 
BRANCH  11  12
ATOM     12  C   UNL     1     -31.199   7.522  -7.732  1.00  0.00     0.000 C 
BRANCH  12  13
ATOM     13  C   UNL     1     -31.690   6.126  -8.143  1.00  0.00     0.006 C 
BRANCH  13  14
ATOM     14  C   UNL     1     -30.556   5.248  -8.687  1.00  0.00     0.053 C 
BRANCH  14  15
ATOM     15  C   UNL     1     -29.310   5.381  -7.867  1.00  0.00     0.041 C 
ATOM     16  O   UNL     1     -28.193   5.060  -8.353  1.00  0.00    -0.550 OA
ATOM     17  O   UNL     1     -29.382   5.858  -6.563  1.00  0.00    -0.550 OA
ENDBRANCH  14  15
ENDBRANCH  13  14
ENDBRANCH  12  13
ENDBRANCH  11  12
ENDBRANCH  10  11
ENDBRANCH   9  10
ENDBRANCH   8   9
ENDBRANCH   7   8
ENDBRANCH   6   7
ENDBRANCH   5   6
ENDBRANCH   4   5
ENDBRANCH   3   4
ENDBRANCH   2   3
ENDBRANCH   1   2
BRANCH   1  18
ATOM     18  C   UNL     1     -32.465  18.644 -10.697  1.00  0.00     0.000 C 
BRANCH  18  19
ATOM     19  C   UNL     1     -32.216  19.987  -9.979  1.00  0.00     0.000 C 
BRANCH  19  20
ATOM     20  C   UNL     1     -32.931  21.213 -10.581  1.00  0.00     0.000 C 
BRANCH  20  21
ATOM     21  C   UNL     1     -32.903  22.448  -9.664  1.00  0.00     0.000 C 
BRANCH  21  22
ATOM     22  C   UNL     1     -31.740  23.394 -10.003  1.00  0.00     0.000 C 
BRANCH  22  23
ATOM     23  C   UNL     1     -30.364  22.736  -9.801  1.00  0.00     0.000 C 
BRANCH  23  24
ATOM     24  C   UNL     1     -30.211  21.440 -10.625  1.00  0.00    -0.000 C 
BRANCH  24  25
ATOM     25  C   UNL     1     -28.875  21.329 -11.378  1.00  0.00    -0.000 C 
BRANCH  25  26
ATOM     26  C   UNL     1     -28.414  19.875 -11.561  1.00  0.00    -0.000 C 
BRANCH  26  27
ATOM     27  C   UNL     1     -29.231  18.867 -10.730  1.00  0.00    -0.000 C 
BRANCH  27  28
ATOM     28  C   UNL     1     -29.183  17.409 -11.230  1.00  0.00    -0.000 C 
BRANCH  28  29
ATOM     29  C   UNL     1     -28.889  17.293 -12.734  1.00  0.00    -0.000 C 
BRANCH  29  30
ATOM     30  C   UNL     1     -29.185  15.875 -13.247  1.00  0.00    -0.000 C 
BRANCH  30  31
ATOM     31  C   UNL     1     -28.538  15.596 -14.613  1.00  0.00    -0.003 C 
ATOM     32  C   UNL     1     -27.946  14.189 -14.714  1.00  0.00     0.004 C 
ENDBRANCH  30  31
ENDBRANCH  29  30
ENDBRANCH  28  29
ENDBRANCH  27  28
ENDBRANCH  26  27
ENDBRANCH  25  26
ENDBRANCH  24  25
ENDBRANCH  23  24
ENDBRANCH  22  23
ENDBRANCH  21  22
ENDBRANCH  20  21
ENDBRANCH  19  20
ENDBRANCH  18  19
ENDBRANCH   1  18
TORSDOF 28
ENDMDL
MODEL 5
REMARK VINA RESULT:    21.360      6.066      9.153
REMARK INTER + INTRA:          57.398
REMARK INTER:                  58.483
REMARK INTRA:                  -1.085
REMARK UNBOUND:                 1.075
REMARK SMILES CCCCCCCCCCCCCCCCCCCCCCCCCCCCCC(=O)[O-]
REMARK SMILES IDX 16 1 17 2 18 3 19 4 20 5 21 6 22 7 23 8 24 9 25 10 26 11
REMARK SMILES IDX 27 12 28 13 29 14 30 15 31 16 32 17 15 18 14 19 13 20 12 21
REMARK SMILES IDX 11 22 10 23 9 24 8 25 7 26 6 27 5 28 4 29 3 30 2 31 1 32
REMARK H PARENT
REMARK Flexibility Score: inf
ROOT
ATOM      1  C   UNL     1     -32.275  17.356  -9.992  1.00  0.00     0.000 C 
ENDROOT
BRANCH   1   2
ATOM      2  C   UNL     1     -32.204  18.752 -10.643  1.00  0.00     0.000 C 
BRANCH   2   3
ATOM      3  C   UNL     1     -32.657  19.925  -9.753  1.00  0.00     0.000 C 
BRANCH   3   4
ATOM      4  C   UNL     1     -32.963  21.240 -10.495  1.00  0.00     0.000 C 
BRANCH   4   5
ATOM      5  C   UNL     1     -32.581  22.495  -9.690  1.00  0.00     0.000 C 
BRANCH   5   6
ATOM      6  C   UNL     1     -31.273  23.140 -10.185  1.00  0.00     0.000 C 
BRANCH   6   7
ATOM      7  C   UNL     1     -29.984  22.387  -9.802  1.00  0.00     0.000 C 
BRANCH   7   8
ATOM      8  C   UNL     1     -29.522  21.328 -10.817  1.00  0.00     0.000 C 
BRANCH   8   9
ATOM      9  C   UNL     1     -28.947  21.948 -12.103  1.00  0.00     0.000 C 
BRANCH   9  10
ATOM     10  C   UNL     1     -27.493  21.520 -12.363  1.00  0.00     0.000 C 
BRANCH  10  11
ATOM     11  C   UNL     1     -27.291  20.965 -13.781  1.00  0.00     0.000 C 
BRANCH  11  12
ATOM     12  C   UNL     1     -27.488  19.445 -13.813  1.00  0.00     0.000 C 
BRANCH  12  13
ATOM     13  C   UNL     1     -28.594  19.015 -12.837  1.00  0.00     0.006 C 
BRANCH  13  14
ATOM     14  C   UNL     1     -28.718  17.490 -12.735  1.00  0.00     0.053 C 
BRANCH  14  15
ATOM     15  C   UNL     1     -29.165  17.060 -11.372  1.00  0.00     0.041 C 
ATOM     16  O   UNL     1     -29.067  17.848 -10.394  1.00  0.00    -0.550 OA
ATOM     17  O   UNL     1     -29.689  15.786 -11.181  1.00  0.00    -0.550 OA
ENDBRANCH  14  15
ENDBRANCH  13  14
ENDBRANCH  12  13
ENDBRANCH  11  12
ENDBRANCH  10  11
ENDBRANCH   9  10
ENDBRANCH   8   9
ENDBRANCH   7   8
ENDBRANCH   6   7
ENDBRANCH   5   6
ENDBRANCH   4   5
ENDBRANCH   3   4
ENDBRANCH   2   3
ENDBRANCH   1   2
BRANCH   1  18
ATOM     18  C   UNL     1     -33.450  17.175  -9.005  1.00  0.00     0.000 C 
BRANCH  18  19
ATOM     19  C   UNL     1     -33.347  15.952  -8.071  1.00  0.00     0.000 C 
BRANCH  19  20
ATOM     20  C   UNL     1     -32.971  16.254  -6.607  1.00  0.00     0.000 C 
BRANCH  20  21
ATOM     21  C   UNL     1     -32.726  14.990  -5.765  1.00  0.00     0.000 C 
BRANCH  21  22
ATOM     22  C   UNL     1     -33.813  13.926  -5.988  1.00  0.00     0.000 C 
BRANCH  22  23
ATOM     23  C   UNL     1     -33.290  12.494  -5.779  1.00  0.00     0.000 C 
BRANCH  23  24
ATOM     24  C   UNL     1     -33.595  11.580  -6.984  1.00  0.00    -0.000 C 
BRANCH  24  25
ATOM     25  C   UNL     1     -32.368  10.831  -7.530  1.00  0.00    -0.000 C 
BRANCH  25  26
ATOM     26  C   UNL     1     -32.677   9.372  -7.902  1.00  0.00    -0.000 C 
BRANCH  26  27
ATOM     27  C   UNL     1     -33.825   8.763  -7.074  1.00  0.00    -0.000 C 
BRANCH  27  28
ATOM     28  C   UNL     1     -34.121   7.276  -7.354  1.00  0.00    -0.000 C 
BRANCH  28  29
ATOM     29  C   UNL     1     -33.342   6.319  -6.438  1.00  0.00    -0.000 C 
BRANCH  29  30
ATOM     30  C   UNL     1     -32.489   5.339  -7.259  1.00  0.00    -0.000 C 
BRANCH  30  31
ATOM     31  C   UNL     1     -31.208   5.988  -7.806  1.00  0.00    -0.003 C 
ATOM     32  C   UNL     1     -30.362   5.024  -8.640  1.00  0.00     0.004 C 
ENDBRANCH  30  31
ENDBRANCH  29  30
ENDBRANCH  28  29
ENDBRANCH  27  28
ENDBRANCH  26  27
ENDBRANCH  25  26
ENDBRANCH  24  25
ENDBRANCH  23  24
ENDBRANCH  22  23
ENDBRANCH  21  22
ENDBRANCH  20  21
ENDBRANCH  19  20
ENDBRANCH  18  19
ENDBRANCH   1  18
TORSDOF 28
ENDMDL
MODEL 6
REMARK VINA RESULT:    21.471      4.053      5.741
REMARK INTER + INTRA:          57.692
REMARK INTER:                  56.672
REMARK INTRA:                   1.020
REMARK UNBOUND:                 1.075
REMARK SMILES CCCCCCCCCCCCCCCCCCCCCCCCCCCCCC(=O)[O-]
REMARK SMILES IDX 16 1 17 2 18 3 19 4 20 5 21 6 22 7 23 8 24 9 25 10 26 11
REMARK SMILES IDX 27 12 28 13 29 14 30 15 31 16 32 17 15 18 14 19 13 20 12 21
REMARK SMILES IDX 11 22 10 23 9 24 8 25 7 26 6 27 5 28 4 29 3 30 2 31 1 32
REMARK H PARENT
REMARK Flexibility Score: inf
ROOT
ATOM      1  C   UNL     1     -31.459  16.954 -10.383  1.00  0.00     0.000 C 
ENDROOT
BRANCH   1   2
ATOM      2  C   UNL     1     -32.430  18.147 -10.275  1.00  0.00     0.000 C 
BRANCH   2   3
ATOM      3  C   UNL     1     -31.799  19.539 -10.469  1.00  0.00     0.000 C 
BRANCH   3   4
ATOM      4  C   UNL     1     -32.593  20.716  -9.872  1.00  0.00     0.000 C 
BRANCH   4   5
ATOM      5  C   UNL     1     -32.111  22.090 -10.370  1.00  0.00     0.000 C 
BRANCH   5   6
ATOM      6  C   UNL     1     -30.583  22.152 -10.549  1.00  0.00     0.000 C 
BRANCH   6   7
ATOM      7  C   UNL     1     -29.888  20.788 -10.733  1.00  0.00     0.000 C 
BRANCH   7   8
ATOM      8  C   UNL     1     -28.351  20.830 -10.696  1.00  0.00     0.000 C 
BRANCH   8   9
ATOM      9  C   UNL     1     -27.806  22.137 -10.093  1.00  0.00     0.000 C 
BRANCH   9  10
ATOM     10  C   UNL     1     -26.472  21.934  -9.354  1.00  0.00     0.000 C 
BRANCH  10  11
ATOM     11  C   UNL     1     -26.665  21.742  -7.842  1.00  0.00     0.000 C 
BRANCH  11  12
ATOM     12  C   UNL     1     -25.457  21.034  -7.217  1.00  0.00     0.000 C 
BRANCH  12  13
ATOM     13  C   UNL     1     -24.271  21.008  -8.193  1.00  0.00     0.006 C 
BRANCH  13  14
ATOM     14  C   UNL     1     -23.194  22.036  -7.825  1.00  0.00     0.053 C 
BRANCH  14  15
ATOM     15  C   UNL     1     -23.042  22.173  -6.341  1.00  0.00     0.041 C 
ATOM     16  O   UNL     1     -23.824  21.564  -5.564  1.00  0.00    -0.550 OA
ATOM     17  O   UNL     1     -22.036  22.975  -5.815  1.00  0.00    -0.550 OA
ENDBRANCH  14  15
ENDBRANCH  13  14
ENDBRANCH  12  13
ENDBRANCH  11  12
ENDBRANCH  10  11
ENDBRANCH   9  10
ENDBRANCH   8   9
ENDBRANCH   7   8
ENDBRANCH   6   7
ENDBRANCH   5   6
ENDBRANCH   4   5
ENDBRANCH   3   4
ENDBRANCH   2   3
ENDBRANCH   1   2
BRANCH   1  18
ATOM     18  C   UNL     1     -29.985  17.355 -10.611  1.00  0.00     0.000 C 
BRANCH  18  19
ATOM     19  C   UNL     1     -29.250  16.576 -11.721  1.00  0.00     0.000 C 
BRANCH  19  20
ATOM     20  C   UNL     1     -28.847  17.396 -12.963  1.00  0.00     0.000 C 
BRANCH  20  21
ATOM     21  C   UNL     1     -28.850  16.576 -14.264  1.00  0.00     0.000 C 
BRANCH  21  22
ATOM     22  C   UNL     1     -28.537  15.092 -14.014  1.00  0.00     0.000 C 
BRANCH  22  23
ATOM     23  C   UNL     1     -27.893  14.410 -15.235  1.00  0.00     0.000 C 
BRANCH  23  24
ATOM     24  C   UNL     1     -26.993  13.223 -14.832  1.00  0.00    -0.000 C 
BRANCH  24  25
ATOM     25  C   UNL     1     -25.490  13.478 -15.037  1.00  0.00    -0.000 C 
BRANCH  25  26
ATOM     26  C   UNL     1     -24.797  12.355 -15.823  1.00  0.00    -0.000 C 
BRANCH  26  27
ATOM     27  C   UNL     1     -23.539  11.807 -15.123  1.00  0.00    -0.000 C 
BRANCH  27  28
ATOM     28  C   UNL     1     -22.564  11.033 -16.032  1.00  0.00    -0.000 C 
BRANCH  28  29
ATOM     29  C   UNL     1     -22.864   9.528 -16.102  1.00  0.00    -0.000 C 
BRANCH  29  30
ATOM     30  C   UNL     1     -23.690   9.186 -17.352  1.00  0.00    -0.000 C 
BRANCH  30  31
ATOM     31  C   UNL     1     -22.913   9.426 -18.656  1.00  0.00    -0.003 C 
ATOM     32  C   UNL     1     -23.537  10.516 -19.529  1.00  0.00     0.004 C 
ENDBRANCH  30  31
ENDBRANCH  29  30
ENDBRANCH  28  29
ENDBRANCH  27  28
ENDBRANCH  26  27
ENDBRANCH  25  26
ENDBRANCH  24  25
ENDBRANCH  23  24
ENDBRANCH  22  23
ENDBRANCH  21  22
ENDBRANCH  20  21
ENDBRANCH  19  20
ENDBRANCH  18  19
ENDBRANCH   1  18
TORSDOF 28
ENDMDL
MODEL 7
REMARK VINA RESULT:    21.533      6.583     10.124
REMARK INTER + INTRA:          57.854
REMARK INTER:                  58.785
REMARK INTRA:                  -0.930
REMARK UNBOUND:                 1.075
REMARK SMILES CCCCCCCCCCCCCCCCCCCCCCCCCCCCCC(=O)[O-]
REMARK SMILES IDX 16 1 17 2 18 3 19 4 20 5 21 6 22 7 23 8 24 9 25 10 26 11
REMARK SMILES IDX 27 12 28 13 29 14 30 15 31 16 32 17 15 18 14 19 13 20 12 21
REMARK SMILES IDX 11 22 10 23 9 24 8 25 7 26 6 27 5 28 4 29 3 30 2 31 1 32
REMARK H PARENT
REMARK Flexibility Score: inf
ROOT
ATOM      1  C   UNL     1     -32.695  19.003 -10.357  1.00  0.00     0.000 C 
ENDROOT
BRANCH   1   2
ATOM      2  C   UNL     1     -33.495  18.095  -9.400  1.00  0.00     0.000 C 
BRANCH   2   3
ATOM      3  C   UNL     1     -32.899  16.695  -9.157  1.00  0.00     0.000 C 
BRANCH   3   4
ATOM      4  C   UNL     1     -33.714  15.781  -8.223  1.00  0.00     0.000 C 
BRANCH   4   5
ATOM      5  C   UNL     1     -33.173  15.744  -6.783  1.00  0.00     0.000 C 
BRANCH   5   6
ATOM      6  C   UNL     1     -33.466  14.410  -6.074  1.00  0.00     0.000 C 
BRANCH   6   7
ATOM      7  C   UNL     1     -32.654  13.203  -6.585  1.00  0.00     0.000 C 
BRANCH   7   8
ATOM      8  C   UNL     1     -33.250  11.826  -6.247  1.00  0.00     0.000 C 
BRANCH   8   9
ATOM      9  C   UNL     1     -33.053  10.799  -7.376  1.00  0.00     0.000 C 
BRANCH   9  10
ATOM     10  C   UNL     1     -31.615  10.791  -7.921  1.00  0.00     0.000 C 
BRANCH  10  11
ATOM     11  C   UNL     1     -31.248   9.455  -8.584  1.00  0.00     0.000 C 
BRANCH  11  12
ATOM     12  C   UNL     1     -32.058   8.300  -7.985  1.00  0.00     0.000 C 
BRANCH  12  13
ATOM     13  C   UNL     1     -31.715   6.973  -8.680  1.00  0.00     0.006 C 
BRANCH  13  14
ATOM     14  C   UNL     1     -31.430   5.849  -7.676  1.00  0.00     0.053 C 
BRANCH  14  15
ATOM     15  C   UNL     1     -29.967   5.544  -7.585  1.00  0.00     0.041 C 
ATOM     16  O   UNL     1     -29.313   5.870  -6.558  1.00  0.00    -0.550 OA
ATOM     17  O   UNL     1     -29.323   4.901  -8.636  1.00  0.00    -0.550 OA
ENDBRANCH  14  15
ENDBRANCH  13  14
ENDBRANCH  12  13
ENDBRANCH  11  12
ENDBRANCH  10  11
ENDBRANCH   9  10
ENDBRANCH   8   9
ENDBRANCH   7   8
ENDBRANCH   6   7
ENDBRANCH   5   6
ENDBRANCH   4   5
ENDBRANCH   3   4
ENDBRANCH   2   3
ENDBRANCH   1   2
BRANCH   1  18
ATOM     18  C   UNL     1     -32.353  20.392  -9.774  1.00  0.00     0.000 C 
BRANCH  18  19
ATOM     19  C   UNL     1     -31.787  21.412 -10.784  1.00  0.00     0.000 C 
BRANCH  19  20
ATOM     20  C   UNL     1     -30.341  21.880 -10.528  1.00  0.00     0.000 C 
BRANCH  20  21
ATOM     21  C   UNL     1     -29.342  20.722 -10.370  1.00  0.00     0.000 C 
BRANCH  21  22
ATOM     22  C   UNL     1     -29.734  19.500 -11.216  1.00  0.00     0.000 C 
BRANCH  22  23
ATOM     23  C   UNL     1     -29.181  18.183 -10.643  1.00  0.00     0.000 C 
BRANCH  23  24
ATOM     24  C   UNL     1     -30.187  17.021 -10.777  1.00  0.00    -0.000 C 
BRANCH  24  25
ATOM     25  C   UNL     1     -29.739  15.913 -11.746  1.00  0.00    -0.000 C 
BRANCH  25  26
ATOM     26  C   UNL     1     -28.564  16.341 -12.638  1.00  0.00    -0.000 C 
BRANCH  26  27
ATOM     27  C   UNL     1     -28.772  15.998 -14.126  1.00  0.00    -0.000 C 
BRANCH  27  28
ATOM     28  C   UNL     1     -29.978  16.684 -14.797  1.00  0.00    -0.000 C 
BRANCH  28  29
ATOM     29  C   UNL     1     -29.587  17.899 -15.651  1.00  0.00    -0.000 C 
BRANCH  29  30
ATOM     30  C   UNL     1     -30.212  17.815 -17.053  1.00  0.00    -0.000 C 
BRANCH  30  31
ATOM     31  C   UNL     1     -30.784  19.161 -17.525  1.00  0.00    -0.003 C 
ATOM     32  C   UNL     1     -29.709  20.110 -18.057  1.00  0.00     0.004 C 
ENDBRANCH  30  31
ENDBRANCH  29  30
ENDBRANCH  28  29
ENDBRANCH  27  28
ENDBRANCH  26  27
ENDBRANCH  25  26
ENDBRANCH  24  25
ENDBRANCH  23  24
ENDBRANCH  22  23
ENDBRANCH  21  22
ENDBRANCH  20  21
ENDBRANCH  19  20
ENDBRANCH  18  19
ENDBRANCH   1  18
TORSDOF 28
ENDMDL
MODEL 8
REMARK VINA RESULT:    21.735      2.764      6.230
REMARK INTER + INTRA:          58.389
REMARK INTER:                  54.939
REMARK INTRA:                   3.449
REMARK UNBOUND:                 1.075
REMARK SMILES CCCCCCCCCCCCCCCCCCCCCCCCCCCCCC(=O)[O-]
REMARK SMILES IDX 16 1 17 2 18 3 19 4 20 5 21 6 22 7 23 8 24 9 25 10 26 11
REMARK SMILES IDX 27 12 28 13 29 14 30 15 31 16 32 17 15 18 14 19 13 20 12 21
REMARK SMILES IDX 11 22 10 23 9 24 8 25 7 26 6 27 5 28 4 29 3 30 2 31 1 32
REMARK H PARENT
REMARK Flexibility Score: inf
ROOT
ATOM      1  C   UNL     1     -31.729  18.776 -10.370  1.00  0.00     0.000 C 
ENDROOT
BRANCH   1   2
ATOM      2  C   UNL     1     -32.774  19.911 -10.372  1.00  0.00     0.000 C 
BRANCH   2   3
ATOM      3  C   UNL     1     -32.243  21.305  -9.987  1.00  0.00     0.000 C 
BRANCH   3   4
ATOM      4  C   UNL     1     -33.319  22.346  -9.623  1.00  0.00     0.000 C 
BRANCH   4   5
ATOM      5  C   UNL     1     -32.909  23.788  -9.966  1.00  0.00     0.000 C 
BRANCH   5   6
ATOM      6  C   UNL     1     -31.416  23.912 -10.321  1.00  0.00     0.000 C 
BRANCH   6   7
ATOM      7  C   UNL     1     -30.551  22.691  -9.952  1.00  0.00     0.000 C 
BRANCH   7   8
ATOM      8  C   UNL     1     -29.815  22.033 -11.132  1.00  0.00     0.000 C 
BRANCH   8   9
ATOM      9  C   UNL     1     -28.340  21.726 -10.816  1.00  0.00     0.000 C 
BRANCH   9  10
ATOM     10  C   UNL     1     -28.012  21.887  -9.322  1.00  0.00     0.000 C 
BRANCH  10  11
ATOM     11  C   UNL     1     -26.503  22.015  -9.065  1.00  0.00     0.000 C 
BRANCH  11  12
ATOM     12  C   UNL     1     -26.075  21.176  -7.855  1.00  0.00     0.000 C 
BRANCH  12  13
ATOM     13  C   UNL     1     -24.560  20.920  -7.873  1.00  0.00     0.006 C 
BRANCH  13  14
ATOM     14  C   UNL     1     -23.753  22.192  -7.587  1.00  0.00     0.053 C 
BRANCH  14  15
ATOM     15  C   UNL     1     -22.956  22.070  -6.325  1.00  0.00     0.041 C 
ATOM     16  O   UNL     1     -21.999  22.859  -6.099  1.00  0.00    -0.550 OA
ATOM     17  O   UNL     1     -23.267  21.083  -5.397  1.00  0.00    -0.550 OA
ENDBRANCH  14  15
ENDBRANCH  13  14
ENDBRANCH  12  13
ENDBRANCH  11  12
ENDBRANCH  10  11
ENDBRANCH   9  10
ENDBRANCH   8   9
ENDBRANCH   7   8
ENDBRANCH   6   7
ENDBRANCH   5   6
ENDBRANCH   4   5
ENDBRANCH   3   4
ENDBRANCH   2   3
ENDBRANCH   1   2
BRANCH   1  18
ATOM     18  C   UNL     1     -30.264  19.262 -10.435  1.00  0.00     0.000 C 
BRANCH  18  19
ATOM     19  C   UNL     1     -29.210  18.160 -10.669  1.00  0.00     0.000 C 
BRANCH  19  20
ATOM     20  C   UNL     1     -29.008  17.725 -12.134  1.00  0.00     0.000 C 
BRANCH  20  21
ATOM     21  C   UNL     1     -29.299  16.235 -12.375  1.00  0.00     0.000 C 
BRANCH  21  22
ATOM     22  C   UNL     1     -29.959  15.570 -11.156  1.00  0.00     0.000 C 
BRANCH  22  23
ATOM     23  C   UNL     1     -31.315  16.204 -10.799  1.00  0.00     0.000 C 
BRANCH  23  24
ATOM     24  C   UNL     1     -32.053  15.417  -9.695  1.00  0.00    -0.000 C 
BRANCH  24  25
ATOM     25  C   UNL     1     -32.864  16.300  -8.731  1.00  0.00    -0.000 C 
BRANCH  25  26
ATOM     26  C   UNL     1     -33.887  15.501  -7.910  1.00  0.00    -0.000 C 
BRANCH  26  27
ATOM     27  C   UNL     1     -33.501  15.360  -6.425  1.00  0.00    -0.000 C 
BRANCH  27  28
ATOM     28  C   UNL     1     -33.749  13.969  -5.809  1.00  0.00    -0.000 C 
BRANCH  28  29
ATOM     29  C   UNL     1     -32.749  12.906  -6.288  1.00  0.00    -0.000 C 
BRANCH  29  30
ATOM     30  C   UNL     1     -33.361  12.027  -7.390  1.00  0.00    -0.000 C 
BRANCH  30  31
ATOM     31  C   UNL     1     -32.683  10.652  -7.492  1.00  0.00    -0.003 C 
ATOM     32  C   UNL     1     -31.586  10.608  -8.557  1.00  0.00     0.004 C 
ENDBRANCH  30  31
ENDBRANCH  29  30
ENDBRANCH  28  29
ENDBRANCH  27  28
ENDBRANCH  26  27
ENDBRANCH  25  26
ENDBRANCH  24  25
ENDBRANCH  23  24
ENDBRANCH  22  23
ENDBRANCH  21  22
ENDBRANCH  20  21
ENDBRANCH  19  20
ENDBRANCH  18  19
ENDBRANCH   1  18
TORSDOF 28
ENDMDL
MODEL 9
REMARK VINA RESULT:    21.772      5.276      8.426
REMARK INTER + INTRA:          58.486
REMARK INTER:                  60.233
REMARK INTRA:                  -1.747
REMARK UNBOUND:                 1.075
REMARK SMILES CCCCCCCCCCCCCCCCCCCCCCCCCCCCCC(=O)[O-]
REMARK SMILES IDX 16 1 17 2 18 3 19 4 20 5 21 6 22 7 23 8 24 9 25 10 26 11
REMARK SMILES IDX 27 12 28 13 29 14 30 15 31 16 32 17 15 18 14 19 13 20 12 21
REMARK SMILES IDX 11 22 10 23 9 24 8 25 7 26 6 27 5 28 4 29 3 30 2 31 1 32
REMARK H PARENT
REMARK Flexibility Score: inf
ROOT
ATOM      1  C   UNL     1     -32.429  17.839 -10.006  1.00  0.00     0.000 C 
ENDROOT
BRANCH   1   2
ATOM      2  C   UNL     1     -30.979  17.874 -10.531  1.00  0.00     0.000 C 
BRANCH   2   3
ATOM      3  C   UNL     1     -30.320  16.501 -10.760  1.00  0.00     0.000 C 
BRANCH   3   4
ATOM      4  C   UNL     1     -28.941  16.533 -11.446  1.00  0.00     0.000 C 
BRANCH   4   5
ATOM      5  C   UNL     1     -28.890  17.474 -12.662  1.00  0.00     0.000 C 
BRANCH   5   6
ATOM      6  C   UNL     1     -28.913  16.714 -14.001  1.00  0.00     0.000 C 
BRANCH   6   7
ATOM      7  C   UNL     1     -28.683  15.193 -13.896  1.00  0.00     0.000 C 
BRANCH   7   8
ATOM      8  C   UNL     1     -28.190  14.518 -15.187  1.00  0.00     0.000 C 
BRANCH   8   9
ATOM      9  C   UNL     1     -27.274  13.312 -14.914  1.00  0.00     0.000 C 
BRANCH   9  10
ATOM     10  C   UNL     1     -26.007  13.324 -15.786  1.00  0.00     0.000 C 
BRANCH  10  11
ATOM     11  C   UNL     1     -24.722  13.225 -14.952  1.00  0.00     0.000 C 
BRANCH  11  12
ATOM     12  C   UNL     1     -24.208  11.782 -14.898  1.00  0.00     0.000 C 
BRANCH  12  13
ATOM     13  C   UNL     1     -23.435  11.427 -16.178  1.00  0.00     0.006 C 
BRANCH  13  14
ATOM     14  C   UNL     1     -23.200   9.918 -16.314  1.00  0.00     0.053 C 
BRANCH  14  15
ATOM     15  C   UNL     1     -21.841   9.522 -15.824  1.00  0.00     0.041 C 
ATOM     16  O   UNL     1     -21.657   8.385 -15.312  1.00  0.00    -0.550 OA
ATOM     17  O   UNL     1     -20.776  10.410 -15.931  1.00  0.00    -0.550 OA
ENDBRANCH  14  15
ENDBRANCH  13  14
ENDBRANCH  12  13
ENDBRANCH  11  12
ENDBRANCH  10  11
ENDBRANCH   9  10
ENDBRANCH   8   9
ENDBRANCH   7   8
ENDBRANCH   6   7
ENDBRANCH   5   6
ENDBRANCH   4   5
ENDBRANCH   3   4
ENDBRANCH   2   3
ENDBRANCH   1   2
BRANCH   1  18
ATOM     18  C   UNL     1     -33.125  19.217  -9.974  1.00  0.00     0.000 C 
BRANCH  18  19
ATOM     19  C   UNL     1     -32.288  20.395 -10.515  1.00  0.00     0.000 C 
BRANCH  19  20
ATOM     20  C   UNL     1     -32.256  21.658  -9.633  1.00  0.00     0.000 C 
BRANCH  20  21
ATOM     21  C   UNL     1     -31.740  22.906 -10.369  1.00  0.00     0.000 C 
BRANCH  21  22
ATOM     22  C   UNL     1     -30.425  22.634 -11.117  1.00  0.00     0.000 C 
BRANCH  22  23
ATOM     23  C   UNL     1     -29.565  21.558 -10.430  1.00  0.00     0.000 C 
BRANCH  23  24
ATOM     24  C   UNL     1     -28.877  20.625 -11.448  1.00  0.00    -0.000 C 
BRANCH  24  25
ATOM     25  C   UNL     1     -27.984  21.356 -12.465  1.00  0.00    -0.000 C 
BRANCH  25  26
ATOM     26  C   UNL     1     -27.578  20.465 -13.650  1.00  0.00    -0.000 C 
BRANCH  26  27
ATOM     27  C   UNL     1     -27.714  21.167 -15.014  1.00  0.00    -0.000 C 
BRANCH  27  28
ATOM     28  C   UNL     1     -28.962  20.781 -15.832  1.00  0.00    -0.000 C 
BRANCH  28  29
ATOM     29  C   UNL     1     -28.677  20.615 -17.333  1.00  0.00    -0.000 C 
BRANCH  29  30
ATOM     30  C   UNL     1     -29.978  20.408 -18.124  1.00  0.00    -0.000 C 
BRANCH  30  31
ATOM     31  C   UNL     1     -30.897  19.357 -17.483  1.00  0.00    -0.003 C 
ATOM     32  C   UNL     1     -30.262  17.966 -17.428  1.00  0.00     0.004 C 
ENDBRANCH  30  31
ENDBRANCH  29  30
ENDBRANCH  28  29
ENDBRANCH  27  28
ENDBRANCH  26  27
ENDBRANCH  25  26
ENDBRANCH  24  25
ENDBRANCH  23  24
ENDBRANCH  22  23
ENDBRANCH  21  22
ENDBRANCH  20  21
ENDBRANCH  19  20
ENDBRANCH  18  19
ENDBRANCH   1  18
TORSDOF 28
ENDMDL
