MODEL 1
REMARK VINA RESULT:    -7.986      0.000      0.000
REMARK INTER + INTRA:          -9.628
REMARK INTER:                  -9.620
REMARK INTRA:                  -0.008
REMARK UNBOUND:                -0.008
REMARK SMILES O=c1c(O)c(-c2ccc(O)c(O)c2)oc2cc(O)cc(O)c12
REMARK SMILES IDX 5 1 3 2 2 3 1 4 22 5 20 6 19 7 17 8 16 9 15 10 14 11 6 12
REMARK SMILES IDX 7 13 8 14 9 15 13 16 11 17 10 18 12 20 4 22 21 24 18 26
REMARK H PARENT 10 19 12 21 4 23 21 25 18 27
REMARK Flexibility Score: inf
ROOT
ATOM      1  C   UNL     1     -52.792  34.725  22.050  1.00  0.00     0.180 A 
ATOM      2  C   UNL     1     -53.901  35.001  22.869  1.00  0.00     0.208 A 
ATOM      3  C   UNL     1     -53.787  35.991  23.858  1.00  0.00     0.238 A 
ATOM      4  O   UNL     1     -54.765  36.196  24.623  1.00  0.00    -0.285 OA
ATOM      5  C   UNL     1     -52.573  36.704  24.005  1.00  0.00     0.111 A 
ATOM      6  C   UNL     1     -52.359  37.755  24.947  1.00  0.00     0.134 A 
ATOM      7  C   UNL     1     -51.079  38.301  25.094  1.00  0.00     0.093 A 
ATOM      8  C   UNL     1     -50.018  37.879  24.287  1.00  0.00     0.123 A 
ATOM      9  C   UNL     1     -50.232  36.895  23.324  1.00  0.00     0.094 A 
ATOM     10  C   UNL     1     -51.490  36.306  23.179  1.00  0.00     0.146 A 
ATOM     11  O   UNL     1     -51.646  35.364  22.256  1.00  0.00    -0.452 OA
ENDROOT
BRANCH   1  12
ATOM     12  C   UNL     1     -52.842  33.713  20.970  1.00  0.00     0.025 A 
ATOM     13  C   UNL     1     -51.797  32.784  20.844  1.00  0.00     0.016 A 
ATOM     14  C   UNL     1     -51.815  31.835  19.819  1.00  0.00     0.051 A 
ATOM     15  C   UNL     1     -52.868  31.809  18.896  1.00  0.00     0.157 A 
ATOM     16  C   UNL     1     -53.888  33.697  20.029  1.00  0.00     0.062 A 
ATOM     17  C   UNL     1     -53.907  32.749  19.000  1.00  0.00     0.158 A 
BRANCH  15  18
ATOM     18  O   UNL     1     -52.883  30.859  17.876  1.00  0.00    -0.504 OA
ATOM     19  H   UNL     1     -53.686  30.261  17.720  1.00  0.00     0.293 HD
ENDBRANCH  15  18
BRANCH  17  20
ATOM     20  O   UNL     1     -54.963  32.759  18.089  1.00  0.00    -0.504 OA
ATOM     21  H   UNL     1     -54.821  32.599  17.099  1.00  0.00     0.293 HD
ENDBRANCH  17  20
ENDBRANCH   1  12
BRANCH   2  22
ATOM     22  O   UNL     1     -55.083  34.270  22.721  1.00  0.00    -0.502 OA
ATOM     23  H   UNL     1     -55.395  33.916  21.824  1.00  0.00     0.293 HD
ENDBRANCH   2  22
BRANCH   6  24
ATOM     24  O   UNL     1     -53.370  38.313  25.736  1.00  0.00    -0.507 OA
ATOM     25  H   UNL     1     -54.318  37.974  25.780  1.00  0.00     0.293 HD
ENDBRANCH   6  24
BRANCH   8  26
ATOM     26  O   UNL     1     -48.751  38.439  24.429  1.00  0.00    -0.508 OA
ATOM     27  H   UNL     1     -47.936  37.865  24.615  1.00  0.00     0.293 HD
ENDBRANCH   8  26
TORSDOF 6
ENDMDL
MODEL 2
REMARK VINA RESULT:    -7.859      1.846      6.884
REMARK INTER + INTRA:          -9.476
REMARK INTER:                  -9.812
REMARK INTRA:                   0.336
REMARK UNBOUND:                -0.008
REMARK SMILES O=c1c(O)c(-c2ccc(O)c(O)c2)oc2cc(O)cc(O)c12
REMARK SMILES IDX 5 1 3 2 2 3 1 4 22 5 20 6 19 7 17 8 16 9 15 10 14 11 6 12
REMARK SMILES IDX 7 13 8 14 9 15 13 16 11 17 10 18 12 20 4 22 21 24 18 26
REMARK H PARENT 10 19 12 21 4 23 21 25 18 27
REMARK Flexibility Score: inf
ROOT
ATOM      1  C   UNL     1     -51.607  35.995  22.257  1.00  0.00     0.180 A 
ATOM      2  C   UNL     1     -52.809  36.508  21.740  1.00  0.00     0.208 A 
ATOM      3  C   UNL     1     -53.567  35.715  20.864  1.00  0.00     0.238 A 
ATOM      4  O   UNL     1     -54.614  36.200  20.361  1.00  0.00    -0.285 OA
ATOM      5  C   UNL     1     -53.123  34.413  20.529  1.00  0.00     0.111 A 
ATOM      6  C   UNL     1     -53.831  33.507  19.683  1.00  0.00     0.134 A 
ATOM      7  C   UNL     1     -53.236  32.295  19.316  1.00  0.00     0.093 A 
ATOM      8  C   UNL     1     -51.984  31.927  19.817  1.00  0.00     0.123 A 
ATOM      9  C   UNL     1     -51.311  32.778  20.691  1.00  0.00     0.094 A 
ATOM     10  C   UNL     1     -51.865  34.010  21.046  1.00  0.00     0.146 A 
ATOM     11  O   UNL     1     -51.185  34.796  21.873  1.00  0.00    -0.452 OA
ENDROOT
BRANCH   1  12
ATOM     12  C   UNL     1     -50.767  36.761  23.206  1.00  0.00     0.025 A 
ATOM     13  C   UNL     1     -50.753  38.163  23.139  1.00  0.00     0.016 A 
ATOM     14  C   UNL     1     -49.951  38.904  24.011  1.00  0.00     0.051 A 
ATOM     15  C   UNL     1     -49.141  38.256  24.952  1.00  0.00     0.157 A 
ATOM     16  C   UNL     1     -49.937  36.112  24.138  1.00  0.00     0.062 A 
ATOM     17  C   UNL     1     -49.131  36.852  25.011  1.00  0.00     0.158 A 
BRANCH  15  18
ATOM     18  O   UNL     1     -48.343  38.998  25.821  1.00  0.00    -0.504 OA
ATOM     19  H   UNL     1     -48.387  38.866  26.825  1.00  0.00     0.293 HD
ENDBRANCH  15  18
BRANCH  17  20
ATOM     20  O   UNL     1     -48.325  36.175  25.926  1.00  0.00    -0.504 OA
ATOM     21  H   UNL     1     -48.403  35.176  26.075  1.00  0.00     0.293 HD
ENDBRANCH  17  20
ENDBRANCH   1  12
BRANCH   2  22
ATOM     22  O   UNL     1     -53.218  37.804  22.066  1.00  0.00    -0.502 OA
ATOM     23  H   UNL     1     -53.634  38.035  22.961  1.00  0.00     0.293 HD
ENDBRANCH   2  22
BRANCH   6  24
ATOM     24  O   UNL     1     -55.125  33.737  19.203  1.00  0.00    -0.507 OA
ATOM     25  H   UNL     1     -55.591  34.631  19.212  1.00  0.00     0.293 HD
ENDBRANCH   6  24
BRANCH   8  26
ATOM     26  O   UNL     1     -51.405  30.711  19.459  1.00  0.00    -0.508 OA
ATOM     27  H   UNL     1     -51.848  30.088  18.795  1.00  0.00     0.293 HD
ENDBRANCH   8  26
TORSDOF 6
ENDMDL
MODEL 3
REMARK VINA RESULT:    -7.814      1.413      6.870
REMARK INTER + INTRA:          -9.421
REMARK INTER:                  -9.444
REMARK INTRA:                   0.023
REMARK UNBOUND:                -0.008
REMARK SMILES O=c1c(O)c(-c2ccc(O)c(O)c2)oc2cc(O)cc(O)c12
REMARK SMILES IDX 5 1 3 2 2 3 1 4 22 5 20 6 19 7 17 8 16 9 15 10 14 11 6 12
REMARK SMILES IDX 7 13 8 14 9 15 13 16 11 17 10 18 12 20 4 22 21 24 18 26
REMARK H PARENT 10 19 12 21 4 23 21 25 18 27
REMARK Flexibility Score: inf
ROOT
ATOM      1  C   UNL     1     -52.544  35.604  22.247  1.00  0.00     0.180 A 
ATOM      2  C   UNL     1     -53.648  36.048  21.500  1.00  0.00     0.208 A 
ATOM      3  C   UNL     1     -54.132  35.244  20.456  1.00  0.00     0.238 A 
ATOM      4  O   UNL     1     -55.086  35.672  19.756  1.00  0.00    -0.285 OA
ATOM      5  C   UNL     1     -53.516  33.999  20.182  1.00  0.00     0.111 A 
ATOM      6  C   UNL     1     -53.947  33.085  19.175  1.00  0.00     0.134 A 
ATOM      7  C   UNL     1     -53.185  31.943  18.905  1.00  0.00     0.093 A 
ATOM      8  C   UNL     1     -52.040  31.648  19.651  1.00  0.00     0.123 A 
ATOM      9  C   UNL     1     -51.644  32.504  20.677  1.00  0.00     0.094 A 
ATOM     10  C   UNL     1     -52.365  33.670  20.945  1.00  0.00     0.146 A 
ATOM     11  O   UNL     1     -51.947  34.463  21.924  1.00  0.00    -0.452 OA
ENDROOT
BRANCH   1  12
ATOM     12  C   UNL     1     -51.993  36.384  23.379  1.00  0.00     0.025 A 
ATOM     13  C   UNL     1     -52.860  36.871  24.369  1.00  0.00     0.016 A 
ATOM     14  C   UNL     1     -52.365  37.626  25.435  1.00  0.00     0.051 A 
ATOM     15  C   UNL     1     -50.997  37.920  25.519  1.00  0.00     0.157 A 
ATOM     16  C   UNL     1     -50.623  36.698  23.455  1.00  0.00     0.062 A 
ATOM     17  C   UNL     1     -50.124  37.457  24.520  1.00  0.00     0.158 A 
BRANCH  15  18
ATOM     18  O   UNL     1     -50.506  38.673  26.584  1.00  0.00    -0.504 OA
ATOM     19  H   UNL     1     -51.061  39.398  27.021  1.00  0.00     0.293 HD
ENDBRANCH  15  18
BRANCH  17  20
ATOM     20  O   UNL     1     -48.760  37.743  24.566  1.00  0.00    -0.504 OA
ATOM     21  H   UNL     1     -48.060  37.079  24.257  1.00  0.00     0.293 HD
ENDBRANCH  17  20
ENDBRANCH   1  12
BRANCH   2  22
ATOM     22  O   UNL     1     -54.228  37.290  21.773  1.00  0.00    -0.502 OA
ATOM     23  H   UNL     1     -55.172  37.525  21.488  1.00  0.00     0.293 HD
ENDBRANCH   2  22
BRANCH   6  24
ATOM     24  O   UNL     1     -55.125  33.238  18.435  1.00  0.00    -0.507 OA
ATOM     25  H   UNL     1     -55.314  34.004  17.808  1.00  0.00     0.293 HD
ENDBRANCH   6  24
BRANCH   8  26
ATOM     26  O   UNL     1     -51.296  30.501  19.387  1.00  0.00    -0.508 OA
ATOM     27  H   UNL     1     -50.347  30.395  19.727  1.00  0.00     0.293 HD
ENDBRANCH   8  26
TORSDOF 6
ENDMDL
MODEL 4
REMARK VINA RESULT:    -7.795      1.415      6.803
REMARK INTER + INTRA:          -9.398
REMARK INTER:                  -9.239
REMARK INTRA:                  -0.159
REMARK UNBOUND:                -0.008
REMARK SMILES O=c1c(O)c(-c2ccc(O)c(O)c2)oc2cc(O)cc(O)c12
REMARK SMILES IDX 5 1 3 2 2 3 1 4 22 5 20 6 19 7 17 8 16 9 15 10 14 11 6 12
REMARK SMILES IDX 7 13 8 14 9 15 13 16 11 17 10 18 12 20 4 22 21 24 18 26
REMARK H PARENT 10 19 12 21 4 23 21 25 18 27
REMARK Flexibility Score: inf
ROOT
ATOM      1  C   UNL     1     -52.546  35.677  22.222  1.00  0.00     0.180 A 
ATOM      2  C   UNL     1     -53.664  36.076  21.471  1.00  0.00     0.208 A 
ATOM      3  C   UNL     1     -54.144  35.227  20.461  1.00  0.00     0.238 A 
ATOM      4  O   UNL     1     -55.112  35.614  19.755  1.00  0.00    -0.285 OA
ATOM      5  C   UNL     1     -53.511  33.983  20.226  1.00  0.00     0.111 A 
ATOM      6  C   UNL     1     -53.938  33.027  19.256  1.00  0.00     0.134 A 
ATOM      7  C   UNL     1     -53.159  31.887  19.020  1.00  0.00     0.093 A 
ATOM      8  C   UNL     1     -52.004  31.638  19.765  1.00  0.00     0.123 A 
ATOM      9  C   UNL     1     -51.612  32.536  20.756  1.00  0.00     0.094 A 
ATOM     10  C   UNL     1     -52.349  33.700  20.988  1.00  0.00     0.146 A 
ATOM     11  O   UNL     1     -51.934  34.534  21.934  1.00  0.00    -0.452 OA
ENDROOT
BRANCH   1  12
ATOM     12  C   UNL     1     -51.997  36.506  23.320  1.00  0.00     0.025 A 
ATOM     13  C   UNL     1     -50.664  36.943  23.255  1.00  0.00     0.016 A 
ATOM     14  C   UNL     1     -50.120  37.708  24.289  1.00  0.00     0.051 A 
ATOM     15  C   UNL     1     -50.894  38.036  25.410  1.00  0.00     0.157 A 
ATOM     16  C   UNL     1     -52.765  36.820  24.455  1.00  0.00     0.062 A 
ATOM     17  C   UNL     1     -52.222  37.584  25.494  1.00  0.00     0.158 A 
BRANCH  15  18
ATOM     18  O   UNL     1     -50.349  38.801  26.439  1.00  0.00    -0.504 OA
ATOM     19  H   UNL     1     -50.914  39.128  27.214  1.00  0.00     0.293 HD
ENDBRANCH  15  18
BRANCH  17  20
ATOM     20  O   UNL     1     -53.015  37.881  26.602  1.00  0.00    -0.504 OA
ATOM     21  H   UNL     1     -53.929  37.465  26.737  1.00  0.00     0.293 HD
ENDBRANCH  17  20
ENDBRANCH   1  12
BRANCH   2  22
ATOM     22  O   UNL     1     -54.261  37.318  21.704  1.00  0.00    -0.502 OA
ATOM     23  H   UNL     1     -55.246  37.489  21.538  1.00  0.00     0.293 HD
ENDBRANCH   2  22
BRANCH   6  24
ATOM     24  O   UNL     1     -55.124  33.134  18.523  1.00  0.00    -0.507 OA
ATOM     25  H   UNL     1     -55.495  32.415  17.922  1.00  0.00     0.293 HD
ENDBRANCH   6  24
BRANCH   8  26
ATOM     26  O   UNL     1     -51.243  30.494  19.535  1.00  0.00    -0.508 OA
ATOM     27  H   UNL     1     -50.244  30.545  19.372  1.00  0.00     0.293 HD
ENDBRANCH   8  26
TORSDOF 6
ENDMDL
MODEL 5
REMARK VINA RESULT:    -7.623      1.571      6.735
REMARK INTER + INTRA:          -9.191
REMARK INTER:                  -8.902
REMARK INTRA:                  -0.288
REMARK UNBOUND:                -0.008
REMARK SMILES O=c1c(O)c(-c2ccc(O)c(O)c2)oc2cc(O)cc(O)c12
REMARK SMILES IDX 5 1 3 2 2 3 1 4 22 5 20 6 19 7 17 8 16 9 15 10 14 11 6 12
REMARK SMILES IDX 7 13 8 14 9 15 13 16 11 17 10 18 12 20 4 22 21 24 18 26
REMARK H PARENT 10 19 12 21 4 23 21 25 18 27
REMARK Flexibility Score: inf
ROOT
ATOM      1  C   UNL     1     -52.080  35.375  22.564  1.00  0.00     0.180 A 
ATOM      2  C   UNL     1     -53.333  35.004  23.085  1.00  0.00     0.208 A 
ATOM      3  C   UNL     1     -53.980  33.874  22.561  1.00  0.00     0.238 A 
ATOM      4  O   UNL     1     -55.125  33.579  22.993  1.00  0.00    -0.285 OA
ATOM      5  C   UNL     1     -53.361  33.118  21.536  1.00  0.00     0.111 A 
ATOM      6  C   UNL     1     -53.908  31.933  20.960  1.00  0.00     0.134 A 
ATOM      7  C   UNL     1     -53.271  31.340  19.863  1.00  0.00     0.093 A 
ATOM      8  C   UNL     1     -52.072  31.854  19.362  1.00  0.00     0.123 A 
ATOM      9  C   UNL     1     -51.499  32.977  19.956  1.00  0.00     0.094 A 
ATOM     10  C   UNL     1     -52.131  33.611  21.029  1.00  0.00     0.146 A 
ATOM     11  O   UNL     1     -51.556  34.684  21.558  1.00  0.00    -0.452 OA
ENDROOT
BRANCH   1  12
ATOM     12  C   UNL     1     -51.325  36.539  23.082  1.00  0.00     0.025 A 
ATOM     13  C   UNL     1     -51.663  37.830  22.647  1.00  0.00     0.016 A 
ATOM     14  C   UNL     1     -50.950  38.940  23.107  1.00  0.00     0.051 A 
ATOM     15  C   UNL     1     -49.879  38.775  23.995  1.00  0.00     0.157 A 
ATOM     16  C   UNL     1     -50.236  36.375  23.957  1.00  0.00     0.062 A 
ATOM     17  C   UNL     1     -49.518  37.484  24.417  1.00  0.00     0.158 A 
BRANCH  15  18
ATOM     18  O   UNL     1     -49.171  39.885  24.452  1.00  0.00    -0.504 OA
ATOM     19  H   UNL     1     -49.336  40.811  24.077  1.00  0.00     0.293 HD
ENDBRANCH  15  18
BRANCH  17  20
ATOM     20  O   UNL     1     -48.448  37.285  25.289  1.00  0.00    -0.504 OA
ATOM     21  H   UNL     1     -48.318  37.850  26.119  1.00  0.00     0.293 HD
ENDBRANCH  17  20
ENDBRANCH   1  12
BRANCH   2  22
ATOM     22  O   UNL     1     -53.936  35.776  24.081  1.00  0.00    -0.502 OA
ATOM     23  H   UNL     1     -53.914  35.515  25.060  1.00  0.00     0.293 HD
ENDBRANCH   2  22
BRANCH   6  24
ATOM     24  O   UNL     1     -55.050  31.286  21.443  1.00  0.00    -0.507 OA
ATOM     25  H   UNL     1     -55.408  31.375  22.381  1.00  0.00     0.293 HD
ENDBRANCH   6  24
BRANCH   8  26
ATOM     26  O   UNL     1     -51.436  31.250  18.280  1.00  0.00    -0.508 OA
ATOM     27  H   UNL     1     -51.855  31.240  17.357  1.00  0.00     0.293 HD
ENDBRANCH   8  26
TORSDOF 6
ENDMDL
MODEL 6
REMARK VINA RESULT:    -7.550      1.752      6.906
REMARK INTER + INTRA:          -9.103
REMARK INTER:                  -8.868
REMARK INTRA:                  -0.234
REMARK UNBOUND:                -0.008
REMARK SMILES O=c1c(O)c(-c2ccc(O)c(O)c2)oc2cc(O)cc(O)c12
REMARK SMILES IDX 5 1 3 2 2 3 1 4 22 5 20 6 19 7 17 8 16 9 15 10 14 11 6 12
REMARK SMILES IDX 7 13 8 14 9 15 13 16 11 17 10 18 12 20 4 22 21 24 18 26
REMARK H PARENT 10 19 12 21 4 23 21 25 18 27
REMARK Flexibility Score: inf
ROOT
ATOM      1  C   UNL     1     -51.816  36.525  23.006  1.00  0.00     0.180 A 
ATOM      2  C   UNL     1     -52.969  37.093  22.437  1.00  0.00     0.208 A 
ATOM      3  C   UNL     1     -53.668  36.373  21.454  1.00  0.00     0.238 A 
ATOM      4  O   UNL     1     -54.668  36.910  20.909  1.00  0.00    -0.285 OA
ATOM      5  C   UNL     1     -53.216  35.089  21.065  1.00  0.00     0.111 A 
ATOM      6  C   UNL     1     -53.869  34.255  20.109  1.00  0.00     0.134 A 
ATOM      7  C   UNL     1     -53.263  33.060  19.705  1.00  0.00     0.093 A 
ATOM      8  C   UNL     1     -52.057  32.637  20.271  1.00  0.00     0.123 A 
ATOM      9  C   UNL     1     -51.442  33.416  21.249  1.00  0.00     0.094 A 
ATOM     10  C   UNL     1     -52.005  34.631  21.646  1.00  0.00     0.146 A 
ATOM     11  O   UNL     1     -51.380  35.347  22.573  1.00  0.00    -0.452 OA
ENDROOT
BRANCH   1  12
ATOM     12  C   UNL     1     -51.040  37.211  24.065  1.00  0.00     0.025 A 
ATOM     13  C   UNL     1     -49.734  37.645  23.791  1.00  0.00     0.016 A 
ATOM     14  C   UNL     1     -48.977  38.276  24.782  1.00  0.00     0.051 A 
ATOM     15  C   UNL     1     -49.508  38.468  26.064  1.00  0.00     0.157 A 
ATOM     16  C   UNL     1     -51.564  37.387  25.358  1.00  0.00     0.062 A 
ATOM     17  C   UNL     1     -50.807  38.016  26.354  1.00  0.00     0.158 A 
BRANCH  15  18
ATOM     18  O   UNL     1     -48.751  39.099  27.050  1.00  0.00    -0.504 OA
ATOM     19  H   UNL     1     -48.893  40.075  27.284  1.00  0.00     0.293 HD
ENDBRANCH  15  18
BRANCH  17  20
ATOM     20  O   UNL     1     -51.360  38.179  27.623  1.00  0.00    -0.504 OA
ATOM     21  H   UNL     1     -51.196  39.010  28.179  1.00  0.00     0.293 HD
ENDBRANCH  17  20
ENDBRANCH   1  12
BRANCH   2  22
ATOM     22  O   UNL     1     -53.386  38.370  22.819  1.00  0.00    -0.502 OA
ATOM     23  H   UNL     1     -52.983  38.860  23.610  1.00  0.00     0.293 HD
ENDBRANCH   2  22
BRANCH   6  24
ATOM     24  O   UNL     1     -55.120  34.539  19.551  1.00  0.00    -0.507 OA
ATOM     25  H   UNL     1     -55.264  35.052  18.695  1.00  0.00     0.293 HD
ENDBRANCH   6  24
BRANCH   8  26
ATOM     26  O   UNL     1     -51.467  31.439  19.876  1.00  0.00    -0.508 OA
ATOM     27  H   UNL     1     -50.484  31.386  19.635  1.00  0.00     0.293 HD
ENDBRANCH   8  26
TORSDOF 6
ENDMDL
MODEL 7
REMARK VINA RESULT:    -7.185      2.881      7.848
REMARK INTER + INTRA:          -8.663
REMARK INTER:                  -8.348
REMARK INTRA:                  -0.315
REMARK UNBOUND:                -0.008
REMARK SMILES O=c1c(O)c(-c2ccc(O)c(O)c2)oc2cc(O)cc(O)c12
REMARK SMILES IDX 5 1 3 2 2 3 1 4 22 5 20 6 19 7 17 8 16 9 15 10 14 11 6 12
REMARK SMILES IDX 7 13 8 14 9 15 13 16 11 17 10 18 12 20 4 22 21 24 18 26
REMARK H PARENT 10 19 12 21 4 23 21 25 18 27
REMARK Flexibility Score: inf
ROOT
ATOM      1  C   UNL     1     -50.481  37.987  25.407  1.00  0.00     0.180 A 
ATOM      2  C   UNL     1     -51.642  38.764  25.250  1.00  0.00     0.208 A 
ATOM      3  C   UNL     1     -52.532  38.455  24.209  1.00  0.00     0.238 A 
ATOM      4  O   UNL     1     -53.541  39.187  24.040  1.00  0.00    -0.285 OA
ATOM      5  C   UNL     1     -52.259  37.363  23.349  1.00  0.00     0.111 A 
ATOM      6  C   UNL     1     -53.112  36.936  22.287  1.00  0.00     0.134 A 
ATOM      7  C   UNL     1     -52.680  35.927  21.418  1.00  0.00     0.093 A 
ATOM      8  C   UNL     1     -51.454  35.284  21.613  1.00  0.00     0.123 A 
ATOM      9  C   UNL     1     -50.642  35.655  22.683  1.00  0.00     0.094 A 
ATOM     10  C   UNL     1     -51.030  36.683  23.544  1.00  0.00     0.146 A 
ATOM     11  O   UNL     1     -50.220  37.011  24.544  1.00  0.00    -0.452 OA
ENDROOT
BRANCH   1  12
ATOM     12  C   UNL     1     -49.508  38.235  26.496  1.00  0.00     0.025 A 
ATOM     13  C   UNL     1     -48.313  38.914  26.212  1.00  0.00     0.016 A 
ATOM     14  C   UNL     1     -47.372  39.140  27.219  1.00  0.00     0.051 A 
ATOM     15  C   UNL     1     -47.604  38.679  28.522  1.00  0.00     0.157 A 
ATOM     16  C   UNL     1     -49.729  37.755  27.799  1.00  0.00     0.062 A 
ATOM     17  C   UNL     1     -48.787  37.978  28.810  1.00  0.00     0.158 A 
BRANCH  15  18
ATOM     18  O   UNL     1     -46.664  38.907  29.525  1.00  0.00    -0.504 OA
ATOM     19  H   UNL     1     -46.941  39.206  30.453  1.00  0.00     0.293 HD
ENDBRANCH  15  18
BRANCH  17  20
ATOM     20  O   UNL     1     -49.042  37.493  30.092  1.00  0.00    -0.504 OA
ATOM     21  H   UNL     1     -48.310  37.110  30.678  1.00  0.00     0.293 HD
ENDBRANCH  17  20
ENDBRANCH   1  12
BRANCH   2  22
ATOM     22  O   UNL     1     -51.880  39.850  26.096  1.00  0.00    -0.502 OA
ATOM     23  H   UNL     1     -52.506  39.793  26.891  1.00  0.00     0.293 HD
ENDBRANCH   2  22
BRANCH   6  24
ATOM     24  O   UNL     1     -54.394  37.447  22.062  1.00  0.00    -0.507 OA
ATOM     25  H   UNL     1     -55.059  37.672  22.786  1.00  0.00     0.293 HD
ENDBRANCH   6  24
BRANCH   8  26
ATOM     26  O   UNL     1     -51.039  34.270  20.753  1.00  0.00    -0.508 OA
ATOM     27  H   UNL     1     -50.758  33.361  21.103  1.00  0.00     0.293 HD
ENDBRANCH   8  26
TORSDOF 6
ENDMDL
MODEL 8
REMARK VINA RESULT:    -7.046      6.554     11.923
REMARK INTER + INTRA:          -8.496
REMARK INTER:                  -8.261
REMARK INTRA:                  -0.234
REMARK UNBOUND:                -0.008
REMARK SMILES O=c1c(O)c(-c2ccc(O)c(O)c2)oc2cc(O)cc(O)c12
REMARK SMILES IDX 5 1 3 2 2 3 1 4 22 5 20 6 19 7 17 8 16 9 15 10 14 11 6 12
REMARK SMILES IDX 7 13 8 14 9 15 13 16 11 17 10 18 12 20 4 22 21 24 18 26
REMARK H PARENT 10 19 12 21 4 23 21 25 18 27
REMARK Flexibility Score: inf
ROOT
ATOM      1  C   UNL     1     -47.578  41.069  29.274  1.00  0.00     0.180 A 
ATOM      2  C   UNL     1     -48.793  41.002  29.978  1.00  0.00     0.208 A 
ATOM      3  C   UNL     1     -49.794  40.128  29.525  1.00  0.00     0.238 A 
ATOM      4  O   UNL     1     -50.900  40.112  30.127  1.00  0.00    -0.285 OA
ATOM      5  C   UNL     1     -49.562  39.320  28.385  1.00  0.00     0.111 A 
ATOM      6  C   UNL     1     -50.490  38.371  27.863  1.00  0.00     0.134 A 
ATOM      7  C   UNL     1     -50.209  37.722  26.655  1.00  0.00     0.093 A 
ATOM      8  C   UNL     1     -49.002  37.940  25.984  1.00  0.00     0.123 A 
ATOM      9  C   UNL     1     -48.064  38.821  26.519  1.00  0.00     0.094 A 
ATOM     10  C   UNL     1     -48.333  39.510  27.703  1.00  0.00     0.146 A 
ATOM     11  O   UNL     1     -47.416  40.348  28.171  1.00  0.00    -0.452 OA
ENDROOT
BRANCH   1  12
ATOM     12  C   UNL     1     -46.466  41.948  29.705  1.00  0.00     0.025 A 
ATOM     13  C   UNL     1     -45.747  41.632  30.868  1.00  0.00     0.016 A 
ATOM     14  C   UNL     1     -44.708  42.458  31.303  1.00  0.00     0.051 A 
ATOM     15  C   UNL     1     -44.381  43.619  30.591  1.00  0.00     0.157 A 
ATOM     16  C   UNL     1     -46.149  43.125  29.003  1.00  0.00     0.062 A 
ATOM     17  C   UNL     1     -45.110  43.956  29.438  1.00  0.00     0.158 A 
BRANCH  15  18
ATOM     18  O   UNL     1     -43.343  44.440  31.027  1.00  0.00    -0.504 OA
ATOM     19  H   UNL     1     -42.389  44.102  31.089  1.00  0.00     0.293 HD
ENDBRANCH  15  18
BRANCH  17  20
ATOM     20  O   UNL     1     -44.820  45.112  28.715  1.00  0.00    -0.504 OA
ATOM     21  H   UNL     1     -44.744  45.110  27.705  1.00  0.00     0.293 HD
ENDBRANCH  17  20
ENDBRANCH   1  12
BRANCH   2  22
ATOM     22  O   UNL     1     -49.009  41.823  31.087  1.00  0.00    -0.502 OA
ATOM     23  H   UNL     1     -48.861  42.826  31.060  1.00  0.00     0.293 HD
ENDBRANCH   2  22
BRANCH   6  24
ATOM     24  O   UNL     1     -51.682  38.011  28.501  1.00  0.00    -0.507 OA
ATOM     25  H   UNL     1     -52.004  38.394  29.376  1.00  0.00     0.293 HD
ENDBRANCH   6  24
BRANCH   8  26
ATOM     26  O   UNL     1     -48.722  37.278  24.791  1.00  0.00    -0.508 OA
ATOM     27  H   UNL     1     -49.071  37.617  23.902  1.00  0.00     0.293 HD
ENDBRANCH   8  26
TORSDOF 6
ENDMDL
MODEL 9
REMARK VINA RESULT:    -7.039      2.977      5.389
REMARK INTER + INTRA:          -8.487
REMARK INTER:                  -8.410
REMARK INTRA:                  -0.077
REMARK UNBOUND:                -0.008
REMARK SMILES O=c1c(O)c(-c2ccc(O)c(O)c2)oc2cc(O)cc(O)c12
REMARK SMILES IDX 5 1 3 2 2 3 1 4 22 5 20 6 19 7 17 8 16 9 15 10 14 11 6 12
REMARK SMILES IDX 7 13 8 14 9 15 13 16 11 17 10 18 12 20 4 22 21 24 18 26
REMARK H PARENT 10 19 12 21 4 23 21 25 18 27
REMARK Flexibility Score: inf
ROOT
ATOM      1  C   UNL     1     -51.071  37.488  25.016  1.00  0.00     0.180 A 
ATOM      2  C   UNL     1     -49.769  37.041  25.304  1.00  0.00     0.208 A 
ATOM      3  C   UNL     1     -49.176  37.412  26.521  1.00  0.00     0.238 A 
ATOM      4  O   UNL     1     -47.991  37.055  26.750  1.00  0.00    -0.285 OA
ATOM      5  C   UNL     1     -49.898  38.210  27.443  1.00  0.00     0.111 A 
ATOM      6  C   UNL     1     -49.410  38.611  28.722  1.00  0.00     0.134 A 
ATOM      7  C   UNL     1     -50.156  39.508  29.496  1.00  0.00     0.093 A 
ATOM      8  C   UNL     1     -51.404  39.967  29.064  1.00  0.00     0.123 A 
ATOM      9  C   UNL     1     -51.915  39.534  27.842  1.00  0.00     0.094 A 
ATOM     10  C   UNL     1     -51.176  38.668  27.032  1.00  0.00     0.146 A 
ATOM     11  O   UNL     1     -51.696  38.289  25.871  1.00  0.00    -0.452 OA
ENDROOT
BRANCH   1  12
ATOM     12  C   UNL     1     -51.772  37.118  23.765  1.00  0.00     0.025 A 
ATOM     13  C   UNL     1     -51.214  37.478  22.528  1.00  0.00     0.016 A 
ATOM     14  C   UNL     1     -51.868  37.157  21.337  1.00  0.00     0.051 A 
ATOM     15  C   UNL     1     -53.097  36.485  21.363  1.00  0.00     0.157 A 
ATOM     16  C   UNL     1     -53.015  36.461  23.789  1.00  0.00     0.062 A 
ATOM     17  C   UNL     1     -53.675  36.141  22.597  1.00  0.00     0.158 A 
BRANCH  15  18
ATOM     18  O   UNL     1     -53.748  36.165  20.172  1.00  0.00    -0.504 OA
ATOM     19  H   UNL     1     -54.481  36.753  19.794  1.00  0.00     0.293 HD
ENDBRANCH  15  18
BRANCH  17  20
ATOM     20  O   UNL     1     -54.904  35.485  22.658  1.00  0.00    -0.504 OA
ATOM     21  H   UNL     1     -55.531  35.590  23.447  1.00  0.00     0.293 HD
ENDBRANCH  17  20
ENDBRANCH   1  12
BRANCH   2  22
ATOM     22  O   UNL     1     -49.067  36.273  24.372  1.00  0.00    -0.502 OA
ATOM     23  H   UNL     1     -48.514  35.466  24.637  1.00  0.00     0.293 HD
ENDBRANCH   2  22
BRANCH   6  24
ATOM     24  O   UNL     1     -48.221  38.139  29.288  1.00  0.00    -0.507 OA
ATOM     25  H   UNL     1     -47.320  38.578  29.180  1.00  0.00     0.293 HD
ENDBRANCH   6  24
BRANCH   8  26
ATOM     26  O   UNL     1     -52.148  40.847  29.847  1.00  0.00    -0.508 OA
ATOM     27  H   UNL     1     -52.678  41.605  29.433  1.00  0.00     0.293 HD
ENDBRANCH   8  26
TORSDOF 6
ENDMDL
