MODEL 1
REMARK VINA RESULT:    -3.760      0.000      0.000
REMARK INTER + INTRA:          -7.718
REMARK INTER:                  -6.397
REMARK INTRA:                  -1.321
REMARK UNBOUND:                -1.321
REMARK SMILES CCCCCCCCCCCCCC(=O)[O-]
REMARK SMILES IDX 8 1 9 2 10 3 11 4 12 5 13 6 14 7 15 8 16 9 7 10 6 11 5 12
REMARK SMILES IDX 4 13 3 14 2 15 1 16
REMARK H PARENT
REMARK Flexibility Score: inf
ROOT
ATOM      1  C   UNL     1     -18.437   3.459 -25.929  1.00  0.00     0.000 C 
ENDROOT
BRANCH   1   2
ATOM      2  C   UNL     1     -19.025   3.860 -27.295  1.00  0.00     0.000 C 
BRANCH   2   3
ATOM      3  C   UNL     1     -19.768   2.699 -27.978  1.00  0.00     0.000 C 
BRANCH   3   4
ATOM      4  C   UNL     1     -21.145   2.428 -27.349  1.00  0.00     0.000 C 
BRANCH   4   5
ATOM      5  C   UNL     1     -21.255   1.023 -26.729  1.00  0.00     0.006 C 
BRANCH   5   6
ATOM      6  C   UNL     1     -20.304  -0.014 -27.352  1.00  0.00     0.053 C 
BRANCH   6   7
ATOM      7  C   UNL     1     -19.339  -0.586 -26.358  1.00  0.00     0.041 C 
ATOM      8  O   UNL     1     -18.544  -1.502 -26.699  1.00  0.00    -0.550 OA
ATOM      9  O   UNL     1     -19.340  -0.131 -25.046  1.00  0.00    -0.550 OA
ENDBRANCH   6   7
ENDBRANCH   5   6
ENDBRANCH   4   5
ENDBRANCH   3   4
ENDBRANCH   2   3
ENDBRANCH   1   2
BRANCH   1  10
ATOM     10  C   UNL     1     -18.805   4.453 -24.815  1.00  0.00     0.000 C 
BRANCH  10  11
ATOM     11  C   UNL     1     -20.238   4.251 -24.292  1.00  0.00    -0.000 C 
BRANCH  11  12
ATOM     12  C   UNL     1     -20.435   2.897 -23.587  1.00  0.00    -0.000 C 
BRANCH  12  13
ATOM     13  C   UNL     1     -21.001   2.979 -22.158  1.00  0.00    -0.000 C 
BRANCH  13  14
ATOM     14  C   UNL     1     -20.723   4.328 -21.479  1.00  0.00    -0.000 C 
BRANCH  14  15
ATOM     15  C   UNL     1     -20.378   4.136 -19.998  1.00  0.00    -0.003 C 
ATOM     16  C   UNL     1     -19.609   2.838 -19.773  1.00  0.00     0.004 C 
ENDBRANCH  14  15
ENDBRANCH  13  14
ENDBRANCH  12  13
ENDBRANCH  11  12
ENDBRANCH  10  11
ENDBRANCH   1  10
TORSDOF 12
ENDMDL
MODEL 2
REMARK VINA RESULT:    -3.627      1.411      2.247
REMARK INTER + INTRA:          -7.492
REMARK INTER:                  -6.193
REMARK INTRA:                  -1.299
REMARK UNBOUND:                -1.321
REMARK SMILES CCCCCCCCCCCCCC(=O)[O-]
REMARK SMILES IDX 8 1 9 2 10 3 11 4 12 5 13 6 14 7 15 8 16 9 7 10 6 11 5 12
REMARK SMILES IDX 4 13 3 14 2 15 1 16
REMARK H PARENT
REMARK Flexibility Score: inf
ROOT
ATOM      1  C   UNL     1     -23.115   2.877 -25.598  1.00  0.00     0.000 C 
ENDROOT
BRANCH   1   2
ATOM      2  C   UNL     1     -23.419   2.971 -27.104  1.00  0.00     0.000 C 
BRANCH   2   3
ATOM      3  C   UNL     1     -22.268   2.430 -27.971  1.00  0.00     0.000 C 
BRANCH   3   4
ATOM      4  C   UNL     1     -21.304   1.532 -27.177  1.00  0.00     0.000 C 
BRANCH   4   5
ATOM      5  C   UNL     1     -19.828   1.935 -27.349  1.00  0.00     0.006 C 
BRANCH   5   6
ATOM      6  C   UNL     1     -18.946   1.623 -26.126  1.00  0.00     0.053 C 
BRANCH   6   7
ATOM      7  C   UNL     1     -19.078   0.203 -25.664  1.00  0.00     0.041 C 
ATOM      8  O   UNL     1     -18.671  -0.742 -26.390  1.00  0.00    -0.550 OA
ATOM      9  O   UNL     1     -19.682  -0.079 -24.446  1.00  0.00    -0.550 OA
ENDBRANCH   6   7
ENDBRANCH   5   6
ENDBRANCH   4   5
ENDBRANCH   3   4
ENDBRANCH   2   3
ENDBRANCH   1   2
BRANCH   1  10
ATOM     10  C   UNL     1     -22.953   4.258 -24.942  1.00  0.00     0.000 C 
BRANCH  10  11
ATOM     11  C   UNL     1     -21.578   4.438 -24.274  1.00  0.00    -0.000 C 
BRANCH  11  12
ATOM     12  C   UNL     1     -21.018   3.127 -23.693  1.00  0.00    -0.000 C 
BRANCH  12  13
ATOM     13  C   UNL     1     -21.014   3.042 -22.155  1.00  0.00    -0.000 C 
BRANCH  13  14
ATOM     14  C   UNL     1     -20.819   4.407 -21.480  1.00  0.00    -0.000 C 
BRANCH  14  15
ATOM     15  C   UNL     1     -20.368   4.239 -20.024  1.00  0.00    -0.003 C 
ATOM     16  C   UNL     1     -19.703   2.884 -19.805  1.00  0.00     0.004 C 
ENDBRANCH  14  15
ENDBRANCH  13  14
ENDBRANCH  12  13
ENDBRANCH  11  12
ENDBRANCH  10  11
ENDBRANCH   1  10
TORSDOF 12
ENDMDL
MODEL 3
REMARK VINA RESULT:    -3.613     13.809     16.008
REMARK INTER + INTRA:          -7.468
REMARK INTER:                  -6.964
REMARK INTRA:                  -0.505
REMARK UNBOUND:                -1.321
REMARK SMILES CCCCCCCCCCCCCC(=O)[O-]
REMARK SMILES IDX 8 1 9 2 10 3 11 4 12 5 13 6 14 7 15 8 16 9 7 10 6 11 5 12
REMARK SMILES IDX 4 13 3 14 2 15 1 16
REMARK H PARENT
REMARK Flexibility Score: inf
ROOT
ATOM      1  C   UNL     1      -7.813  -7.903 -26.175  1.00  0.00     0.000 C 
ENDROOT
BRANCH   1   2
ATOM      2  C   UNL     1      -7.075  -6.575 -25.925  1.00  0.00     0.000 C 
BRANCH   2   3
ATOM      3  C   UNL     1      -7.868  -5.357 -26.429  1.00  0.00     0.000 C 
BRANCH   3   4
ATOM      4  C   UNL     1      -8.158  -4.339 -25.313  1.00  0.00     0.000 C 
BRANCH   4   5
ATOM      5  C   UNL     1      -6.940  -3.462 -24.970  1.00  0.00     0.006 C 
BRANCH   5   6
ATOM      6  C   UNL     1      -7.299  -2.132 -24.282  1.00  0.00     0.053 C 
BRANCH   6   7
ATOM      7  C   UNL     1      -6.486  -1.880 -23.049  1.00  0.00     0.041 C 
ATOM      8  O   UNL     1      -5.712  -2.769 -22.605  1.00  0.00    -0.550 OA
ATOM      9  O   UNL     1      -6.607  -0.675 -22.369  1.00  0.00    -0.550 OA
ENDBRANCH   6   7
ENDBRANCH   5   6
ENDBRANCH   4   5
ENDBRANCH   3   4
ENDBRANCH   2   3
ENDBRANCH   1   2
BRANCH   1  10
ATOM     10  C   UNL     1      -9.324  -7.796 -25.910  1.00  0.00     0.000 C 
BRANCH  10  11
ATOM     11  C   UNL     1     -10.169  -8.301 -27.093  1.00  0.00    -0.000 C 
BRANCH  11  12
ATOM     12  C   UNL     1     -10.045  -9.819 -27.314  1.00  0.00    -0.000 C 
BRANCH  12  13
ATOM     13  C   UNL     1     -10.898 -10.690 -26.372  1.00  0.00    -0.000 C 
BRANCH  13  14
ATOM     14  C   UNL     1     -11.985 -11.483 -27.111  1.00  0.00    -0.000 C 
BRANCH  14  15
ATOM     15  C   UNL     1     -11.758 -12.992 -26.966  1.00  0.00    -0.003 C 
ATOM     16  C   UNL     1     -13.041 -13.706 -26.549  1.00  0.00     0.004 C 
ENDBRANCH  14  15
ENDBRANCH  13  14
ENDBRANCH  12  13
ENDBRANCH  11  12
ENDBRANCH  10  11
ENDBRANCH   1  10
TORSDOF 12
ENDMDL
MODEL 4
REMARK VINA RESULT:    -3.548     11.688     13.779
REMARK INTER + INTRA:          -7.358
REMARK INTER:                  -5.793
REMARK INTRA:                  -1.565
REMARK UNBOUND:                -1.321
REMARK SMILES CCCCCCCCCCCCCC(=O)[O-]
REMARK SMILES IDX 8 1 9 2 10 3 11 4 12 5 13 6 14 7 15 8 16 9 7 10 6 11 5 12
REMARK SMILES IDX 4 13 3 14 2 15 1 16
REMARK H PARENT
REMARK Flexibility Score: inf
ROOT
ATOM      1  C   UNL     1     -10.566  -0.845 -27.147  1.00  0.00     0.000 C 
ENDROOT
BRANCH   1   2
ATOM      2  C   UNL     1      -9.983   0.241 -26.224  1.00  0.00     0.000 C 
BRANCH   2   3
ATOM      3  C   UNL     1      -9.966  -0.190 -24.747  1.00  0.00     0.000 C 
BRANCH   3   4
ATOM      4  C   UNL     1      -8.630  -0.831 -24.336  1.00  0.00     0.000 C 
BRANCH   4   5
ATOM      5  C   UNL     1      -7.410  -0.131 -24.963  1.00  0.00     0.006 C 
BRANCH   5   6
ATOM      6  C   UNL     1      -6.055  -0.652 -24.449  1.00  0.00     0.053 C 
BRANCH   6   7
ATOM      7  C   UNL     1      -6.096  -1.043 -23.003  1.00  0.00     0.041 C 
ATOM      8  O   UNL     1      -6.302  -0.174 -22.115  1.00  0.00    -0.550 OA
ATOM      9  O   UNL     1      -5.872  -2.363 -22.632  1.00  0.00    -0.550 OA
ENDBRANCH   6   7
ENDBRANCH   5   6
ENDBRANCH   4   5
ENDBRANCH   3   4
ENDBRANCH   2   3
ENDBRANCH   1   2
BRANCH   1  10
ATOM     10  C   UNL     1      -9.489  -1.525 -28.009  1.00  0.00     0.000 C 
BRANCH  10  11
ATOM     11  C   UNL     1      -9.082  -2.906 -27.465  1.00  0.00    -0.000 C 
BRANCH  11  12
ATOM     12  C   UNL     1      -7.561  -3.052 -27.278  1.00  0.00    -0.000 C 
BRANCH  12  13
ATOM     13  C   UNL     1      -7.127  -3.787 -25.996  1.00  0.00    -0.000 C 
BRANCH  13  14
ATOM     14  C   UNL     1      -8.141  -4.846 -25.539  1.00  0.00    -0.000 C 
BRANCH  14  15
ATOM     15  C   UNL     1      -7.674  -6.255 -25.921  1.00  0.00    -0.003 C 
ATOM     16  C   UNL     1      -8.830  -7.095 -26.454  1.00  0.00     0.004 C 
ENDBRANCH  14  15
ENDBRANCH  13  14
ENDBRANCH  12  13
ENDBRANCH  11  12
ENDBRANCH  10  11
ENDBRANCH   1  10
TORSDOF 12
ENDMDL
MODEL 5
REMARK VINA RESULT:    -3.430     11.344     12.916
REMARK INTER + INTRA:          -7.157
REMARK INTER:                  -5.834
REMARK INTRA:                  -1.323
REMARK UNBOUND:                -1.321
REMARK SMILES CCCCCCCCCCCCCC(=O)[O-]
REMARK SMILES IDX 8 1 9 2 10 3 11 4 12 5 13 6 14 7 15 8 16 9 7 10 6 11 5 12
REMARK SMILES IDX 4 13 3 14 2 15 1 16
REMARK H PARENT
REMARK Flexibility Score: inf
ROOT
ATOM      1  C   UNL     1     -10.367  -1.946 -27.733  1.00  0.00     0.000 C 
ENDROOT
BRANCH   1   2
ATOM      2  C   UNL     1      -9.196  -2.946 -27.710  1.00  0.00     0.000 C 
BRANCH   2   3
ATOM      3  C   UNL     1      -8.046  -2.483 -26.800  1.00  0.00     0.000 C 
BRANCH   3   4
ATOM      4  C   UNL     1      -7.641  -3.554 -25.772  1.00  0.00     0.000 C 
BRANCH   4   5
ATOM      5  C   UNL     1      -7.939  -3.136 -24.320  1.00  0.00     0.006 C 
BRANCH   5   6
ATOM      6  C   UNL     1      -7.626  -1.660 -24.016  1.00  0.00     0.053 C 
BRANCH   6   7
ATOM      7  C   UNL     1      -6.611  -1.496 -22.925  1.00  0.00     0.041 C 
ATOM      8  O   UNL     1      -5.772  -2.408 -22.696  1.00  0.00    -0.550 OA
ATOM      9  O   UNL     1      -6.612  -0.351 -22.139  1.00  0.00    -0.550 OA
ENDBRANCH   6   7
ENDBRANCH   5   6
ENDBRANCH   4   5
ENDBRANCH   3   4
ENDBRANCH   2   3
ENDBRANCH   1   2
BRANCH   1  10
ATOM     10  C   UNL     1      -9.901  -0.497 -27.952  1.00  0.00     0.000 C 
BRANCH  10  11
ATOM     11  C   UNL     1     -10.431   0.465 -26.873  1.00  0.00    -0.000 C 
BRANCH  11  12
ATOM     12  C   UNL     1      -9.375   0.813 -25.810  1.00  0.00    -0.000 C 
BRANCH  12  13
ATOM     13  C   UNL     1      -8.135   1.559 -26.338  1.00  0.00    -0.000 C 
BRANCH  13  14
ATOM     14  C   UNL     1      -6.993   1.625 -25.314  1.00  0.00    -0.000 C 
BRANCH  14  15
ATOM     15  C   UNL     1      -7.354   2.554 -24.149  1.00  0.00    -0.003 C 
ATOM     16  C   UNL     1      -6.115   2.939 -23.346  1.00  0.00     0.004 C 
ENDBRANCH  14  15
ENDBRANCH  13  14
ENDBRANCH  12  13
ENDBRANCH  11  12
ENDBRANCH  10  11
ENDBRANCH   1  10
TORSDOF 12
ENDMDL
MODEL 6
REMARK VINA RESULT:    -3.408     12.207     13.912
REMARK INTER + INTRA:          -7.119
REMARK INTER:                  -5.974
REMARK INTRA:                  -1.146
REMARK UNBOUND:                -1.321
REMARK SMILES CCCCCCCCCCCCCC(=O)[O-]
REMARK SMILES IDX 8 1 9 2 10 3 11 4 12 5 13 6 14 7 15 8 16 9 7 10 6 11 5 12
REMARK SMILES IDX 4 13 3 14 2 15 1 16
REMARK H PARENT
REMARK Flexibility Score: inf
ROOT
ATOM      1  C   UNL     1      -7.916  -3.413 -24.696  1.00  0.00     0.000 C 
ENDROOT
BRANCH   1   2
ATOM      2  C   UNL     1      -8.308  -3.377 -26.185  1.00  0.00     0.000 C 
BRANCH   2   3
ATOM      3  C   UNL     1      -8.179  -4.754 -26.860  1.00  0.00     0.000 C 
BRANCH   3   4
ATOM      4  C   UNL     1      -8.161  -5.908 -25.844  1.00  0.00     0.000 C 
BRANCH   4   5
ATOM      5  C   UNL     1      -8.379  -7.286 -26.497  1.00  0.00     0.006 C 
BRANCH   5   6
ATOM      6  C   UNL     1      -9.667  -7.997 -26.046  1.00  0.00     0.053 C 
BRANCH   6   7
ATOM      7  C   UNL     1      -9.451  -9.449 -25.744  1.00  0.00     0.041 C 
ATOM      8  O   UNL     1     -10.300 -10.091 -25.069  1.00  0.00    -0.550 OA
ATOM      9  O   UNL     1      -8.297 -10.087 -26.179  1.00  0.00    -0.550 OA
ENDBRANCH   6   7
ENDBRANCH   5   6
ENDBRANCH   4   5
ENDBRANCH   3   4
ENDBRANCH   2   3
ENDBRANCH   1   2
BRANCH   1  10
ATOM     10  C   UNL     1      -6.488  -2.898 -24.449  1.00  0.00     0.000 C 
BRANCH  10  11
ATOM     11  C   UNL     1      -6.305  -2.318 -23.036  1.00  0.00    -0.000 C 
BRANCH  11  12
ATOM     12  C   UNL     1      -6.723  -0.840 -22.936  1.00  0.00    -0.000 C 
BRANCH  12  13
ATOM     13  C   UNL     1      -6.422   0.011 -24.183  1.00  0.00    -0.000 C 
BRANCH  13  14
ATOM     14  C   UNL     1      -7.569   0.964 -24.550  1.00  0.00    -0.000 C 
BRANCH  14  15
ATOM     15  C   UNL     1      -8.557   0.289 -25.508  1.00  0.00    -0.003 C 
ATOM     16  C   UNL     1      -9.838  -0.116 -24.785  1.00  0.00     0.004 C 
ENDBRANCH  14  15
ENDBRANCH  13  14
ENDBRANCH  12  13
ENDBRANCH  11  12
ENDBRANCH  10  11
ENDBRANCH   1  10
TORSDOF 12
ENDMDL
MODEL 7
REMARK VINA RESULT:    -3.380     12.042     13.567
REMARK INTER + INTRA:          -7.072
REMARK INTER:                  -5.603
REMARK INTRA:                  -1.469
REMARK UNBOUND:                -1.321
REMARK SMILES CCCCCCCCCCCCCC(=O)[O-]
REMARK SMILES IDX 8 1 9 2 10 3 11 4 12 5 13 6 14 7 15 8 16 9 7 10 6 11 5 12
REMARK SMILES IDX 4 13 3 14 2 15 1 16
REMARK H PARENT
REMARK Flexibility Score: inf
ROOT
ATOM      1  C   UNL     1      -6.101   0.138 -22.537  1.00  0.00     0.000 C 
ENDROOT
BRANCH   1   2
ATOM      2  C   UNL     1      -5.012  -0.657 -23.281  1.00  0.00     0.000 C 
BRANCH   2   3
ATOM      3  C   UNL     1      -5.601  -1.645 -24.303  1.00  0.00     0.000 C 
BRANCH   3   4
ATOM      4  C   UNL     1      -6.464  -2.733 -23.642  1.00  0.00     0.000 C 
BRANCH   4   5
ATOM      5  C   UNL     1      -7.912  -2.752 -24.166  1.00  0.00     0.006 C 
BRANCH   5   6
ATOM      6  C   UNL     1      -8.048  -3.256 -25.614  1.00  0.00     0.053 C 
BRANCH   6   7
ATOM      7  C   UNL     1      -7.818  -4.732 -25.737  1.00  0.00     0.041 C 
ATOM      8  O   UNL     1      -6.700  -5.171 -26.116  1.00  0.00    -0.550 OA
ATOM      9  O   UNL     1      -8.849  -5.622 -25.466  1.00  0.00    -0.550 OA
ENDBRANCH   6   7
ENDBRANCH   5   6
ENDBRANCH   4   5
ENDBRANCH   3   4
ENDBRANCH   2   3
ENDBRANCH   1   2
BRANCH   1  10
ATOM     10  C   UNL     1      -5.651   1.565 -22.183  1.00  0.00     0.000 C 
BRANCH  10  11
ATOM     11  C   UNL     1      -6.467   2.643 -22.918  1.00  0.00    -0.000 C 
BRANCH  11  12
ATOM     12  C   UNL     1      -6.460   2.462 -24.446  1.00  0.00    -0.000 C 
BRANCH  12  13
ATOM     13  C   UNL     1      -7.847   2.280 -25.090  1.00  0.00    -0.000 C 
BRANCH  13  14
ATOM     14  C   UNL     1      -8.097   0.846 -25.579  1.00  0.00    -0.000 C 
BRANCH  14  15
ATOM     15  C   UNL     1      -9.383   0.274 -24.970  1.00  0.00    -0.003 C 
ATOM     16  C   UNL     1     -10.435   0.016 -26.044  1.00  0.00     0.004 C 
ENDBRANCH  14  15
ENDBRANCH  13  14
ENDBRANCH  12  13
ENDBRANCH  11  12
ENDBRANCH  10  11
ENDBRANCH   1  10
TORSDOF 12
ENDMDL
MODEL 8
REMARK VINA RESULT:    -3.335     12.491     13.905
REMARK INTER + INTRA:          -6.995
REMARK INTER:                  -5.369
REMARK INTRA:                  -1.626
REMARK UNBOUND:                -1.321
REMARK SMILES CCCCCCCCCCCCCC(=O)[O-]
REMARK SMILES IDX 8 1 9 2 10 3 11 4 12 5 13 6 14 7 15 8 16 9 7 10 6 11 5 12
REMARK SMILES IDX 4 13 3 14 2 15 1 16
REMARK H PARENT
REMARK Flexibility Score: inf
ROOT
ATOM      1  C   UNL     1      -7.125  -1.142 -22.827  1.00  0.00     0.000 C 
ENDROOT
BRANCH   1   2
ATOM      2  C   UNL     1      -5.676  -1.499 -23.207  1.00  0.00     0.000 C 
BRANCH   2   3
ATOM      3  C   UNL     1      -5.534  -2.956 -23.680  1.00  0.00     0.000 C 
BRANCH   3   4
ATOM      4  C   UNL     1      -4.973  -3.060 -25.108  1.00  0.00     0.000 C 
BRANCH   4   5
ATOM      5  C   UNL     1      -6.029  -3.504 -26.137  1.00  0.00     0.006 C 
BRANCH   5   6
ATOM      6  C   UNL     1      -6.694  -4.853 -25.811  1.00  0.00     0.053 C 
BRANCH   6   7
ATOM      7  C   UNL     1      -8.189  -4.800 -25.905  1.00  0.00     0.041 C 
ATOM      8  O   UNL     1      -8.885  -5.787 -25.545  1.00  0.00    -0.550 OA
ATOM      9  O   UNL     1      -8.814  -3.672 -26.421  1.00  0.00    -0.550 OA
ENDBRANCH   6   7
ENDBRANCH   5   6
ENDBRANCH   4   5
ENDBRANCH   3   4
ENDBRANCH   2   3
ENDBRANCH   1   2
BRANCH   1  10
ATOM     10  C   UNL     1      -8.072  -1.157 -24.038  1.00  0.00     0.000 C 
BRANCH  10  11
ATOM     11  C   UNL     1      -7.649  -0.162 -25.133  1.00  0.00    -0.000 C 
BRANCH  11  12
ATOM     12  C   UNL     1      -8.318   1.215 -24.983  1.00  0.00    -0.000 C 
BRANCH  12  13
ATOM     13  C   UNL     1      -7.350   2.413 -24.946  1.00  0.00    -0.000 C 
BRANCH  13  14
ATOM     14  C   UNL     1      -6.090   2.140 -24.112  1.00  0.00    -0.000 C 
BRANCH  14  15
ATOM     15  C   UNL     1      -6.295   2.563 -22.653  1.00  0.00    -0.003 C 
ATOM     16  C   UNL     1      -5.229   1.956 -21.746  1.00  0.00     0.004 C 
ENDBRANCH  14  15
ENDBRANCH  13  14
ENDBRANCH  12  13
ENDBRANCH  11  12
ENDBRANCH  10  11
ENDBRANCH   1  10
TORSDOF 12
ENDMDL
MODEL 9
REMARK VINA RESULT:    -3.326     11.945     13.582
REMARK INTER + INTRA:          -6.980
REMARK INTER:                  -5.554
REMARK INTRA:                  -1.426
REMARK UNBOUND:                -1.321
REMARK SMILES CCCCCCCCCCCCCC(=O)[O-]
REMARK SMILES IDX 8 1 9 2 10 3 11 4 12 5 13 6 14 7 15 8 16 9 7 10 6 11 5 12
REMARK SMILES IDX 4 13 3 14 2 15 1 16
REMARK H PARENT
REMARK Flexibility Score: inf
ROOT
ATOM      1  C   UNL     1      -6.771  -0.600 -22.598  1.00  0.00     0.000 C 
ENDROOT
BRANCH   1   2
ATOM      2  C   UNL     1      -6.384  -2.036 -22.996  1.00  0.00     0.000 C 
BRANCH   2   3
ATOM      3  C   UNL     1      -7.321  -2.622 -24.067  1.00  0.00     0.000 C 
BRANCH   3   4
ATOM      4  C   UNL     1      -6.619  -2.819 -25.420  1.00  0.00     0.000 C 
BRANCH   4   5
ATOM      5  C   UNL     1      -6.830  -4.227 -26.008  1.00  0.00     0.006 C 
BRANCH   5   6
ATOM      6  C   UNL     1      -8.251  -4.784 -25.806  1.00  0.00     0.053 C 
BRANCH   6   7
ATOM      7  C   UNL     1      -8.291  -6.282 -25.804  1.00  0.00     0.041 C 
ATOM      8  O   UNL     1      -9.395  -6.888 -25.824  1.00  0.00    -0.550 OA
ATOM      9  O   UNL     1      -7.110  -7.010 -25.745  1.00  0.00    -0.550 OA
ENDBRANCH   6   7
ENDBRANCH   5   6
ENDBRANCH   4   5
ENDBRANCH   3   4
ENDBRANCH   2   3
ENDBRANCH   1   2
BRANCH   1  10
ATOM     10  C   UNL     1      -5.847   0.455 -23.229  1.00  0.00     0.000 C 
BRANCH  10  11
ATOM     11  C   UNL     1      -6.496   1.849 -23.291  1.00  0.00    -0.000 C 
BRANCH  11  12
ATOM     12  C   UNL     1      -7.272   2.092 -24.598  1.00  0.00    -0.000 C 
BRANCH  12  13
ATOM     13  C   UNL     1      -6.934   1.125 -25.749  1.00  0.00    -0.000 C 
BRANCH  13  14
ATOM     14  C   UNL     1      -8.179   0.477 -26.372  1.00  0.00    -0.000 C 
BRANCH  14  15
ATOM     15  C   UNL     1      -9.276   0.273 -25.321  1.00  0.00    -0.003 C 
ATOM     16  C   UNL     1     -10.612  -0.066 -25.976  1.00  0.00     0.004 C 
ENDBRANCH  14  15
ENDBRANCH  13  14
ENDBRANCH  12  13
ENDBRANCH  11  12
ENDBRANCH  10  11
ENDBRANCH   1  10
TORSDOF 12
ENDMDL
