MODEL 1
REMARK VINA RESULT:    -4.651      0.000      0.000
REMARK INTER + INTRA:         -13.526
REMARK INTER:                 -10.089
REMARK INTRA:                  -3.437
REMARK UNBOUND:                -3.437
REMARK SMILES CCCCCCCCCCCCCCCCCCCCCC(=O)[O-]
REMARK SMILES IDX 12 1 11 2 10 3 9 4 8 5 7 6 6 7 5 8 4 9 3 10 2 11 1 12 13 13
REMARK SMILES IDX 14 14 15 15 16 16 17 17 18 18 19 19 20 20 21 21 22 22 23 23
REMARK SMILES IDX 24 24
REMARK H PARENT
REMARK Flexibility Score: inf
ROOT
ATOM      1  C   UNL     1      15.991 -29.672  22.502  1.00  0.00     0.000 C 
ENDROOT
BRANCH   1   2
ATOM      2  C   UNL     1      17.393 -30.302  22.575  1.00  0.00     0.000 C 
BRANCH   2   3
ATOM      3  C   UNL     1      17.556 -31.493  21.616  1.00  0.00     0.000 C 
BRANCH   3   4
ATOM      4  C   UNL     1      18.699 -32.436  22.033  1.00  0.00    -0.000 C 
BRANCH   4   5
ATOM      5  C   UNL     1      19.616 -32.805  20.854  1.00  0.00    -0.000 C 
BRANCH   5   6
ATOM      6  C   UNL     1      20.867 -31.912  20.778  1.00  0.00    -0.000 C 
BRANCH   6   7
ATOM      7  C   UNL     1      21.240 -31.299  22.138  1.00  0.00    -0.000 C 
BRANCH   7   8
ATOM      8  C   UNL     1      21.236 -29.763  22.117  1.00  0.00    -0.000 C 
BRANCH   8   9
ATOM      9  C   UNL     1      20.852 -29.235  20.727  1.00  0.00    -0.000 C 
BRANCH   9  10
ATOM     10  C   UNL     1      19.783 -28.129  20.779  1.00  0.00    -0.000 C 
BRANCH  10  11
ATOM     11  C   UNL     1      20.316 -26.703  20.552  1.00  0.00    -0.003 C 
ATOM     12  C   UNL     1      20.420 -25.891  21.843  1.00  0.00     0.004 C 
ENDBRANCH  10  11
ENDBRANCH   9  10
ENDBRANCH   8   9
ENDBRANCH   7   8
ENDBRANCH   6   7
ENDBRANCH   5   6
ENDBRANCH   4   5
ENDBRANCH   3   4
ENDBRANCH   2   3
ENDBRANCH   1   2
BRANCH   1  13
ATOM     13  C   UNL     1      15.008 -30.500  21.655  1.00  0.00     0.000 C 
BRANCH  13  14
ATOM     14  C   UNL     1      13.697 -30.891  22.366  1.00  0.00     0.000 C 
BRANCH  14  15
ATOM     15  C   UNL     1      13.831 -31.182  23.873  1.00  0.00     0.000 C 
BRANCH  15  16
ATOM     16  C   UNL     1      13.974 -32.674  24.234  1.00  0.00     0.000 C 
BRANCH  16  17
ATOM     17  C   UNL     1      15.423 -33.165  24.427  1.00  0.00     0.000 C 
BRANCH  17  18
ATOM     18  C   UNL     1      15.871 -34.278  23.462  1.00  0.00     0.000 C 
BRANCH  18  19
ATOM     19  C   UNL     1      15.142 -34.228  22.110  1.00  0.00     0.000 C 
BRANCH  19  20
ATOM     20  C   UNL     1      15.866 -35.020  21.006  1.00  0.00     0.006 C 
BRANCH  20  21
ATOM     21  C   UNL     1      17.089 -35.810  21.502  1.00  0.00     0.053 C 
BRANCH  21  22
ATOM     22  C   UNL     1      17.629 -36.752  20.470  1.00  0.00     0.041 C 
ATOM     23  O   UNL     1      17.885 -37.946  20.772  1.00  0.00    -0.550 OA
ATOM     24  O   UNL     1      17.818 -36.319  19.163  1.00  0.00    -0.550 OA
ENDBRANCH  21  22
ENDBRANCH  20  21
ENDBRANCH  19  20
ENDBRANCH  18  19
ENDBRANCH  17  18
ENDBRANCH  16  17
ENDBRANCH  15  16
ENDBRANCH  14  15
ENDBRANCH  13  14
ENDBRANCH   1  13
TORSDOF 20
ENDMDL
MODEL 2
REMARK VINA RESULT:    -4.615      3.370      5.678
REMARK INTER + INTRA:         -13.447
REMARK INTER:                  -9.285
REMARK INTRA:                  -4.162
REMARK UNBOUND:                -3.437
REMARK SMILES CCCCCCCCCCCCCCCCCCCCCC(=O)[O-]
REMARK SMILES IDX 12 1 11 2 10 3 9 4 8 5 7 6 6 7 5 8 4 9 3 10 2 11 1 12 13 13
REMARK SMILES IDX 14 14 15 15 16 16 17 17 18 18 19 19 20 20 21 21 22 22 23 23
REMARK SMILES IDX 24 24
REMARK H PARENT
REMARK Flexibility Score: inf
ROOT
ATOM      1  C   UNL     1      17.232 -35.620  23.354  1.00  0.00     0.000 C 
ENDROOT
BRANCH   1   2
ATOM      2  C   UNL     1      18.763 -35.464  23.367  1.00  0.00     0.000 C 
BRANCH   2   3
ATOM      3  C   UNL     1      19.443 -36.206  22.205  1.00  0.00     0.000 C 
BRANCH   3   4
ATOM      4  C   UNL     1      19.030 -37.686  22.127  1.00  0.00    -0.000 C 
BRANCH   4   5
ATOM      5  C   UNL     1      18.208 -38.003  20.866  1.00  0.00    -0.000 C 
BRANCH   5   6
ATOM      6  C   UNL     1      18.096 -36.797  19.917  1.00  0.00    -0.000 C 
BRANCH   6   7
ATOM      7  C   UNL     1      16.646 -36.316  19.739  1.00  0.00    -0.000 C 
BRANCH   7   8
ATOM      8  C   UNL     1      16.554 -34.821  19.400  1.00  0.00    -0.000 C 
BRANCH   8   9
ATOM      9  C   UNL     1      17.926 -34.143  19.536  1.00  0.00    -0.000 C 
BRANCH   9  10
ATOM     10  C   UNL     1      17.886 -32.879  20.414  1.00  0.00    -0.000 C 
BRANCH  10  11
ATOM     11  C   UNL     1      19.263 -32.360  20.863  1.00  0.00    -0.003 C 
ATOM     12  C   UNL     1      20.413 -33.276  20.446  1.00  0.00     0.004 C 
ENDBRANCH  10  11
ENDBRANCH   9  10
ENDBRANCH   8   9
ENDBRANCH   7   8
ENDBRANCH   6   7
ENDBRANCH   5   6
ENDBRANCH   4   5
ENDBRANCH   3   4
ENDBRANCH   2   3
ENDBRANCH   1   2
BRANCH   1  13
ATOM     13  C   UNL     1      16.543 -34.834  24.484  1.00  0.00     0.000 C 
BRANCH  13  14
ATOM     14  C   UNL     1      15.204 -34.172  24.101  1.00  0.00     0.000 C 
BRANCH  14  15
ATOM     15  C   UNL     1      15.027 -33.873  22.600  1.00  0.00     0.000 C 
BRANCH  15  16
ATOM     16  C   UNL     1      14.695 -32.406  22.266  1.00  0.00     0.000 C 
BRANCH  16  17
ATOM     17  C   UNL     1      14.628 -31.457  23.479  1.00  0.00     0.000 C 
BRANCH  17  18
ATOM     18  C   UNL     1      15.544 -30.222  23.397  1.00  0.00     0.000 C 
BRANCH  18  19
ATOM     19  C   UNL     1      17.032 -30.588  23.277  1.00  0.00     0.000 C 
BRANCH  19  20
ATOM     20  C   UNL     1      17.548 -31.409  24.474  1.00  0.00     0.006 C 
BRANCH  20  21
ATOM     21  C   UNL     1      19.042 -31.763  24.392  1.00  0.00     0.053 C 
BRANCH  21  22
ATOM     22  C   UNL     1      19.564 -32.373  25.657  1.00  0.00     0.041 C 
ATOM     23  O   UNL     1      18.768 -32.865  26.500  1.00  0.00    -0.550 OA
ATOM     24  O   UNL     1      20.932 -32.431  25.890  1.00  0.00    -0.550 OA
ENDBRANCH  21  22
ENDBRANCH  20  21
ENDBRANCH  19  20
ENDBRANCH  18  19
ENDBRANCH  17  18
ENDBRANCH  16  17
ENDBRANCH  15  16
ENDBRANCH  14  15
ENDBRANCH  13  14
ENDBRANCH   1  13
TORSDOF 20
ENDMDL
MODEL 3
REMARK VINA RESULT:    -4.585      3.935      7.550
REMARK INTER + INTRA:         -13.383
REMARK INTER:                 -10.149
REMARK INTRA:                  -3.234
REMARK UNBOUND:                -3.437
REMARK SMILES CCCCCCCCCCCCCCCCCCCCCC(=O)[O-]
REMARK SMILES IDX 12 1 11 2 10 3 9 4 8 5 7 6 6 7 5 8 4 9 3 10 2 11 1 12 13 13
REMARK SMILES IDX 14 14 15 15 16 16 17 17 18 18 19 19 20 20 21 21 22 22 23 23
REMARK SMILES IDX 24 24
REMARK H PARENT
REMARK Flexibility Score: inf
ROOT
ATOM      1  C   UNL     1      16.507 -34.633  19.627  1.00  0.00     0.000 C 
ENDROOT
BRANCH   1   2
ATOM      2  C   UNL     1      16.426 -36.106  20.067  1.00  0.00     0.000 C 
BRANCH   2   3
ATOM      3  C   UNL     1      17.364 -37.017  19.259  1.00  0.00     0.000 C 
BRANCH   3   4
ATOM      4  C   UNL     1      18.151 -37.995  20.149  1.00  0.00    -0.000 C 
BRANCH   4   5
ATOM      5  C   UNL     1      18.140 -37.580  21.631  1.00  0.00    -0.000 C 
BRANCH   5   6
ATOM      6  C   UNL     1      19.522 -37.722  22.293  1.00  0.00    -0.000 C 
BRANCH   6   7
ATOM      7  C   UNL     1      19.484 -38.596  23.557  1.00  0.00    -0.000 C 
BRANCH   7   8
ATOM      8  C   UNL     1      19.543 -37.771  24.852  1.00  0.00    -0.000 C 
BRANCH   8   9
ATOM      9  C   UNL     1      18.616 -38.366  25.923  1.00  0.00    -0.000 C 
BRANCH   9  10
ATOM     10  C   UNL     1      17.358 -37.514  26.168  1.00  0.00    -0.000 C 
BRANCH  10  11
ATOM     11  C   UNL     1      16.277 -38.189  27.030  1.00  0.00    -0.003 C 
ATOM     12  C   UNL     1      16.280 -37.706  28.480  1.00  0.00     0.004 C 
ENDBRANCH  10  11
ENDBRANCH   9  10
ENDBRANCH   8   9
ENDBRANCH   7   8
ENDBRANCH   6   7
ENDBRANCH   5   6
ENDBRANCH   4   5
ENDBRANCH   3   4
ENDBRANCH   2   3
ENDBRANCH   1   2
BRANCH   1  13
ATOM     13  C   UNL     1      17.934 -34.205  19.240  1.00  0.00     0.000 C 
BRANCH  13  14
ATOM     14  C   UNL     1      18.647 -33.297  20.262  1.00  0.00     0.000 C 
BRANCH  14  15
ATOM     15  C   UNL     1      19.710 -33.997  21.130  1.00  0.00     0.000 C 
BRANCH  15  16
ATOM     16  C   UNL     1      19.350 -34.120  22.623  1.00  0.00     0.000 C 
BRANCH  16  17
ATOM     17  C   UNL     1      17.927 -33.654  22.993  1.00  0.00     0.000 C 
BRANCH  17  18
ATOM     18  C   UNL     1      17.070 -34.693  23.737  1.00  0.00     0.000 C 
BRANCH  18  19
ATOM     19  C   UNL     1      15.591 -34.657  23.320  1.00  0.00     0.000 C 
BRANCH  19  20
ATOM     20  C   UNL     1      15.124 -33.257  22.880  1.00  0.00     0.006 C 
BRANCH  20  21
ATOM     21  C   UNL     1      14.618 -32.375  24.033  1.00  0.00     0.053 C 
BRANCH  21  22
ATOM     22  C   UNL     1      13.545 -31.420  23.605  1.00  0.00     0.041 C 
ATOM     23  O   UNL     1      12.920 -31.609  22.529  1.00  0.00    -0.550 OA
ATOM     24  O   UNL     1      13.212 -30.340  24.412  1.00  0.00    -0.550 OA
ENDBRANCH  21  22
ENDBRANCH  20  21
ENDBRANCH  19  20
ENDBRANCH  18  19
ENDBRANCH  17  18
ENDBRANCH  16  17
ENDBRANCH  15  16
ENDBRANCH  14  15
ENDBRANCH  13  14
ENDBRANCH   1  13
TORSDOF 20
ENDMDL
MODEL 4
REMARK VINA RESULT:    -4.537      3.319      7.314
REMARK INTER + INTRA:         -13.278
REMARK INTER:                  -9.812
REMARK INTRA:                  -3.467
REMARK UNBOUND:                -3.437
REMARK SMILES CCCCCCCCCCCCCCCCCCCCCC(=O)[O-]
REMARK SMILES IDX 12 1 11 2 10 3 9 4 8 5 7 6 6 7 5 8 4 9 3 10 2 11 1 12 13 13
REMARK SMILES IDX 14 14 15 15 16 16 17 17 18 18 19 19 20 20 21 21 22 22 23 23
REMARK SMILES IDX 24 24
REMARK H PARENT
REMARK Flexibility Score: inf
ROOT
ATOM      1  C   UNL     1      17.205 -37.185  19.427  1.00  0.00     0.000 C 
ENDROOT
BRANCH   1   2
ATOM      2  C   UNL     1      18.047 -37.995  20.429  1.00  0.00     0.000 C 
BRANCH   2   3
ATOM      3  C   UNL     1      18.136 -37.318  21.807  1.00  0.00     0.000 C 
BRANCH   3   4
ATOM      4  C   UNL     1      19.570 -36.889  22.163  1.00  0.00    -0.000 C 
BRANCH   4   5
ATOM      5  C   UNL     1      19.606 -35.619  23.031  1.00  0.00    -0.000 C 
BRANCH   5   6
ATOM      6  C   UNL     1      18.206 -35.187  23.503  1.00  0.00    -0.000 C 
BRANCH   6   7
ATOM      7  C   UNL     1      18.247 -34.378  24.809  1.00  0.00    -0.000 C 
BRANCH   7   8
ATOM      8  C   UNL     1      17.178 -34.826  25.818  1.00  0.00    -0.000 C 
BRANCH   8   9
ATOM      9  C   UNL     1      16.861 -36.320  25.652  1.00  0.00    -0.000 C 
BRANCH   9  10
ATOM     10  C   UNL     1      17.295 -37.164  26.865  1.00  0.00    -0.000 C 
BRANCH  10  11
ATOM     11  C   UNL     1      17.869 -38.549  26.518  1.00  0.00    -0.003 C 
ATOM     12  C   UNL     1      18.904 -38.502  25.394  1.00  0.00     0.004 C 
ENDBRANCH  10  11
ENDBRANCH   9  10
ENDBRANCH   8   9
ENDBRANCH   7   8
ENDBRANCH   6   7
ENDBRANCH   5   6
ENDBRANCH   4   5
ENDBRANCH   3   4
ENDBRANCH   2   3
ENDBRANCH   1   2
BRANCH   1  13
ATOM     13  C   UNL     1      16.461 -36.010  20.085  1.00  0.00     0.000 C 
BRANCH  13  14
ATOM     14  C   UNL     1      16.685 -34.636  19.421  1.00  0.00     0.000 C 
BRANCH  14  15
ATOM     15  C   UNL     1      18.151 -34.165  19.374  1.00  0.00     0.000 C 
BRANCH  15  16
ATOM     16  C   UNL     1      18.539 -33.143  20.461  1.00  0.00     0.000 C 
BRANCH  16  17
ATOM     17  C   UNL     1      17.354 -32.523  21.229  1.00  0.00     0.000 C 
BRANCH  17  18
ATOM     18  C   UNL     1      17.742 -31.568  22.373  1.00  0.00     0.000 C 
BRANCH  18  19
ATOM     19  C   UNL     1      16.523 -30.960  23.084  1.00  0.00     0.000 C 
BRANCH  19  20
ATOM     20  C   UNL     1      15.619 -32.021  23.740  1.00  0.00     0.006 C 
BRANCH  20  21
ATOM     21  C   UNL     1      14.163 -31.568  23.936  1.00  0.00     0.053 C 
BRANCH  21  22
ATOM     22  C   UNL     1      13.345 -31.687  22.686  1.00  0.00     0.041 C 
ATOM     23  O   UNL     1      12.283 -31.024  22.556  1.00  0.00    -0.550 OA
ATOM     24  O   UNL     1      13.775 -32.505  21.648  1.00  0.00    -0.550 OA
ENDBRANCH  21  22
ENDBRANCH  20  21
ENDBRANCH  19  20
ENDBRANCH  18  19
ENDBRANCH  17  18
ENDBRANCH  16  17
ENDBRANCH  15  16
ENDBRANCH  14  15
ENDBRANCH  13  14
ENDBRANCH   1  13
TORSDOF 20
ENDMDL
MODEL 5
REMARK VINA RESULT:    -4.511      3.780      6.001
REMARK INTER + INTRA:         -13.221
REMARK INTER:                  -9.684
REMARK INTRA:                  -3.537
REMARK UNBOUND:                -3.437
REMARK SMILES CCCCCCCCCCCCCCCCCCCCCC(=O)[O-]
REMARK SMILES IDX 12 1 11 2 10 3 9 4 8 5 7 6 6 7 5 8 4 9 3 10 2 11 1 12 13 13
REMARK SMILES IDX 14 14 15 15 16 16 17 17 18 18 19 19 20 20 21 21 22 22 23 23
REMARK SMILES IDX 24 24
REMARK H PARENT
REMARK Flexibility Score: inf
ROOT
ATOM      1  C   UNL     1      18.287 -34.276  19.333  1.00  0.00     0.000 C 
ENDROOT
BRANCH   1   2
ATOM      2  C   UNL     1      19.712 -34.326  19.912  1.00  0.00     0.000 C 
BRANCH   2   3
ATOM      3  C   UNL     1      19.876 -33.439  21.157  1.00  0.00     0.000 C 
BRANCH   3   4
ATOM      4  C   UNL     1      20.500 -32.071  20.830  1.00  0.00    -0.000 C 
BRANCH   4   5
ATOM      5  C   UNL     1      19.677 -30.900  21.393  1.00  0.00    -0.000 C 
BRANCH   5   6
ATOM      6  C   UNL     1      18.243 -30.864  20.834  1.00  0.00    -0.000 C 
BRANCH   6   7
ATOM      7  C   UNL     1      17.177 -31.003  21.933  1.00  0.00    -0.000 C 
BRANCH   7   8
ATOM      8  C   UNL     1      17.749 -30.799  23.344  1.00  0.00    -0.000 C 
BRANCH   8   9
ATOM      9  C   UNL     1      17.510 -32.041  24.216  1.00  0.00    -0.000 C 
BRANCH   9  10
ATOM     10  C   UNL     1      18.598 -32.241  25.286  1.00  0.00    -0.000 C 
BRANCH  10  11
ATOM     11  C   UNL     1      19.968 -32.685  24.742  1.00  0.00    -0.003 C 
ATOM     12  C   UNL     1      21.034 -31.594  24.842  1.00  0.00     0.004 C 
ENDBRANCH  10  11
ENDBRANCH   9  10
ENDBRANCH   8   9
ENDBRANCH   7   8
ENDBRANCH   6   7
ENDBRANCH   5   6
ENDBRANCH   4   5
ENDBRANCH   3   4
ENDBRANCH   2   3
ENDBRANCH   1   2
BRANCH   1  13
ATOM     13  C   UNL     1      17.571 -35.638  19.392  1.00  0.00     0.000 C 
BRANCH  13  14
ATOM     14  C   UNL     1      16.309 -35.678  20.278  1.00  0.00     0.000 C 
BRANCH  14  15
ATOM     15  C   UNL     1      16.538 -35.318  21.758  1.00  0.00     0.000 C 
BRANCH  15  16
ATOM     16  C   UNL     1      15.431 -34.454  22.394  1.00  0.00     0.000 C 
BRANCH  16  17
ATOM     17  C   UNL     1      14.789 -33.416  21.452  1.00  0.00     0.000 C 
BRANCH  17  18
ATOM     18  C   UNL     1      13.819 -32.430  22.127  1.00  0.00     0.000 C 
BRANCH  18  19
ATOM     19  C   UNL     1      13.939 -32.427  23.659  1.00  0.00     0.000 C 
BRANCH  19  20
ATOM     20  C   UNL     1      13.994 -31.008  24.256  1.00  0.00     0.006 C 
BRANCH  20  21
ATOM     21  C   UNL     1      13.385 -29.925  23.351  1.00  0.00     0.053 C 
BRANCH  21  22
ATOM     22  C   UNL     1      12.445 -29.018  24.085  1.00  0.00     0.041 C 
ATOM     23  O   UNL     1      11.245 -28.915  23.717  1.00  0.00    -0.550 OA
ATOM     24  O   UNL     1      12.885 -28.311  25.197  1.00  0.00    -0.550 OA
ENDBRANCH  21  22
ENDBRANCH  20  21
ENDBRANCH  19  20
ENDBRANCH  18  19
ENDBRANCH  17  18
ENDBRANCH  16  17
ENDBRANCH  15  16
ENDBRANCH  14  15
ENDBRANCH  13  14
ENDBRANCH   1  13
TORSDOF 20
ENDMDL
MODEL 6
REMARK VINA RESULT:    -4.496      3.655      7.293
REMARK INTER + INTRA:         -13.190
REMARK INTER:                  -9.947
REMARK INTRA:                  -3.243
REMARK UNBOUND:                -3.437
REMARK SMILES CCCCCCCCCCCCCCCCCCCCCC(=O)[O-]
REMARK SMILES IDX 12 1 11 2 10 3 9 4 8 5 7 6 6 7 5 8 4 9 3 10 2 11 1 12 13 13
REMARK SMILES IDX 14 14 15 15 16 16 17 17 18 18 19 19 20 20 21 21 22 22 23 23
REMARK SMILES IDX 24 24
REMARK H PARENT
REMARK Flexibility Score: inf
ROOT
ATOM      1  C   UNL     1      17.556 -34.523  19.310  1.00  0.00     0.000 C 
ENDROOT
BRANCH   1   2
ATOM      2  C   UNL     1      19.010 -34.663  19.795  1.00  0.00     0.000 C 
BRANCH   2   3
ATOM      3  C   UNL     1      19.264 -33.929  21.121  1.00  0.00     0.000 C 
BRANCH   3   4
ATOM      4  C   UNL     1      19.705 -34.880  22.248  1.00  0.00    -0.000 C 
BRANCH   4   5
ATOM      5  C   UNL     1      19.210 -36.320  22.030  1.00  0.00    -0.000 C 
BRANCH   5   6
ATOM      6  C   UNL     1      18.556 -36.916  23.289  1.00  0.00    -0.000 C 
BRANCH   6   7
ATOM      7  C   UNL     1      18.764 -36.040  24.535  1.00  0.00    -0.000 C 
BRANCH   7   8
ATOM      8  C   UNL     1      17.635 -36.195  25.565  1.00  0.00    -0.000 C 
BRANCH   8   9
ATOM      9  C   UNL     1      18.082 -37.082  26.737  1.00  0.00    -0.000 C 
BRANCH   9  10
ATOM     10  C   UNL     1      17.485 -38.500  26.678  1.00  0.00    -0.000 C 
BRANCH  10  11
ATOM     11  C   UNL     1      16.088 -38.640  27.310  1.00  0.00    -0.003 C 
ATOM     12  C   UNL     1      15.996 -38.013  28.701  1.00  0.00     0.004 C 
ENDBRANCH  10  11
ENDBRANCH   9  10
ENDBRANCH   8   9
ENDBRANCH   7   8
ENDBRANCH   6   7
ENDBRANCH   5   6
ENDBRANCH   4   5
ENDBRANCH   3   4
ENDBRANCH   2   3
ENDBRANCH   1   2
BRANCH   1  13
ATOM     13  C   UNL     1      16.669 -35.708  19.733  1.00  0.00     0.000 C 
BRANCH  13  14
ATOM     14  C   UNL     1      15.366 -35.325  20.463  1.00  0.00     0.000 C 
BRANCH  14  15
ATOM     15  C   UNL     1      15.466 -34.085  21.373  1.00  0.00     0.000 C 
BRANCH  15  16
ATOM     16  C   UNL     1      15.901 -34.377  22.822  1.00  0.00     0.000 C 
BRANCH  16  17
ATOM     17  C   UNL     1      16.563 -33.195  23.558  1.00  0.00     0.000 C 
BRANCH  17  18
ATOM     18  C   UNL     1      16.767 -31.927  22.710  1.00  0.00     0.000 C 
BRANCH  18  19
ATOM     19  C   UNL     1      16.600 -30.632  23.520  1.00  0.00     0.000 C 
BRANCH  19  20
ATOM     20  C   UNL     1      15.222 -29.973  23.324  1.00  0.00     0.006 C 
BRANCH  20  21
ATOM     21  C   UNL     1      14.422 -30.536  22.137  1.00  0.00     0.053 C 
BRANCH  21  22
ATOM     22  C   UNL     1      13.200 -31.288  22.567  1.00  0.00     0.041 C 
ATOM     23  O   UNL     1      12.156 -31.258  21.865  1.00  0.00    -0.550 OA
ATOM     24  O   UNL     1      13.224 -32.052  23.728  1.00  0.00    -0.550 OA
ENDBRANCH  21  22
ENDBRANCH  20  21
ENDBRANCH  19  20
ENDBRANCH  18  19
ENDBRANCH  17  18
ENDBRANCH  16  17
ENDBRANCH  15  16
ENDBRANCH  14  15
ENDBRANCH  13  14
ENDBRANCH   1  13
TORSDOF 20
ENDMDL
MODEL 7
REMARK VINA RESULT:    -4.495      2.998      5.001
REMARK INTER + INTRA:         -13.186
REMARK INTER:                  -9.568
REMARK INTRA:                  -3.618
REMARK UNBOUND:                -3.437
REMARK SMILES CCCCCCCCCCCCCCCCCCCCCC(=O)[O-]
REMARK SMILES IDX 12 1 11 2 10 3 9 4 8 5 7 6 6 7 5 8 4 9 3 10 2 11 1 12 13 13
REMARK SMILES IDX 14 14 15 15 16 16 17 17 18 18 19 19 20 20 21 21 22 22 23 23
REMARK SMILES IDX 24 24
REMARK H PARENT
REMARK Flexibility Score: inf
ROOT
ATOM      1  C   UNL     1      14.197 -31.215  23.673  1.00  0.00     0.000 C 
ENDROOT
BRANCH   1   2
ATOM      2  C   UNL     1      14.783 -29.803  23.486  1.00  0.00     0.000 C 
BRANCH   2   3
ATOM      3  C   UNL     1      16.285 -29.826  23.157  1.00  0.00     0.000 C 
BRANCH   3   4
ATOM      4  C   UNL     1      17.027 -30.975  23.862  1.00  0.00    -0.000 C 
BRANCH   4   5
ATOM      5  C   UNL     1      18.168 -31.551  23.006  1.00  0.00    -0.000 C 
BRANCH   5   6
ATOM      6  C   UNL     1      18.195 -30.962  21.585  1.00  0.00    -0.000 C 
BRANCH   6   7
ATOM      7  C   UNL     1      18.337 -32.042  20.500  1.00  0.00    -0.000 C 
BRANCH   7   8
ATOM      8  C   UNL     1      19.122 -33.271  20.985  1.00  0.00    -0.000 C 
BRANCH   8   9
ATOM      9  C   UNL     1      19.193 -34.342  19.887  1.00  0.00    -0.000 C 
BRANCH   9  10
ATOM     10  C   UNL     1      17.816 -34.682  19.289  1.00  0.00    -0.000 C 
BRANCH  10  11
ATOM     11  C   UNL     1      17.433 -36.171  19.349  1.00  0.00    -0.003 C 
ATOM     12  C   UNL     1      17.956 -36.873  20.603  1.00  0.00     0.004 C 
ENDBRANCH  10  11
ENDBRANCH   9  10
ENDBRANCH   8   9
ENDBRANCH   7   8
ENDBRANCH   6   7
ENDBRANCH   5   6
ENDBRANCH   4   5
ENDBRANCH   3   4
ENDBRANCH   2   3
ENDBRANCH   1   2
BRANCH   1  13
ATOM     13  C   UNL     1      13.015 -31.499  22.729  1.00  0.00     0.000 C 
BRANCH  13  14
ATOM     14  C   UNL     1      13.403 -32.018  21.329  1.00  0.00     0.000 C 
BRANCH  14  15
ATOM     15  C   UNL     1      14.823 -32.605  21.220  1.00  0.00     0.000 C 
BRANCH  15  16
ATOM     16  C   UNL     1      14.942 -34.092  21.608  1.00  0.00     0.000 C 
BRANCH  16  17
ATOM     17  C   UNL     1      16.082 -34.424  22.591  1.00  0.00     0.000 C 
BRANCH  17  18
ATOM     18  C   UNL     1      15.651 -34.598  24.059  1.00  0.00     0.000 C 
BRANCH  18  19
ATOM     19  C   UNL     1      16.791 -35.097  24.962  1.00  0.00     0.000 C 
BRANCH  19  20
ATOM     20  C   UNL     1      17.755 -36.056  24.239  1.00  0.00     0.006 C 
BRANCH  20  21
ATOM     21  C   UNL     1      18.137 -37.297  25.062  1.00  0.00     0.053 C 
BRANCH  21  22
ATOM     22  C   UNL     1      17.420 -37.366  26.376  1.00  0.00     0.041 C 
ATOM     23  O   UNL     1      16.271 -37.875  26.446  1.00  0.00    -0.550 OA
ATOM     24  O   UNL     1      18.035 -36.898  27.530  1.00  0.00    -0.550 OA
ENDBRANCH  21  22
ENDBRANCH  20  21
ENDBRANCH  19  20
ENDBRANCH  18  19
ENDBRANCH  17  18
ENDBRANCH  16  17
ENDBRANCH  15  16
ENDBRANCH  14  15
ENDBRANCH  13  14
ENDBRANCH   1  13
TORSDOF 20
ENDMDL
MODEL 8
REMARK VINA RESULT:    -4.463      2.728      4.448
REMARK INTER + INTRA:         -13.118
REMARK INTER:                  -9.716
REMARK INTRA:                  -3.401
REMARK UNBOUND:                -3.437
REMARK SMILES CCCCCCCCCCCCCCCCCCCCCC(=O)[O-]
REMARK SMILES IDX 12 1 11 2 10 3 9 4 8 5 7 6 6 7 5 8 4 9 3 10 2 11 1 12 13 13
REMARK SMILES IDX 14 14 15 15 16 16 17 17 18 18 19 19 20 20 21 21 22 22 23 23
REMARK SMILES IDX 24 24
REMARK H PARENT
REMARK Flexibility Score: inf
ROOT
ATOM      1  C   UNL     1      17.030 -34.382  19.352  1.00  0.00     0.000 C 
ENDROOT
BRANCH   1   2
ATOM      2  C   UNL     1      18.347 -35.154  19.545  1.00  0.00     0.000 C 
BRANCH   2   3
ATOM      3  C   UNL     1      19.584 -34.244  19.458  1.00  0.00     0.000 C 
BRANCH   3   4
ATOM      4  C   UNL     1      20.035 -33.728  20.836  1.00  0.00    -0.000 C 
BRANCH   4   5
ATOM      5  C   UNL     1      20.623 -32.308  20.768  1.00  0.00    -0.000 C 
BRANCH   5   6
ATOM      6  C   UNL     1      20.749 -31.655  22.156  1.00  0.00    -0.000 C 
BRANCH   6   7
ATOM      7  C   UNL     1      20.756 -30.119  22.088  1.00  0.00    -0.000 C 
BRANCH   7   8
ATOM      8  C   UNL     1      20.287 -29.583  20.727  1.00  0.00    -0.000 C 
BRANCH   8   9
ATOM      9  C   UNL     1      19.437 -28.316  20.901  1.00  0.00    -0.000 C 
BRANCH   9  10
ATOM     10  C   UNL     1      20.249 -27.115  21.419  1.00  0.00    -0.000 C 
BRANCH  10  11
ATOM     11  C   UNL     1      21.386 -26.654  20.490  1.00  0.00    -0.003 C 
ATOM     12  C   UNL     1      22.687 -26.360  21.238  1.00  0.00     0.004 C 
ENDBRANCH  10  11
ENDBRANCH   9  10
ENDBRANCH   8   9
ENDBRANCH   7   8
ENDBRANCH   6   7
ENDBRANCH   5   6
ENDBRANCH   4   5
ENDBRANCH   3   4
ENDBRANCH   2   3
ENDBRANCH   1   2
BRANCH   1  13
ATOM     13  C   UNL     1      15.900 -34.894  20.263  1.00  0.00     0.000 C 
BRANCH  13  14
ATOM     14  C   UNL     1      16.348 -35.374  21.658  1.00  0.00     0.000 C 
BRANCH  14  15
ATOM     15  C   UNL     1      16.101 -34.375  22.805  1.00  0.00     0.000 C 
BRANCH  15  16
ATOM     16  C   UNL     1      17.330 -33.542  23.216  1.00  0.00     0.000 C 
BRANCH  16  17
ATOM     17  C   UNL     1      17.166 -32.016  23.070  1.00  0.00     0.000 C 
BRANCH  17  18
ATOM     18  C   UNL     1      16.874 -31.521  21.641  1.00  0.00     0.000 C 
BRANCH  18  19
ATOM     19  C   UNL     1      15.563 -30.725  21.540  1.00  0.00     0.000 C 
BRANCH  19  20
ATOM     20  C   UNL     1      14.336 -31.618  21.276  1.00  0.00     0.006 C 
BRANCH  20  21
ATOM     21  C   UNL     1      13.112 -31.271  22.139  1.00  0.00     0.053 C 
BRANCH  21  22
ATOM     22  C   UNL     1      13.442 -31.164  23.597  1.00  0.00     0.041 C 
ATOM     23  O   UNL     1      13.811 -32.180  24.241  1.00  0.00    -0.550 OA
ATOM     24  O   UNL     1      13.376 -29.932  24.236  1.00  0.00    -0.550 OA
ENDBRANCH  21  22
ENDBRANCH  20  21
ENDBRANCH  19  20
ENDBRANCH  18  19
ENDBRANCH  17  18
ENDBRANCH  16  17
ENDBRANCH  15  16
ENDBRANCH  14  15
ENDBRANCH  13  14
ENDBRANCH   1  13
TORSDOF 20
ENDMDL
MODEL 9
REMARK VINA RESULT:    -4.460      2.859      5.612
REMARK INTER + INTRA:         -13.111
REMARK INTER:                  -9.338
REMARK INTRA:                  -3.773
REMARK UNBOUND:                -3.437
REMARK SMILES CCCCCCCCCCCCCCCCCCCCCC(=O)[O-]
REMARK SMILES IDX 12 1 11 2 10 3 9 4 8 5 7 6 6 7 5 8 4 9 3 10 2 11 1 12 13 13
REMARK SMILES IDX 14 14 15 15 16 16 17 17 18 18 19 19 20 20 21 21 22 22 23 23
REMARK SMILES IDX 24 24
REMARK H PARENT
REMARK Flexibility Score: inf
ROOT
ATOM      1  C   UNL     1      19.353 -36.528  21.673  1.00  0.00     0.000 C 
ENDROOT
BRANCH   1   2
ATOM      2  C   UNL     1      18.620 -37.881  21.642  1.00  0.00     0.000 C 
BRANCH   2   3
ATOM      3  C   UNL     1      17.645 -37.998  20.459  1.00  0.00     0.000 C 
BRANCH   3   4
ATOM      4  C   UNL     1      17.484 -36.673  19.693  1.00  0.00    -0.000 C 
BRANCH   4   5
ATOM      5  C   UNL     1      16.187 -35.933  20.062  1.00  0.00    -0.000 C 
BRANCH   5   6
ATOM      6  C   UNL     1      16.297 -34.412  19.858  1.00  0.00    -0.000 C 
BRANCH   6   7
ATOM      7  C   UNL     1      17.735 -33.959  19.557  1.00  0.00    -0.000 C 
BRANCH   7   8
ATOM      8  C   UNL     1      18.289 -32.996  20.619  1.00  0.00    -0.000 C 
BRANCH   8   9
ATOM      9  C   UNL     1      19.825 -32.996  20.609  1.00  0.00    -0.000 C 
BRANCH   9  10
ATOM     10  C   UNL     1      20.427 -31.618  20.934  1.00  0.00    -0.000 C 
BRANCH  10  11
ATOM     11  C   UNL     1      21.295 -31.573  22.204  1.00  0.00    -0.003 C 
ATOM     12  C   UNL     1      20.749 -32.449  23.332  1.00  0.00     0.004 C 
ENDBRANCH  10  11
ENDBRANCH   9  10
ENDBRANCH   8   9
ENDBRANCH   7   8
ENDBRANCH   6   7
ENDBRANCH   5   6
ENDBRANCH   4   5
ENDBRANCH   3   4
ENDBRANCH   2   3
ENDBRANCH   1   2
BRANCH   1  13
ATOM     13  C   UNL     1      19.163 -35.777  23.003  1.00  0.00     0.000 C 
BRANCH  13  14
ATOM     14  C   UNL     1      18.285 -36.499  24.045  1.00  0.00     0.000 C 
BRANCH  14  15
ATOM     15  C   UNL     1      17.108 -35.671  24.595  1.00  0.00     0.000 C 
BRANCH  15  16
ATOM     16  C   UNL     1      16.347 -34.844  23.540  1.00  0.00     0.000 C 
BRANCH  16  17
ATOM     17  C   UNL     1      15.945 -33.424  23.986  1.00  0.00     0.000 C 
BRANCH  17  18
ATOM     18  C   UNL     1      17.115 -32.441  24.176  1.00  0.00     0.000 C 
BRANCH  18  19
ATOM     19  C   UNL     1      16.944 -31.144  23.368  1.00  0.00     0.000 C 
BRANCH  19  20
ATOM     20  C   UNL     1      15.468 -30.754  23.163  1.00  0.00     0.006 C 
BRANCH  20  21
ATOM     21  C   UNL     1      14.994 -30.843  21.703  1.00  0.00     0.053 C 
BRANCH  21  22
ATOM     22  C   UNL     1      13.716 -31.611  21.553  1.00  0.00     0.041 C 
ATOM     23  O   UNL     1      13.512 -32.309  20.526  1.00  0.00    -0.550 OA
ATOM     24  O   UNL     1      12.765 -31.583  22.565  1.00  0.00    -0.550 OA
ENDBRANCH  21  22
ENDBRANCH  20  21
ENDBRANCH  19  20
ENDBRANCH  18  19
ENDBRANCH  17  18
ENDBRANCH  16  17
ENDBRANCH  15  16
ENDBRANCH  14  15
ENDBRANCH  13  14
ENDBRANCH   1  13
TORSDOF 20
ENDMDL
