MODEL 1
REMARK VINA RESULT:    -2.235      0.000      0.000
REMARK INTER + INTRA:          -2.860
REMARK INTER:                  -2.627
REMARK INTRA:                  -0.233
REMARK UNBOUND:                -0.233
REMARK SMILES O=c1c(O)c(-c2ccc(O)cc2)oc2cc(O)cc(O)c12
REMARK SMILES IDX 5 1 3 2 2 3 1 4 21 5 19 6 18 7 16 8 15 9 14 10 13 11 6 12
REMARK SMILES IDX 7 13 8 14 9 15 12 16 11 17 10 18 4 20 20 22 17 24
REMARK H PARENT 10 19 4 21 20 23 17 25
REMARK Flexibility Score: inf
ROOT
ATOM      1  C   UNL     1     -19.027   9.346  26.129  1.00  0.00     0.180 A 
ATOM      2  C   UNL     1     -17.637   9.465  26.328  1.00  0.00     0.208 A 
ATOM      3  C   UNL     1     -16.809   9.681  25.216  1.00  0.00     0.238 A 
ATOM      4  O   UNL     1     -15.563   9.778  25.381  1.00  0.00    -0.285 OA
ATOM      5  C   UNL     1     -17.381   9.792  23.931  1.00  0.00     0.111 A 
ATOM      6  C   UNL     1     -16.617  10.013  22.761  1.00  0.00     0.134 A 
ATOM      7  C   UNL     1     -17.263  10.121  21.520  1.00  0.00     0.093 A 
ATOM      8  C   UNL     1     -18.655  10.015  21.428  1.00  0.00     0.123 A 
ATOM      9  C   UNL     1     -19.413   9.797  22.581  1.00  0.00     0.094 A 
ATOM     10  C   UNL     1     -18.787   9.684  23.826  1.00  0.00     0.146 A 
ATOM     11  O   UNL     1     -19.532   9.472  24.906  1.00  0.00    -0.452 OA
ENDROOT
BRANCH   1  12
ATOM     12  C   UNL     1     -19.964   9.100  27.249  1.00  0.00     0.021 A 
ATOM     13  C   UNL     1     -20.838  10.123  27.657  1.00  0.00     0.016 A 
ATOM     14  C   UNL     1     -21.747   9.905  28.697  1.00  0.00     0.047 A 
ATOM     15  C   UNL     1     -21.804   8.661  29.332  1.00  0.00     0.115 A 
ATOM     16  C   UNL     1     -20.041   7.844  27.879  1.00  0.00     0.016 A 
ATOM     17  C   UNL     1     -20.951   7.629  28.918  1.00  0.00     0.047 A 
BRANCH  15  18
ATOM     18  O   UNL     1     -22.714   8.459  30.367  1.00  0.00    -0.508 OA
ATOM     19  H   UNL     1     -23.714   8.447  30.199  1.00  0.00     0.293 HD
ENDBRANCH  15  18
ENDBRANCH   1  12
BRANCH   2  20
ATOM     20  O   UNL     1     -17.101   9.401  27.616  1.00  0.00    -0.502 OA
ATOM     21  H   UNL     1     -16.107   9.306  27.786  1.00  0.00     0.293 HD
ENDBRANCH   2  20
BRANCH   6  22
ATOM     22  O   UNL     1     -15.228  10.123  22.819  1.00  0.00    -0.507 OA
ATOM     23  H   UNL     1     -14.622   9.535  22.259  1.00  0.00     0.293 HD
ENDBRANCH   6  22
BRANCH   8  24
ATOM     24  O   UNL     1     -19.296  10.124  20.196  1.00  0.00    -0.508 OA
ATOM     25  H   UNL     1     -20.150  10.660  20.089  1.00  0.00     0.293 HD
ENDBRANCH   8  24
TORSDOF 5
ENDMDL
MODEL 2
REMARK VINA RESULT:    -1.638      0.949      0.998
REMARK INTER + INTRA:          -2.158
REMARK INTER:                  -2.104
REMARK INTRA:                  -0.054
REMARK UNBOUND:                -0.233
REMARK SMILES O=c1c(O)c(-c2ccc(O)cc2)oc2cc(O)cc(O)c12
REMARK SMILES IDX 5 1 3 2 2 3 1 4 21 5 19 6 18 7 16 8 15 9 14 10 13 11 6 12
REMARK SMILES IDX 7 13 8 14 9 15 12 16 11 17 10 18 4 20 20 22 17 24
REMARK H PARENT 10 19 4 21 20 23 17 25
REMARK Flexibility Score: inf
ROOT
ATOM      1  C   UNL     1     -19.076   9.259  26.780  1.00  0.00     0.180 A 
ATOM      2  C   UNL     1     -17.707   9.077  27.058  1.00  0.00     0.208 A 
ATOM      3  C   UNL     1     -16.788   9.120  25.999  1.00  0.00     0.238 A 
ATOM      4  O   UNL     1     -15.561   8.948  26.235  1.00  0.00    -0.285 OA
ATOM      5  C   UNL     1     -17.246   9.361  24.687  1.00  0.00     0.111 A 
ATOM      6  C   UNL     1     -16.384   9.423  23.566  1.00  0.00     0.134 A 
ATOM      7  C   UNL     1     -16.918   9.677  22.293  1.00  0.00     0.093 A 
ATOM      8  C   UNL     1     -18.293   9.871  22.121  1.00  0.00     0.123 A 
ATOM      9  C   UNL     1     -19.146   9.811  23.225  1.00  0.00     0.094 A 
ATOM     10  C   UNL     1     -18.634   9.556  24.501  1.00  0.00     0.146 A 
ATOM     11  O   UNL     1     -19.470   9.499  25.532  1.00  0.00    -0.452 OA
ENDROOT
BRANCH   1  12
ATOM     12  C   UNL     1     -20.108   9.210  27.840  1.00  0.00     0.021 A 
ATOM     13  C   UNL     1     -20.049  10.125  28.906  1.00  0.00     0.016 A 
ATOM     14  C   UNL     1     -21.026  10.111  29.905  1.00  0.00     0.047 A 
ATOM     15  C   UNL     1     -22.081   9.196  29.847  1.00  0.00     0.115 A 
ATOM     16  C   UNL     1     -21.184   8.305  27.775  1.00  0.00     0.016 A 
ATOM     17  C   UNL     1     -22.160   8.294  28.776  1.00  0.00     0.047 A 
BRANCH  15  18
ATOM     18  O   UNL     1     -23.047   9.194  30.850  1.00  0.00    -0.508 OA
ATOM     19  H   UNL     1     -24.000   9.487  30.668  1.00  0.00     0.293 HD
ENDBRANCH  15  18
ENDBRANCH   1  12
BRANCH   2  20
ATOM     20  O   UNL     1     -17.274   8.889  28.373  1.00  0.00    -0.502 OA
ATOM     21  H   UNL     1     -16.615   9.515  28.822  1.00  0.00     0.293 HD
ENDBRANCH   2  20
BRANCH   6  22
ATOM     22  O   UNL     1     -15.009   9.234  23.705  1.00  0.00    -0.507 OA
ATOM     23  H   UNL     1     -14.483   8.653  23.062  1.00  0.00     0.293 HD
ENDBRANCH   6  22
BRANCH   8  24
ATOM     24  O   UNL     1     -18.822  10.125  20.858  1.00  0.00    -0.508 OA
ATOM     25  H   UNL     1     -19.274  11.005  20.639  1.00  0.00     0.293 HD
ENDBRANCH   8  24
TORSDOF 5
ENDMDL
