MODEL 1
REMARK VINA RESULT:    84.150      0.000      0.000
REMARK INTER + INTRA:          92.126
REMARK INTER:                  91.529
REMARK INTRA:                   0.597
REMARK UNBOUND:                 0.597
REMARK SMILES CC1(C)CC[C@@]2(C(=O)[O-])CC[C@@]3(C)C(=CC[C@H]4[C@@]5(C)CC[C@@H](O)C(C)(C)[C@H]5CC[C@]43C)[C@@H]2C1
REMARK SMILES IDX 6 1 5 2 10 3 32 4 4 5 11 6 14 7 33 8 2 9 12 10 15 11 1 12
REMARK SMILES IDX 3 13 13 14 30 15 16 16 17 17 29 18 31 19 18 20 28 21 27 22
REMARK SMILES IDX 20 23 19 24 24 25 21 26 22 27 25 28 26 29 7 30 8 31 9 32
REMARK SMILES IDX 23 33
REMARK H PARENT 23 34
REMARK Flexibility Score: inf
ROOT
ATOM      1  C   UNL     1      -6.573  43.467  -1.657  1.00  0.00     0.017 C 
ATOM      2  C   UNL     1      -6.469  41.944  -1.363  1.00  0.00     0.014 C 
ATOM      3  C   UNL     1      -8.067  43.939  -1.549  1.00  0.00     0.014 C 
ATOM      4  C   UNL     1      -5.692  44.188  -0.595  1.00  0.00     0.028 C 
ATOM      5  C   UNL     1      -5.015  41.432  -1.429  1.00  0.00     0.007 C 
ATOM      6  C   UNL     1      -8.378  44.918  -0.389  1.00  0.00     0.013 C 
ATOM      7  C   UNL     1      -5.975  45.687  -0.626  1.00  0.00    -0.064 C 
ATOM      8  C   UNL     1      -4.208  43.746  -0.674  1.00  0.00     0.015 C 
ATOM      9  C   UNL     1      -4.039  42.207  -0.497  1.00  0.00    -0.035 C 
ATOM     10  C   UNL     1      -7.368  46.128  -0.181  1.00  0.00    -0.006 C 
ATOM     11  C   UNL     1      -5.046  46.579  -1.006  1.00  0.00    -0.027 C 
ATOM     12  C   UNL     1      -2.591  41.831  -0.879  1.00  0.00     0.011 C 
ATOM     13  C   UNL     1      -4.258  41.791   0.977  1.00  0.00     0.011 C 
ATOM     14  C   UNL     1      -7.248  46.355   1.361  1.00  0.00     0.017 C 
ATOM     15  C   UNL     1      -7.844  47.481  -0.919  1.00  0.00    -0.020 C 
ATOM     16  C   UNL     1      -5.367  47.981  -1.411  1.00  0.00     0.032 C 
ATOM     17  C   UNL     1      -6.707  48.574  -0.879  1.00  0.00     0.006 C 
ATOM     18  C   UNL     1      -8.178  47.203  -2.419  1.00  0.00     0.008 C 
ATOM     19  C   UNL     1      -9.122  48.014  -0.178  1.00  0.00     0.012 C 
ATOM     20  C   UNL     1      -7.108  49.986  -1.570  1.00  0.00    -0.025 C 
ATOM     21  C   UNL     1      -7.993  48.381  -3.409  1.00  0.00     0.005 C 
ATOM     22  C   UNL     1      -8.138  49.790  -2.781  1.00  0.00     0.003 C 
ATOM     23  C   UNL     1      -5.812  50.743  -2.046  1.00  0.00     0.010 C 
ATOM     24  C   UNL     1      -7.763  50.885  -0.466  1.00  0.00     0.012 C 
ATOM     25  C   UNL     1      -8.220  50.979  -3.849  1.00  0.00    -0.006 C 
ATOM     26  C   UNL     1      -6.049  51.958  -2.938  1.00  0.00     0.033 C 
ATOM     27  C   UNL     1      -6.816  51.550  -4.200  1.00  0.00     0.120 C 
ATOM     28  C   UNL     1      -8.908  50.540  -5.175  1.00  0.00     0.014 C 
ATOM     29  C   UNL     1      -9.125  52.125  -3.308  1.00  0.00     0.014 C 
ENDROOT
BRANCH   1  30
ATOM     30  C   UNL     1      -6.104  43.735  -3.088  1.00  0.00     0.048 C 
ATOM     31  O   UNL     1      -5.382  42.908  -3.706  1.00  0.00    -0.550 OA
ATOM     32  O   UNL     1      -6.383  44.956  -3.694  1.00  0.00    -0.550 OA
ENDBRANCH   1  30
BRANCH  27  33
ATOM     33  O   UNL     1      -6.081  50.609  -4.947  1.00  0.00    -0.393 OA
ATOM     34  H   UNL     1      -5.260  51.059  -5.280  1.00  0.00     0.210 HD
ENDBRANCH  27  33
TORSDOF 2
ENDMDL
