MODEL 1
REMARK VINA RESULT:    -5.279      0.000      0.000
REMARK INTER + INTRA:          -5.582
REMARK INTER:                  -5.742
REMARK INTRA:                   0.161
REMARK UNBOUND:                 0.161
REMARK SMILES C[C@@H]1[C@H](C)CC[C@]2(C(=O)[O-])CC[C@]3(C)C(=CC[C@H]4[C@]5(C)CC[C@@H](O)C(C)(C)[C@H]5CC[C@]43C)[C@@H]12
REMARK SMILES IDX 7 1 6 2 11 3 33 4 5 5 12 6 15 7 2 8 3 9 13 10 16 11 1 12
REMARK SMILES IDX 4 13 14 14 31 15 17 16 18 17 30 18 32 19 19 20 29 21 28 22
REMARK SMILES IDX 21 23 20 24 25 25 22 26 23 27 26 28 27 29 8 30 9 31 10 32
REMARK SMILES IDX 24 33
REMARK H PARENT 24 34
REMARK Flexibility Score: inf
ROOT
ATOM      1  C   UNL     1      18.577  -0.854  21.624  1.00  0.00     0.017 C 
ATOM      2  C   UNL     1      17.581   0.254  22.061  1.00  0.00     0.014 C 
ATOM      3  C   UNL     1      19.531  -1.197  22.829  1.00  0.00     0.014 C 
ATOM      4  C   UNL     1      19.420  -0.324  20.420  1.00  0.00     0.030 C 
ATOM      5  C   UNL     1      16.681   0.712  20.907  1.00  0.00     0.004 C 
ATOM      6  C   UNL     1      21.057  -1.068  22.555  1.00  0.00     0.013 C 
ATOM      7  C   UNL     1      20.522  -1.340  20.096  1.00  0.00    -0.063 C 
ATOM      8  C   UNL     1      18.564   0.240  19.228  1.00  0.00    -0.003 C 
ATOM      9  C   UNL     1      17.498   1.272  19.729  1.00  0.00    -0.011 C 
ATOM     10  C   UNL     1      21.592  -1.603  21.165  1.00  0.00    -0.006 C 
ATOM     11  C   UNL     1      20.570  -2.020  18.940  1.00  0.00    -0.027 C 
ATOM     12  C   UNL     1      19.450   0.879  18.127  1.00  0.00     0.008 C 
ATOM     13  C   UNL     1      18.080   2.660  20.075  1.00  0.00     0.008 C 
ATOM     14  C   UNL     1      22.820  -0.709  20.796  1.00  0.00     0.017 C 
ATOM     15  C   UNL     1      21.995  -3.177  21.203  1.00  0.00    -0.020 C 
ATOM     16  C   UNL     1      21.783  -2.811  18.585  1.00  0.00     0.032 C 
ATOM     17  C   UNL     1      22.145  -3.799  19.722  1.00  0.00     0.006 C 
ATOM     18  C   UNL     1      23.283  -3.393  22.066  1.00  0.00     0.008 C 
ATOM     19  C   UNL     1      20.869  -3.979  21.927  1.00  0.00     0.012 C 
ATOM     20  C   UNL     1      23.442  -4.671  19.413  1.00  0.00    -0.025 C 
ATOM     21  C   UNL     1      24.018  -4.743  21.937  1.00  0.00     0.005 C 
ATOM     22  C   UNL     1      23.709  -5.576  20.667  1.00  0.00     0.003 C 
ATOM     23  C   UNL     1      23.159  -5.551  18.126  1.00  0.00     0.010 C 
ATOM     24  C   UNL     1      24.674  -3.765  19.118  1.00  0.00     0.012 C 
ATOM     25  C   UNL     1      24.678  -6.837  20.479  1.00  0.00    -0.006 C 
ATOM     26  C   UNL     1      23.414  -7.051  18.279  1.00  0.00     0.033 C 
ATOM     27  C   UNL     1      24.738  -7.318  18.986  1.00  0.00     0.120 C 
ATOM     28  C   UNL     1      24.124  -8.016  21.334  1.00  0.00     0.014 C 
ATOM     29  C   UNL     1      26.125  -6.593  20.992  1.00  0.00     0.014 C 
ENDROOT
BRANCH   1  30
ATOM     30  C   UNL     1      17.765  -2.103  21.272  1.00  0.00     0.048 C 
ATOM     31  O   UNL     1      17.552  -2.972  22.155  1.00  0.00    -0.550 OA
ATOM     32  O   UNL     1      17.266  -2.318  19.995  1.00  0.00    -0.550 OA
ENDBRANCH   1  30
BRANCH  27  33
ATOM     33  O   UNL     1      25.772  -6.688  18.268  1.00  0.00    -0.393 OA
ATOM     34  H   UNL     1      25.572  -5.717  18.248  1.00  0.00     0.210 HD
ENDBRANCH  27  33
TORSDOF 2
ENDMDL
MODEL 2
REMARK VINA RESULT:    -5.148      3.375      5.446
REMARK INTER + INTRA:          -5.439
REMARK INTER:                  -5.605
REMARK INTRA:                   0.166
REMARK UNBOUND:                 0.161
REMARK SMILES C[C@@H]1[C@H](C)CC[C@]2(C(=O)[O-])CC[C@]3(C)C(=CC[C@H]4[C@]5(C)CC[C@@H](O)C(C)(C)[C@H]5CC[C@]43C)[C@@H]12
REMARK SMILES IDX 7 1 6 2 11 3 33 4 5 5 12 6 15 7 2 8 3 9 13 10 16 11 1 12
REMARK SMILES IDX 4 13 14 14 31 15 17 16 18 17 30 18 32 19 19 20 29 21 28 22
REMARK SMILES IDX 21 23 20 24 25 25 22 26 23 27 26 28 27 29 8 30 9 31 10 32
REMARK SMILES IDX 24 33
REMARK H PARENT 24 34
REMARK Flexibility Score: inf
ROOT
ATOM      1  C   UNL     1      22.047  -2.267  20.603  1.00  0.00     0.017 C 
ATOM      2  C   UNL     1      22.450  -0.802  20.285  1.00  0.00     0.014 C 
ATOM      3  C   UNL     1      21.688  -2.385  22.133  1.00  0.00     0.014 C 
ATOM      4  C   UNL     1      23.254  -3.202  20.273  1.00  0.00     0.030 C 
ATOM      5  C   UNL     1      22.908  -0.630  18.832  1.00  0.00     0.004 C 
ATOM      6  C   UNL     1      22.483  -3.448  22.943  1.00  0.00     0.013 C 
ATOM      7  C   UNL     1      22.930  -4.623  20.747  1.00  0.00    -0.063 C 
ATOM      8  C   UNL     1      23.834  -3.023  18.822  1.00  0.00    -0.003 C 
ATOM      9  C   UNL     1      24.122  -1.517  18.504  1.00  0.00    -0.011 C 
ATOM     10  C   UNL     1      22.733  -4.849  22.253  1.00  0.00    -0.006 C 
ATOM     11  C   UNL     1      22.786  -5.659  19.904  1.00  0.00    -0.027 C 
ATOM     12  C   UNL     1      25.113  -3.871  18.598  1.00  0.00     0.008 C 
ATOM     13  C   UNL     1      25.401  -0.967  19.170  1.00  0.00     0.008 C 
ATOM     14  C   UNL     1      24.098  -5.373  22.807  1.00  0.00     0.017 C 
ATOM     15  C   UNL     1      21.536  -5.915  22.524  1.00  0.00    -0.020 C 
ATOM     16  C   UNL     1      22.707  -7.050  20.433  1.00  0.00     0.032 C 
ATOM     17  C   UNL     1      21.598  -7.166  21.508  1.00  0.00     0.006 C 
ATOM     18  C   UNL     1      21.537  -6.371  24.022  1.00  0.00     0.008 C 
ATOM     19  C   UNL     1      20.161  -5.210  22.303  1.00  0.00     0.012 C 
ATOM     20  C   UNL     1      21.465  -8.628  22.125  1.00  0.00    -0.025 C 
ATOM     21  C   UNL     1      20.717  -7.625  24.392  1.00  0.00     0.005 C 
ATOM     22  C   UNL     1      20.347  -8.575  23.225  1.00  0.00     0.003 C 
ATOM     23  C   UNL     1      21.071  -9.629  20.962  1.00  0.00     0.010 C 
ATOM     24  C   UNL     1      22.815  -9.107  22.737  1.00  0.00     0.012 C 
ATOM     25  C   UNL     1      19.714  -9.964  23.710  1.00  0.00    -0.006 C 
ATOM     26  C   UNL     1      19.838 -10.497  21.223  1.00  0.00     0.033 C 
ATOM     27  C   UNL     1      19.865 -11.090  22.627  1.00  0.00     0.120 C 
ATOM     28  C   UNL     1      18.192  -9.751  23.961  1.00  0.00     0.014 C 
ATOM     29  C   UNL     1      20.293 -10.476  25.058  1.00  0.00     0.014 C 
ENDROOT
BRANCH   1  30
ATOM     30  C   UNL     1      20.800  -2.601  19.781  1.00  0.00     0.048 C 
ATOM     31  O   UNL     1      19.661  -2.413  20.280  1.00  0.00    -0.550 OA
ATOM     32  O   UNL     1      20.885  -3.122  18.498  1.00  0.00    -0.550 OA
ENDBRANCH   1  30
BRANCH  27  33
ATOM     33  O   UNL     1      21.056 -11.823  22.787  1.00  0.00    -0.393 OA
ATOM     34  H   UNL     1      21.788 -11.296  22.374  1.00  0.00     0.210 HD
ENDBRANCH  27  33
TORSDOF 2
ENDMDL
MODEL 3
REMARK VINA RESULT:    -4.995      1.991      3.138
REMARK INTER + INTRA:          -5.272
REMARK INTER:                  -5.428
REMARK INTRA:                   0.156
REMARK UNBOUND:                 0.161
REMARK SMILES C[C@@H]1[C@H](C)CC[C@]2(C(=O)[O-])CC[C@]3(C)C(=CC[C@H]4[C@]5(C)CC[C@@H](O)C(C)(C)[C@H]5CC[C@]43C)[C@@H]12
REMARK SMILES IDX 7 1 6 2 11 3 33 4 5 5 12 6 15 7 2 8 3 9 13 10 16 11 1 12
REMARK SMILES IDX 4 13 14 14 31 15 17 16 18 17 30 18 32 19 19 20 29 21 28 22
REMARK SMILES IDX 21 23 20 24 25 25 22 26 23 27 26 28 27 29 8 30 9 31 10 32
REMARK SMILES IDX 24 33
REMARK H PARENT 24 34
REMARK Flexibility Score: inf
ROOT
ATOM      1  C   UNL     1      19.394   1.591  22.274  1.00  0.00     0.017 C 
ATOM      2  C   UNL     1      18.628   2.886  22.660  1.00  0.00     0.014 C 
ATOM      3  C   UNL     1      20.745   1.980  21.564  1.00  0.00     0.014 C 
ATOM      4  C   UNL     1      18.507   0.758  21.295  1.00  0.00     0.030 C 
ATOM      5  C   UNL     1      17.253   2.586  23.269  1.00  0.00     0.004 C 
ATOM      6  C   UNL     1      20.973   1.382  20.147  1.00  0.00     0.013 C 
ATOM      7  C   UNL     1      19.321  -0.431  20.772  1.00  0.00    -0.063 C 
ATOM      8  C   UNL     1      17.050   0.480  21.818  1.00  0.00    -0.003 C 
ATOM      9  C   UNL     1      16.355   1.798  22.299  1.00  0.00    -0.011 C 
ATOM     10  C   UNL     1      20.565  -0.131  19.924  1.00  0.00    -0.006 C 
ATOM     11  C   UNL     1      19.009  -1.708  21.047  1.00  0.00    -0.027 C 
ATOM     12  C   UNL     1      16.174  -0.226  20.750  1.00  0.00     0.008 C 
ATOM     13  C   UNL     1      15.858   2.703  21.152  1.00  0.00     0.008 C 
ATOM     14  C   UNL     1      20.125  -0.250  18.429  1.00  0.00     0.017 C 
ATOM     15  C   UNL     1      21.766  -1.170  20.272  1.00  0.00    -0.020 C 
ATOM     16  C   UNL     1      19.690  -2.819  20.324  1.00  0.00     0.032 C 
ATOM     17  C   UNL     1      21.229  -2.683  20.433  1.00  0.00     0.006 C 
ATOM     18  C   UNL     1      22.911  -1.061  19.211  1.00  0.00     0.008 C 
ATOM     19  C   UNL     1      22.417  -0.766  21.632  1.00  0.00     0.012 C 
ATOM     20  C   UNL     1      22.022  -3.834  19.671  1.00  0.00    -0.025 C 
ATOM     21  C   UNL     1      23.959  -2.192  19.164  1.00  0.00     0.005 C 
ATOM     22  C   UNL     1      23.554  -3.533  19.828  1.00  0.00     0.003 C 
ATOM     23  C   UNL     1      21.646  -5.224  20.333  1.00  0.00     0.010 C 
ATOM     24  C   UNL     1      21.625  -3.893  18.167  1.00  0.00     0.012 C 
ATOM     25  C   UNL     1      24.580  -4.726  19.532  1.00  0.00    -0.006 C 
ATOM     26  C   UNL     1      22.827  -6.088  20.779  1.00  0.00     0.033 C 
ATOM     27  C   UNL     1      23.913  -6.136  19.710  1.00  0.00     0.120 C 
ATOM     28  C   UNL     1      25.756  -4.629  20.549  1.00  0.00     0.014 C 
ATOM     29  C   UNL     1      25.236  -4.650  18.125  1.00  0.00     0.014 C 
ENDROOT
BRANCH   1  30
ATOM     30  C   UNL     1      19.719   0.835  23.565  1.00  0.00     0.048 C 
ATOM     31  O   UNL     1      20.795   1.078  24.170  1.00  0.00    -0.550 OA
ATOM     32  O   UNL     1      18.867  -0.128  24.086  1.00  0.00    -0.550 OA
ENDBRANCH   1  30
BRANCH  27  33
ATOM     33  O   UNL     1      23.348  -6.610  18.511  1.00  0.00    -0.393 OA
ATOM     34  H   UNL     1      23.842  -6.188  17.761  1.00  0.00     0.210 HD
ENDBRANCH  27  33
TORSDOF 2
ENDMDL
MODEL 4
REMARK VINA RESULT:    -4.925      1.371      1.744
REMARK INTER + INTRA:          -5.196
REMARK INTER:                  -5.356
REMARK INTRA:                   0.160
REMARK UNBOUND:                 0.161
REMARK SMILES C[C@@H]1[C@H](C)CC[C@]2(C(=O)[O-])CC[C@]3(C)C(=CC[C@H]4[C@]5(C)CC[C@@H](O)C(C)(C)[C@H]5CC[C@]43C)[C@@H]12
REMARK SMILES IDX 7 1 6 2 11 3 33 4 5 5 12 6 15 7 2 8 3 9 13 10 16 11 1 12
REMARK SMILES IDX 4 13 14 14 31 15 17 16 18 17 30 18 32 19 19 20 29 21 28 22
REMARK SMILES IDX 21 23 20 24 25 25 22 26 23 27 26 28 27 29 8 30 9 31 10 32
REMARK SMILES IDX 24 33
REMARK H PARENT 24 34
REMARK Flexibility Score: inf
ROOT
ATOM      1  C   UNL     1      19.465  -1.045  21.419  1.00  0.00     0.017 C 
ATOM      2  C   UNL     1      18.783   0.344  21.553  1.00  0.00     0.014 C 
ATOM      3  C   UNL     1      20.221  -1.382  22.760  1.00  0.00     0.014 C 
ATOM      4  C   UNL     1      20.488  -0.989  20.239  1.00  0.00     0.030 C 
ATOM      5  C   UNL     1      18.108   0.785  20.249  1.00  0.00     0.004 C 
ATOM      6  C   UNL     1      21.737  -1.701  22.631  1.00  0.00     0.013 C 
ATOM      7  C   UNL     1      21.290  -2.295  20.211  1.00  0.00    -0.063 C 
ATOM      8  C   UNL     1      19.885  -0.465  18.884  1.00  0.00    -0.003 C 
ATOM      9  C   UNL     1      19.112   0.882  19.086  1.00  0.00    -0.011 C 
ATOM     10  C   UNL     1      22.186  -2.612  21.417  1.00  0.00    -0.006 C 
ATOM     11  C   UNL     1      21.219  -3.175  19.199  1.00  0.00    -0.027 C 
ATOM     12  C   UNL     1      20.973  -0.298  17.791  1.00  0.00     0.008 C 
ATOM     13  C   UNL     1      20.027   2.114  19.250  1.00  0.00     0.008 C 
ATOM     14  C   UNL     1      23.630  -2.150  21.033  1.00  0.00     0.017 C 
ATOM     15  C   UNL     1      22.146  -4.199  21.764  1.00  0.00    -0.020 C 
ATOM     16  C   UNL     1      22.191  -4.302  19.115  1.00  0.00     0.032 C 
ATOM     17  C   UNL     1      22.207  -5.112  20.435  1.00  0.00     0.006 C 
ATOM     18  C   UNL     1      23.276  -4.566  22.784  1.00  0.00     0.008 C 
ATOM     19  C   UNL     1      20.805  -4.532  22.490  1.00  0.00     0.012 C 
ATOM     20  C   UNL     1      23.235  -6.328  20.419  1.00  0.00    -0.025 C 
ATOM     21  C   UNL     1      23.624  -6.059  22.964  1.00  0.00     0.005 C 
ATOM     22  C   UNL     1      23.174  -7.013  21.829  1.00  0.00     0.003 C 
ATOM     23  C   UNL     1      22.798  -7.337  19.278  1.00  0.00     0.010 C 
ATOM     24  C   UNL     1      24.680  -5.841  20.106  1.00  0.00     0.012 C 
ATOM     25  C   UNL     1      23.776  -8.491  21.963  1.00  0.00    -0.006 C 
ATOM     26  C   UNL     1      22.629  -8.795  19.710  1.00  0.00     0.033 C 
ATOM     27  C   UNL     1      23.789  -9.250  20.589  1.00  0.00     0.120 C 
ATOM     28  C   UNL     1      22.876  -9.303  22.942  1.00  0.00     0.014 C 
ATOM     29  C   UNL     1      25.203  -8.531  22.578  1.00  0.00     0.014 C 
ENDROOT
BRANCH   1  30
ATOM     30  C   UNL     1      18.367  -2.088  21.200  1.00  0.00     0.048 C 
ATOM     31  O   UNL     1      17.808  -2.616  22.196  1.00  0.00    -0.550 OA
ATOM     32  O   UNL     1      17.977  -2.487  19.930  1.00  0.00    -0.550 OA
ENDBRANCH   1  30
BRANCH  27  33
ATOM     33  O   UNL     1      24.993  -9.054  19.888  1.00  0.00    -0.393 OA
ATOM     34  H   UNL     1      25.419  -9.942  19.773  1.00  0.00     0.210 HD
ENDBRANCH  27  33
TORSDOF 2
ENDMDL
MODEL 5
REMARK VINA RESULT:    -4.889      3.016      8.368
REMARK INTER + INTRA:          -5.157
REMARK INTER:                  -5.319
REMARK INTRA:                   0.162
REMARK UNBOUND:                 0.161
REMARK SMILES C[C@@H]1[C@H](C)CC[C@]2(C(=O)[O-])CC[C@]3(C)C(=CC[C@H]4[C@]5(C)CC[C@@H](O)C(C)(C)[C@H]5CC[C@]43C)[C@@H]12
REMARK SMILES IDX 7 1 6 2 11 3 33 4 5 5 12 6 15 7 2 8 3 9 13 10 16 11 1 12
REMARK SMILES IDX 4 13 14 14 31 15 17 16 18 17 30 18 32 19 19 20 29 21 28 22
REMARK SMILES IDX 21 23 20 24 25 25 22 26 23 27 26 28 27 29 8 30 9 31 10 32
REMARK SMILES IDX 24 33
REMARK H PARENT 24 34
REMARK Flexibility Score: inf
ROOT
ATOM      1  C   UNL     1      22.646  -9.753  21.599  1.00  0.00     0.017 C 
ATOM      2  C   UNL     1      23.170 -11.193  21.849  1.00  0.00     0.014 C 
ATOM      3  C   UNL     1      23.854  -8.827  21.190  1.00  0.00     0.014 C 
ATOM      4  C   UNL     1      21.999  -9.220  22.917  1.00  0.00     0.030 C 
ATOM      5  C   UNL     1      22.065 -12.132  22.348  1.00  0.00     0.004 C 
ATOM      6  C   UNL     1      24.072  -7.558  22.062  1.00  0.00     0.013 C 
ATOM      7  C   UNL     1      21.638  -7.741  22.734  1.00  0.00    -0.063 C 
ATOM      8  C   UNL     1      20.911 -10.172  23.535  1.00  0.00    -0.003 C 
ATOM      9  C   UNL     1      21.444 -11.639  23.666  1.00  0.00    -0.011 C 
ATOM     10  C   UNL     1      22.785  -6.747  22.498  1.00  0.00    -0.006 C 
ATOM     11  C   UNL     1      20.373  -7.291  22.743  1.00  0.00    -0.027 C 
ATOM     12  C   UNL     1      20.405  -9.662  24.910  1.00  0.00     0.008 C 
ATOM     13  C   UNL     1      22.418 -11.851  24.846  1.00  0.00     0.008 C 
ATOM     14  C   UNL     1      23.117  -6.112  23.887  1.00  0.00     0.017 C 
ATOM     15  C   UNL     1      22.352  -5.613  21.417  1.00  0.00    -0.020 C 
ATOM     16  C   UNL     1      20.098  -5.827  22.797  1.00  0.00     0.032 C 
ATOM     17  C   UNL     1      20.847  -5.086  21.662  1.00  0.00     0.006 C 
ATOM     18  C   UNL     1      23.392  -4.443  21.404  1.00  0.00     0.008 C 
ATOM     19  C   UNL     1      22.396  -6.227  19.983  1.00  0.00     0.012 C 
ATOM     20  C   UNL     1      20.606  -3.511  21.668  1.00  0.00    -0.025 C 
ATOM     21  C   UNL     1      22.982  -3.125  20.714  1.00  0.00     0.005 C 
ATOM     22  C   UNL     1      21.463  -2.901  20.504  1.00  0.00     0.003 C 
ATOM     23  C   UNL     1      19.062  -3.240  21.439  1.00  0.00     0.010 C 
ATOM     24  C   UNL     1      21.009  -2.884  23.035  1.00  0.00     0.012 C 
ATOM     25  C   UNL     1      21.099  -1.422  20.011  1.00  0.00    -0.006 C 
ATOM     26  C   UNL     1      18.719  -2.278  20.301  1.00  0.00     0.033 C 
ATOM     27  C   UNL     1      19.611  -1.042  20.333  1.00  0.00     0.120 C 
ATOM     28  C   UNL     1      21.278  -1.360  18.464  1.00  0.00     0.014 C 
ATOM     29  C   UNL     1      22.038  -0.324  20.584  1.00  0.00     0.014 C 
ENDROOT
BRANCH   1  30
ATOM     30  C   UNL     1      21.655  -9.809  20.434  1.00  0.00     0.048 C 
ATOM     31  O   UNL     1      22.069  -9.628  19.260  1.00  0.00    -0.550 OA
ATOM     32  O   UNL     1      20.301 -10.037  20.633  1.00  0.00    -0.550 OA
ENDBRANCH   1  30
BRANCH  27  33
ATOM     33  O   UNL     1      19.483  -0.423  21.591  1.00  0.00    -0.393 OA
ATOM     34  H   UNL     1      19.109  -1.094  22.217  1.00  0.00     0.210 HD
ENDBRANCH  27  33
TORSDOF 2
ENDMDL
MODEL 6
REMARK VINA RESULT:    -4.835      2.640      8.031
REMARK INTER + INTRA:          -5.098
REMARK INTER:                  -5.261
REMARK INTRA:                   0.162
REMARK UNBOUND:                 0.161
REMARK SMILES C[C@@H]1[C@H](C)CC[C@]2(C(=O)[O-])CC[C@]3(C)C(=CC[C@H]4[C@]5(C)CC[C@@H](O)C(C)(C)[C@H]5CC[C@]43C)[C@@H]12
REMARK SMILES IDX 7 1 6 2 11 3 33 4 5 5 12 6 15 7 2 8 3 9 13 10 16 11 1 12
REMARK SMILES IDX 4 13 14 14 31 15 17 16 18 17 30 18 32 19 19 20 29 21 28 22
REMARK SMILES IDX 21 23 20 24 25 25 22 26 23 27 26 28 27 29 8 30 9 31 10 32
REMARK SMILES IDX 24 33
REMARK H PARENT 24 34
REMARK Flexibility Score: inf
ROOT
ATOM      1  C   UNL     1      25.040  -7.424  19.356  1.00  0.00     0.017 C 
ATOM      2  C   UNL     1      25.629  -8.847  19.559  1.00  0.00     0.014 C 
ATOM      3  C   UNL     1      26.125  -6.353  19.754  1.00  0.00     0.014 C 
ATOM      4  C   UNL     1      23.785  -7.266  20.271  1.00  0.00     0.030 C 
ATOM      5  C   UNL     1      24.595  -9.946  19.284  1.00  0.00     0.004 C 
ATOM      6  C   UNL     1      25.704  -5.321  20.838  1.00  0.00     0.013 C 
ATOM      7  C   UNL     1      23.302  -5.812  20.211  1.00  0.00    -0.063 C 
ATOM      8  C   UNL     1      22.714  -8.406  20.105  1.00  0.00    -0.003 C 
ATOM      9  C   UNL     1      23.369  -9.824  20.207  1.00  0.00    -0.011 C 
ATOM     10  C   UNL     1      24.243  -4.721  20.741  1.00  0.00    -0.006 C 
ATOM     11  C   UNL     1      22.115  -5.458  19.692  1.00  0.00    -0.027 C 
ATOM     12  C   UNL     1      21.561  -8.275  21.134  1.00  0.00     0.008 C 
ATOM     13  C   UNL     1      23.721 -10.253  21.648  1.00  0.00     0.008 C 
ATOM     14  C   UNL     1      23.795  -4.420  22.208  1.00  0.00     0.017 C 
ATOM     15  C   UNL     1      24.164  -3.389  19.812  1.00  0.00    -0.020 C 
ATOM     16  C   UNL     1      21.602  -4.070  19.874  1.00  0.00     0.032 C 
ATOM     17  C   UNL     1      22.647  -3.032  19.395  1.00  0.00     0.006 C 
ATOM     18  C   UNL     1      24.881  -2.188  20.515  1.00  0.00     0.008 C 
ATOM     19  C   UNL     1      24.958  -3.635  18.492  1.00  0.00     0.012 C 
ATOM     20  C   UNL     1      22.167  -1.524  19.571  1.00  0.00    -0.025 C 
ATOM     21  C   UNL     1      24.612  -0.771  19.967  1.00  0.00     0.005 C 
ATOM     22  C   UNL     1      23.342  -0.598  19.096  1.00  0.00     0.003 C 
ATOM     23  C   UNL     1      20.874  -1.302  18.682  1.00  0.00     0.010 C 
ATOM     24  C   UNL     1      21.792  -1.219  21.052  1.00  0.00     0.012 C 
ATOM     25  C   UNL     1      22.996   0.931  18.768  1.00  0.00    -0.006 C 
ATOM     26  C   UNL     1      20.928  -0.117  17.716  1.00  0.00     0.033 C 
ATOM     27  C   UNL     1      21.484   1.128  18.398  1.00  0.00     0.120 C 
ATOM     28  C   UNL     1      23.845   1.374  17.539  1.00  0.00     0.014 C 
ATOM     29  C   UNL     1      23.371   1.915  19.912  1.00  0.00     0.014 C 
ENDROOT
BRANCH   1  30
ATOM     30  C   UNL     1      24.712  -7.259  17.870  1.00  0.00     0.048 C 
ATOM     31  O   UNL     1      25.571  -6.760  17.098  1.00  0.00    -0.550 OA
ATOM     32  O   UNL     1      23.483  -7.630  17.344  1.00  0.00    -0.550 OA
ENDBRANCH   1  30
BRANCH  27  33
ATOM     33  O   UNL     1      20.696   1.416  19.529  1.00  0.00    -0.393 OA
ATOM     34  H   UNL     1      19.806   1.001  19.386  1.00  0.00     0.210 HD
ENDBRANCH  27  33
TORSDOF 2
ENDMDL
MODEL 7
REMARK VINA RESULT:    -4.820      2.491      4.101
REMARK INTER + INTRA:          -5.082
REMARK INTER:                  -5.243
REMARK INTRA:                   0.161
REMARK UNBOUND:                 0.161
REMARK SMILES C[C@@H]1[C@H](C)CC[C@]2(C(=O)[O-])CC[C@]3(C)C(=CC[C@H]4[C@]5(C)CC[C@@H](O)C(C)(C)[C@H]5CC[C@]43C)[C@@H]12
REMARK SMILES IDX 7 1 6 2 11 3 33 4 5 5 12 6 15 7 2 8 3 9 13 10 16 11 1 12
REMARK SMILES IDX 4 13 14 14 31 15 17 16 18 17 30 18 32 19 19 20 29 21 28 22
REMARK SMILES IDX 21 23 20 24 25 25 22 26 23 27 26 28 27 29 8 30 9 31 10 32
REMARK SMILES IDX 24 33
REMARK H PARENT 24 34
REMARK Flexibility Score: inf
ROOT
ATOM      1  C   UNL     1      21.762  -1.143  20.336  1.00  0.00     0.017 C 
ATOM      2  C   UNL     1      21.736   0.407  20.257  1.00  0.00     0.014 C 
ATOM      3  C   UNL     1      21.437  -1.593  21.810  1.00  0.00     0.014 C 
ATOM      4  C   UNL     1      23.189  -1.641  19.937  1.00  0.00     0.030 C 
ATOM      5  C   UNL     1      22.141   0.924  18.871  1.00  0.00     0.004 C 
ATOM      6  C   UNL     1      22.492  -2.504  22.498  1.00  0.00     0.013 C 
ATOM      7  C   UNL     1      23.276  -3.152  20.181  1.00  0.00    -0.063 C 
ATOM      8  C   UNL     1      23.707  -1.084  18.561  1.00  0.00    -0.003 C 
ATOM      9  C   UNL     1      23.560   0.473  18.482  1.00  0.00    -0.011 C 
ATOM     10  C   UNL     1      23.137  -3.655  21.624  1.00  0.00    -0.006 C 
ATOM     11  C   UNL     1      23.440  -4.043  19.189  1.00  0.00    -0.027 C 
ATOM     12  C   UNL     1      25.177  -1.497  18.284  1.00  0.00     0.008 C 
ATOM     13  C   UNL     1      24.624   1.247  19.290  1.00  0.00     0.008 C 
ATOM     14  C   UNL     1      24.588  -3.858  22.168  1.00  0.00     0.017 C 
ATOM     15  C   UNL     1      22.288  -5.041  21.673  1.00  0.00    -0.020 C 
ATOM     16  C   UNL     1      23.754  -5.466  19.504  1.00  0.00     0.032 C 
ATOM     17  C   UNL     1      22.712  -6.052  20.489  1.00  0.00     0.006 C 
ATOM     18  C   UNL     1      22.404  -5.706  23.085  1.00  0.00     0.008 C 
ATOM     19  C   UNL     1      20.772  -4.722  21.485  1.00  0.00     0.012 C 
ATOM     20  C   UNL     1      22.994  -7.570  20.878  1.00  0.00    -0.025 C 
ATOM     21  C   UNL     1      21.970  -7.180  23.224  1.00  0.00     0.005 C 
ATOM     22  C   UNL     1      21.895  -8.002  21.913  1.00  0.00     0.003 C 
ATOM     23  C   UNL     1      22.911  -8.448  19.562  1.00  0.00     0.010 C 
ATOM     24  C   UNL     1      24.418  -7.743  21.485  1.00  0.00     0.012 C 
ATOM     25  C   UNL     1      21.679  -9.570  22.155  1.00  0.00    -0.006 C 
ATOM     26  C   UNL     1      21.972  -9.654  19.626  1.00  0.00     0.033 C 
ATOM     27  C   UNL     1      22.153 -10.427  20.928  1.00  0.00     0.120 C 
ATOM     28  C   UNL     1      20.156  -9.832  22.353  1.00  0.00     0.014 C 
ATOM     29  C   UNL     1      22.366 -10.104  23.442  1.00  0.00     0.014 C 
ENDROOT
BRANCH   1  30
ATOM     30  C   UNL     1      20.669  -1.679  19.408  1.00  0.00     0.048 C 
ATOM     31  O   UNL     1      19.497  -1.812  19.845  1.00  0.00    -0.550 OA
ATOM     32  O   UNL     1      20.933  -2.041  18.095  1.00  0.00    -0.550 OA
ENDBRANCH   1  30
BRANCH  27  33
ATOM     33  O   UNL     1      23.502 -10.814  21.043  1.00  0.00    -0.393 OA
ATOM     34  H   UNL     1      23.958 -10.559  20.200  1.00  0.00     0.210 HD
ENDBRANCH  27  33
TORSDOF 2
ENDMDL
MODEL 8
REMARK VINA RESULT:    -4.784      2.249      8.398
REMARK INTER + INTRA:          -5.042
REMARK INTER:                  -5.199
REMARK INTRA:                   0.156
REMARK UNBOUND:                 0.161
REMARK SMILES C[C@@H]1[C@H](C)CC[C@]2(C(=O)[O-])CC[C@]3(C)C(=CC[C@H]4[C@]5(C)CC[C@@H](O)C(C)(C)[C@H]5CC[C@]43C)[C@@H]12
REMARK SMILES IDX 7 1 6 2 11 3 33 4 5 5 12 6 15 7 2 8 3 9 13 10 16 11 1 12
REMARK SMILES IDX 4 13 14 14 31 15 17 16 18 17 30 18 32 19 19 20 29 21 28 22
REMARK SMILES IDX 21 23 20 24 25 25 22 26 23 27 26 28 27 29 8 30 9 31 10 32
REMARK SMILES IDX 24 33
REMARK H PARENT 24 34
REMARK Flexibility Score: inf
ROOT
ATOM      1  C   UNL     1      24.004  -9.036  20.325  1.00  0.00     0.017 C 
ATOM      2  C   UNL     1      24.795 -10.372  20.361  1.00  0.00     0.014 C 
ATOM      3  C   UNL     1      24.967  -7.877  19.865  1.00  0.00     0.014 C 
ATOM      4  C   UNL     1      23.466  -8.734  21.760  1.00  0.00     0.030 C 
ATOM      5  C   UNL     1      23.948 -11.533  20.895  1.00  0.00     0.004 C 
ATOM      6  C   UNL     1      25.085  -6.661  20.828  1.00  0.00     0.013 C 
ATOM      7  C   UNL     1      22.837  -7.336  21.773  1.00  0.00    -0.063 C 
ATOM      8  C   UNL     1      22.653  -9.914  22.408  1.00  0.00    -0.003 C 
ATOM      9  C   UNL     1      23.442 -11.264  22.324  1.00  0.00    -0.011 C 
ATOM     10  C   UNL     1      23.752  -6.135  21.499  1.00  0.00    -0.006 C 
ATOM     11  C   UNL     1      21.527  -7.127  21.985  1.00  0.00    -0.027 C 
ATOM     12  C   UNL     1      22.266  -9.613  23.880  1.00  0.00     0.008 C 
ATOM     13  C   UNL     1      24.593 -11.386  23.346  1.00  0.00     0.008 C 
ATOM     14  C   UNL     1      24.162  -5.559  22.894  1.00  0.00     0.017 C 
ATOM     15  C   UNL     1      22.986  -5.018  20.600  1.00  0.00    -0.020 C 
ATOM     16  C   UNL     1      21.017  -5.746  22.221  1.00  0.00     0.032 C 
ATOM     17  C   UNL     1      21.462  -4.795  21.082  1.00  0.00     0.006 C 
ATOM     18  C   UNL     1      23.799  -3.681  20.577  1.00  0.00     0.008 C 
ATOM     19  C   UNL     1      22.933  -5.500  19.117  1.00  0.00     0.012 C 
ATOM     20  C   UNL     1      20.960  -3.296  21.277  1.00  0.00    -0.025 C 
ATOM     21  C   UNL     1      23.078  -2.410  20.081  1.00  0.00     0.005 C 
ATOM     22  C   UNL     1      21.529  -2.451  20.083  1.00  0.00     0.003 C 
ATOM     23  C   UNL     1      19.375  -3.295  21.270  1.00  0.00     0.010 C 
ATOM     24  C   UNL     1      21.437  -2.713  22.640  1.00  0.00     0.012 C 
ATOM     25  C   UNL     1      20.853  -1.029  19.791  1.00  0.00    -0.006 C 
ATOM     26  C   UNL     1      18.717  -2.325  20.286  1.00  0.00     0.033 C 
ATOM     27  C   UNL     1      19.381  -0.954  20.333  1.00  0.00     0.120 C 
ATOM     28  C   UNL     1      20.800  -0.816  18.249  1.00  0.00     0.014 C 
ATOM     29  C   UNL     1      21.662   0.174  20.352  1.00  0.00     0.014 C 
ENDROOT
BRANCH   1  30
ATOM     30  C   UNL     1      22.884  -9.181  19.292  1.00  0.00     0.048 C 
ATOM     31  O   UNL     1      23.102  -8.864  18.094  1.00  0.00    -0.550 OA
ATOM     32  O   UNL     1      21.621  -9.639  19.639  1.00  0.00    -0.550 OA
ENDBRANCH   1  30
BRANCH  27  33
ATOM     33  O   UNL     1      19.327  -0.468  21.653  1.00  0.00    -0.393 OA
ATOM     34  H   UNL     1      19.152  -1.241  22.248  1.00  0.00     0.210 HD
ENDBRANCH  27  33
TORSDOF 2
ENDMDL
MODEL 9
REMARK VINA RESULT:    -4.782      1.427      7.966
REMARK INTER + INTRA:          -5.041
REMARK INTER:                  -5.264
REMARK INTRA:                   0.223
REMARK UNBOUND:                 0.161
REMARK SMILES C[C@@H]1[C@H](C)CC[C@]2(C(=O)[O-])CC[C@]3(C)C(=CC[C@H]4[C@]5(C)CC[C@@H](O)C(C)(C)[C@H]5CC[C@]43C)[C@@H]12
REMARK SMILES IDX 7 1 6 2 11 3 33 4 5 5 12 6 15 7 2 8 3 9 13 10 16 11 1 12
REMARK SMILES IDX 4 13 14 14 31 15 17 16 18 17 30 18 32 19 19 20 29 21 28 22
REMARK SMILES IDX 21 23 20 24 25 25 22 26 23 27 26 28 27 29 8 30 9 31 10 32
REMARK SMILES IDX 24 33
REMARK H PARENT 24 34
REMARK Flexibility Score: inf
ROOT
ATOM      1  C   UNL     1      24.434  -5.584  20.000  1.00  0.00     0.017 C 
ATOM      2  C   UNL     1      25.710  -6.469  19.985  1.00  0.00     0.014 C 
ATOM      3  C   UNL     1      24.851  -4.071  19.865  1.00  0.00     0.014 C 
ATOM      4  C   UNL     1      23.688  -5.805  21.355  1.00  0.00     0.030 C 
ATOM      5  C   UNL     1      25.390  -7.951  20.211  1.00  0.00     0.004 C 
ATOM      6  C   UNL     1      24.352  -3.119  20.989  1.00  0.00     0.013 C 
ATOM      7  C   UNL     1      22.526  -4.809  21.454  1.00  0.00    -0.063 C 
ATOM      8  C   UNL     1      23.397  -7.312  21.696  1.00  0.00    -0.003 C 
ATOM      9  C   UNL     1      24.689  -8.187  21.561  1.00  0.00    -0.011 C 
ATOM     10  C   UNL     1      22.867  -3.313  21.498  1.00  0.00    -0.006 C 
ATOM     11  C   UNL     1      21.238  -5.189  21.474  1.00  0.00    -0.027 C 
ATOM     12  C   UNL     1      22.784  -7.480  23.111  1.00  0.00     0.008 C 
ATOM     13  C   UNL     1      25.682  -8.029  22.732  1.00  0.00     0.008 C 
ATOM     14  C   UNL     1      22.862  -2.899  23.005  1.00  0.00     0.017 C 
ATOM     15  C   UNL     1      21.785  -2.450  20.645  1.00  0.00    -0.020 C 
ATOM     16  C   UNL     1      20.171  -4.203  21.807  1.00  0.00     0.032 C 
ATOM     17  C   UNL     1      20.273  -2.955  20.896  1.00  0.00     0.006 C 
ATOM     18  C   UNL     1      21.952  -0.920  20.936  1.00  0.00     0.008 C 
ATOM     19  C   UNL     1      22.079  -2.619  19.122  1.00  0.00     0.012 C 
ATOM     20  C   UNL     1      19.167  -1.852  21.206  1.00  0.00    -0.025 C 
ATOM     21  C   UNL     1      20.809   0.022  20.504  1.00  0.00     0.005 C 
ATOM     22  C   UNL     1      19.431  -0.639  20.247  1.00  0.00     0.003 C 
ATOM     23  C   UNL     1      17.740  -2.487  20.939  1.00  0.00     0.010 C 
ATOM     24  C   UNL     1      19.223  -1.399  22.695  1.00  0.00     0.012 C 
ATOM     25  C   UNL     1      18.245   0.418  20.043  1.00  0.00    -0.006 C 
ATOM     26  C   UNL     1      16.826  -1.696  20.001  1.00  0.00     0.033 C 
ATOM     27  C   UNL     1      16.838  -0.210  20.341  1.00  0.00     0.120 C 
ATOM     28  C   UNL     1      18.250   0.882  18.556  1.00  0.00     0.014 C 
ATOM     29  C   UNL     1      18.411   1.713  20.886  1.00  0.00     0.014 C 
ENDROOT
BRANCH   1  30
ATOM     30  C   UNL     1      23.582  -5.968  18.788  1.00  0.00     0.048 C 
ATOM     31  O   UNL     1      23.625  -5.256  17.752  1.00  0.00    -0.550 OA
ATOM     32  O   UNL     1      22.745  -7.074  18.799  1.00  0.00    -0.550 OA
ENDBRANCH   1  30
BRANCH  27  33
ATOM     33  O   UNL     1      16.460  -0.049  21.687  1.00  0.00    -0.393 OA
ATOM     34  H   UNL     1      15.791   0.682  21.724  1.00  0.00     0.210 HD
ENDBRANCH  27  33
TORSDOF 2
ENDMDL
