MODEL 1
REMARK VINA RESULT:    -4.487      0.000      0.000
REMARK INTER + INTRA:         -11.502
REMARK INTER:                  -8.684
REMARK INTRA:                  -2.818
REMARK UNBOUND:                -2.818
REMARK SMILES CCCCCCCCCCCCCCCCCC(=O)[O-]
REMARK SMILES IDX 10 1 11 2 12 3 13 4 14 5 15 6 16 7 17 8 18 9 19 10 20 11
REMARK SMILES IDX 9 12 8 13 7 14 6 15 5 16 4 17 3 18 2 19 1 20
REMARK H PARENT
REMARK Flexibility Score: inf
ROOT
ATOM      1  C   UNL     1      58.403  12.751  92.571  1.00  0.00     0.000 C 
ENDROOT
BRANCH   1   2
ATOM      2  C   UNL     1      57.126  12.082  93.104  1.00  0.00     0.000 C 
BRANCH   2   3
ATOM      3  C   UNL     1      55.988  13.085  93.362  1.00  0.00     0.000 C 
BRANCH   3   4
ATOM      4  C   UNL     1      55.459  13.115  94.810  1.00  0.00     0.000 C 
BRANCH   4   5
ATOM      5  C   UNL     1      56.458  13.642  95.859  1.00  0.00     0.000 C 
BRANCH   5   6
ATOM      6  C   UNL     1      57.293  14.858  95.410  1.00  0.00     0.000 C 
BRANCH   6   7
ATOM      7  C   UNL     1      58.801  14.753  95.699  1.00  0.00     0.006 C 
BRANCH   7   8
ATOM      8  C   UNL     1      59.633  15.762  94.897  1.00  0.00     0.053 C 
BRANCH   8   9
ATOM      9  C   UNL     1      60.890  15.122  94.397  1.00  0.00     0.041 C 
ATOM     10  O   UNL     1      61.392  15.486  93.301  1.00  0.00    -0.550 OA
ATOM     11  O   UNL     1      61.479  14.091  95.117  1.00  0.00    -0.550 OA
ENDBRANCH   8   9
ENDBRANCH   7   8
ENDBRANCH   6   7
ENDBRANCH   5   6
ENDBRANCH   4   5
ENDBRANCH   3   4
ENDBRANCH   2   3
ENDBRANCH   1   2
BRANCH   1  12
ATOM     12  C   UNL     1      58.081  14.100  91.911  1.00  0.00     0.000 C 
BRANCH  12  13
ATOM     13  C   UNL     1      58.521  14.158  90.439  1.00  0.00    -0.000 C 
BRANCH  13  14
ATOM     14  C   UNL     1      57.343  14.373  89.476  1.00  0.00    -0.000 C 
BRANCH  14  15
ATOM     15  C   UNL     1      56.258  13.312  89.692  1.00  0.00    -0.000 C 
BRANCH  15  16
ATOM     16  C   UNL     1      56.249  12.293  88.543  1.00  0.00    -0.000 C 
BRANCH  16  17
ATOM     17  C   UNL     1      57.413  11.294  88.629  1.00  0.00    -0.000 C 
BRANCH  17  18
ATOM     18  C   UNL     1      57.301  10.359  89.847  1.00  0.00    -0.000 C 
BRANCH  18  19
ATOM     19  C   UNL     1      58.667   9.833  90.312  1.00  0.00    -0.003 C 
ATOM     20  C   UNL     1      59.820  10.750  89.909  1.00  0.00     0.004 C 
ENDBRANCH  18  19
ENDBRANCH  17  18
ENDBRANCH  16  17
ENDBRANCH  15  16
ENDBRANCH  14  15
ENDBRANCH  13  14
ENDBRANCH  12  13
ENDBRANCH   1  12
TORSDOF 16
ENDMDL
MODEL 2
REMARK VINA RESULT:    -4.459      2.112      5.337
REMARK INTER + INTRA:         -11.448
REMARK INTER:                  -8.581
REMARK INTRA:                  -2.867
REMARK UNBOUND:                -2.818
REMARK SMILES CCCCCCCCCCCCCCCCCC(=O)[O-]
REMARK SMILES IDX 10 1 11 2 12 3 13 4 14 5 15 6 16 7 17 8 18 9 19 10 20 11
REMARK SMILES IDX 9 12 8 13 7 14 6 15 5 16 4 17 3 18 2 19 1 20
REMARK H PARENT
REMARK Flexibility Score: inf
ROOT
ATOM      1  C   UNL     1      59.275  11.387  91.191  1.00  0.00     0.000 C 
ENDROOT
BRANCH   1   2
ATOM      2  C   UNL     1      58.348  10.627  90.230  1.00  0.00     0.000 C 
BRANCH   2   3
ATOM      3  C   UNL     1      58.293  11.256  88.827  1.00  0.00     0.000 C 
BRANCH   3   4
ATOM      4  C   UNL     1      56.874  11.546  88.297  1.00  0.00     0.000 C 
BRANCH   4   5
ATOM      5  C   UNL     1      56.040  12.515  89.158  1.00  0.00     0.000 C 
BRANCH   5   6
ATOM      6  C   UNL     1      56.237  14.009  88.833  1.00  0.00     0.000 C 
BRANCH   6   7
ATOM      7  C   UNL     1      56.889  14.838  89.954  1.00  0.00     0.006 C 
BRANCH   7   8
ATOM      8  C   UNL     1      58.370  15.137  89.690  1.00  0.00     0.053 C 
BRANCH   8   9
ATOM      9  C   UNL     1      58.745  16.467  90.265  1.00  0.00     0.041 C 
ATOM     10  O   UNL     1      59.814  17.031  89.911  1.00  0.00    -0.550 OA
ATOM     11  O   UNL     1      57.938  17.061  91.227  1.00  0.00    -0.550 OA
ENDBRANCH   8   9
ENDBRANCH   7   8
ENDBRANCH   6   7
ENDBRANCH   5   6
ENDBRANCH   4   5
ENDBRANCH   3   4
ENDBRANCH   2   3
ENDBRANCH   1   2
BRANCH   1  12
ATOM     12  C   UNL     1      58.468  12.304  92.122  1.00  0.00     0.000 C 
BRANCH  12  13
ATOM     13  C   UNL     1      59.343  13.357  92.821  1.00  0.00    -0.000 C 
BRANCH  13  14
ATOM     14  C   UNL     1      58.515  14.434  93.538  1.00  0.00    -0.000 C 
BRANCH  14  15
ATOM     15  C   UNL     1      57.932  13.896  94.850  1.00  0.00    -0.000 C 
BRANCH  15  16
ATOM     16  C   UNL     1      56.472  14.341  95.026  1.00  0.00    -0.000 C 
BRANCH  16  17
ATOM     17  C   UNL     1      55.817  14.757  93.699  1.00  0.00    -0.000 C 
BRANCH  17  18
ATOM     18  C   UNL     1      54.473  14.048  93.455  1.00  0.00    -0.000 C 
BRANCH  18  19
ATOM     19  C   UNL     1      54.522  13.093  92.253  1.00  0.00    -0.003 C 
ATOM     20  C   UNL     1      54.876  11.661  92.652  1.00  0.00     0.004 C 
ENDBRANCH  18  19
ENDBRANCH  17  18
ENDBRANCH  16  17
ENDBRANCH  15  16
ENDBRANCH  14  15
ENDBRANCH  13  14
ENDBRANCH  12  13
ENDBRANCH   1  12
TORSDOF 16
ENDMDL
MODEL 3
REMARK VINA RESULT:    -4.396      1.579      5.519
REMARK INTER + INTRA:         -11.326
REMARK INTER:                  -8.717
REMARK INTRA:                  -2.608
REMARK UNBOUND:                -2.818
REMARK SMILES CCCCCCCCCCCCCCCCCC(=O)[O-]
REMARK SMILES IDX 10 1 11 2 12 3 13 4 14 5 15 6 16 7 17 8 18 9 19 10 20 11
REMARK SMILES IDX 9 12 8 13 7 14 6 15 5 16 4 17 3 18 2 19 1 20
REMARK H PARENT
REMARK Flexibility Score: inf
ROOT
ATOM      1  C   UNL     1      59.297  11.377  91.081  1.00  0.00     0.000 C 
ENDROOT
BRANCH   1   2
ATOM      2  C   UNL     1      58.273  10.640  90.202  1.00  0.00     0.000 C 
BRANCH   2   3
ATOM      3  C   UNL     1      58.167  11.229  88.785  1.00  0.00     0.000 C 
BRANCH   3   4
ATOM      4  C   UNL     1      56.737  11.582  88.330  1.00  0.00     0.000 C 
BRANCH   4   5
ATOM      5  C   UNL     1      56.002  12.603  89.220  1.00  0.00     0.000 C 
BRANCH   5   6
ATOM      6  C   UNL     1      56.244  14.081  88.853  1.00  0.00     0.000 C 
BRANCH   6   7
ATOM      7  C   UNL     1      57.046  14.886  89.892  1.00  0.00     0.006 C 
BRANCH   7   8
ATOM      8  C   UNL     1      58.513  15.085  89.488  1.00  0.00     0.053 C 
BRANCH   8   9
ATOM      9  C   UNL     1      59.195  16.016  90.440  1.00  0.00     0.041 C 
ATOM     10  O   UNL     1      59.895  16.967  90.004  1.00  0.00    -0.550 OA
ATOM     11  O   UNL     1      59.097  15.804  91.810  1.00  0.00    -0.550 OA
ENDBRANCH   8   9
ENDBRANCH   7   8
ENDBRANCH   6   7
ENDBRANCH   5   6
ENDBRANCH   4   5
ENDBRANCH   3   4
ENDBRANCH   2   3
ENDBRANCH   1   2
BRANCH   1  12
ATOM     12  C   UNL     1      58.594  12.306  92.081  1.00  0.00     0.000 C 
BRANCH  12  13
ATOM     13  C   UNL     1      57.181  11.822  92.447  1.00  0.00    -0.000 C 
BRANCH  13  14
ATOM     14  C   UNL     1      56.604  12.550  93.671  1.00  0.00    -0.000 C 
BRANCH  14  15
ATOM     15  C   UNL     1      56.301  14.017  93.344  1.00  0.00    -0.000 C 
BRANCH  15  16
ATOM     16  C   UNL     1      56.531  14.913  94.570  1.00  0.00    -0.000 C 
BRANCH  16  17
ATOM     17  C   UNL     1      57.125  14.143  95.761  1.00  0.00    -0.000 C 
BRANCH  17  18
ATOM     18  C   UNL     1      58.346  14.852  96.374  1.00  0.00    -0.000 C 
BRANCH  18  19
ATOM     19  C   UNL     1      59.645  14.054  96.185  1.00  0.00    -0.003 C 
ATOM     20  C   UNL     1      60.232  14.206  94.782  1.00  0.00     0.004 C 
ENDBRANCH  18  19
ENDBRANCH  17  18
ENDBRANCH  16  17
ENDBRANCH  15  16
ENDBRANCH  14  15
ENDBRANCH  13  14
ENDBRANCH  12  13
ENDBRANCH   1  12
TORSDOF 16
ENDMDL
MODEL 4
REMARK VINA RESULT:    -4.384      3.492      4.921
REMARK INTER + INTRA:         -11.303
REMARK INTER:                  -8.791
REMARK INTRA:                  -2.512
REMARK UNBOUND:                -2.818
REMARK SMILES CCCCCCCCCCCCCCCCCC(=O)[O-]
REMARK SMILES IDX 10 1 11 2 12 3 13 4 14 5 15 6 16 7 17 8 18 9 19 10 20 11
REMARK SMILES IDX 9 12 8 13 7 14 6 15 5 16 4 17 3 18 2 19 1 20
REMARK H PARENT
REMARK Flexibility Score: inf
ROOT
ATOM      1  C   UNL     1      56.940  12.355  92.988  1.00  0.00     0.000 C 
ENDROOT
BRANCH   1   2
ATOM      2  C   UNL     1      55.527  12.910  92.752  1.00  0.00     0.000 C 
BRANCH   2   3
ATOM      3  C   UNL     1      54.481  11.806  92.521  1.00  0.00     0.000 C 
BRANCH   3   4
ATOM      4  C   UNL     1      55.052  10.378  92.413  1.00  0.00     0.000 C 
BRANCH   4   5
ATOM      5  C   UNL     1      54.009   9.248  92.515  1.00  0.00     0.000 C 
BRANCH   5   6
ATOM      6  C   UNL     1      54.448   8.028  93.349  1.00  0.00     0.000 C 
BRANCH   6   7
ATOM      7  C   UNL     1      53.794   7.921  94.739  1.00  0.00     0.006 C 
BRANCH   7   8
ATOM      8  C   UNL     1      54.790   8.137  95.885  1.00  0.00     0.053 C 
BRANCH   8   9
ATOM      9  C   UNL     1      55.108   9.592  96.032  1.00  0.00     0.041 C 
ATOM     10  O   UNL     1      56.268   9.956  96.361  1.00  0.00    -0.550 OA
ATOM     11  O   UNL     1      54.112  10.543  95.855  1.00  0.00    -0.550 OA
ENDBRANCH   8   9
ENDBRANCH   7   8
ENDBRANCH   6   7
ENDBRANCH   5   6
ENDBRANCH   4   5
ENDBRANCH   3   4
ENDBRANCH   2   3
ENDBRANCH   1   2
BRANCH   1  12
ATOM     12  C   UNL     1      58.007  13.318  92.446  1.00  0.00     0.000 C 
BRANCH  12  13
ATOM     13  C   UNL     1      57.423  14.367  91.485  1.00  0.00    -0.000 C 
BRANCH  13  14
ATOM     14  C   UNL     1      57.847  14.136  90.027  1.00  0.00    -0.000 C 
BRANCH  14  15
ATOM     15  C   UNL     1      56.641  13.759  89.158  1.00  0.00    -0.000 C 
BRANCH  15  16
ATOM     16  C   UNL     1      56.363  12.250  89.228  1.00  0.00    -0.000 C 
BRANCH  16  17
ATOM     17  C   UNL     1      57.564  11.406  88.772  1.00  0.00    -0.000 C 
BRANCH  17  18
ATOM     18  C   UNL     1      58.148  10.546  89.907  1.00  0.00    -0.000 C 
BRANCH  18  19
ATOM     19  C   UNL     1      59.682  10.479  89.864  1.00  0.00    -0.003 C 
ATOM     20  C   UNL     1      60.323  10.768  91.221  1.00  0.00     0.004 C 
ENDBRANCH  18  19
ENDBRANCH  17  18
ENDBRANCH  16  17
ENDBRANCH  15  16
ENDBRANCH  14  15
ENDBRANCH  13  14
ENDBRANCH  12  13
ENDBRANCH   1  12
TORSDOF 16
ENDMDL
MODEL 5
REMARK VINA RESULT:    -4.355      1.576      4.347
REMARK INTER + INTRA:         -11.246
REMARK INTER:                  -8.377
REMARK INTRA:                  -2.869
REMARK UNBOUND:                -2.818
REMARK SMILES CCCCCCCCCCCCCCCCCC(=O)[O-]
REMARK SMILES IDX 10 1 11 2 12 3 13 4 14 5 15 6 16 7 17 8 18 9 19 10 20 11
REMARK SMILES IDX 9 12 8 13 7 14 6 15 5 16 4 17 3 18 2 19 1 20
REMARK H PARENT
REMARK Flexibility Score: inf
ROOT
ATOM      1  C   UNL     1      55.988  12.897  89.296  1.00  0.00     0.000 C 
ENDROOT
BRANCH   1   2
ATOM      2  C   UNL     1      56.362  14.342  88.928  1.00  0.00     0.000 C 
BRANCH   2   3
ATOM      3  C   UNL     1      57.286  15.003  89.966  1.00  0.00     0.000 C 
BRANCH   3   4
ATOM      4  C   UNL     1      58.731  15.252  89.490  1.00  0.00     0.000 C 
BRANCH   4   5
ATOM      5  C   UNL     1      59.409  16.501  90.085  1.00  0.00     0.000 C 
BRANCH   5   6
ATOM      6  C   UNL     1      58.740  17.063  91.355  1.00  0.00     0.000 C 
BRANCH   6   7
ATOM      7  C   UNL     1      59.089  16.320  92.657  1.00  0.00     0.006 C 
BRANCH   7   8
ATOM      8  C   UNL     1      60.591  16.044  92.801  1.00  0.00     0.053 C 
BRANCH   8   9
ATOM      9  C   UNL     1      61.007  16.151  94.235  1.00  0.00     0.041 C 
ATOM     10  O   UNL     1      60.157  16.004  95.152  1.00  0.00    -0.550 OA
ATOM     11  O   UNL     1      62.321  16.464  94.556  1.00  0.00    -0.550 OA
ENDBRANCH   8   9
ENDBRANCH   7   8
ENDBRANCH   6   7
ENDBRANCH   5   6
ENDBRANCH   4   5
ENDBRANCH   3   4
ENDBRANCH   2   3
ENDBRANCH   1   2
BRANCH   1  12
ATOM     12  C   UNL     1      56.566  11.905  88.276  1.00  0.00     0.000 C 
BRANCH  12  13
ATOM     13  C   UNL     1      57.495  10.865  88.924  1.00  0.00    -0.000 C 
BRANCH  13  14
ATOM     14  C   UNL     1      58.767  11.493  89.516  1.00  0.00    -0.000 C 
BRANCH  14  15
ATOM     15  C   UNL     1      58.908  11.147  91.003  1.00  0.00    -0.000 C 
BRANCH  15  16
ATOM     16  C   UNL     1      59.315  12.384  91.818  1.00  0.00    -0.000 C 
BRANCH  16  17
ATOM     17  C   UNL     1      58.236  12.807  92.829  1.00  0.00    -0.000 C 
BRANCH  17  18
ATOM     18  C   UNL     1      56.936  11.997  92.679  1.00  0.00    -0.000 C 
BRANCH  18  19
ATOM     19  C   UNL     1      55.688  12.818  93.036  1.00  0.00    -0.003 C 
ATOM     20  C   UNL     1      56.016  14.273  93.372  1.00  0.00     0.004 C 
ENDBRANCH  18  19
ENDBRANCH  17  18
ENDBRANCH  16  17
ENDBRANCH  15  16
ENDBRANCH  14  15
ENDBRANCH  13  14
ENDBRANCH  12  13
ENDBRANCH   1  12
TORSDOF 16
ENDMDL
MODEL 6
REMARK VINA RESULT:    -4.336      2.570      6.521
REMARK INTER + INTRA:         -11.210
REMARK INTER:                  -8.776
REMARK INTRA:                  -2.434
REMARK UNBOUND:                -2.818
REMARK SMILES CCCCCCCCCCCCCCCCCC(=O)[O-]
REMARK SMILES IDX 10 1 11 2 12 3 13 4 14 5 15 6 16 7 17 8 18 9 19 10 20 11
REMARK SMILES IDX 9 12 8 13 7 14 6 15 5 16 4 17 3 18 2 19 1 20
REMARK H PARENT
REMARK Flexibility Score: inf
ROOT
ATOM      1  C   UNL     1      60.535  15.442  92.772  1.00  0.00     0.000 C 
ENDROOT
BRANCH   1   2
ATOM      2  C   UNL     1      59.540  16.613  92.753  1.00  0.00     0.000 C 
BRANCH   2   3
ATOM      3  C   UNL     1      58.518  16.512  91.608  1.00  0.00     0.000 C 
BRANCH   3   4
ATOM      4  C   UNL     1      59.102  16.085  90.247  1.00  0.00     0.000 C 
BRANCH   4   5
ATOM      5  C   UNL     1      58.358  14.928  89.550  1.00  0.00     0.000 C 
BRANCH   5   6
ATOM      6  C   UNL     1      58.338  13.600  90.334  1.00  0.00     0.000 C 
BRANCH   6   7
ATOM      7  C   UNL     1      58.067  12.347  89.483  1.00  0.00     0.006 C 
BRANCH   7   8
ATOM      8  C   UNL     1      59.321  11.491  89.267  1.00  0.00     0.053 C 
BRANCH   8   9
ATOM      9  C   UNL     1      59.335  10.335  90.217  1.00  0.00     0.041 C 
ATOM     10  O   UNL     1      60.344  10.121  90.939  1.00  0.00    -0.550 OA
ATOM     11  O   UNL     1      58.253   9.466  90.270  1.00  0.00    -0.550 OA
ENDBRANCH   8   9
ENDBRANCH   7   8
ENDBRANCH   6   7
ENDBRANCH   5   6
ENDBRANCH   4   5
ENDBRANCH   3   4
ENDBRANCH   2   3
ENDBRANCH   1   2
BRANCH   1  12
ATOM     12  C   UNL     1      61.219  15.326  94.142  1.00  0.00     0.000 C 
BRANCH  12  13
ATOM     13  C   UNL     1      61.009  16.572  95.016  1.00  0.00    -0.000 C 
BRANCH  13  14
ATOM     14  C   UNL     1      61.030  16.253  96.519  1.00  0.00    -0.000 C 
BRANCH  14  15
ATOM     15  C   UNL     1      60.233  14.978  96.821  1.00  0.00    -0.000 C 
BRANCH  15  16
ATOM     16  C   UNL     1      58.742  15.295  97.012  1.00  0.00    -0.000 C 
BRANCH  16  17
ATOM     17  C   UNL     1      57.828  14.326  96.245  1.00  0.00    -0.000 C 
BRANCH  17  18
ATOM     18  C   UNL     1      57.097  15.005  95.074  1.00  0.00    -0.000 C 
BRANCH  18  19
ATOM     19  C   UNL     1      56.914  14.067  93.871  1.00  0.00    -0.003 C 
ATOM     20  C   UNL     1      57.962  12.955  93.827  1.00  0.00     0.004 C 
ENDBRANCH  18  19
ENDBRANCH  17  18
ENDBRANCH  16  17
ENDBRANCH  15  16
ENDBRANCH  14  15
ENDBRANCH  13  14
ENDBRANCH  12  13
ENDBRANCH   1  12
TORSDOF 16
ENDMDL
MODEL 7
REMARK VINA RESULT:    -4.323      2.569      3.749
REMARK INTER + INTRA:         -11.185
REMARK INTER:                  -8.666
REMARK INTRA:                  -2.518
REMARK UNBOUND:                -2.818
REMARK SMILES CCCCCCCCCCCCCCCCCC(=O)[O-]
REMARK SMILES IDX 10 1 11 2 12 3 13 4 14 5 15 6 16 7 17 8 18 9 19 10 20 11
REMARK SMILES IDX 9 12 8 13 7 14 6 15 5 16 4 17 3 18 2 19 1 20
REMARK H PARENT
REMARK Flexibility Score: inf
ROOT
ATOM      1  C   UNL     1      59.103  13.804  93.360  1.00  0.00     0.000 C 
ENDROOT
BRANCH   1   2
ATOM      2  C   UNL     1      59.052  15.105  94.176  1.00  0.00     0.000 C 
BRANCH   2   3
ATOM      3  C   UNL     1      58.276  14.954  95.497  1.00  0.00     0.000 C 
BRANCH   3   4
ATOM      4  C   UNL     1      57.876  13.509  95.856  1.00  0.00     0.000 C 
BRANCH   4   5
ATOM      5  C   UNL     1      56.358  13.248  95.917  1.00  0.00     0.000 C 
BRANCH   5   6
ATOM      6  C   UNL     1      55.559  13.762  94.703  1.00  0.00     0.000 C 
BRANCH   6   7
ATOM      7  C   UNL     1      54.441  12.823  94.215  1.00  0.00     0.006 C 
BRANCH   7   8
ATOM      8  C   UNL     1      54.555  12.485  92.723  1.00  0.00     0.053 C 
BRANCH   8   9
ATOM      9  C   UNL     1      55.341  11.226  92.531  1.00  0.00     0.041 C 
ATOM     10  O   UNL     1      56.590  11.277  92.382  1.00  0.00    -0.550 OA
ATOM     11  O   UNL     1      54.688  10.002  92.467  1.00  0.00    -0.550 OA
ENDBRANCH   8   9
ENDBRANCH   7   8
ENDBRANCH   6   7
ENDBRANCH   5   6
ENDBRANCH   4   5
ENDBRANCH   3   4
ENDBRANCH   2   3
ENDBRANCH   1   2
BRANCH   1  12
ATOM     12  C   UNL     1      58.717  14.060  91.896  1.00  0.00     0.000 C 
BRANCH  12  13
ATOM     13  C   UNL     1      57.452  14.921  91.758  1.00  0.00    -0.000 C 
BRANCH  13  14
ATOM     14  C   UNL     1      56.602  14.536  90.538  1.00  0.00    -0.000 C 
BRANCH  14  15
ATOM     15  C   UNL     1      57.388  13.626  89.587  1.00  0.00    -0.000 C 
BRANCH  15  16
ATOM     16  C   UNL     1      56.488  12.522  89.013  1.00  0.00    -0.000 C 
BRANCH  16  17
ATOM     17  C   UNL     1      57.267  11.240  88.673  1.00  0.00    -0.000 C 
BRANCH  17  18
ATOM     18  C   UNL     1      58.749  11.325  89.078  1.00  0.00    -0.000 C 
BRANCH  18  19
ATOM     19  C   UNL     1      59.115  10.322  90.182  1.00  0.00    -0.003 C 
ATOM     20  C   UNL     1      60.563  10.464  90.650  1.00  0.00     0.004 C 
ENDBRANCH  18  19
ENDBRANCH  17  18
ENDBRANCH  16  17
ENDBRANCH  15  16
ENDBRANCH  14  15
ENDBRANCH  13  14
ENDBRANCH  12  13
ENDBRANCH   1  12
TORSDOF 16
ENDMDL
MODEL 8
REMARK VINA RESULT:    -4.320      2.323      5.913
REMARK INTER + INTRA:         -11.179
REMARK INTER:                  -8.439
REMARK INTRA:                  -2.740
REMARK UNBOUND:                -2.818
REMARK SMILES CCCCCCCCCCCCCCCCCC(=O)[O-]
REMARK SMILES IDX 10 1 11 2 12 3 13 4 14 5 15 6 16 7 17 8 18 9 19 10 20 11
REMARK SMILES IDX 9 12 8 13 7 14 6 15 5 16 4 17 3 18 2 19 1 20
REMARK H PARENT
REMARK Flexibility Score: inf
ROOT
ATOM      1  C   UNL     1      58.144  16.642  91.070  1.00  0.00     0.000 C 
ENDROOT
BRANCH   1   2
ATOM      2  C   UNL     1      59.134  15.823  90.227  1.00  0.00     0.000 C 
BRANCH   2   3
ATOM      3  C   UNL     1      58.539  14.496  89.726  1.00  0.00     0.000 C 
BRANCH   3   4
ATOM      4  C   UNL     1      57.016  14.350  89.919  1.00  0.00     0.000 C 
BRANCH   4   5
ATOM      5  C   UNL     1      56.509  12.899  90.036  1.00  0.00     0.000 C 
BRANCH   5   6
ATOM      6  C   UNL     1      57.077  11.924  88.984  1.00  0.00     0.000 C 
BRANCH   6   7
ATOM      7  C   UNL     1      57.847  10.723  89.562  1.00  0.00     0.006 C 
BRANCH   7   8
ATOM      8  C   UNL     1      59.369  10.896  89.480  1.00  0.00     0.053 C 
BRANCH   8   9
ATOM      9  C   UNL     1      59.956  11.011  90.852  1.00  0.00     0.041 C 
ATOM     10  O   UNL     1      59.335  11.630  91.756  1.00  0.00    -0.550 OA
ATOM     11  O   UNL     1      61.210  10.477  91.118  1.00  0.00    -0.550 OA
ENDBRANCH   8   9
ENDBRANCH   7   8
ENDBRANCH   6   7
ENDBRANCH   5   6
ENDBRANCH   4   5
ENDBRANCH   3   4
ENDBRANCH   2   3
ENDBRANCH   1   2
BRANCH   1  12
ATOM     12  C   UNL     1      58.844  17.842  91.726  1.00  0.00     0.000 C 
BRANCH  12  13
ATOM     13  C   UNL     1      60.331  17.577  92.010  1.00  0.00    -0.000 C 
BRANCH  13  14
ATOM     14  C   UNL     1      60.573  16.991  93.409  1.00  0.00    -0.000 C 
BRANCH  14  15
ATOM     15  C   UNL     1      61.280  15.633  93.321  1.00  0.00    -0.000 C 
BRANCH  15  16
ATOM     16  C   UNL     1      60.326  14.490  93.699  1.00  0.00    -0.000 C 
BRANCH  16  17
ATOM     17  C   UNL     1      59.049  14.992  94.393  1.00  0.00    -0.000 C 
BRANCH  17  18
ATOM     18  C   UNL     1      57.780  14.295  93.870  1.00  0.00    -0.000 C 
BRANCH  18  19
ATOM     19  C   UNL     1      56.500  15.073  94.209  1.00  0.00    -0.003 C 
ATOM     20  C   UNL     1      55.368  14.806  93.218  1.00  0.00     0.004 C 
ENDBRANCH  18  19
ENDBRANCH  17  18
ENDBRANCH  16  17
ENDBRANCH  15  16
ENDBRANCH  14  15
ENDBRANCH  13  14
ENDBRANCH  12  13
ENDBRANCH   1  12
TORSDOF 16
ENDMDL
MODEL 9
REMARK VINA RESULT:    -4.303      2.427      5.801
REMARK INTER + INTRA:         -11.146
REMARK INTER:                  -8.450
REMARK INTRA:                  -2.696
REMARK UNBOUND:                -2.818
REMARK SMILES CCCCCCCCCCCCCCCCCC(=O)[O-]
REMARK SMILES IDX 10 1 11 2 12 3 13 4 14 5 15 6 16 7 17 8 18 9 19 10 20 11
REMARK SMILES IDX 9 12 8 13 7 14 6 15 5 16 4 17 3 18 2 19 1 20
REMARK H PARENT
REMARK Flexibility Score: inf
ROOT
ATOM      1  C   UNL     1      59.044  15.749  93.374  1.00  0.00     0.000 C 
ENDROOT
BRANCH   1   2
ATOM      2  C   UNL     1      59.532  15.661  91.919  1.00  0.00     0.000 C 
BRANCH   2   3
ATOM      3  C   UNL     1      58.508  16.209  90.910  1.00  0.00     0.000 C 
BRANCH   3   4
ATOM      4  C   UNL     1      57.382  15.228  90.525  1.00  0.00     0.000 C 
BRANCH   4   5
ATOM      5  C   UNL     1      57.809  14.078  89.592  1.00  0.00     0.000 C 
BRANCH   5   6
ATOM      6  C   UNL     1      56.684  13.093  89.215  1.00  0.00     0.000 C 
BRANCH   6   7
ATOM      7  C   UNL     1      57.153  11.661  88.898  1.00  0.00     0.006 C 
BRANCH   7   8
ATOM      8  C   UNL     1      58.654  11.458  89.143  1.00  0.00     0.053 C 
BRANCH   8   9
ATOM      9  C   UNL     1      58.883  10.266  90.019  1.00  0.00     0.041 C 
ATOM     10  O   UNL     1      57.952   9.443  90.224  1.00  0.00    -0.550 OA
ATOM     11  O   UNL     1      60.109  10.090  90.647  1.00  0.00    -0.550 OA
ENDBRANCH   8   9
ENDBRANCH   7   8
ENDBRANCH   6   7
ENDBRANCH   5   6
ENDBRANCH   4   5
ENDBRANCH   3   4
ENDBRANCH   2   3
ENDBRANCH   1   2
BRANCH   1  12
ATOM     12  C   UNL     1      60.064  15.118  94.333  1.00  0.00     0.000 C 
BRANCH  12  13
ATOM     13  C   UNL     1      59.495  14.904  95.745  1.00  0.00    -0.000 C 
BRANCH  13  14
ATOM     14  C   UNL     1      57.962  15.005  95.788  1.00  0.00    -0.000 C 
BRANCH  14  15
ATOM     15  C   UNL     1      57.332  13.646  96.115  1.00  0.00    -0.000 C 
BRANCH  15  16
ATOM     16  C   UNL     1      55.961  13.499  95.437  1.00  0.00    -0.000 C 
BRANCH  16  17
ATOM     17  C   UNL     1      55.984  13.925  93.960  1.00  0.00    -0.000 C 
BRANCH  17  18
ATOM     18  C   UNL     1      55.483  12.816  93.017  1.00  0.00    -0.000 C 
BRANCH  18  19
ATOM     19  C   UNL     1      56.570  11.780  92.699  1.00  0.00    -0.003 C 
ATOM     20  C   UNL     1      57.981  12.362  92.776  1.00  0.00     0.004 C 
ENDBRANCH  18  19
ENDBRANCH  17  18
ENDBRANCH  16  17
ENDBRANCH  15  16
ENDBRANCH  14  15
ENDBRANCH  13  14
ENDBRANCH  12  13
ENDBRANCH   1  12
TORSDOF 16
ENDMDL
