MODEL 1
REMARK VINA RESULT:    -8.692      0.000      0.000
REMARK INTER + INTRA:         -10.293
REMARK INTER:                 -10.470
REMARK INTRA:                   0.177
REMARK UNBOUND:                 0.177
REMARK SMILES O=c1c(O)c(-c2ccc(O)cc2O)oc2cc(O)cc(O)c12
REMARK SMILES IDX 5 1 3 2 2 3 1 4 22 5 20 6 19 7 17 8 16 9 15 10 14 11 6 12
REMARK SMILES IDX 8 13 7 14 9 15 11 16 12 17 10 18 13 20 4 22 21 24 18 26
REMARK H PARENT 10 19 13 21 4 23 21 25 18 27
REMARK Flexibility Score: inf
ROOT
ATOM      1  C   UNL     1      -1.361  -0.322   4.738  1.00  0.00     0.184 A 
ATOM      2  C   UNL     1      -0.921  -0.841   5.964  1.00  0.00     0.208 A 
ATOM      3  C   UNL     1      -1.008  -2.224   6.190  1.00  0.00     0.238 A 
ATOM      4  O   UNL     1      -0.562  -2.690   7.271  1.00  0.00    -0.285 OA
ATOM      5  C   UNL     1      -1.550  -3.067   5.190  1.00  0.00     0.111 A 
ATOM      6  C   UNL     1      -1.722  -4.477   5.324  1.00  0.00     0.134 A 
ATOM      7  C   UNL     1      -2.148  -5.229   4.223  1.00  0.00     0.093 A 
ATOM      8  C   UNL     1      -2.469  -4.613   3.010  1.00  0.00     0.123 A 
ATOM      9  C   UNL     1      -2.359  -3.230   2.887  1.00  0.00     0.094 A 
ATOM     10  C   UNL     1      -1.903  -2.457   3.957  1.00  0.00     0.146 A 
ATOM     11  O   UNL     1      -1.802  -1.143   3.793  1.00  0.00    -0.451 OA
ENDROOT
BRANCH   1  12
ATOM     12  C   UNL     1      -1.313   1.126   4.443  1.00  0.00     0.063 A 
ATOM     13  C   UNL     1      -1.369   3.415   5.263  1.00  0.00     0.047 A 
ATOM     14  C   UNL     1      -1.417   2.039   5.505  1.00  0.00     0.020 A 
ATOM     15  C   UNL     1      -1.205   3.894   3.961  1.00  0.00     0.119 A 
ATOM     16  C   UNL     1      -1.077   2.991   2.898  1.00  0.00     0.093 A 
ATOM     17  C   UNL     1      -1.117   1.608   3.133  1.00  0.00     0.130 A 
BRANCH  15  18
ATOM     18  O   UNL     1      -1.163   5.268   3.735  1.00  0.00    -0.508 OA
ATOM     19  H   UNL     1      -1.732   5.705   3.018  1.00  0.00     0.293 HD
ENDBRANCH  15  18
BRANCH  17  20
ATOM     20  O   UNL     1      -0.940   0.719   2.073  1.00  0.00    -0.507 OA
ATOM     21  H   UNL     1      -0.295  -0.060   2.135  1.00  0.00     0.293 HD
ENDBRANCH  17  20
ENDBRANCH   1  12
BRANCH   2  22
ATOM     22  O   UNL     1      -0.373   0.012   6.928  1.00  0.00    -0.502 OA
ATOM     23  H   UNL     1       0.194  -0.329   7.695  1.00  0.00     0.293 HD
ENDBRANCH   2  22
BRANCH   6  24
ATOM     24  O   UNL     1      -1.519  -5.178   6.517  1.00  0.00    -0.507 OA
ATOM     25  H   UNL     1      -2.232  -5.698   7.006  1.00  0.00     0.293 HD
ENDBRANCH   6  24
BRANCH   8  26
ATOM     26  O   UNL     1      -2.906  -5.367   1.924  1.00  0.00    -0.508 OA
ATOM     27  H   UNL     1      -2.333  -5.484   1.096  1.00  0.00     0.293 HD
ENDBRANCH   8  26
TORSDOF 6
ENDMDL
MODEL 2
REMARK VINA RESULT:    -8.371      1.622      7.215
REMARK INTER + INTRA:          -9.908
REMARK INTER:                  -9.646
REMARK INTRA:                  -0.262
REMARK UNBOUND:                 0.177
REMARK SMILES O=c1c(O)c(-c2ccc(O)cc2O)oc2cc(O)cc(O)c12
REMARK SMILES IDX 5 1 3 2 2 3 1 4 22 5 20 6 19 7 17 8 16 9 15 10 14 11 6 12
REMARK SMILES IDX 8 13 7 14 9 15 11 16 12 17 10 18 13 20 4 22 21 24 18 26
REMARK H PARENT 10 19 13 21 4 23 21 25 18 27
REMARK Flexibility Score: inf
ROOT
ATOM      1  C   UNL     1      -1.663   0.301   4.485  1.00  0.00     0.184 A 
ATOM      2  C   UNL     1      -1.494   0.905   3.229  1.00  0.00     0.208 A 
ATOM      3  C   UNL     1      -1.204   2.276   3.165  1.00  0.00     0.238 A 
ATOM      4  O   UNL     1      -1.000   2.800   2.039  1.00  0.00    -0.285 OA
ATOM      5  C   UNL     1      -1.101   3.030   4.360  1.00  0.00     0.111 A 
ATOM      6  C   UNL     1      -0.849   4.433   4.414  1.00  0.00     0.134 A 
ATOM      7  C   UNL     1      -0.640   5.051   5.653  1.00  0.00     0.093 A 
ATOM      8  C   UNL     1      -0.737   4.327   6.844  1.00  0.00     0.123 A 
ATOM      9  C   UNL     1      -1.040   2.968   6.805  1.00  0.00     0.094 A 
ATOM     10  C   UNL     1      -1.219   2.316   5.582  1.00  0.00     0.146 A 
ATOM     11  O   UNL     1      -1.496   1.018   5.590  1.00  0.00    -0.451 OA
ENDROOT
BRANCH   1  12
ATOM     12  C   UNL     1      -1.988  -1.134   4.621  1.00  0.00     0.063 A 
ATOM     13  C   UNL     1      -3.429  -3.002   4.033  1.00  0.00     0.047 A 
ATOM     14  C   UNL     1      -3.097  -1.649   3.931  1.00  0.00     0.020 A 
ATOM     15  C   UNL     1      -2.651  -3.860   4.814  1.00  0.00     0.119 A 
ATOM     16  C   UNL     1      -1.529  -3.361   5.487  1.00  0.00     0.093 A 
ATOM     17  C   UNL     1      -1.185  -2.005   5.385  1.00  0.00     0.130 A 
BRANCH  15  18
ATOM     18  O   UNL     1      -2.996  -5.206   4.909  1.00  0.00    -0.508 OA
ATOM     19  H   UNL     1      -2.722  -5.769   5.706  1.00  0.00     0.293 HD
ENDBRANCH  15  18
BRANCH  17  20
ATOM     20  O   UNL     1      -0.037  -1.530   6.021  1.00  0.00    -0.507 OA
ATOM     21  H   UNL     1       0.549  -0.819   5.599  1.00  0.00     0.293 HD
ENDBRANCH  17  20
ENDBRANCH   1  12
BRANCH   2  22
ATOM     22  O   UNL     1      -1.583   0.134   2.066  1.00  0.00    -0.502 OA
ATOM     23  H   UNL     1      -2.412   0.123   1.483  1.00  0.00     0.293 HD
ENDBRANCH   2  22
BRANCH   6  24
ATOM     24  O   UNL     1      -0.823   5.265   3.290  1.00  0.00    -0.507 OA
ATOM     25  H   UNL     1      -1.480   6.009   3.111  1.00  0.00     0.293 HD
ENDBRANCH   6  24
BRANCH   8  26
ATOM     26  O   UNL     1      -0.542   4.952   8.074  1.00  0.00    -0.508 OA
ATOM     27  H   UNL     1       0.262   5.545   8.245  1.00  0.00     0.293 HD
ENDBRANCH   8  26
TORSDOF 6
ENDMDL
MODEL 3
REMARK VINA RESULT:    -8.071      1.990      3.048
REMARK INTER + INTRA:          -9.546
REMARK INTER:                  -9.284
REMARK INTRA:                  -0.262
REMARK UNBOUND:                 0.177
REMARK SMILES O=c1c(O)c(-c2ccc(O)cc2O)oc2cc(O)cc(O)c12
REMARK SMILES IDX 5 1 3 2 2 3 1 4 22 5 20 6 19 7 17 8 16 9 15 10 14 11 6 12
REMARK SMILES IDX 8 13 7 14 9 15 11 16 12 17 10 18 13 20 4 22 21 24 18 26
REMARK H PARENT 10 19 13 21 4 23 21 25 18 27
REMARK Flexibility Score: inf
ROOT
ATOM      1  C   UNL     1      -2.344  -0.856   4.792  1.00  0.00     0.184 A 
ATOM      2  C   UNL     1      -2.067  -1.677   3.688  1.00  0.00     0.208 A 
ATOM      3  C   UNL     1      -2.389  -3.041   3.755  1.00  0.00     0.238 A 
ATOM      4  O   UNL     1      -2.188  -3.760   2.742  1.00  0.00    -0.285 OA
ATOM      5  C   UNL     1      -2.970  -3.569   4.934  1.00  0.00     0.111 A 
ATOM      6  C   UNL     1      -3.301  -4.944   5.128  1.00  0.00     0.134 A 
ATOM      7  C   UNL     1      -3.990  -5.332   6.283  1.00  0.00     0.093 A 
ATOM      8  C   UNL     1      -4.303  -4.405   7.281  1.00  0.00     0.123 A 
ATOM      9  C   UNL     1      -3.932  -3.071   7.127  1.00  0.00     0.094 A 
ATOM     10  C   UNL     1      -3.275  -2.647   5.969  1.00  0.00     0.146 A 
ATOM     11  O   UNL     1      -2.950  -1.365   5.858  1.00  0.00    -0.451 OA
ENDROOT
BRANCH   1  12
ATOM     12  C   UNL     1      -2.014   0.585   4.793  1.00  0.00     0.063 A 
ATOM     13  C   UNL     1      -0.681   2.410   5.689  1.00  0.00     0.047 A 
ATOM     14  C   UNL     1      -1.022   1.055   5.667  1.00  0.00     0.020 A 
ATOM     15  C   UNL     1      -1.318   3.309   4.831  1.00  0.00     0.119 A 
ATOM     16  C   UNL     1      -2.293   2.846   3.938  1.00  0.00     0.093 A 
ATOM     17  C   UNL     1      -2.636   1.486   3.905  1.00  0.00     0.130 A 
BRANCH  15  18
ATOM     18  O   UNL     1      -0.970   4.658   4.867  1.00  0.00    -0.508 OA
ATOM     19  H   UNL     1      -1.523   5.334   5.382  1.00  0.00     0.293 HD
ENDBRANCH  15  18
BRANCH  17  20
ATOM     20  O   UNL     1      -3.574   1.030   2.978  1.00  0.00    -0.507 OA
ATOM     21  H   UNL     1      -4.566   1.022   3.185  1.00  0.00     0.293 HD
ENDBRANCH  17  20
ENDBRANCH   1  12
BRANCH   2  22
ATOM     22  O   UNL     1      -1.510  -1.125   2.530  1.00  0.00    -0.502 OA
ATOM     23  H   UNL     1      -1.827  -1.378   1.602  1.00  0.00     0.293 HD
ENDBRANCH   2  22
BRANCH   6  24
ATOM     24  O   UNL     1      -2.954  -5.964   4.237  1.00  0.00    -0.507 OA
ATOM     25  H   UNL     1      -2.312  -5.859   3.466  1.00  0.00     0.293 HD
ENDBRANCH   6  24
BRANCH   8  26
ATOM     26  O   UNL     1      -4.975  -4.802   8.435  1.00  0.00    -0.508 OA
ATOM     27  H   UNL     1      -5.988  -4.829   8.474  1.00  0.00     0.293 HD
ENDBRANCH   8  26
TORSDOF 6
ENDMDL
MODEL 4
REMARK VINA RESULT:    -7.969      3.382      5.542
REMARK INTER + INTRA:          -9.423
REMARK INTER:                  -9.014
REMARK INTRA:                  -0.410
REMARK UNBOUND:                 0.177
REMARK SMILES O=c1c(O)c(-c2ccc(O)cc2O)oc2cc(O)cc(O)c12
REMARK SMILES IDX 5 1 3 2 2 3 1 4 22 5 20 6 19 7 17 8 16 9 15 10 14 11 6 12
REMARK SMILES IDX 8 13 7 14 9 15 11 16 12 17 10 18 13 20 4 22 21 24 18 26
REMARK H PARENT 10 19 13 21 4 23 21 25 18 27
REMARK Flexibility Score: inf
ROOT
ATOM      1  C   UNL     1      -1.626   4.871   4.375  1.00  0.00     0.184 A 
ATOM      2  C   UNL     1      -2.534   4.603   5.411  1.00  0.00     0.208 A 
ATOM      3  C   UNL     1      -3.032   3.299   5.560  1.00  0.00     0.238 A 
ATOM      4  O   UNL     1      -3.803   3.052   6.523  1.00  0.00    -0.285 OA
ATOM      5  C   UNL     1      -2.626   2.284   4.659  1.00  0.00     0.111 A 
ATOM      6  C   UNL     1      -3.096   0.938   4.690  1.00  0.00     0.134 A 
ATOM      7  C   UNL     1      -2.530  -0.012   3.831  1.00  0.00     0.093 A 
ATOM      8  C   UNL     1      -1.556   0.351   2.898  1.00  0.00     0.123 A 
ATOM      9  C   UNL     1      -1.132   1.675   2.820  1.00  0.00     0.094 A 
ATOM     10  C   UNL     1      -1.652   2.638   3.688  1.00  0.00     0.146 A 
ATOM     11  O   UNL     1      -1.213   3.887   3.587  1.00  0.00    -0.451 OA
ENDROOT
BRANCH   1  12
ATOM     12  C   UNL     1      -1.078   6.226   4.154  1.00  0.00     0.063 A 
ATOM     13  C   UNL     1      -1.277   8.396   3.075  1.00  0.00     0.047 A 
ATOM     14  C   UNL     1      -1.764   7.107   3.302  1.00  0.00     0.020 A 
ATOM     15  C   UNL     1      -0.107   8.826   3.704  1.00  0.00     0.119 A 
ATOM     16  C   UNL     1       0.573   7.964   4.574  1.00  0.00     0.093 A 
ATOM     17  C   UNL     1       0.087   6.670   4.813  1.00  0.00     0.130 A 
BRANCH  15  18
ATOM     18  O   UNL     1       0.370  10.114   3.465  1.00  0.00    -0.508 OA
ATOM     19  H   UNL     1      -0.125  10.758   2.858  1.00  0.00     0.293 HD
ENDBRANCH  15  18
BRANCH  17  20
ATOM     20  O   UNL     1       0.746   5.837   5.718  1.00  0.00    -0.507 OA
ATOM     21  H   UNL     1       0.243   5.334   6.440  1.00  0.00     0.293 HD
ENDBRANCH  17  20
ENDBRANCH   1  12
BRANCH   2  22
ATOM     22  O   UNL     1      -2.903   5.619   6.298  1.00  0.00    -0.502 OA
ATOM     23  H   UNL     1      -3.865   5.914   6.415  1.00  0.00     0.293 HD
ENDBRANCH   2  22
BRANCH   6  24
ATOM     24  O   UNL     1      -4.130   0.491   5.519  1.00  0.00    -0.507 OA
ATOM     25  H   UNL     1      -4.965   0.027   5.196  1.00  0.00     0.293 HD
ENDBRANCH   6  24
BRANCH   8  26
ATOM     26  O   UNL     1      -1.008  -0.598   2.037  1.00  0.00    -0.508 OA
ATOM     27  H   UNL     1      -0.620  -0.335   1.138  1.00  0.00     0.293 HD
ENDBRANCH   8  26
TORSDOF 6
ENDMDL
MODEL 5
REMARK VINA RESULT:    -7.943      1.738      7.079
REMARK INTER + INTRA:          -9.392
REMARK INTER:                  -8.970
REMARK INTRA:                  -0.422
REMARK UNBOUND:                 0.177
REMARK SMILES O=c1c(O)c(-c2ccc(O)cc2O)oc2cc(O)cc(O)c12
REMARK SMILES IDX 5 1 3 2 2 3 1 4 22 5 20 6 19 7 17 8 16 9 15 10 14 11 6 12
REMARK SMILES IDX 8 13 7 14 9 15 11 16 12 17 10 18 13 20 4 22 21 24 18 26
REMARK H PARENT 10 19 13 21 4 23 21 25 18 27
REMARK Flexibility Score: inf
ROOT
ATOM      1  C   UNL     1      -2.068  -0.150   4.469  1.00  0.00     0.184 A 
ATOM      2  C   UNL     1      -1.517   0.531   3.373  1.00  0.00     0.208 A 
ATOM      3  C   UNL     1      -1.398   1.928   3.428  1.00  0.00     0.238 A 
ATOM      4  O   UNL     1      -0.853   2.527   2.465  1.00  0.00    -0.285 OA
ATOM      5  C   UNL     1      -1.846   2.627   4.575  1.00  0.00     0.111 A 
ATOM      6  C   UNL     1      -1.810   4.046   4.725  1.00  0.00     0.134 A 
ATOM      7  C   UNL     1      -2.160   4.620   5.953  1.00  0.00     0.093 A 
ATOM      8  C   UNL     1      -2.606   3.831   7.017  1.00  0.00     0.123 A 
ATOM      9  C   UNL     1      -2.700   2.450   6.861  1.00  0.00     0.094 A 
ATOM     10  C   UNL     1      -2.324   1.844   5.660  1.00  0.00     0.146 A 
ATOM     11  O   UNL     1      -2.418   0.524   5.558  1.00  0.00    -0.451 OA
ENDROOT
BRANCH   1  12
ATOM     12  C   UNL     1      -2.237  -1.619   4.468  1.00  0.00     0.063 A 
ATOM     13  C   UNL     1      -3.434  -3.570   3.648  1.00  0.00     0.047 A 
ATOM     14  C   UNL     1      -3.250  -2.185   3.677  1.00  0.00     0.020 A 
ATOM     15  C   UNL     1      -2.603  -4.405   4.397  1.00  0.00     0.119 A 
ATOM     16  C   UNL     1      -1.575  -3.852   5.171  1.00  0.00     0.093 A 
ATOM     17  C   UNL     1      -1.379  -2.463   5.201  1.00  0.00     0.130 A 
BRANCH  15  18
ATOM     18  O   UNL     1      -2.801  -5.784   4.361  1.00  0.00    -0.508 OA
ATOM     19  H   UNL     1      -3.464  -6.208   3.721  1.00  0.00     0.293 HD
ENDBRANCH  15  18
BRANCH  17  20
ATOM     20  O   UNL     1      -0.322  -1.927   5.937  1.00  0.00    -0.507 OA
ATOM     21  H   UNL     1      -0.178  -0.927   6.009  1.00  0.00     0.293 HD
ENDBRANCH  17  20
ENDBRANCH   1  12
BRANCH   2  22
ATOM     22  O   UNL     1      -1.066  -0.186   2.260  1.00  0.00    -0.502 OA
ATOM     23  H   UNL     1      -1.546  -0.163   1.369  1.00  0.00     0.293 HD
ENDBRANCH   2  22
BRANCH   6  24
ATOM     24  O   UNL     1      -1.469   4.931   3.698  1.00  0.00    -0.507 OA
ATOM     25  H   UNL     1      -1.626   5.927   3.722  1.00  0.00     0.293 HD
ENDBRANCH   6  24
BRANCH   8  26
ATOM     26  O   UNL     1      -2.966   4.411   8.231  1.00  0.00    -0.508 OA
ATOM     27  H   UNL     1      -3.896   4.785   8.384  1.00  0.00     0.293 HD
ENDBRANCH   8  26
TORSDOF 6
ENDMDL
MODEL 6
REMARK VINA RESULT:    -7.805     10.739     12.271
REMARK INTER + INTRA:          -9.226
REMARK INTER:                  -8.812
REMARK INTRA:                  -0.414
REMARK UNBOUND:                 0.177
REMARK SMILES O=c1c(O)c(-c2ccc(O)cc2O)oc2cc(O)cc(O)c12
REMARK SMILES IDX 5 1 3 2 2 3 1 4 22 5 20 6 19 7 17 8 16 9 15 10 14 11 6 12
REMARK SMILES IDX 8 13 7 14 9 15 11 16 12 17 10 18 13 20 4 22 21 24 18 26
REMARK H PARENT 10 19 13 21 4 23 21 25 18 27
REMARK Flexibility Score: inf
ROOT
ATOM      1  C   UNL     1      -7.422  -3.142  -5.780  1.00  0.00     0.184 A 
ATOM      2  C   UNL     1      -7.469  -4.389  -6.420  1.00  0.00     0.208 A 
ATOM      3  C   UNL     1      -7.914  -5.509  -5.700  1.00  0.00     0.238 A 
ATOM      4  O   UNL     1      -8.006  -6.614  -6.296  1.00  0.00    -0.285 OA
ATOM      5  C   UNL     1      -8.290  -5.367  -4.342  1.00  0.00     0.111 A 
ATOM      6  C   UNL     1      -8.719  -6.439  -3.504  1.00  0.00     0.134 A 
ATOM      7  C   UNL     1      -9.190  -6.163  -2.215  1.00  0.00     0.093 A 
ATOM      8  C   UNL     1      -9.188  -4.860  -1.711  1.00  0.00     0.123 A 
ATOM      9  C   UNL     1      -8.716  -3.813  -2.501  1.00  0.00     0.094 A 
ATOM     10  C   UNL     1      -8.273  -4.053  -3.804  1.00  0.00     0.146 A 
ATOM     11  O   UNL     1      -7.843  -3.026  -4.527  1.00  0.00    -0.451 OA
ENDROOT
BRANCH   1  12
ATOM     12  C   UNL     1      -6.946  -1.928  -6.477  1.00  0.00     0.063 A 
ATOM     13  C   UNL     1      -7.353  -0.184  -8.122  1.00  0.00     0.047 A 
ATOM     14  C   UNL     1      -7.769  -1.335  -7.448  1.00  0.00     0.020 A 
ATOM     15  C   UNL     1      -6.118   0.397  -7.825  1.00  0.00     0.119 A 
ATOM     16  C   UNL     1      -5.300  -0.173  -6.840  1.00  0.00     0.093 A 
ATOM     17  C   UNL     1      -5.713  -1.325  -6.155  1.00  0.00     0.130 A 
BRANCH  15  18
ATOM     18  O   UNL     1      -5.715   1.543  -8.507  1.00  0.00    -0.508 OA
ATOM     19  H   UNL     1      -5.995   2.468  -8.201  1.00  0.00     0.293 HD
ENDBRANCH  15  18
BRANCH  17  20
ATOM     20  O   UNL     1      -4.912  -1.856  -5.143  1.00  0.00    -0.507 OA
ATOM     21  H   UNL     1      -3.973  -2.188  -5.328  1.00  0.00     0.293 HD
ENDBRANCH  17  20
ENDBRANCH   1  12
BRANCH   2  22
ATOM     22  O   UNL     1      -7.109  -4.498  -7.767  1.00  0.00    -0.502 OA
ATOM     23  H   UNL     1      -6.558  -3.791  -8.241  1.00  0.00     0.293 HD
ENDBRANCH   2  22
BRANCH   6  24
ATOM     24  O   UNL     1      -8.675  -7.787  -3.876  1.00  0.00    -0.507 OA
ATOM     25  H   UNL     1      -9.409  -8.455  -3.700  1.00  0.00     0.293 HD
ENDBRANCH   6  24
BRANCH   8  26
ATOM     26  O   UNL     1      -9.644  -4.595  -0.422  1.00  0.00    -0.508 OA
ATOM     27  H   UNL     1     -10.272  -3.822  -0.231  1.00  0.00     0.293 HD
ENDBRANCH   8  26
TORSDOF 6
ENDMDL
MODEL 7
REMARK VINA RESULT:    -7.781      2.043      2.064
REMARK INTER + INTRA:          -9.196
REMARK INTER:                  -9.306
REMARK INTRA:                   0.110
REMARK UNBOUND:                 0.177
REMARK SMILES O=c1c(O)c(-c2ccc(O)cc2O)oc2cc(O)cc(O)c12
REMARK SMILES IDX 5 1 3 2 2 3 1 4 22 5 20 6 19 7 17 8 16 9 15 10 14 11 6 12
REMARK SMILES IDX 8 13 7 14 9 15 11 16 12 17 10 18 13 20 4 22 21 24 18 26
REMARK H PARENT 10 19 13 21 4 23 21 25 18 27
REMARK Flexibility Score: inf
ROOT
ATOM      1  C   UNL     1      -2.608  -0.252   5.066  1.00  0.00     0.184 A 
ATOM      2  C   UNL     1      -3.524  -0.332   6.126  1.00  0.00     0.208 A 
ATOM      3  C   UNL     1      -4.070  -1.580   6.463  1.00  0.00     0.238 A 
ATOM      4  O   UNL     1      -4.849  -1.653   7.449  1.00  0.00    -0.285 OA
ATOM      5  C   UNL     1      -3.704  -2.731   5.724  1.00  0.00     0.111 A 
ATOM      6  C   UNL     1      -4.224  -4.040   5.952  1.00  0.00     0.134 A 
ATOM      7  C   UNL     1      -3.694  -5.126   5.245  1.00  0.00     0.093 A 
ATOM      8  C   UNL     1      -2.707  -4.942   4.273  1.00  0.00     0.123 A 
ATOM      9  C   UNL     1      -2.235  -3.659   4.002  1.00  0.00     0.094 A 
ATOM     10  C   UNL     1      -2.718  -2.560   4.716  1.00  0.00     0.146 A 
ATOM     11  O   UNL     1      -2.233  -1.357   4.434  1.00  0.00    -0.451 OA
ENDROOT
BRANCH   1  12
ATOM     12  C   UNL     1      -2.011   1.034   4.649  1.00  0.00     0.063 A 
ATOM     13  C   UNL     1      -1.169   3.230   5.266  1.00  0.00     0.047 A 
ATOM     14  C   UNL     1      -1.739   2.006   5.625  1.00  0.00     0.020 A 
ATOM     15  C   UNL     1      -0.852   3.493   3.932  1.00  0.00     0.119 A 
ATOM     16  C   UNL     1      -1.097   2.521   2.953  1.00  0.00     0.093 A 
ATOM     17  C   UNL     1      -1.663   1.287   3.306  1.00  0.00     0.130 A 
BRANCH  15  18
ATOM     18  O   UNL     1      -0.288   4.720   3.588  1.00  0.00    -0.508 OA
ATOM     19  H   UNL     1      -0.863   5.530   3.384  1.00  0.00     0.293 HD
ENDBRANCH  15  18
BRANCH  17  20
ATOM     20  O   UNL     1      -1.858   0.309   2.331  1.00  0.00    -0.507 OA
ATOM     21  H   UNL     1      -2.569   0.405   1.615  1.00  0.00     0.293 HD
ENDBRANCH  17  20
ENDBRANCH   1  12
BRANCH   2  22
ATOM     22  O   UNL     1      -3.855   0.817   6.851  1.00  0.00    -0.502 OA
ATOM     23  H   UNL     1      -3.272   1.646   6.852  1.00  0.00     0.293 HD
ENDBRANCH   2  22
BRANCH   6  24
ATOM     24  O   UNL     1      -5.272  -4.321   6.833  1.00  0.00    -0.507 OA
ATOM     25  H   UNL     1      -6.169  -4.691   6.559  1.00  0.00     0.293 HD
ENDBRANCH   6  24
BRANCH   8  26
ATOM     26  O   UNL     1      -2.196  -6.026   3.564  1.00  0.00    -0.508 OA
ATOM     27  H   UNL     1      -1.198  -6.195   3.502  1.00  0.00     0.293 HD
ENDBRANCH   8  26
TORSDOF 6
ENDMDL
MODEL 8
REMARK VINA RESULT:    -7.576     10.981     13.740
REMARK INTER + INTRA:          -8.949
REMARK INTER:                  -8.534
REMARK INTRA:                  -0.415
REMARK UNBOUND:                 0.177
REMARK SMILES O=c1c(O)c(-c2ccc(O)cc2O)oc2cc(O)cc(O)c12
REMARK SMILES IDX 5 1 3 2 2 3 1 4 22 5 20 6 19 7 17 8 16 9 15 10 14 11 6 12
REMARK SMILES IDX 8 13 7 14 9 15 11 16 12 17 10 18 13 20 4 22 21 24 18 26
REMARK H PARENT 10 19 13 21 4 23 21 25 18 27
REMARK Flexibility Score: inf
ROOT
ATOM      1  C   UNL     1      -8.148  -3.378  -5.333  1.00  0.00     0.184 A 
ATOM      2  C   UNL     1      -8.980  -3.218  -6.451  1.00  0.00     0.208 A 
ATOM      3  C   UNL     1      -8.626  -2.282  -7.436  1.00  0.00     0.238 A 
ATOM      4  O   UNL     1      -9.347  -2.182  -8.462  1.00  0.00    -0.285 OA
ATOM      5  C   UNL     1      -7.451  -1.508  -7.280  1.00  0.00     0.111 A 
ATOM      6  C   UNL     1      -7.015  -0.504  -8.195  1.00  0.00     0.134 A 
ATOM      7  C   UNL     1      -5.770   0.110  -8.006  1.00  0.00     0.093 A 
ATOM      8  C   UNL     1      -4.975  -0.200  -6.900  1.00  0.00     0.123 A 
ATOM      9  C   UNL     1      -5.418  -1.137  -5.970  1.00  0.00     0.094 A 
ATOM     10  C   UNL     1      -6.639  -1.792  -6.150  1.00  0.00     0.146 A 
ATOM     11  O   UNL     1      -7.018  -2.687  -5.245  1.00  0.00    -0.451 OA
ENDROOT
BRANCH   1  12
ATOM     12  C   UNL     1      -8.472  -4.333  -4.252  1.00  0.00     0.063 A 
ATOM     13  C   UNL     1      -8.475  -6.623  -3.435  1.00  0.00     0.047 A 
ATOM     14  C   UNL     1      -8.186  -5.695  -4.438  1.00  0.00     0.020 A 
ATOM     15  C   UNL     1      -9.040  -6.202  -2.230  1.00  0.00     0.119 A 
ATOM     16  C   UNL     1      -9.308  -4.843  -2.024  1.00  0.00     0.093 A 
ATOM     17  C   UNL     1      -9.016  -3.903  -3.024  1.00  0.00     0.130 A 
BRANCH  15  18
ATOM     18  O   UNL     1      -9.326  -7.140  -1.240  1.00  0.00    -0.508 OA
ATOM     19  H   UNL     1      -9.088  -6.975  -0.268  1.00  0.00     0.293 HD
ENDBRANCH  15  18
BRANCH  17  20
ATOM     20  O   UNL     1      -9.242  -2.547  -2.789  1.00  0.00    -0.507 OA
ATOM     21  H   UNL     1      -9.170  -1.859  -3.531  1.00  0.00     0.293 HD
ENDBRANCH  17  20
ENDBRANCH   1  12
BRANCH   2  22
ATOM     22  O   UNL     1     -10.125  -4.008  -6.588  1.00  0.00    -0.502 OA
ATOM     23  H   UNL     1     -10.190  -4.755  -7.270  1.00  0.00     0.293 HD
ENDBRANCH   2  22
BRANCH   6  24
ATOM     24  O   UNL     1      -7.774  -0.054  -9.280  1.00  0.00    -0.507 OA
ATOM     25  H   UNL     1      -8.188  -0.652  -9.978  1.00  0.00     0.293 HD
ENDBRANCH   6  24
BRANCH   8  26
ATOM     26  O   UNL     1      -3.744   0.426  -6.712  1.00  0.00    -0.508 OA
ATOM     27  H   UNL     1      -2.909  -0.105  -6.491  1.00  0.00     0.293 HD
ENDBRANCH   8  26
TORSDOF 6
ENDMDL
MODEL 9
REMARK VINA RESULT:    -7.467     12.219     14.159
REMARK INTER + INTRA:          -8.818
REMARK INTER:                  -8.868
REMARK INTRA:                   0.049
REMARK UNBOUND:                 0.177
REMARK SMILES O=c1c(O)c(-c2ccc(O)cc2O)oc2cc(O)cc(O)c12
REMARK SMILES IDX 5 1 3 2 2 3 1 4 22 5 20 6 19 7 17 8 16 9 15 10 14 11 6 12
REMARK SMILES IDX 8 13 7 14 9 15 11 16 12 17 10 18 13 20 4 22 21 24 18 26
REMARK H PARENT 10 19 13 21 4 23 21 25 18 27
REMARK Flexibility Score: inf
ROOT
ATOM      1  C   UNL     1       1.870   6.477  -6.655  1.00  0.00     0.184 A 
ATOM      2  C   UNL     1       1.927   6.682  -8.041  1.00  0.00     0.208 A 
ATOM      3  C   UNL     1       0.986   6.044  -8.864  1.00  0.00     0.238 A 
ATOM      4  O   UNL     1       1.008   6.275 -10.101  1.00  0.00    -0.285 OA
ATOM      5  C   UNL     1       0.010   5.195  -8.288  1.00  0.00     0.111 A 
ATOM      6  C   UNL     1      -0.968   4.465  -9.029  1.00  0.00     0.134 A 
ATOM      7  C   UNL     1      -1.965   3.758  -8.346  1.00  0.00     0.093 A 
ATOM      8  C   UNL     1      -1.981   3.701  -6.950  1.00  0.00     0.123 A 
ATOM      9  C   UNL     1      -0.996   4.362  -6.220  1.00  0.00     0.094 A 
ATOM     10  C   UNL     1      -0.009   5.105  -6.871  1.00  0.00     0.146 A 
ATOM     11  O   UNL     1       0.904   5.729  -6.136  1.00  0.00    -0.451 OA
ENDROOT
BRANCH   1  12
ATOM     12  C   UNL     1       2.841   7.106  -5.735  1.00  0.00     0.063 A 
ATOM     13  C   UNL     1       5.112   7.866  -5.315  1.00  0.00     0.047 A 
ATOM     14  C   UNL     1       4.170   7.271  -6.157  1.00  0.00     0.020 A 
ATOM     15  C   UNL     1       4.737   8.316  -4.047  1.00  0.00     0.119 A 
ATOM     16  C   UNL     1       3.409   8.177  -3.625  1.00  0.00     0.093 A 
ATOM     17  C   UNL     1       2.455   7.586  -4.467  1.00  0.00     0.130 A 
BRANCH  15  18
ATOM     18  O   UNL     1       5.689   8.904  -3.217  1.00  0.00    -0.508 OA
ATOM     19  H   UNL     1       5.742   8.680  -2.229  1.00  0.00     0.293 HD
ENDBRANCH  15  18
BRANCH  17  20
ATOM     20  O   UNL     1       1.125   7.497  -4.054  1.00  0.00    -0.507 OA
ATOM     21  H   UNL     1       0.725   6.623  -3.734  1.00  0.00     0.293 HD
ENDBRANCH  17  20
ENDBRANCH   1  12
BRANCH   2  22
ATOM     22  O   UNL     1       2.889   7.540  -8.582  1.00  0.00    -0.502 OA
ATOM     23  H   UNL     1       2.655   8.449  -8.963  1.00  0.00     0.293 HD
ENDBRANCH   2  22
BRANCH   6  24
ATOM     24  O   UNL     1      -0.987   4.380 -10.425  1.00  0.00    -0.507 OA
ATOM     25  H   UNL     1      -0.859   3.528 -10.949  1.00  0.00     0.293 HD
ENDBRANCH   6  24
BRANCH   8  26
ATOM     26  O   UNL     1      -2.968   2.982  -6.279  1.00  0.00    -0.508 OA
ATOM     27  H   UNL     1      -3.889   2.845  -6.681  1.00  0.00     0.293 HD
ENDBRANCH   8  26
TORSDOF 6
ENDMDL
