MODEL 1
REMARK VINA RESULT:    -5.673      0.000      0.000
REMARK INTER + INTRA:          -7.021
REMARK INTER:                  -6.834
REMARK INTRA:                  -0.187
REMARK UNBOUND:                -0.187
REMARK SMILES O=c1c(O)c(-c2ccc(O)c(O)c2)oc2cc(O)cc(O)c12
REMARK SMILES IDX 5 1 3 2 2 3 1 4 22 5 20 6 19 7 17 8 16 9 15 10 14 11 6 12
REMARK SMILES IDX 7 13 8 14 9 15 13 16 11 17 10 18 12 20 4 22 21 24 18 26
REMARK H PARENT 10 19 12 21 4 23 21 25 18 27
REMARK Flexibility Score: inf
ROOT
ATOM      1  C   UNL     1      37.492  62.380  56.486  1.00  0.00     0.180 A 
ATOM      2  C   UNL     1      38.629  63.127  56.838  1.00  0.00     0.208 A 
ATOM      3  C   UNL     1      38.571  64.529  56.772  1.00  0.00     0.238 A 
ATOM      4  O   UNL     1      39.609  65.190  57.035  1.00  0.00    -0.285 OA
ATOM      5  C   UNL     1      37.372  65.165  56.372  1.00  0.00     0.111 A 
ATOM      6  C   UNL     1      37.187  66.579  56.310  1.00  0.00     0.134 A 
ATOM      7  C   UNL     1      36.001  67.098  55.775  1.00  0.00     0.093 A 
ATOM      8  C   UNL     1      34.967  66.253  55.362  1.00  0.00     0.123 A 
ATOM      9  C   UNL     1      35.115  64.873  55.475  1.00  0.00     0.094 A 
ATOM     10  C   UNL     1      36.301  64.325  55.970  1.00  0.00     0.146 A 
ATOM     11  O   UNL     1      36.404  63.004  56.052  1.00  0.00    -0.452 OA
ENDROOT
BRANCH   1  12
ATOM     12  C   UNL     1      37.469  60.900  56.553  1.00  0.00     0.025 A 
ATOM     13  C   UNL     1      37.605  60.222  57.776  1.00  0.00     0.016 A 
ATOM     14  C   UNL     1      37.555  58.826  57.819  1.00  0.00     0.051 A 
ATOM     15  C   UNL     1      37.357  58.089  56.644  1.00  0.00     0.157 A 
ATOM     16  C   UNL     1      37.248  60.159  55.381  1.00  0.00     0.062 A 
ATOM     17  C   UNL     1      37.199  58.761  55.420  1.00  0.00     0.158 A 
BRANCH  15  18
ATOM     18  O   UNL     1      37.310  56.697  56.690  1.00  0.00    -0.504 OA
ATOM     19  H   UNL     1      36.510  56.204  57.069  1.00  0.00     0.293 HD
ENDBRANCH  15  18
BRANCH  17  20
ATOM     20  O   UNL     1      36.992  58.057  54.234  1.00  0.00    -0.504 OA
ATOM     21  H   UNL     1      37.750  57.839  53.598  1.00  0.00     0.293 HD
ENDBRANCH  17  20
ENDBRANCH   1  12
BRANCH   2  22
ATOM     22  O   UNL     1      39.810  62.477  57.208  1.00  0.00    -0.502 OA
ATOM     23  H   UNL     1      40.678  62.593  56.699  1.00  0.00     0.293 HD
ENDBRANCH   2  22
BRANCH   6  24
ATOM     24  O   UNL     1      38.118  67.510  56.779  1.00  0.00    -0.507 OA
ATOM     25  H   UNL     1      38.280  67.720  57.753  1.00  0.00     0.293 HD
ENDBRANCH   6  24
BRANCH   8  26
ATOM     26  O   UNL     1      33.784  66.778  54.846  1.00  0.00    -0.508 OA
ATOM     27  H   UNL     1      33.403  67.655  55.181  1.00  0.00     0.293 HD
ENDBRANCH   8  26
TORSDOF 6
ENDMDL
MODEL 2
REMARK VINA RESULT:    -5.405     14.450     15.304
REMARK INTER + INTRA:          -6.698
REMARK INTER:                  -6.427
REMARK INTRA:                  -0.271
REMARK UNBOUND:                -0.187
REMARK SMILES O=c1c(O)c(-c2ccc(O)c(O)c2)oc2cc(O)cc(O)c12
REMARK SMILES IDX 5 1 3 2 2 3 1 4 22 5 20 6 19 7 17 8 16 9 15 10 14 11 6 12
REMARK SMILES IDX 7 13 8 14 9 15 13 16 11 17 10 18 12 20 4 22 21 24 18 26
REMARK H PARENT 10 19 12 21 4 23 21 25 18 27
REMARK Flexibility Score: inf
ROOT
ATOM      1  C   UNL     1      43.122  65.722  43.856  1.00  0.00     0.180 A 
ATOM      2  C   UNL     1      44.496  65.997  43.962  1.00  0.00     0.208 A 
ATOM      3  C   UNL     1      45.311  65.841  42.829  1.00  0.00     0.238 A 
ATOM      4  O   UNL     1      46.549  66.035  42.944  1.00  0.00    -0.285 OA
ATOM      5  C   UNL     1      44.739  65.428  41.602  1.00  0.00     0.111 A 
ATOM      6  C   UNL     1      45.463  65.277  40.381  1.00  0.00     0.134 A 
ATOM      7  C   UNL     1      44.820  64.738  39.259  1.00  0.00     0.093 A 
ATOM      8  C   UNL     1      43.463  64.406  39.297  1.00  0.00     0.123 A 
ATOM      9  C   UNL     1      42.735  64.606  40.466  1.00  0.00     0.094 A 
ATOM     10  C   UNL     1      43.356  65.108  41.612  1.00  0.00     0.146 A 
ATOM     11  O   UNL     1      42.627  65.275  42.709  1.00  0.00    -0.452 OA
ENDROOT
BRANCH   1  12
ATOM     12  C   UNL     1      42.195  65.887  45.000  1.00  0.00     0.025 A 
ATOM     13  C   UNL     1      41.805  67.161  45.447  1.00  0.00     0.016 A 
ATOM     14  C   UNL     1      40.910  67.293  46.512  1.00  0.00     0.051 A 
ATOM     15  C   UNL     1      40.382  66.155  47.137  1.00  0.00     0.157 A 
ATOM     16  C   UNL     1      41.647  64.750  45.615  1.00  0.00     0.062 A 
ATOM     17  C   UNL     1      40.751  64.878  46.683  1.00  0.00     0.158 A 
BRANCH  15  18
ATOM     18  O   UNL     1      39.491  66.290  48.200  1.00  0.00    -0.504 OA
ATOM     19  H   UNL     1      39.406  67.159  48.716  1.00  0.00     0.293 HD
ENDBRANCH  15  18
BRANCH  17  20
ATOM     20  O   UNL     1      40.238  63.726  47.278  1.00  0.00    -0.504 OA
ATOM     21  H   UNL     1      39.533  63.764  48.005  1.00  0.00     0.293 HD
ENDBRANCH  17  20
ENDBRANCH   1  12
BRANCH   2  22
ATOM     22  O   UNL     1      45.044  66.381  45.189  1.00  0.00    -0.502 OA
ATOM     23  H   UNL     1      45.353  65.710  45.881  1.00  0.00     0.293 HD
ENDBRANCH   2  22
BRANCH   6  24
ATOM     24  O   UNL     1      46.796  65.662  40.210  1.00  0.00    -0.507 OA
ATOM     25  H   UNL     1      47.533  65.053  39.890  1.00  0.00     0.293 HD
ENDBRANCH   6  24
BRANCH   8  26
ATOM     26  O   UNL     1      42.828  63.884  38.171  1.00  0.00    -0.508 OA
ATOM     27  H   UNL     1      42.922  64.319  37.261  1.00  0.00     0.293 HD
ENDBRANCH   8  26
TORSDOF 6
ENDMDL
MODEL 3
REMARK VINA RESULT:    -5.359     14.535     15.560
REMARK INTER + INTRA:          -6.643
REMARK INTER:                  -6.349
REMARK INTRA:                  -0.294
REMARK UNBOUND:                -0.187
REMARK SMILES O=c1c(O)c(-c2ccc(O)c(O)c2)oc2cc(O)cc(O)c12
REMARK SMILES IDX 5 1 3 2 2 3 1 4 22 5 20 6 19 7 17 8 16 9 15 10 14 11 6 12
REMARK SMILES IDX 7 13 8 14 9 15 13 16 11 17 10 18 12 20 4 22 21 24 18 26
REMARK H PARENT 10 19 12 21 4 23 21 25 18 27
REMARK Flexibility Score: inf
ROOT
ATOM      1  C   UNL     1      42.621  66.023  43.578  1.00  0.00     0.180 A 
ATOM      2  C   UNL     1      41.966  66.307  42.367  1.00  0.00     0.208 A 
ATOM      3  C   UNL     1      42.680  66.188  41.163  1.00  0.00     0.238 A 
ATOM      4  O   UNL     1      42.105  66.496  40.087  1.00  0.00    -0.285 OA
ATOM      5  C   UNL     1      44.032  65.770  41.184  1.00  0.00     0.111 A 
ATOM      6  C   UNL     1      44.838  65.575  40.022  1.00  0.00     0.134 A 
ATOM      7  C   UNL     1      46.201  65.287  40.168  1.00  0.00     0.093 A 
ATOM      8  C   UNL     1      46.771  65.121  41.433  1.00  0.00     0.123 A 
ATOM      9  C   UNL     1      45.979  65.251  42.571  1.00  0.00     0.094 A 
ATOM     10  C   UNL     1      44.625  65.574  42.459  1.00  0.00     0.146 A 
ATOM     11  O   UNL     1      43.907  65.697  43.569  1.00  0.00    -0.452 OA
ENDROOT
BRANCH   1  12
ATOM     12  C   UNL     1      41.929  66.103  44.886  1.00  0.00     0.025 A 
ATOM     13  C   UNL     1      41.728  67.335  45.532  1.00  0.00     0.016 A 
ATOM     14  C   UNL     1      41.052  67.390  46.753  1.00  0.00     0.051 A 
ATOM     15  C   UNL     1      40.556  66.218  47.340  1.00  0.00     0.157 A 
ATOM     16  C   UNL     1      41.412  64.935  45.466  1.00  0.00     0.062 A 
ATOM     17  C   UNL     1      40.735  64.985  46.690  1.00  0.00     0.158 A 
BRANCH  15  18
ATOM     18  O   UNL     1      39.883  66.276  48.559  1.00  0.00    -0.504 OA
ATOM     19  H   UNL     1      39.272  65.528  48.865  1.00  0.00     0.293 HD
ENDBRANCH  15  18
BRANCH  17  20
ATOM     20  O   UNL     1      40.246  63.802  47.243  1.00  0.00    -0.504 OA
ATOM     21  H   UNL     1      40.723  63.325  48.000  1.00  0.00     0.293 HD
ENDBRANCH  17  20
ENDBRANCH   1  12
BRANCH   2  22
ATOM     22  O   UNL     1      40.638  66.740  42.370  1.00  0.00    -0.502 OA
ATOM     23  H   UNL     1      40.174  67.080  41.537  1.00  0.00     0.293 HD
ENDBRANCH   2  22
BRANCH   6  24
ATOM     24  O   UNL     1      44.348  65.627  38.714  1.00  0.00    -0.507 OA
ATOM     25  H   UNL     1      44.894  65.887  37.906  1.00  0.00     0.293 HD
ENDBRANCH   6  24
BRANCH   8  26
ATOM     26  O   UNL     1      48.125  64.819  41.568  1.00  0.00    -0.508 OA
ATOM     27  H   UNL     1      48.829  65.273  40.998  1.00  0.00     0.293 HD
ENDBRANCH   8  26
TORSDOF 6
ENDMDL
MODEL 4
REMARK VINA RESULT:    -5.111      3.194      6.642
REMARK INTER + INTRA:          -6.344
REMARK INTER:                  -6.032
REMARK INTRA:                  -0.312
REMARK UNBOUND:                -0.187
REMARK SMILES O=c1c(O)c(-c2ccc(O)c(O)c2)oc2cc(O)cc(O)c12
REMARK SMILES IDX 5 1 3 2 2 3 1 4 22 5 20 6 19 7 17 8 16 9 15 10 14 11 6 12
REMARK SMILES IDX 7 13 8 14 9 15 13 16 11 17 10 18 12 20 4 22 21 24 18 26
REMARK H PARENT 10 19 12 21 4 23 21 25 18 27
REMARK Flexibility Score: inf
ROOT
ATOM      1  C   UNL     1      36.337  65.579  55.448  1.00  0.00     0.180 A 
ATOM      2  C   UNL     1      36.723  64.232  55.344  1.00  0.00     0.208 A 
ATOM      3  C   UNL     1      37.957  63.834  55.883  1.00  0.00     0.238 A 
ATOM      4  O   UNL     1      38.323  62.638  55.739  1.00  0.00    -0.285 OA
ATOM      5  C   UNL     1      38.781  64.785  56.532  1.00  0.00     0.111 A 
ATOM      6  C   UNL     1      40.032  64.484  57.151  1.00  0.00     0.134 A 
ATOM      7  C   UNL     1      40.824  65.526  57.649  1.00  0.00     0.093 A 
ATOM      8  C   UNL     1      40.379  66.851  57.611  1.00  0.00     0.123 A 
ATOM      9  C   UNL     1      39.133  67.146  57.064  1.00  0.00     0.094 A 
ATOM     10  C   UNL     1      38.337  66.132  56.526  1.00  0.00     0.146 A 
ATOM     11  O   UNL     1      37.160  66.459  56.005  1.00  0.00    -0.452 OA
ENDROOT
BRANCH   1  12
ATOM     12  C   UNL     1      35.040  66.070  54.926  1.00  0.00     0.025 A 
ATOM     13  C   UNL     1      33.847  65.893  55.649  1.00  0.00     0.016 A 
ATOM     14  C   UNL     1      32.639  66.385  55.149  1.00  0.00     0.051 A 
ATOM     15  C   UNL     1      32.606  67.072  53.927  1.00  0.00     0.157 A 
ATOM     16  C   UNL     1      35.006  66.777  53.714  1.00  0.00     0.062 A 
ATOM     17  C   UNL     1      33.797  67.271  53.209  1.00  0.00     0.158 A 
BRANCH  15  18
ATOM     18  O   UNL     1      31.399  67.560  53.431  1.00  0.00    -0.504 OA
ATOM     19  H   UNL     1      31.357  68.110  52.581  1.00  0.00     0.293 HD
ENDBRANCH  15  18
BRANCH  17  20
ATOM     20  O   UNL     1      33.799  67.957  51.995  1.00  0.00    -0.504 OA
ATOM     21  H   UNL     1      34.123  68.915  51.919  1.00  0.00     0.293 HD
ENDBRANCH  17  20
ENDBRANCH   1  12
BRANCH   2  22
ATOM     22  O   UNL     1      35.905  63.315  54.679  1.00  0.00    -0.502 OA
ATOM     23  H   UNL     1      36.044  63.066  53.707  1.00  0.00     0.293 HD
ENDBRANCH   2  22
BRANCH   6  24
ATOM     24  O   UNL     1      40.527  63.188  57.322  1.00  0.00    -0.507 OA
ATOM     25  H   UNL     1      40.935  62.627  56.589  1.00  0.00     0.293 HD
ENDBRANCH   6  24
BRANCH   8  26
ATOM     26  O   UNL     1      41.167  67.880  58.124  1.00  0.00    -0.508 OA
ATOM     27  H   UNL     1      40.851  68.843  58.116  1.00  0.00     0.293 HD
ENDBRANCH   8  26
TORSDOF 6
ENDMDL
MODEL 5
REMARK VINA RESULT:    -5.030     14.278     15.000
REMARK INTER + INTRA:          -6.247
REMARK INTER:                  -6.240
REMARK INTRA:                  -0.006
REMARK UNBOUND:                -0.187
REMARK SMILES O=c1c(O)c(-c2ccc(O)c(O)c2)oc2cc(O)cc(O)c12
REMARK SMILES IDX 5 1 3 2 2 3 1 4 22 5 20 6 19 7 17 8 16 9 15 10 14 11 6 12
REMARK SMILES IDX 7 13 8 14 9 15 13 16 11 17 10 18 12 20 4 22 21 24 18 26
REMARK H PARENT 10 19 12 21 4 23 21 25 18 27
REMARK Flexibility Score: inf
ROOT
ATOM      1  C   UNL     1      44.293  65.713  43.594  1.00  0.00     0.180 A 
ATOM      2  C   UNL     1      44.777  66.809  44.328  1.00  0.00     0.208 A 
ATOM      3  C   UNL     1      44.203  67.099  45.577  1.00  0.00     0.238 A 
ATOM      4  O   UNL     1      44.602  68.113  46.205  1.00  0.00    -0.285 OA
ATOM      5  C   UNL     1      43.164  66.280  46.081  1.00  0.00     0.111 A 
ATOM      6  C   UNL     1      42.539  66.456  47.352  1.00  0.00     0.134 A 
ATOM      7  C   UNL     1      41.433  65.666  47.693  1.00  0.00     0.093 A 
ATOM      8  C   UNL     1      40.973  64.662  46.836  1.00  0.00     0.123 A 
ATOM      9  C   UNL     1      41.616  64.444  45.620  1.00  0.00     0.094 A 
ATOM     10  C   UNL     1      42.698  65.239  45.236  1.00  0.00     0.146 A 
ATOM     11  O   UNL     1      43.275  65.003  44.064  1.00  0.00    -0.452 OA
ENDROOT
BRANCH   1  12
ATOM     12  C   UNL     1      44.864  65.330  42.281  1.00  0.00     0.025 A 
ATOM     13  C   UNL     1      46.251  65.201  42.097  1.00  0.00     0.016 A 
ATOM     14  C   UNL     1      46.766  64.815  40.857  1.00  0.00     0.051 A 
ATOM     15  C   UNL     1      45.904  64.540  39.787  1.00  0.00     0.157 A 
ATOM     16  C   UNL     1      44.002  65.033  41.213  1.00  0.00     0.062 A 
ATOM     17  C   UNL     1      44.514  64.647  39.969  1.00  0.00     0.158 A 
BRANCH  15  18
ATOM     18  O   UNL     1      46.421  64.157  38.551  1.00  0.00    -0.504 OA
ATOM     19  H   UNL     1      46.520  63.181  38.296  1.00  0.00     0.293 HD
ENDBRANCH  15  18
BRANCH  17  20
ATOM     20  O   UNL     1      43.629  64.373  38.927  1.00  0.00    -0.504 OA
ATOM     21  H   UNL     1      42.663  64.116  39.095  1.00  0.00     0.293 HD
ENDBRANCH  17  20
ENDBRANCH   1  12
BRANCH   2  22
ATOM     22  O   UNL     1      45.787  67.618  43.801  1.00  0.00    -0.502 OA
ATOM     23  H   UNL     1      45.691  68.103  42.917  1.00  0.00     0.293 HD
ENDBRANCH   2  22
BRANCH   6  24
ATOM     24  O   UNL     1      42.976  67.366  48.318  1.00  0.00    -0.507 OA
ATOM     25  H   UNL     1      43.430  67.112  49.183  1.00  0.00     0.293 HD
ENDBRANCH   6  24
BRANCH   8  26
ATOM     26  O   UNL     1      39.882  63.871  47.190  1.00  0.00    -0.508 OA
ATOM     27  H   UNL     1      38.972  64.002  46.764  1.00  0.00     0.293 HD
ENDBRANCH   8  26
TORSDOF 6
ENDMDL
MODEL 6
REMARK VINA RESULT:    -4.952      2.870      5.091
REMARK INTER + INTRA:          -6.152
REMARK INTER:                  -5.896
REMARK INTRA:                  -0.256
REMARK UNBOUND:                -0.187
REMARK SMILES O=c1c(O)c(-c2ccc(O)c(O)c2)oc2cc(O)cc(O)c12
REMARK SMILES IDX 5 1 3 2 2 3 1 4 22 5 20 6 19 7 17 8 16 9 15 10 14 11 6 12
REMARK SMILES IDX 7 13 8 14 9 15 13 16 11 17 10 18 12 20 4 22 21 24 18 26
REMARK H PARENT 10 19 12 21 4 23 21 25 18 27
REMARK Flexibility Score: inf
ROOT
ATOM      1  C   UNL     1      35.926  65.703  55.732  1.00  0.00     0.180 A 
ATOM      2  C   UNL     1      34.934  66.066  56.659  1.00  0.00     0.208 A 
ATOM      3  C   UNL     1      33.756  66.673  56.193  1.00  0.00     0.238 A 
ATOM      4  O   UNL     1      32.896  67.047  57.033  1.00  0.00    -0.285 OA
ATOM      5  C   UNL     1      33.579  66.893  54.806  1.00  0.00     0.111 A 
ATOM      6  C   UNL     1      32.408  67.462  54.220  1.00  0.00     0.134 A 
ATOM      7  C   UNL     1      32.394  67.754  52.850  1.00  0.00     0.093 A 
ATOM      8  C   UNL     1      33.483  67.435  52.035  1.00  0.00     0.123 A 
ATOM      9  C   UNL     1      34.606  66.825  52.588  1.00  0.00     0.094 A 
ATOM     10  C   UNL     1      34.664  66.555  53.957  1.00  0.00     0.146 A 
ATOM     11  O   UNL     1      35.757  65.982  54.445  1.00  0.00    -0.452 OA
ENDROOT
BRANCH   1  12
ATOM     12  C   UNL     1      37.184  65.037  56.143  1.00  0.00     0.025 A 
ATOM     13  C   UNL     1      38.208  65.748  56.792  1.00  0.00     0.016 A 
ATOM     14  C   UNL     1      39.377  65.095  57.193  1.00  0.00     0.051 A 
ATOM     15  C   UNL     1      39.533  63.721  56.964  1.00  0.00     0.157 A 
ATOM     16  C   UNL     1      37.336  63.657  55.935  1.00  0.00     0.062 A 
ATOM     17  C   UNL     1      38.505  63.000  56.334  1.00  0.00     0.158 A 
BRANCH  15  18
ATOM     18  O   UNL     1      40.701  63.073  57.364  1.00  0.00    -0.504 OA
ATOM     19  H   UNL     1      41.146  63.279  58.250  1.00  0.00     0.293 HD
ENDBRANCH  15  18
BRANCH  17  20
ATOM     20  O   UNL     1      38.626  61.630  56.098  1.00  0.00    -0.504 OA
ATOM     21  H   UNL     1      39.283  61.257  55.423  1.00  0.00     0.293 HD
ENDBRANCH  17  20
ENDBRANCH   1  12
BRANCH   2  22
ATOM     22  O   UNL     1      35.140  65.861  58.026  1.00  0.00    -0.502 OA
ATOM     23  H   UNL     1      35.816  66.393  58.561  1.00  0.00     0.293 HD
ENDBRANCH   2  22
BRANCH   6  24
ATOM     24  O   UNL     1      31.233  67.734  54.927  1.00  0.00    -0.507 OA
ATOM     25  H   UNL     1      31.196  67.982  55.905  1.00  0.00     0.293 HD
ENDBRANCH   6  24
BRANCH   8  26
ATOM     26  O   UNL     1      33.454  67.715  50.669  1.00  0.00    -0.508 OA
ATOM     27  H   UNL     1      33.500  66.977  49.977  1.00  0.00     0.293 HD
ENDBRANCH   8  26
TORSDOF 6
ENDMDL
MODEL 7
REMARK VINA RESULT:    -4.912     11.202     12.723
REMARK INTER + INTRA:          -6.104
REMARK INTER:                  -6.277
REMARK INTRA:                   0.174
REMARK UNBOUND:                -0.187
REMARK SMILES O=c1c(O)c(-c2ccc(O)c(O)c2)oc2cc(O)cc(O)c12
REMARK SMILES IDX 5 1 3 2 2 3 1 4 22 5 20 6 19 7 17 8 16 9 15 10 14 11 6 12
REMARK SMILES IDX 7 13 8 14 9 15 13 16 11 17 10 18 12 20 4 22 21 24 18 26
REMARK H PARENT 10 19 12 21 4 23 21 25 18 27
REMARK Flexibility Score: inf
ROOT
ATOM      1  C   UNL     1      42.128  67.065  46.567  1.00  0.00     0.180 A 
ATOM      2  C   UNL     1      41.097  67.574  47.375  1.00  0.00     0.208 A 
ATOM      3  C   UNL     1      41.315  67.705  48.756  1.00  0.00     0.238 A 
ATOM      4  O   UNL     1      40.370  68.110  49.482  1.00  0.00    -0.285 OA
ATOM      5  C   UNL     1      42.567  67.341  49.309  1.00  0.00     0.111 A 
ATOM      6  C   UNL     1      42.912  67.471  50.688  1.00  0.00     0.134 A 
ATOM      7  C   UNL     1      44.132  66.958  51.145  1.00  0.00     0.093 A 
ATOM      8  C   UNL     1      45.047  66.379  50.262  1.00  0.00     0.123 A 
ATOM      9  C   UNL     1      44.744  66.302  48.905  1.00  0.00     0.094 A 
ATOM     10  C   UNL     1      43.520  66.772  48.424  1.00  0.00     0.146 A 
ATOM     11  O   UNL     1      43.267  66.671  47.124  1.00  0.00    -0.452 OA
ENDROOT
BRANCH   1  12
ATOM     12  C   UNL     1      41.982  66.920  45.100  1.00  0.00     0.025 A 
ATOM     13  C   UNL     1      41.247  67.849  44.344  1.00  0.00     0.016 A 
ATOM     14  C   UNL     1      41.143  67.707  42.958  1.00  0.00     0.051 A 
ATOM     15  C   UNL     1      41.780  66.642  42.306  1.00  0.00     0.157 A 
ATOM     16  C   UNL     1      42.637  65.868  44.441  1.00  0.00     0.062 A 
ATOM     17  C   UNL     1      42.534  65.721  43.053  1.00  0.00     0.158 A 
BRANCH  15  18
ATOM     18  O   UNL     1      41.672  66.502  40.924  1.00  0.00    -0.504 OA
ATOM     19  H   UNL     1      41.266  65.675  40.503  1.00  0.00     0.293 HD
ENDBRANCH  15  18
BRANCH  17  20
ATOM     20  O   UNL     1      43.187  64.655  42.434  1.00  0.00    -0.504 OA
ATOM     21  H   UNL     1      44.138  64.732  42.093  1.00  0.00     0.293 HD
ENDBRANCH  17  20
ENDBRANCH   1  12
BRANCH   2  22
ATOM     22  O   UNL     1      39.862  67.906  46.812  1.00  0.00    -0.502 OA
ATOM     23  H   UNL     1      38.985  67.756  47.296  1.00  0.00     0.293 HD
ENDBRANCH   2  22
BRANCH   6  24
ATOM     24  O   UNL     1      42.111  68.113  51.636  1.00  0.00    -0.507 OA
ATOM     25  H   UNL     1      41.327  67.688  52.108  1.00  0.00     0.293 HD
ENDBRANCH   6  24
BRANCH   8  26
ATOM     26  O   UNL     1      46.266  65.885  50.723  1.00  0.00    -0.508 OA
ATOM     27  H   UNL     1      46.361  65.495  51.654  1.00  0.00     0.293 HD
ENDBRANCH   8  26
TORSDOF 6
ENDMDL
MODEL 8
REMARK VINA RESULT:    -4.845     12.145     13.573
REMARK INTER + INTRA:          -6.024
REMARK INTER:                  -5.837
REMARK INTRA:                  -0.187
REMARK UNBOUND:                -0.187
REMARK SMILES O=c1c(O)c(-c2ccc(O)c(O)c2)oc2cc(O)cc(O)c12
REMARK SMILES IDX 5 1 3 2 2 3 1 4 22 5 20 6 19 7 17 8 16 9 15 10 14 11 6 12
REMARK SMILES IDX 7 13 8 14 9 15 13 16 11 17 10 18 12 20 4 22 21 24 18 26
REMARK H PARENT 10 19 12 21 4 23 21 25 18 27
REMARK Flexibility Score: inf
ROOT
ATOM      1  C   UNL     1      43.611  66.563  46.990  1.00  0.00     0.180 A 
ATOM      2  C   UNL     1      42.365  66.100  46.532  1.00  0.00     0.208 A 
ATOM      3  C   UNL     1      42.198  65.837  45.163  1.00  0.00     0.238 A 
ATOM      4  O   UNL     1      41.065  65.476  44.750  1.00  0.00    -0.285 OA
ATOM      5  C   UNL     1      43.282  66.023  44.272  1.00  0.00     0.111 A 
ATOM      6  C   UNL     1      43.237  65.748  42.872  1.00  0.00     0.134 A 
ATOM      7  C   UNL     1      44.329  66.093  42.065  1.00  0.00     0.093 A 
ATOM      8  C   UNL     1      45.489  66.642  42.619  1.00  0.00     0.123 A 
ATOM      9  C   UNL     1      45.564  66.858  43.993  1.00  0.00     0.094 A 
ATOM     10  C   UNL     1      44.478  66.559  44.818  1.00  0.00     0.146 A 
ATOM     11  O   UNL     1      44.588  66.790  46.121  1.00  0.00    -0.452 OA
ENDROOT
BRANCH   1  12
ATOM     12  C   UNL     1      43.871  66.839  48.422  1.00  0.00     0.025 A 
ATOM     13  C   UNL     1      43.230  67.896  49.090  1.00  0.00     0.016 A 
ATOM     14  C   UNL     1      43.472  68.124  50.447  1.00  0.00     0.051 A 
ATOM     15  C   UNL     1      44.348  67.293  51.159  1.00  0.00     0.157 A 
ATOM     16  C   UNL     1      44.730  65.996  49.143  1.00  0.00     0.062 A 
ATOM     17  C   UNL     1      44.976  66.221  50.503  1.00  0.00     0.158 A 
BRANCH  15  18
ATOM     18  O   UNL     1      44.588  67.524  52.512  1.00  0.00    -0.504 OA
ATOM     19  H   UNL     1      44.754  68.457  52.871  1.00  0.00     0.293 HD
ENDBRANCH  15  18
BRANCH  17  20
ATOM     20  O   UNL     1      45.846  65.370  51.184  1.00  0.00    -0.504 OA
ATOM     21  H   UNL     1      45.528  64.754  51.923  1.00  0.00     0.293 HD
ENDBRANCH  17  20
ENDBRANCH   1  12
BRANCH   2  22
ATOM     22  O   UNL     1      41.301  65.945  47.425  1.00  0.00    -0.502 OA
ATOM     23  H   UNL     1      40.961  65.036  47.713  1.00  0.00     0.293 HD
ENDBRANCH   2  22
BRANCH   6  24
ATOM     24  O   UNL     1      42.165  65.119  42.234  1.00  0.00    -0.507 OA
ATOM     25  H   UNL     1      41.206  65.431  42.279  1.00  0.00     0.293 HD
ENDBRANCH   6  24
BRANCH   8  26
ATOM     26  O   UNL     1      46.577  66.968  41.811  1.00  0.00    -0.508 OA
ATOM     27  H   UNL     1      46.476  67.576  41.007  1.00  0.00     0.293 HD
ENDBRANCH   8  26
TORSDOF 6
ENDMDL
MODEL 9
REMARK VINA RESULT:    -4.664     15.160     15.982
REMARK INTER + INTRA:          -5.805
REMARK INTER:                  -5.610
REMARK INTRA:                  -0.195
REMARK UNBOUND:                -0.187
REMARK SMILES O=c1c(O)c(-c2ccc(O)c(O)c2)oc2cc(O)cc(O)c12
REMARK SMILES IDX 5 1 3 2 2 3 1 4 22 5 20 6 19 7 17 8 16 9 15 10 14 11 6 12
REMARK SMILES IDX 7 13 8 14 9 15 13 16 11 17 10 18 12 20 4 22 21 24 18 26
REMARK H PARENT 10 19 12 21 4 23 21 25 18 27
REMARK Flexibility Score: inf
ROOT
ATOM      1  C   UNL     1      43.597  65.572  42.124  1.00  0.00     0.180 A 
ATOM      2  C   UNL     1      42.398  66.274  41.915  1.00  0.00     0.208 A 
ATOM      3  C   UNL     1      41.732  66.830  43.020  1.00  0.00     0.238 A 
ATOM      4  O   UNL     1      40.631  67.410  42.833  1.00  0.00    -0.285 OA
ATOM      5  C   UNL     1      42.282  66.689  44.317  1.00  0.00     0.111 A 
ATOM      6  C   UNL     1      41.714  67.247  45.502  1.00  0.00     0.134 A 
ATOM      7  C   UNL     1      42.273  66.935  46.748  1.00  0.00     0.093 A 
ATOM      8  C   UNL     1      43.419  66.139  46.845  1.00  0.00     0.123 A 
ATOM      9  C   UNL     1      44.014  65.641  45.689  1.00  0.00     0.094 A 
ATOM     10  C   UNL     1      43.459  65.905  44.435  1.00  0.00     0.146 A 
ATOM     11  O   UNL     1      44.053  65.402  43.359  1.00  0.00    -0.452 OA
ENDROOT
BRANCH   1  12
ATOM     12  C   UNL     1      44.369  64.979  41.007  1.00  0.00     0.025 A 
ATOM     13  C   UNL     1      45.636  65.473  40.651  1.00  0.00     0.016 A 
ATOM     14  C   UNL     1      46.357  64.884  39.610  1.00  0.00     0.051 A 
ATOM     15  C   UNL     1      45.829  63.785  38.918  1.00  0.00     0.157 A 
ATOM     16  C   UNL     1      43.854  63.865  40.326  1.00  0.00     0.062 A 
ATOM     17  C   UNL     1      44.573  63.272  39.281  1.00  0.00     0.158 A 
BRANCH  15  18
ATOM     18  O   UNL     1      46.550  63.200  37.878  1.00  0.00    -0.504 OA
ATOM     19  H   UNL     1      46.558  62.197  37.735  1.00  0.00     0.293 HD
ENDBRANCH  15  18
BRANCH  17  20
ATOM     20  O   UNL     1      44.023  62.175  38.618  1.00  0.00    -0.504 OA
ATOM     21  H   UNL     1      44.528  61.302  38.513  1.00  0.00     0.293 HD
ENDBRANCH  17  20
ENDBRANCH   1  12
BRANCH   2  22
ATOM     22  O   UNL     1      41.861  66.381  40.629  1.00  0.00    -0.502 OA
ATOM     23  H   UNL     1      40.865  66.456  40.460  1.00  0.00     0.293 HD
ENDBRANCH   2  22
BRANCH   6  24
ATOM     24  O   UNL     1      40.627  68.125  45.509  1.00  0.00    -0.507 OA
ATOM     25  H   UNL     1      39.713  67.904  45.873  1.00  0.00     0.293 HD
ENDBRANCH   6  24
BRANCH   8  26
ATOM     26  O   UNL     1      43.977  65.847  48.088  1.00  0.00    -0.508 OA
ATOM     27  H   UNL     1      44.373  64.936  48.290  1.00  0.00     0.293 HD
ENDBRANCH   8  26
TORSDOF 6
ENDMDL
