MODEL 1
REMARK VINA RESULT:    -7.757      0.000      0.000
REMARK INTER + INTRA:          -8.465
REMARK INTER:                  -8.437
REMARK INTRA:                  -0.029
REMARK UNBOUND:                -0.029
REMARK SMILES C[C@H]1[C@H](C)CC[C@]2(C(=O)[O-])CC[C@]3(C)C(=CC[C@H]4[C@@]5(C)CC[C@@H](O)C(C)(C)[C@H]5CC[C@@]43C)[C@H]12
REMARK SMILES IDX 7 1 6 2 11 3 33 4 5 5 12 6 15 7 2 8 3 9 13 10 16 11 1 12
REMARK SMILES IDX 4 13 14 14 31 15 17 16 18 17 30 18 32 19 19 20 29 21 28 22
REMARK SMILES IDX 21 23 20 24 25 25 22 26 23 27 26 28 27 29 8 30 9 31 10 32
REMARK SMILES IDX 24 33
REMARK H PARENT 24 34
REMARK Flexibility Score: inf
ROOT
ATOM      1  C   UNL     1       7.732  26.250  40.878  1.00  0.00     0.017 C 
ATOM      2  C   UNL     1       6.730  27.416  40.657  1.00  0.00     0.014 C 
ATOM      3  C   UNL     1       8.652  26.068  39.638  1.00  0.00     0.014 C 
ATOM      4  C   UNL     1       6.966  24.914  41.171  1.00  0.00     0.030 C 
ATOM      5  C   UNL     1       5.603  27.088  39.675  1.00  0.00     0.004 C 
ATOM      6  C   UNL     1       9.671  24.912  39.814  1.00  0.00     0.013 C 
ATOM      7  C   UNL     1       7.985  23.764  41.279  1.00  0.00    -0.063 C 
ATOM      8  C   UNL     1       5.774  24.620  40.205  1.00  0.00    -0.003 C 
ATOM      9  C   UNL     1       4.821  25.845  40.125  1.00  0.00    -0.011 C 
ATOM     10  C   UNL     1       9.019  23.522  40.132  1.00  0.00    -0.006 C 
ATOM     11  C   UNL     1       8.113  23.196  42.509  1.00  0.00    -0.027 C 
ATOM     12  C   UNL     1       5.016  23.355  40.660  1.00  0.00     0.008 C 
ATOM     13  C   UNL     1       3.645  25.611  39.159  1.00  0.00     0.008 C 
ATOM     14  C   UNL     1       8.295  23.038  38.827  1.00  0.00     0.017 C 
ATOM     15  C   UNL     1      10.094  22.391  40.569  1.00  0.00    -0.020 C 
ATOM     16  C   UNL     1       9.314  22.419  42.986  1.00  0.00     0.032 C 
ATOM     17  C   UNL     1      10.526  22.656  42.057  1.00  0.00     0.006 C 
ATOM     18  C   UNL     1      11.363  22.371  39.651  1.00  0.00     0.008 C 
ATOM     19  C   UNL     1       9.394  20.986  40.450  1.00  0.00     0.012 C 
ATOM     20  C   UNL     1      11.937  22.080  42.545  1.00  0.00    -0.025 C 
ATOM     21  C   UNL     1      12.567  23.130  40.221  1.00  0.00     0.005 C 
ATOM     22  C   UNL     1      13.108  22.569  41.576  1.00  0.00     0.003 C 
ATOM     23  C   UNL     1      11.951  20.521  42.737  1.00  0.00     0.010 C 
ATOM     24  C   UNL     1      12.194  22.703  43.958  1.00  0.00     0.012 C 
ATOM     25  C   UNL     1      14.344  21.575  41.452  1.00  0.00    -0.006 C 
ATOM     26  C   UNL     1      12.539  19.679  41.588  1.00  0.00     0.033 C 
ATOM     27  C   UNL     1      13.899  20.144  41.010  1.00  0.00     0.120 C 
ATOM     28  C   UNL     1      15.098  21.465  42.813  1.00  0.00     0.014 C 
ATOM     29  C   UNL     1      15.428  22.128  40.474  1.00  0.00     0.014 C 
ENDROOT
BRANCH   1  30
ATOM     30  C   UNL     1       8.596  26.661  42.072  1.00  0.00     0.048 C 
ATOM     31  O   UNL     1       8.187  26.522  43.255  1.00  0.00    -0.550 OA
ATOM     32  O   UNL     1       9.819  27.290  41.861  1.00  0.00    -0.550 OA
ENDBRANCH   1  30
BRANCH  27  33
ATOM     33  O   UNL     1      13.854  20.053  39.605  1.00  0.00    -0.393 OA
ATOM     34  H   UNL     1      14.793  20.046  39.282  1.00  0.00     0.210 HD
ENDBRANCH  27  33
TORSDOF 2
ENDMDL
MODEL 2
REMARK VINA RESULT:    -7.651      7.602     10.259
REMARK INTER + INTRA:          -8.350
REMARK INTER:                  -8.337
REMARK INTRA:                  -0.013
REMARK UNBOUND:                -0.029
REMARK SMILES C[C@H]1[C@H](C)CC[C@]2(C(=O)[O-])CC[C@]3(C)C(=CC[C@H]4[C@@]5(C)CC[C@@H](O)C(C)(C)[C@H]5CC[C@@]43C)[C@H]12
REMARK SMILES IDX 7 1 6 2 11 3 33 4 5 5 12 6 15 7 2 8 3 9 13 10 16 11 1 12
REMARK SMILES IDX 4 13 14 14 31 15 17 16 18 17 30 18 32 19 19 20 29 21 28 22
REMARK SMILES IDX 21 23 20 24 25 25 22 26 23 27 26 28 27 29 8 30 9 31 10 32
REMARK SMILES IDX 24 33
REMARK H PARENT 24 34
REMARK Flexibility Score: inf
ROOT
ATOM      1  C   UNL     1      14.847  16.871  47.810  1.00  0.00     0.017 C 
ATOM      2  C   UNL     1      14.963  16.705  49.349  1.00  0.00     0.014 C 
ATOM      3  C   UNL     1      16.243  17.118  47.172  1.00  0.00     0.014 C 
ATOM      4  C   UNL     1      13.884  18.057  47.454  1.00  0.00     0.030 C 
ATOM      5  C   UNL     1      15.244  18.011  50.095  1.00  0.00     0.004 C 
ATOM      6  C   UNL     1      16.176  17.291  45.632  1.00  0.00     0.013 C 
ATOM      7  C   UNL     1      13.877  18.259  45.927  1.00  0.00    -0.063 C 
ATOM      8  C   UNL     1      14.134  19.366  48.268  1.00  0.00    -0.003 C 
ATOM      9  C   UNL     1      14.167  19.064  49.793  1.00  0.00    -0.011 C 
ATOM     10  C   UNL     1      15.223  18.441  45.154  1.00  0.00    -0.006 C 
ATOM     11  C   UNL     1      12.704  17.979  45.296  1.00  0.00    -0.027 C 
ATOM     12  C   UNL     1      13.057  20.419  47.933  1.00  0.00     0.008 C 
ATOM     13  C   UNL     1      14.442  20.324  50.635  1.00  0.00     0.008 C 
ATOM     14  C   UNL     1      15.904  19.801  45.541  1.00  0.00     0.017 C 
ATOM     15  C   UNL     1      14.961  18.438  43.555  1.00  0.00    -0.020 C 
ATOM     16  C   UNL     1      12.565  17.645  43.832  1.00  0.00     0.032 C 
ATOM     17  C   UNL     1      13.938  17.295  43.215  1.00  0.00     0.006 C 
ATOM     18  C   UNL     1      16.274  18.230  42.725  1.00  0.00     0.008 C 
ATOM     19  C   UNL     1      14.361  19.838  43.161  1.00  0.00     0.012 C 
ATOM     20  C   UNL     1      13.935  16.705  41.727  1.00  0.00    -0.025 C 
ATOM     21  C   UNL     1      16.506  16.788  42.261  1.00  0.00     0.005 C 
ATOM     22  C   UNL     1      15.399  16.223  41.312  1.00  0.00     0.003 C 
ATOM     23  C   UNL     1      13.318  17.681  40.662  1.00  0.00     0.010 C 
ATOM     24  C   UNL     1      13.008  15.444  41.762  1.00  0.00     0.012 C 
ATOM     25  C   UNL     1      15.728  16.315  39.758  1.00  0.00    -0.006 C 
ATOM     26  C   UNL     1      14.305  18.516  39.822  1.00  0.00     0.033 C 
ATOM     27  C   UNL     1      15.504  17.757  39.200  1.00  0.00     0.120 C 
ATOM     28  C   UNL     1      14.837  15.323  38.949  1.00  0.00     0.014 C 
ATOM     29  C   UNL     1      17.183  15.839  39.452  1.00  0.00     0.014 C 
ENDROOT
BRANCH   1  30
ATOM     30  C   UNL     1      14.299  15.543  47.285  1.00  0.00     0.048 C 
ATOM     31  O   UNL     1      13.059  15.322  47.231  1.00  0.00    -0.550 OA
ATOM     32  O   UNL     1      15.173  14.514  46.948  1.00  0.00    -0.550 OA
ENDBRANCH   1  30
BRANCH  27  33
ATOM     33  O   UNL     1      16.668  18.535  39.358  1.00  0.00    -0.393 OA
ATOM     34  H   UNL     1      17.069  18.648  38.457  1.00  0.00     0.210 HD
ENDBRANCH  27  33
TORSDOF 2
ENDMDL
MODEL 3
REMARK VINA RESULT:    -7.580      8.756     10.502
REMARK INTER + INTRA:          -8.274
REMARK INTER:                  -8.246
REMARK INTRA:                  -0.028
REMARK UNBOUND:                -0.029
REMARK SMILES C[C@H]1[C@H](C)CC[C@]2(C(=O)[O-])CC[C@]3(C)C(=CC[C@H]4[C@@]5(C)CC[C@@H](O)C(C)(C)[C@H]5CC[C@@]43C)[C@H]12
REMARK SMILES IDX 7 1 6 2 11 3 33 4 5 5 12 6 15 7 2 8 3 9 13 10 16 11 1 12
REMARK SMILES IDX 4 13 14 14 31 15 17 16 18 17 30 18 32 19 19 20 29 21 28 22
REMARK SMILES IDX 21 23 20 24 25 25 22 26 23 27 26 28 27 29 8 30 9 31 10 32
REMARK SMILES IDX 24 33
REMARK H PARENT 24 34
REMARK Flexibility Score: inf
ROOT
ATOM      1  C   UNL     1      17.013  21.714  47.409  1.00  0.00     0.017 C 
ATOM      2  C   UNL     1      16.460  22.260  48.753  1.00  0.00     0.014 C 
ATOM      3  C   UNL     1      16.056  22.061  46.234  1.00  0.00     0.014 C 
ATOM      4  C   UNL     1      17.215  20.161  47.487  1.00  0.00     0.030 C 
ATOM      5  C   UNL     1      15.261  21.478  49.294  1.00  0.00     0.004 C 
ATOM      6  C   UNL     1      16.569  21.534  44.869  1.00  0.00     0.013 C 
ATOM      7  C   UNL     1      17.662  19.642  46.107  1.00  0.00    -0.063 C 
ATOM      8  C   UNL     1      16.013  19.377  48.103  1.00  0.00    -0.003 C 
ATOM      9  C   UNL     1      15.603  19.992  49.470  1.00  0.00    -0.011 C 
ATOM     10  C   UNL     1      16.827  19.987  44.832  1.00  0.00    -0.006 C 
ATOM     11  C   UNL     1      18.928  19.146  46.040  1.00  0.00    -0.027 C 
ATOM     12  C   UNL     1      16.368  17.882  48.250  1.00  0.00     0.008 C 
ATOM     13  C   UNL     1      14.399  19.267  50.102  1.00  0.00     0.008 C 
ATOM     14  C   UNL     1      15.427  19.280  44.877  1.00  0.00     0.017 C 
ATOM     15  C   UNL     1      17.605  19.496  43.497  1.00  0.00    -0.020 C 
ATOM     16  C   UNL     1      19.745  19.023  44.779  1.00  0.00     0.032 C 
ATOM     17  C   UNL     1      19.127  19.862  43.638  1.00  0.00     0.006 C 
ATOM     18  C   UNL     1      17.030  20.138  42.188  1.00  0.00     0.008 C 
ATOM     19  C   UNL     1      17.431  17.936  43.383  1.00  0.00     0.012 C 
ATOM     20  C   UNL     1      19.991  20.016  42.300  1.00  0.00    -0.025 C 
ATOM     21  C   UNL     1      17.816  21.354  41.685  1.00  0.00     0.005 C 
ATOM     22  C   UNL     1      19.303  21.057  41.305  1.00  0.00     0.003 C 
ATOM     23  C   UNL     1      20.305  18.650  41.591  1.00  0.00     0.010 C 
ATOM     24  C   UNL     1      21.369  20.614  42.740  1.00  0.00     0.012 C 
ATOM     25  C   UNL     1      19.567  20.792  39.758  1.00  0.00    -0.006 C 
ATOM     26  C   UNL     1      19.407  18.255  40.402  1.00  0.00     0.033 C 
ATOM     27  C   UNL     1      19.145  19.347  39.335  1.00  0.00     0.120 C 
ATOM     28  C   UNL     1      21.076  20.991  39.417  1.00  0.00     0.014 C 
ATOM     29  C   UNL     1      18.843  21.847  38.864  1.00  0.00     0.014 C 
ENDROOT
BRANCH   1  30
ATOM     30  C   UNL     1      18.345  22.431  47.182  1.00  0.00     0.048 C 
ATOM     31  O   UNL     1      19.393  22.071  47.782  1.00  0.00    -0.550 OA
ATOM     32  O   UNL     1      18.397  23.563  46.374  1.00  0.00    -0.550 OA
ENDBRANCH   1  30
BRANCH  27  33
ATOM     33  O   UNL     1      17.784  19.316  38.973  1.00  0.00    -0.393 OA
ATOM     34  H   UNL     1      17.726  19.611  38.027  1.00  0.00     0.210 HD
ENDBRANCH  27  33
TORSDOF 2
ENDMDL
MODEL 4
REMARK VINA RESULT:    -7.565      2.561      7.791
REMARK INTER + INTRA:          -8.257
REMARK INTER:                  -8.268
REMARK INTRA:                   0.012
REMARK UNBOUND:                -0.029
REMARK SMILES C[C@H]1[C@H](C)CC[C@]2(C(=O)[O-])CC[C@]3(C)C(=CC[C@H]4[C@@]5(C)CC[C@@H](O)C(C)(C)[C@H]5CC[C@@]43C)[C@H]12
REMARK SMILES IDX 7 1 6 2 11 3 33 4 5 5 12 6 15 7 2 8 3 9 13 10 16 11 1 12
REMARK SMILES IDX 4 13 14 14 31 15 17 16 18 17 30 18 32 19 19 20 29 21 28 22
REMARK SMILES IDX 21 23 20 24 25 25 22 26 23 27 26 28 27 29 8 30 9 31 10 32
REMARK SMILES IDX 24 33
REMARK H PARENT 24 34
REMARK Flexibility Score: inf
ROOT
ATOM      1  C   UNL     1       9.249  22.171  39.923  1.00  0.00     0.017 C 
ATOM      2  C   UNL     1       9.866  20.747  39.963  1.00  0.00     0.014 C 
ATOM      3  C   UNL     1      10.272  23.202  39.368  1.00  0.00     0.014 C 
ATOM      4  C   UNL     1       8.778  22.608  41.353  1.00  0.00     0.030 C 
ATOM      5  C   UNL     1      10.901  20.550  41.073  1.00  0.00     0.004 C 
ATOM      6  C   UNL     1       9.698  24.642  39.310  1.00  0.00     0.013 C 
ATOM      7  C   UNL     1       8.272  24.062  41.294  1.00  0.00    -0.063 C 
ATOM      8  C   UNL     1       9.815  22.342  42.491  1.00  0.00    -0.003 C 
ATOM      9  C   UNL     1      10.303  20.866  42.452  1.00  0.00    -0.011 C 
ATOM     10  C   UNL     1       9.175  25.183  40.686  1.00  0.00    -0.006 C 
ATOM     11  C   UNL     1       6.940  24.237  41.516  1.00  0.00    -0.027 C 
ATOM     12  C   UNL     1       9.203  22.688  43.865  1.00  0.00     0.008 C 
ATOM     13  C   UNL     1      11.351  20.565  43.539  1.00  0.00     0.008 C 
ATOM     14  C   UNL     1      10.430  25.436  41.594  1.00  0.00     0.017 C 
ATOM     15  C   UNL     1       8.347  26.570  40.560  1.00  0.00    -0.020 C 
ATOM     16  C   UNL     1       6.135  25.430  41.067  1.00  0.00     0.032 C 
ATOM     17  C   UNL     1       6.910  26.250  40.010  1.00  0.00     0.006 C 
ATOM     18  C   UNL     1       9.046  27.612  39.622  1.00  0.00     0.008 C 
ATOM     19  C   UNL     1       8.249  27.206  41.996  1.00  0.00     0.012 C 
ATOM     20  C   UNL     1       6.109  27.421  39.271  1.00  0.00    -0.025 C 
ATOM     21  C   UNL     1       8.494  27.646  38.193  1.00  0.00     0.005 C 
ATOM     22  C   UNL     1       6.983  28.039  38.088  1.00  0.00     0.003 C 
ATOM     23  C   UNL     1       5.574  28.533  40.244  1.00  0.00     0.010 C 
ATOM     24  C   UNL     1       4.848  26.748  38.632  1.00  0.00     0.012 C 
ATOM     25  C   UNL     1       6.704  29.573  37.768  1.00  0.00    -0.006 C 
ATOM     26  C   UNL     1       6.409  29.822  40.361  1.00  0.00     0.033 C 
ATOM     27  C   UNL     1       6.875  30.473  39.035  1.00  0.00     0.120 C 
ATOM     28  C   UNL     1       5.259  29.763  37.213  1.00  0.00     0.014 C 
ATOM     29  C   UNL     1       7.616  30.092  36.612  1.00  0.00     0.014 C 
ENDROOT
BRANCH   1  30
ATOM     30  C   UNL     1       8.066  22.088  38.957  1.00  0.00     0.048 C 
ATOM     31  O   UNL     1       6.907  21.804  39.363  1.00  0.00    -0.550 OA
ATOM     32  O   UNL     1       8.274  22.231  37.589  1.00  0.00    -0.550 OA
ENDBRANCH   1  30
BRANCH  27  33
ATOM     33  O   UNL     1       8.216  30.882  39.173  1.00  0.00    -0.393 OA
ATOM     34  H   UNL     1       8.748  30.072  39.393  1.00  0.00     0.210 HD
ENDBRANCH  27  33
TORSDOF 2
ENDMDL
MODEL 5
REMARK VINA RESULT:    -7.453      8.057     10.582
REMARK INTER + INTRA:          -8.135
REMARK INTER:                  -8.109
REMARK INTRA:                  -0.026
REMARK UNBOUND:                -0.029
REMARK SMILES C[C@H]1[C@H](C)CC[C@]2(C(=O)[O-])CC[C@]3(C)C(=CC[C@H]4[C@@]5(C)CC[C@@H](O)C(C)(C)[C@H]5CC[C@@]43C)[C@H]12
REMARK SMILES IDX 7 1 6 2 11 3 33 4 5 5 12 6 15 7 2 8 3 9 13 10 16 11 1 12
REMARK SMILES IDX 4 13 14 14 31 15 17 16 18 17 30 18 32 19 19 20 29 21 28 22
REMARK SMILES IDX 21 23 20 24 25 25 22 26 23 27 26 28 27 29 8 30 9 31 10 32
REMARK SMILES IDX 24 33
REMARK H PARENT 24 34
REMARK Flexibility Score: inf
ROOT
ATOM      1  C   UNL     1      13.300  15.882  42.778  1.00  0.00     0.017 C 
ATOM      2  C   UNL     1      12.712  15.120  41.560  1.00  0.00     0.014 C 
ATOM      3  C   UNL     1      13.021  17.407  42.665  1.00  0.00     0.014 C 
ATOM      4  C   UNL     1      14.844  15.633  42.892  1.00  0.00     0.030 C 
ATOM      5  C   UNL     1      13.497  15.325  40.262  1.00  0.00     0.004 C 
ATOM      6  C   UNL     1      13.592  18.211  43.863  1.00  0.00     0.013 C 
ATOM      7  C   UNL     1      15.408  16.486  44.043  1.00  0.00    -0.063 C 
ATOM      8  C   UNL     1      15.628  15.778  41.548  1.00  0.00    -0.003 C 
ATOM      9  C   UNL     1      14.968  14.918  40.434  1.00  0.00    -0.011 C 
ATOM     10  C   UNL     1      15.133  18.023  44.088  1.00  0.00    -0.006 C 
ATOM     11  C   UNL     1      15.880  15.797  45.118  1.00  0.00    -0.027 C 
ATOM     12  C   UNL     1      17.108  15.387  41.747  1.00  0.00     0.008 C 
ATOM     13  C   UNL     1      15.691  15.054  39.082  1.00  0.00     0.008 C 
ATOM     14  C   UNL     1      15.867  18.753  42.908  1.00  0.00     0.017 C 
ATOM     15  C   UNL     1      15.661  18.652  45.485  1.00  0.00    -0.020 C 
ATOM     16  C   UNL     1      16.036  16.359  46.508  1.00  0.00     0.032 C 
ATOM     17  C   UNL     1      15.257  17.685  46.656  1.00  0.00     0.006 C 
ATOM     18  C   UNL     1      15.084  20.083  45.764  1.00  0.00     0.008 C 
ATOM     19  C   UNL     1      17.227  18.775  45.399  1.00  0.00     0.012 C 
ATOM     20  C   UNL     1      15.139  18.297  48.130  1.00  0.00    -0.025 C 
ATOM     21  C   UNL     1      13.873  20.102  46.703  1.00  0.00     0.005 C 
ATOM     22  C   UNL     1      14.154  19.552  48.140  1.00  0.00     0.003 C 
ATOM     23  C   UNL     1      16.525  18.638  48.786  1.00  0.00     0.010 C 
ATOM     24  C   UNL     1      14.494  17.176  49.014  1.00  0.00     0.012 C 
ATOM     25  C   UNL     1      14.475  20.658  49.238  1.00  0.00    -0.006 C 
ATOM     26  C   UNL     1      16.986  20.107  48.725  1.00  0.00     0.033 C 
ATOM     27  C   UNL     1      15.944  21.181  49.125  1.00  0.00     0.120 C 
ATOM     28  C   UNL     1      14.257  20.086  50.672  1.00  0.00     0.014 C 
ATOM     29  C   UNL     1      13.472  21.852  49.159  1.00  0.00     0.014 C 
ENDROOT
BRANCH   1  30
ATOM     30  C   UNL     1      12.565  15.341  44.006  1.00  0.00     0.048 C 
ATOM     31  O   UNL     1      12.885  14.240  44.528  1.00  0.00    -0.550 OA
ATOM     32  O   UNL     1      11.458  16.018  44.509  1.00  0.00    -0.550 OA
ENDBRANCH   1  30
BRANCH  27  33
ATOM     33  O   UNL     1      16.019  22.252  48.214  1.00  0.00    -0.393 OA
ATOM     34  H   UNL     1      15.199  22.799  48.337  1.00  0.00     0.210 HD
ENDBRANCH  27  33
TORSDOF 2
ENDMDL
MODEL 6
REMARK VINA RESULT:    -7.438      8.254     10.726
REMARK INTER + INTRA:          -8.119
REMARK INTER:                  -8.094
REMARK INTRA:                  -0.025
REMARK UNBOUND:                -0.029
REMARK SMILES C[C@H]1[C@H](C)CC[C@]2(C(=O)[O-])CC[C@]3(C)C(=CC[C@H]4[C@@]5(C)CC[C@@H](O)C(C)(C)[C@H]5CC[C@@]43C)[C@H]12
REMARK SMILES IDX 7 1 6 2 11 3 33 4 5 5 12 6 15 7 2 8 3 9 13 10 16 11 1 12
REMARK SMILES IDX 4 13 14 14 31 15 17 16 18 17 30 18 32 19 19 20 29 21 28 22
REMARK SMILES IDX 21 23 20 24 25 25 22 26 23 27 26 28 27 29 8 30 9 31 10 32
REMARK SMILES IDX 24 33
REMARK H PARENT 24 34
REMARK Flexibility Score: inf
ROOT
ATOM      1  C   UNL     1      15.263  14.517  42.673  1.00  0.00     0.017 C 
ATOM      2  C   UNL     1      14.593  13.159  43.017  1.00  0.00     0.014 C 
ATOM      3  C   UNL     1      16.361  14.873  43.714  1.00  0.00     0.014 C 
ATOM      4  C   UNL     1      14.192  15.661  42.619  1.00  0.00     0.030 C 
ATOM      5  C   UNL     1      13.651  13.219  44.221  1.00  0.00     0.004 C 
ATOM      6  C   UNL     1      17.059  16.224  43.409  1.00  0.00     0.013 C 
ATOM      7  C   UNL     1      14.905  17.006  42.381  1.00  0.00    -0.063 C 
ATOM      8  C   UNL     1      13.192  15.674  43.818  1.00  0.00    -0.003 C 
ATOM      9  C   UNL     1      12.552  14.271  44.012  1.00  0.00    -0.011 C 
ATOM     10  C   UNL     1      16.080  17.446  43.312  1.00  0.00    -0.006 C 
ATOM     11  C   UNL     1      14.655  17.608  41.186  1.00  0.00    -0.027 C 
ATOM     12  C   UNL     1      12.109  16.753  43.601  1.00  0.00     0.008 C 
ATOM     13  C   UNL     1      11.578  14.229  45.205  1.00  0.00     0.008 C 
ATOM     14  C   UNL     1      15.558  17.741  44.762  1.00  0.00     0.017 C 
ATOM     15  C   UNL     1      16.782  18.789  42.740  1.00  0.00    -0.020 C 
ATOM     16  C   UNL     1      15.543  18.634  40.529  1.00  0.00     0.032 C 
ATOM     17  C   UNL     1      16.943  18.648  41.183  1.00  0.00     0.006 C 
ATOM     18  C   UNL     1      18.182  19.067  43.388  1.00  0.00     0.008 C 
ATOM     19  C   UNL     1      15.846  20.007  43.080  1.00  0.00     0.012 C 
ATOM     20  C   UNL     1      18.071  19.524  40.460  1.00  0.00    -0.025 C 
ATOM     21  C   UNL     1      19.372  18.596  42.545  1.00  0.00     0.005 C 
ATOM     22  C   UNL     1      19.492  19.283  41.146  1.00  0.00     0.003 C 
ATOM     23  C   UNL     1      17.721  21.052  40.364  1.00  0.00     0.010 C 
ATOM     24  C   UNL     1      18.155  18.995  38.989  1.00  0.00     0.012 C 
ATOM     25  C   UNL     1      20.494  20.518  41.082  1.00  0.00    -0.006 C 
ATOM     26  C   UNL     1      18.346  21.982  41.422  1.00  0.00     0.033 C 
ATOM     27  C   UNL     1      19.862  21.812  41.690  1.00  0.00     0.120 C 
ATOM     28  C   UNL     1      20.910  20.811  39.608  1.00  0.00     0.014 C 
ATOM     29  C   UNL     1      21.847  20.196  41.791  1.00  0.00     0.014 C 
ENDROOT
BRANCH   1  30
ATOM     30  C   UNL     1      15.928  14.322  41.309  1.00  0.00     0.048 C 
ATOM     31  O   UNL     1      15.250  14.310  40.246  1.00  0.00    -0.550 OA
ATOM     32  O   UNL     1      17.291  14.056  41.231  1.00  0.00    -0.550 OA
ENDBRANCH   1  30
BRANCH  27  33
ATOM     33  O   UNL     1      20.090  21.868  43.078  1.00  0.00    -0.393 OA
ATOM     34  H   UNL     1      20.535  22.736  43.267  1.00  0.00     0.210 HD
ENDBRANCH  27  33
TORSDOF 2
ENDMDL
MODEL 7
REMARK VINA RESULT:    -7.438      2.883      8.490
REMARK INTER + INTRA:          -8.119
REMARK INTER:                  -8.107
REMARK INTRA:                  -0.011
REMARK UNBOUND:                -0.029
REMARK SMILES C[C@H]1[C@H](C)CC[C@]2(C(=O)[O-])CC[C@]3(C)C(=CC[C@H]4[C@@]5(C)CC[C@@H](O)C(C)(C)[C@H]5CC[C@@]43C)[C@H]12
REMARK SMILES IDX 7 1 6 2 11 3 33 4 5 5 12 6 15 7 2 8 3 9 13 10 16 11 1 12
REMARK SMILES IDX 4 13 14 14 31 15 17 16 18 17 30 18 32 19 19 20 29 21 28 22
REMARK SMILES IDX 21 23 20 24 25 25 22 26 23 27 26 28 27 29 8 30 9 31 10 32
REMARK SMILES IDX 24 33
REMARK H PARENT 24 34
REMARK Flexibility Score: inf
ROOT
ATOM      1  C   UNL     1      11.171  23.958  38.812  1.00  0.00     0.017 C 
ATOM      2  C   UNL     1      12.234  22.838  38.651  1.00  0.00     0.014 C 
ATOM      3  C   UNL     1      11.308  25.018  37.683  1.00  0.00     0.014 C 
ATOM      4  C   UNL     1      11.307  24.651  40.211  1.00  0.00     0.030 C 
ATOM      5  C   UNL     1      13.654  23.274  39.021  1.00  0.00     0.004 C 
ATOM      6  C   UNL     1      10.263  26.158  37.804  1.00  0.00     0.013 C 
ATOM      7  C   UNL     1      10.310  25.822  40.292  1.00  0.00    -0.063 C 
ATOM      8  C   UNL     1      12.769  25.032  40.610  1.00  0.00    -0.003 C 
ATOM      9  C   UNL     1      13.714  23.807  40.460  1.00  0.00    -0.011 C 
ATOM     10  C   UNL     1      10.293  26.916  39.177  1.00  0.00    -0.006 C 
ATOM     11  C   UNL     1       9.298  25.680  41.192  1.00  0.00    -0.027 C 
ATOM     12  C   UNL     1      12.804  25.587  42.050  1.00  0.00     0.008 C 
ATOM     13  C   UNL     1      15.174  24.144  40.814  1.00  0.00     0.008 C 
ATOM     14  C   UNL     1      11.612  27.764  39.212  1.00  0.00     0.017 C 
ATOM     15  C   UNL     1       9.036  27.918  39.386  1.00  0.00    -0.020 C 
ATOM     16  C   UNL     1       7.982  26.415  41.141  1.00  0.00     0.032 C 
ATOM     17  C   UNL     1       7.769  27.065  39.755  1.00  0.00     0.006 C 
ATOM     18  C   UNL     1       8.732  28.786  38.118  1.00  0.00     0.008 C 
ATOM     19  C   UNL     1       9.391  28.898  40.565  1.00  0.00     0.012 C 
ATOM     20  C   UNL     1       6.327  27.695  39.464  1.00  0.00    -0.025 C 
ATOM     21  C   UNL     1       7.605  28.240  37.235  1.00  0.00     0.005 C 
ATOM     22  C   UNL     1       6.211  28.151  37.939  1.00  0.00     0.003 C 
ATOM     23  C   UNL     1       5.932  28.851  40.451  1.00  0.00     0.010 C 
ATOM     24  C   UNL     1       5.295  26.541  39.697  1.00  0.00     0.012 C 
ATOM     25  C   UNL     1       5.237  29.380  37.671  1.00  0.00    -0.006 C 
ATOM     26  C   UNL     1       6.139  30.296  39.956  1.00  0.00     0.033 C 
ATOM     27  C   UNL     1       5.621  30.626  38.535  1.00  0.00     0.120 C 
ATOM     28  C   UNL     1       3.761  28.989  37.987  1.00  0.00     0.014 C 
ATOM     29  C   UNL     1       5.202  29.765  36.159  1.00  0.00     0.014 C 
ENDROOT
BRANCH   1  30
ATOM     30  C   UNL     1       9.812  23.268  38.671  1.00  0.00     0.048 C 
ATOM     31  O   UNL     1       9.232  22.757  39.666  1.00  0.00    -0.550 OA
ATOM     32  O   UNL     1       9.239  23.109  37.413  1.00  0.00    -0.550 OA
ENDBRANCH   1  30
BRANCH  27  33
ATOM     33  O   UNL     1       6.582  31.411  37.869  1.00  0.00    -0.393 OA
ATOM     34  H   UNL     1       6.556  31.154  36.910  1.00  0.00     0.210 HD
ENDBRANCH  27  33
TORSDOF 2
ENDMDL
MODEL 8
REMARK VINA RESULT:    -7.393      3.174      8.302
REMARK INTER + INTRA:          -8.070
REMARK INTER:                  -8.041
REMARK INTRA:                  -0.029
REMARK UNBOUND:                -0.029
REMARK SMILES C[C@H]1[C@H](C)CC[C@]2(C(=O)[O-])CC[C@]3(C)C(=CC[C@H]4[C@@]5(C)CC[C@@H](O)C(C)(C)[C@H]5CC[C@@]43C)[C@H]12
REMARK SMILES IDX 7 1 6 2 11 3 33 4 5 5 12 6 15 7 2 8 3 9 13 10 16 11 1 12
REMARK SMILES IDX 4 13 14 14 31 15 17 16 18 17 30 18 32 19 19 20 29 21 28 22
REMARK SMILES IDX 21 23 20 24 25 25 22 26 23 27 26 28 27 29 8 30 9 31 10 32
REMARK SMILES IDX 24 33
REMARK H PARENT 24 34
REMARK Flexibility Score: inf
ROOT
ATOM      1  C   UNL     1      10.736  25.689  43.349  1.00  0.00     0.017 C 
ATOM      2  C   UNL     1      11.635  24.942  44.370  1.00  0.00     0.014 C 
ATOM      3  C   UNL     1       9.938  24.683  42.472  1.00  0.00     0.014 C 
ATOM      4  C   UNL     1      11.602  26.621  42.432  1.00  0.00     0.030 C 
ATOM      5  C   UNL     1      12.862  24.274  43.745  1.00  0.00     0.004 C 
ATOM      6  C   UNL     1       9.025  25.387  41.435  1.00  0.00     0.013 C 
ATOM      7  C   UNL     1      10.693  27.263  41.366  1.00  0.00    -0.063 C 
ATOM      8  C   UNL     1      12.889  25.952  41.852  1.00  0.00    -0.003 C 
ATOM      9  C   UNL     1      13.723  25.296  42.987  1.00  0.00    -0.011 C 
ATOM     10  C   UNL     1       9.781  26.365  40.469  1.00  0.00    -0.006 C 
ATOM     11  C   UNL     1      10.524  28.610  41.462  1.00  0.00    -0.027 C 
ATOM     12  C   UNL     1      13.727  26.989  41.074  1.00  0.00     0.008 C 
ATOM     13  C   UNL     1      14.988  24.597  42.457  1.00  0.00     0.008 C 
ATOM     14  C   UNL     1      10.649  25.485  39.502  1.00  0.00     0.017 C 
ATOM     15  C   UNL     1       8.789  27.282  39.575  1.00  0.00    -0.020 C 
ATOM     16  C   UNL     1       9.369  29.383  40.876  1.00  0.00     0.032 C 
ATOM     17  C   UNL     1       8.217  28.434  40.478  1.00  0.00     0.006 C 
ATOM     18  C   UNL     1       7.603  26.467  38.953  1.00  0.00     0.008 C 
ATOM     19  C   UNL     1       9.628  27.888  38.390  1.00  0.00     0.012 C 
ATOM     20  C   UNL     1       6.834  29.113  40.046  1.00  0.00    -0.025 C 
ATOM     21  C   UNL     1       6.292  26.561  39.740  1.00  0.00     0.005 C 
ATOM     22  C   UNL     1       5.702  28.005  39.851  1.00  0.00     0.003 C 
ATOM     23  C   UNL     1       6.955  30.051  38.792  1.00  0.00     0.010 C 
ATOM     24  C   UNL     1       6.408  30.027  41.244  1.00  0.00     0.012 C 
ATOM     25  C   UNL     1       4.580  28.363  38.781  1.00  0.00    -0.006 C 
ATOM     26  C   UNL     1       6.544  29.457  37.431  1.00  0.00     0.033 C 
ATOM     27  C   UNL     1       5.195  28.697  37.383  1.00  0.00     0.120 C 
ATOM     28  C   UNL     1       3.736  29.584  39.259  1.00  0.00     0.014 C 
ATOM     29  C   UNL     1       3.529  27.217  38.647  1.00  0.00     0.014 C 
ENDROOT
BRANCH   1  30
ATOM     30  C   UNL     1       9.745  26.505  44.181  1.00  0.00     0.048 C 
ATOM     31  O   UNL     1      10.078  27.600  44.708  1.00  0.00    -0.550 OA
ATOM     32  O   UNL     1       8.479  25.995  44.451  1.00  0.00    -0.550 OA
ENDBRANCH   1  30
BRANCH  27  33
ATOM     33  O   UNL     1       5.359  27.522  36.623  1.00  0.00    -0.393 OA
ATOM     34  H   UNL     1       5.795  26.851  37.212  1.00  0.00     0.210 HD
ENDBRANCH  27  33
TORSDOF 2
ENDMDL
MODEL 9
REMARK VINA RESULT:    -7.322      2.231      3.835
REMARK INTER + INTRA:          -7.993
REMARK INTER:                  -7.967
REMARK INTRA:                  -0.026
REMARK UNBOUND:                -0.029
REMARK SMILES C[C@H]1[C@H](C)CC[C@]2(C(=O)[O-])CC[C@]3(C)C(=CC[C@H]4[C@@]5(C)CC[C@@H](O)C(C)(C)[C@H]5CC[C@@]43C)[C@H]12
REMARK SMILES IDX 7 1 6 2 11 3 33 4 5 5 12 6 15 7 2 8 3 9 13 10 16 11 1 12
REMARK SMILES IDX 4 13 14 14 31 15 17 16 18 17 30 18 32 19 19 20 29 21 28 22
REMARK SMILES IDX 21 23 20 24 25 25 22 26 23 27 26 28 27 29 8 30 9 31 10 32
REMARK SMILES IDX 24 33
REMARK H PARENT 24 34
REMARK Flexibility Score: inf
ROOT
ATOM      1  C   UNL     1       7.293  24.938  40.937  1.00  0.00     0.017 C 
ATOM      2  C   UNL     1       6.007  25.660  40.452  1.00  0.00     0.014 C 
ATOM      3  C   UNL     1       7.762  25.502  42.308  1.00  0.00     0.014 C 
ATOM      4  C   UNL     1       8.441  25.089  39.881  1.00  0.00     0.030 C 
ATOM      5  C   UNL     1       6.246  27.088  39.958  1.00  0.00     0.004 C 
ATOM      6  C   UNL     1       9.046  24.809  42.832  1.00  0.00     0.013 C 
ATOM      7  C   UNL     1       9.728  24.454  40.442  1.00  0.00    -0.063 C 
ATOM      8  C   UNL     1       8.635  26.538  39.331  1.00  0.00    -0.003 C 
ATOM      9  C   UNL     1       7.283  27.116  38.825  1.00  0.00    -0.011 C 
ATOM     10  C   UNL     1      10.264  24.879  41.846  1.00  0.00    -0.006 C 
ATOM     11  C   UNL     1      10.171  23.340  39.797  1.00  0.00    -0.027 C 
ATOM     12  C   UNL     1       9.697  26.550  38.211  1.00  0.00     0.008 C 
ATOM     13  C   UNL     1       7.420  28.557  38.301  1.00  0.00     0.008 C 
ATOM     14  C   UNL     1      10.759  26.368  41.824  1.00  0.00     0.017 C 
ATOM     15  C   UNL     1      11.505  23.935  42.288  1.00  0.00    -0.020 C 
ATOM     16  C   UNL     1      11.082  22.297  40.393  1.00  0.00     0.032 C 
ATOM     17  C   UNL     1      11.155  22.445  41.930  1.00  0.00     0.006 C 
ATOM     18  C   UNL     1      11.838  24.042  43.815  1.00  0.00     0.008 C 
ATOM     19  C   UNL     1      12.776  24.401  41.485  1.00  0.00     0.012 C 
ATOM     20  C   UNL     1      11.903  21.282  42.735  1.00  0.00    -0.025 C 
ATOM     21  C   UNL     1      11.234  22.925  44.673  1.00  0.00     0.005 C 
ATOM     22  C   UNL     1      11.727  21.486  44.308  1.00  0.00     0.003 C 
ATOM     23  C   UNL     1      13.412  21.105  42.335  1.00  0.00     0.010 C 
ATOM     24  C   UNL     1      11.182  19.949  42.342  1.00  0.00     0.012 C 
ATOM     25  C   UNL     1      12.921  20.932  45.202  1.00  0.00    -0.006 C 
ATOM     26  C   UNL     1      14.461  21.766  43.250  1.00  0.00     0.033 C 
ATOM     27  C   UNL     1      14.298  21.538  44.774  1.00  0.00     0.120 C 
ATOM     28  C   UNL     1      13.007  19.379  45.101  1.00  0.00     0.014 C 
ATOM     29  C   UNL     1      12.669  21.192  46.720  1.00  0.00     0.014 C 
ENDROOT
BRANCH   1  30
ATOM     30  C   UNL     1       6.905  23.469  41.120  1.00  0.00     0.048 C 
ATOM     31  O   UNL     1       6.886  22.671  40.145  1.00  0.00    -0.550 OA
ATOM     32  O   UNL     1       6.470  23.014  42.361  1.00  0.00    -0.550 OA
ENDBRANCH   1  30
BRANCH  27  33
ATOM     33  O   UNL     1      14.533  22.754  45.445  1.00  0.00    -0.393 OA
ATOM     34  H   UNL     1      15.250  22.586  46.112  1.00  0.00     0.210 HD
ENDBRANCH  27  33
TORSDOF 2
ENDMDL
