MODEL 1
REMARK VINA RESULT:     8.293      0.000      0.000
REMARK INTER + INTRA:          12.400
REMARK INTER:                  13.626
REMARK INTRA:                  -1.227
REMARK UNBOUND:                -1.227
REMARK SMILES C[C@@H]1O[C@H](OC[C@H]2O[C@@H](Oc3c(-c4ccc(O)c(O)c4)oc4cc(O)cc(O)c4c3=O)[C@@H](O)[C@@H](O)[C@@H]2O)[C@@H](O)[C@H](O)[C@H]1O
REMARK SMILES IDX 7 1 36 2 34 3 32 4 9 5 8 6 6 7 5 8 4 9 1 10 2 11 42 12 3 13
REMARK SMILES IDX 40 14 38 15 43 16 41 18 39 20 37 22 35 24 10 26 11 27 12 28
REMARK SMILES IDX 30 29 21 30 29 31 31 32 22 33 27 34 23 35 26 36 24 37 13 38
REMARK SMILES IDX 20 39 14 40 18 41 15 42 16 43 19 44 17 46 28 48 25 50 33 52
REMARK H PARENT 43 17 41 19 39 21 37 23 35 25 19 45 17 47 28 49 25 51 33 53
REMARK Flexibility Score: inf
ROOT
ATOM      1  C   UNL     1      75.937  39.105  25.423  1.00  0.00     0.180 C 
ATOM      2  C   UNL     1      77.512  39.233  25.500  1.00  0.00     0.177 C 
ATOM      3  C   UNL     1      78.209  39.540  24.174  1.00  0.00     0.180 C 
ATOM      4  C   UNL     1      77.310  40.430  23.376  1.00  0.00     0.214 C 
ATOM      5  C   UNL     1      76.008  39.773  22.997  1.00  0.00     0.339 C 
ATOM      6  O   UNL     1      75.398  39.058  24.105  1.00  0.00    -0.332 OA
ENDROOT
BRANCH   1   7
ATOM      7  C   UNL     1      75.159  40.029  26.406  1.00  0.00     0.198 C 
BRANCH   7   8
ATOM      8  O   UNL     1      75.185  39.698  27.783  1.00  0.00    -0.347 OA
BRANCH   8   9
ATOM      9  C   UNL     1      74.645  40.717  28.657  1.00  0.00     0.281 C 
ATOM     10  C   UNL     1      71.211  40.709  29.765  1.00  0.00     0.041 C 
ATOM     11  C   UNL     1      72.680  41.170  29.751  1.00  0.00     0.150 C 
ATOM     12  C   UNL     1      73.302  41.286  31.213  1.00  0.00     0.174 C 
ATOM     13  O   UNL     1      73.444  40.224  29.139  1.00  0.00    -0.344 OA
ATOM     14  C   UNL     1      74.701  41.948  31.048  1.00  0.00     0.179 C 
ATOM     15  C   UNL     1      75.532  41.211  29.902  1.00  0.00     0.202 C 
BRANCH  12  16
ATOM     16  O   UNL     1      72.498  42.123  32.003  1.00  0.00    -0.388 OA
ATOM     17  H   UNL     1      72.777  43.049  31.853  1.00  0.00     0.211 HD
ENDBRANCH  12  16
BRANCH  14  18
ATOM     18  O   UNL     1      75.386  41.801  32.285  1.00  0.00    -0.387 OA
ATOM     19  H   UNL     1      75.462  40.797  32.633  1.00  0.00     0.211 HD
ENDBRANCH  14  18
BRANCH  15  20
ATOM     20  O   UNL     1      76.482  42.121  29.455  1.00  0.00    -0.385 OA
ATOM     21  H   UNL     1      77.407  41.682  29.492  1.00  0.00     0.211 HD
ENDBRANCH  15  20
ENDBRANCH   8   9
ENDBRANCH   7   8
ENDBRANCH   1   7
BRANCH   2  22
ATOM     22  O   UNL     1      78.077  38.053  26.113  1.00  0.00    -0.387 OA
ATOM     23  H   UNL     1      77.852  37.288  25.536  1.00  0.00     0.211 HD
ENDBRANCH   2  22
BRANCH   3  24
ATOM     24  O   UNL     1      79.516  40.054  24.428  1.00  0.00    -0.387 OA
ATOM     25  H   UNL     1      79.592  40.985  24.019  1.00  0.00     0.211 HD
ENDBRANCH   3  24
BRANCH   5  26
ATOM     26  O   UNL     1      75.039  40.656  22.378  1.00  0.00    -0.454 OA
BRANCH  26  27
ATOM     27  C   UNL     1      74.345  40.657  21.111  1.00  0.00     0.214 A 
ATOM     28  C   UNL     1      72.996  41.104  20.768  1.00  0.00     0.180 A 
ATOM     29  C   UNL     1      74.954  39.810  20.205  1.00  0.00     0.239 A 
ATOM     30  O   UNL     1      72.454  40.505  19.714  1.00  0.00    -0.452 OA
ATOM     31  C   UNL     1      74.166  38.945  19.352  1.00  0.00     0.111 A 
ATOM     32  O   UNL     1      76.198  39.749  20.168  1.00  0.00    -0.285 OA
ATOM     33  C   UNL     1      72.815  39.320  19.288  1.00  0.00     0.146 A 
ATOM     34  C   UNL     1      74.671  37.802  18.594  1.00  0.00     0.134 A 
ATOM     35  C   UNL     1      71.839  38.475  18.769  1.00  0.00     0.094 A 
ATOM     36  C   UNL     1      73.631  37.014  18.021  1.00  0.00     0.093 A 
ATOM     37  C   UNL     1      72.248  37.269  18.232  1.00  0.00     0.123 A 
BRANCH  28  38
ATOM     38  C   UNL     1      71.830  41.496  21.607  1.00  0.00     0.025 A 
ATOM     39  C   UNL     1      70.722  42.123  20.976  1.00  0.00     0.062 A 
ATOM     40  C   UNL     1      71.507  40.558  22.635  1.00  0.00     0.016 A 
ATOM     41  C   UNL     1      69.498  41.438  20.882  1.00  0.00     0.158 A 
ATOM     42  C   UNL     1      70.241  39.963  22.709  1.00  0.00     0.051 A 
ATOM     43  C   UNL     1      69.250  40.358  21.759  1.00  0.00     0.157 A 
BRANCH  41  44
ATOM     44  O   UNL     1      68.705  41.587  19.754  1.00  0.00    -0.504 OA
ATOM     45  H   UNL     1      69.022  41.310  18.837  1.00  0.00     0.293 HD
ENDBRANCH  41  44
BRANCH  43  46
ATOM     46  O   UNL     1      68.146  39.575  21.546  1.00  0.00    -0.504 OA
ATOM     47  H   UNL     1      67.606  39.108  22.263  1.00  0.00     0.293 HD
ENDBRANCH  43  46
ENDBRANCH  28  38
BRANCH  34  48
ATOM     48  O   UNL     1      76.010  37.563  18.291  1.00  0.00    -0.507 OA
ATOM     49  H   UNL     1      76.282  36.923  17.558  1.00  0.00     0.293 HD
ENDBRANCH  34  48
BRANCH  37  50
ATOM     50  O   UNL     1      71.238  36.412  17.878  1.00  0.00    -0.508 OA
ATOM     51  H   UNL     1      70.233  36.676  18.044  1.00  0.00     0.293 HD
ENDBRANCH  37  50
ENDBRANCH  26  27
ENDBRANCH   5  26
BRANCH   4  52
ATOM     52  O   UNL     1      77.133  41.577  24.153  1.00  0.00    -0.384 OA
ATOM     53  H   UNL     1      78.055  41.946  24.385  1.00  0.00     0.211 HD
ENDBRANCH   4  52
TORSDOF 16
ENDMDL
