MODEL 1
REMARK VINA RESULT:    -0.240      0.000      0.000
REMARK INTER + INTRA:          -0.572
REMARK INTER:                  -0.283
REMARK INTRA:                  -0.290
REMARK UNBOUND:                -0.290
REMARK SMILES O=c1c(O)c(-c2ccc(O)cc2)oc2cc(O)cc(O)c12
REMARK SMILES IDX 5 1 3 2 2 3 1 4 21 5 19 6 18 7 16 8 15 9 14 10 13 11 6 12
REMARK SMILES IDX 7 13 8 14 9 15 12 16 11 17 10 18 4 20 20 22 17 24
REMARK H PARENT 10 19 4 21 20 23 17 25
REMARK Flexibility Score: inf
ROOT
ATOM      1  C   UNL     1     190.752 186.986 175.239  1.00  0.00     0.180 A 
ATOM      2  C   UNL     1     191.744 186.968 174.244  1.00  0.00     0.208 A 
ATOM      3  C   UNL     1     191.373 186.703 172.916  1.00  0.00     0.238 A 
ATOM      4  O   UNL     1     192.258 186.743 172.022  1.00  0.00    -0.285 OA
ATOM      5  C   UNL     1     190.017 186.441 172.603  1.00  0.00     0.111 A 
ATOM      6  C   UNL     1     189.535 186.120 171.298  1.00  0.00     0.134 A 
ATOM      7  C   UNL     1     188.156 186.010 171.081  1.00  0.00     0.093 A 
ATOM      8  C   UNL     1     187.248 186.144 172.133  1.00  0.00     0.123 A 
ATOM      9  C   UNL     1     187.713 186.398 173.421  1.00  0.00     0.094 A 
ATOM     10  C   UNL     1     189.080 186.550 173.663  1.00  0.00     0.146 A 
ATOM     11  O   UNL     1     189.481 186.802 174.903  1.00  0.00    -0.452 OA
ENDROOT
BRANCH   1  12
ATOM     12  C   UNL     1     191.069 187.233 176.665  1.00  0.00     0.021 A 
ATOM     13  C   UNL     1     191.088 188.536 177.196  1.00  0.00     0.016 A 
ATOM     14  C   UNL     1     191.413 188.748 178.539  1.00  0.00     0.047 A 
ATOM     15  C   UNL     1     191.735 187.662 179.364  1.00  0.00     0.115 A 
ATOM     16  C   UNL     1     191.412 186.154 177.495  1.00  0.00     0.016 A 
ATOM     17  C   UNL     1     191.736 186.368 178.838  1.00  0.00     0.047 A 
BRANCH  15  18
ATOM     18  O   UNL     1     192.058 187.862 180.705  1.00  0.00    -0.508 OA
ATOM     19  H   UNL     1     191.477 187.496 181.449  1.00  0.00     0.293 HD
ENDBRANCH  15  18
ENDBRANCH   1  12
BRANCH   2  20
ATOM     20  O   UNL     1     193.073 187.251 174.572  1.00  0.00    -0.502 OA
ATOM     21  H   UNL     1     193.750 187.559 173.884  1.00  0.00     0.293 HD
ENDBRANCH   2  20
BRANCH   6  22
ATOM     22  O   UNL     1     190.362 185.875 170.199  1.00  0.00    -0.507 OA
ATOM     23  H   UNL     1     191.025 185.117 170.136  1.00  0.00     0.293 HD
ENDBRANCH   6  22
BRANCH   8  24
ATOM     24  O   UNL     1     185.878 186.017 171.909  1.00  0.00    -0.508 OA
ATOM     25  H   UNL     1     185.341 185.262 172.320  1.00  0.00     0.293 HD
ENDBRANCH   8  24
TORSDOF 5
ENDMDL
MODEL 2
REMARK VINA RESULT:    -0.235      2.263      3.752
REMARK INTER + INTRA:          -0.567
REMARK INTER:                  -0.278
REMARK INTRA:                  -0.289
REMARK UNBOUND:                -0.290
REMARK SMILES O=c1c(O)c(-c2ccc(O)cc2)oc2cc(O)cc(O)c12
REMARK SMILES IDX 5 1 3 2 2 3 1 4 21 5 19 6 18 7 16 8 15 9 14 10 13 11 6 12
REMARK SMILES IDX 7 13 8 14 9 15 12 16 11 17 10 18 4 20 20 22 17 24
REMARK H PARENT 10 19 4 21 20 23 17 25
REMARK Flexibility Score: inf
ROOT
ATOM      1  C   UNL     1     191.345 186.789 174.879  1.00  0.00     0.180 A 
ATOM      2  C   UNL     1     190.382 186.633 175.890  1.00  0.00     0.208 A 
ATOM      3  C   UNL     1     189.035 186.468 175.528  1.00  0.00     0.238 A 
ATOM      4  O   UNL     1     188.184 186.274 176.435  1.00  0.00    -0.285 OA
ATOM      5  C   UNL     1     188.667 186.477 174.160  1.00  0.00     0.111 A 
ATOM      6  C   UNL     1     187.328 186.359 173.681  1.00  0.00     0.134 A 
ATOM      7  C   UNL     1     187.095 186.249 172.304  1.00  0.00     0.093 A 
ATOM      8  C   UNL     1     188.146 186.320 171.388  1.00  0.00     0.123 A 
ATOM      9  C   UNL     1     189.451 186.495 171.843  1.00  0.00     0.094 A 
ATOM     10  C   UNL     1     189.719 186.571 173.212  1.00  0.00     0.146 A 
ATOM     11  O   UNL     1     190.977 186.727 173.604  1.00  0.00    -0.452 OA
ENDROOT
BRANCH   1  12
ATOM     12  C   UNL     1     192.781 186.992 175.182  1.00  0.00     0.021 A 
ATOM     13  C   UNL     1     193.664 185.905 175.314  1.00  0.00     0.016 A 
ATOM     14  C   UNL     1     195.009 186.121 175.624  1.00  0.00     0.047 A 
ATOM     15  C   UNL     1     195.487 187.423 175.819  1.00  0.00     0.115 A 
ATOM     16  C   UNL     1     193.264 188.293 175.399  1.00  0.00     0.016 A 
ATOM     17  C   UNL     1     194.611 188.506 175.708  1.00  0.00     0.047 A 
BRANCH  15  18
ATOM     18  O   UNL     1     196.827 187.650 176.127  1.00  0.00    -0.508 OA
ATOM     19  H   UNL     1     197.108 188.395 176.751  1.00  0.00     0.293 HD
ENDBRANCH  15  18
ENDBRANCH   1  12
BRANCH   2  20
ATOM     20  O   UNL     1     190.769 186.604 177.232  1.00  0.00    -0.502 OA
ATOM     21  H   UNL     1     190.102 186.514 177.989  1.00  0.00     0.293 HD
ENDBRANCH   2  20
BRANCH   6  22
ATOM     22  O   UNL     1     186.200 186.373 174.505  1.00  0.00    -0.507 OA
ATOM     23  H   UNL     1     185.472 185.674 174.496  1.00  0.00     0.293 HD
ENDBRANCH   6  22
BRANCH   8  24
ATOM     24  O   UNL     1     187.903 186.225 170.019  1.00  0.00    -0.508 OA
ATOM     25  H   UNL     1     187.215 185.582 169.646  1.00  0.00     0.293 HD
ENDBRANCH   8  24
TORSDOF 5
ENDMDL
MODEL 3
REMARK VINA RESULT:    -0.226      1.645      3.209
REMARK INTER + INTRA:          -0.556
REMARK INTER:                  -0.266
REMARK INTRA:                  -0.289
REMARK UNBOUND:                -0.290
REMARK SMILES O=c1c(O)c(-c2ccc(O)cc2)oc2cc(O)cc(O)c12
REMARK SMILES IDX 5 1 3 2 2 3 1 4 21 5 19 6 18 7 16 8 15 9 14 10 13 11 6 12
REMARK SMILES IDX 7 13 8 14 9 15 12 16 11 17 10 18 4 20 20 22 17 24
REMARK H PARENT 10 19 4 21 20 23 17 25
REMARK Flexibility Score: inf
ROOT
ATOM      1  C   UNL     1     190.558 187.304 175.638  1.00  0.00     0.180 A 
ATOM      2  C   UNL     1     189.284 187.014 176.155  1.00  0.00     0.208 A 
ATOM      3  C   UNL     1     188.274 186.585 175.279  1.00  0.00     0.238 A 
ATOM      4  O   UNL     1     187.151 186.275 175.755  1.00  0.00    -0.285 OA
ATOM      5  C   UNL     1     188.545 186.469 173.894  1.00  0.00     0.111 A 
ATOM      6  C   UNL     1     187.586 186.084 172.910  1.00  0.00     0.134 A 
ATOM      7  C   UNL     1     188.000 185.875 171.588  1.00  0.00     0.093 A 
ATOM      8  C   UNL     1     189.322 186.102 171.203  1.00  0.00     0.123 A 
ATOM      9  C   UNL     1     190.253 186.536 172.144  1.00  0.00     0.094 A 
ATOM     10  C   UNL     1     189.879 186.718 173.477  1.00  0.00     0.146 A 
ATOM     11  O   UNL     1     190.799 187.122 174.345  1.00  0.00    -0.452 OA
ENDROOT
BRANCH   1  12
ATOM     12  C   UNL     1     191.666 187.784 176.494  1.00  0.00     0.021 A 
ATOM     13  C   UNL     1     192.556 186.887 177.113  1.00  0.00     0.016 A 
ATOM     14  C   UNL     1     193.580 187.362 177.937  1.00  0.00     0.047 A 
ATOM     15  C   UNL     1     193.721 188.738 178.163  1.00  0.00     0.115 A 
ATOM     16  C   UNL     1     191.803 189.160 176.743  1.00  0.00     0.016 A 
ATOM     17  C   UNL     1     192.829 189.632 177.566  1.00  0.00     0.047 A 
BRANCH  15  18
ATOM     18  O   UNL     1     194.740 189.222 178.980  1.00  0.00    -0.508 OA
ATOM     19  H   UNL     1     195.336 188.599 179.510  1.00  0.00     0.293 HD
ENDBRANCH  15  18
ENDBRANCH   1  12
BRANCH   2  20
ATOM     20  O   UNL     1     189.043 187.114 177.528  1.00  0.00    -0.502 OA
ATOM     21  H   UNL     1     188.151 186.872 177.944  1.00  0.00     0.293 HD
ENDBRANCH   2  20
BRANCH   6  22
ATOM     22  O   UNL     1     186.223 185.921 173.170  1.00  0.00    -0.507 OA
ATOM     23  H   UNL     1     185.806 185.941 174.089  1.00  0.00     0.293 HD
ENDBRANCH   6  22
BRANCH   8  24
ATOM     24  O   UNL     1     189.721 185.907 169.882  1.00  0.00    -0.508 OA
ATOM     25  H   UNL     1     190.267 186.601 169.384  1.00  0.00     0.293 HD
ENDBRANCH   8  24
TORSDOF 5
ENDMDL
MODEL 4
REMARK VINA RESULT:    -0.222      2.058      3.432
REMARK INTER + INTRA:          -0.551
REMARK INTER:                  -0.261
REMARK INTRA:                  -0.289
REMARK UNBOUND:                -0.290
REMARK SMILES O=c1c(O)c(-c2ccc(O)cc2)oc2cc(O)cc(O)c12
REMARK SMILES IDX 5 1 3 2 2 3 1 4 21 5 19 6 18 7 16 8 15 9 14 10 13 11 6 12
REMARK SMILES IDX 7 13 8 14 9 15 12 16 11 17 10 18 4 20 20 22 17 24
REMARK H PARENT 10 19 4 21 20 23 17 25
REMARK Flexibility Score: inf
ROOT
ATOM      1  C   UNL     1     191.793 186.643 175.959  1.00  0.00     0.180 A 
ATOM      2  C   UNL     1     190.490 186.448 176.447  1.00  0.00     0.208 A 
ATOM      3  C   UNL     1     189.448 186.215 175.534  1.00  0.00     0.238 A 
ATOM      4  O   UNL     1     188.293 185.987 175.980  1.00  0.00    -0.285 OA
ATOM      5  C   UNL     1     189.720 186.197 174.144  1.00  0.00     0.111 A 
ATOM      6  C   UNL     1     188.734 186.011 173.129  1.00  0.00     0.134 A 
ATOM      7  C   UNL     1     189.136 185.880 171.794  1.00  0.00     0.093 A 
ATOM      8  C   UNL     1     190.480 185.995 171.431  1.00  0.00     0.123 A 
ATOM      9  C   UNL     1     191.443 186.236 172.409  1.00  0.00     0.094 A 
ATOM     10  C   UNL     1     191.077 186.335 173.753  1.00  0.00     0.146 A 
ATOM     11  O   UNL     1     192.027 186.555 174.654  1.00  0.00    -0.452 OA
ENDROOT
BRANCH   1  12
ATOM     12  C   UNL     1     192.938 186.919 176.856  1.00  0.00     0.021 A 
ATOM     13  C   UNL     1     193.697 185.876 177.418  1.00  0.00     0.016 A 
ATOM     14  C   UNL     1     194.758 186.159 178.282  1.00  0.00     0.047 A 
ATOM     15  C   UNL     1     195.068 187.487 178.604  1.00  0.00     0.115 A 
ATOM     16  C   UNL     1     193.243 188.246 177.201  1.00  0.00     0.016 A 
ATOM     17  C   UNL     1     194.307 188.526 178.064  1.00  0.00     0.047 A 
BRANCH  15  18
ATOM     18  O   UNL     1     196.126 187.781 179.462  1.00  0.00    -0.508 OA
ATOM     19  H   UNL     1     197.084 187.803 179.134  1.00  0.00     0.293 HD
ENDBRANCH  15  18
ENDBRANCH   1  12
BRANCH   2  20
ATOM     20  O   UNL     1     190.247 186.448 177.823  1.00  0.00    -0.502 OA
ATOM     21  H   UNL     1     189.311 186.464 178.211  1.00  0.00     0.293 HD
ENDBRANCH   2  20
BRANCH   6  22
ATOM     22  O   UNL     1     187.359 185.976 173.373  1.00  0.00    -0.507 OA
ATOM     23  H   UNL     1     186.701 186.674 173.061  1.00  0.00     0.293 HD
ENDBRANCH   6  22
BRANCH   8  24
ATOM     24  O   UNL     1     190.869 185.879 170.098  1.00  0.00    -0.508 OA
ATOM     25  H   UNL     1     190.885 184.982 169.626  1.00  0.00     0.293 HD
ENDBRANCH   8  24
TORSDOF 5
ENDMDL
MODEL 5
REMARK VINA RESULT:    -0.218      2.343      2.985
REMARK INTER + INTRA:          -0.546
REMARK INTER:                  -0.250
REMARK INTRA:                  -0.296
REMARK UNBOUND:                -0.290
REMARK SMILES O=c1c(O)c(-c2ccc(O)cc2)oc2cc(O)cc(O)c12
REMARK SMILES IDX 5 1 3 2 2 3 1 4 21 5 19 6 18 7 16 8 15 9 14 10 13 11 6 12
REMARK SMILES IDX 7 13 8 14 9 15 12 16 11 17 10 18 4 20 20 22 17 24
REMARK H PARENT 10 19 4 21 20 23 17 25
REMARK Flexibility Score: inf
ROOT
ATOM      1  C   UNL     1     191.684 186.874 174.723  1.00  0.00     0.180 A 
ATOM      2  C   UNL     1     191.644 186.904 173.318  1.00  0.00     0.208 A 
ATOM      3  C   UNL     1     190.414 186.717 172.667  1.00  0.00     0.238 A 
ATOM      4  O   UNL     1     190.375 186.799 171.412  1.00  0.00    -0.285 OA
ATOM      5  C   UNL     1     189.243 186.484 173.428  1.00  0.00     0.111 A 
ATOM      6  C   UNL     1     187.951 186.241 172.872  1.00  0.00     0.134 A 
ATOM      7  C   UNL     1     186.840 186.154 173.721  1.00  0.00     0.093 A 
ATOM      8  C   UNL     1     186.985 186.236 175.108  1.00  0.00     0.123 A 
ATOM      9  C   UNL     1     188.250 186.414 175.663  1.00  0.00     0.094 A 
ATOM     10  C   UNL     1     189.372 186.540 174.841  1.00  0.00     0.146 A 
ATOM     11  O   UNL     1     190.558 186.719 175.409  1.00  0.00    -0.452 OA
ENDROOT
BRANCH   1  12
ATOM     12  C   UNL     1     192.947 187.039 175.480  1.00  0.00     0.021 A 
ATOM     13  C   UNL     1     193.742 185.932 175.829  1.00  0.00     0.016 A 
ATOM     14  C   UNL     1     194.917 186.109 176.564  1.00  0.00     0.047 A 
ATOM     15  C   UNL     1     195.306 187.392 176.971  1.00  0.00     0.115 A 
ATOM     16  C   UNL     1     193.334 188.319 175.909  1.00  0.00     0.016 A 
ATOM     17  C   UNL     1     194.511 188.493 176.644  1.00  0.00     0.047 A 
BRANCH  15  18
ATOM     18  O   UNL     1     196.477 187.581 177.703  1.00  0.00    -0.508 OA
ATOM     19  H   UNL     1     196.695 188.471 178.133  1.00  0.00     0.293 HD
ENDBRANCH  15  18
ENDBRANCH   1  12
BRANCH   2  20
ATOM     20  O   UNL     1     192.808 187.158 172.587  1.00  0.00    -0.502 OA
ATOM     21  H   UNL     1     192.895 187.946 171.958  1.00  0.00     0.293 HD
ENDBRANCH   2  20
BRANCH   6  22
ATOM     22  O   UNL     1     187.711 186.051 171.509  1.00  0.00    -0.507 OA
ATOM     23  H   UNL     1     188.216 186.512 170.767  1.00  0.00     0.293 HD
ENDBRANCH   6  22
BRANCH   8  24
ATOM     24  O   UNL     1     185.876 186.132 175.945  1.00  0.00    -0.508 OA
ATOM     25  H   UNL     1     185.851 186.586 176.851  1.00  0.00     0.293 HD
ENDBRANCH   8  24
TORSDOF 5
ENDMDL
MODEL 6
REMARK VINA RESULT:    -0.215      2.202      2.710
REMARK INTER + INTRA:          -0.542
REMARK INTER:                  -0.242
REMARK INTRA:                  -0.300
REMARK UNBOUND:                -0.290
REMARK SMILES O=c1c(O)c(-c2ccc(O)cc2)oc2cc(O)cc(O)c12
REMARK SMILES IDX 5 1 3 2 2 3 1 4 21 5 19 6 18 7 16 8 15 9 14 10 13 11 6 12
REMARK SMILES IDX 7 13 8 14 9 15 12 16 11 17 10 18 4 20 20 22 17 24
REMARK H PARENT 10 19 4 21 20 23 17 25
REMARK Flexibility Score: inf
ROOT
ATOM      1  C   UNL     1     189.267 187.179 177.037  1.00  0.00     0.180 A 
ATOM      2  C   UNL     1     190.542 187.171 176.447  1.00  0.00     0.208 A 
ATOM      3  C   UNL     1     190.662 186.843 175.087  1.00  0.00     0.238 A 
ATOM      4  O   UNL     1     191.799 186.890 174.550  1.00  0.00    -0.285 OA
ATOM      5  C   UNL     1     189.506 186.509 174.338  1.00  0.00     0.111 A 
ATOM      6  C   UNL     1     189.515 186.122 172.965  1.00  0.00     0.134 A 
ATOM      7  C   UNL     1     188.300 185.942 172.291  1.00  0.00     0.093 A 
ATOM      8  C   UNL     1     187.080 186.071 172.959  1.00  0.00     0.123 A 
ATOM      9  C   UNL     1     187.063 186.392 174.314  1.00  0.00     0.094 A 
ATOM     10  C   UNL     1     188.257 186.613 175.004  1.00  0.00     0.146 A 
ATOM     11  O   UNL     1     188.196 186.926 176.293  1.00  0.00    -0.452 OA
ENDROOT
BRANCH   1  12
ATOM     12  C   UNL     1     189.063 187.490 178.471  1.00  0.00     0.021 A 
ATOM     13  C   UNL     1     189.111 186.484 179.453  1.00  0.00     0.016 A 
ATOM     14  C   UNL     1     188.891 186.797 180.798  1.00  0.00     0.047 A 
ATOM     15  C   UNL     1     188.610 188.117 181.176  1.00  0.00     0.115 A 
ATOM     16  C   UNL     1     188.760 188.806 178.857  1.00  0.00     0.016 A 
ATOM     17  C   UNL     1     188.543 189.117 180.202  1.00  0.00     0.047 A 
BRANCH  15  18
ATOM     18  O   UNL     1     188.392 188.441 182.513  1.00  0.00    -0.508 OA
ATOM     19  H   UNL     1     187.858 189.259 182.780  1.00  0.00     0.293 HD
ENDBRANCH  15  18
ENDBRANCH   1  12
BRANCH   2  20
ATOM     20  O   UNL     1     191.667 187.524 177.198  1.00  0.00    -0.502 OA
ATOM     21  H   UNL     1     191.641 188.242 177.912  1.00  0.00     0.293 HD
ENDBRANCH   2  20
BRANCH   6  22
ATOM     22  O   UNL     1     190.678 185.875 172.231  1.00  0.00    -0.507 OA
ATOM     23  H   UNL     1     190.781 185.141 171.546  1.00  0.00     0.293 HD
ENDBRANCH   6  22
BRANCH   8  24
ATOM     24  O   UNL     1     185.877 185.875 172.284  1.00  0.00    -0.508 OA
ATOM     25  H   UNL     1     184.984 185.978 172.752  1.00  0.00     0.293 HD
ENDBRANCH   8  24
TORSDOF 5
ENDMDL
MODEL 7
REMARK VINA RESULT:    -0.165      1.998      2.432
REMARK INTER + INTRA:          -0.483
REMARK INTER:                  -0.183
REMARK INTRA:                  -0.300
REMARK UNBOUND:                -0.290
REMARK SMILES O=c1c(O)c(-c2ccc(O)cc2)oc2cc(O)cc(O)c12
REMARK SMILES IDX 5 1 3 2 2 3 1 4 21 5 19 6 18 7 16 8 15 9 14 10 13 11 6 12
REMARK SMILES IDX 7 13 8 14 9 15 12 16 11 17 10 18 4 20 20 22 17 24
REMARK H PARENT 10 19 4 21 20 23 17 25
REMARK Flexibility Score: inf
ROOT
ATOM      1  C   UNL     1     191.318 188.462 174.885  1.00  0.00     0.180 A 
ATOM      2  C   UNL     1     191.834 188.294 173.588  1.00  0.00     0.208 A 
ATOM      3  C   UNL     1     191.070 187.600 172.636  1.00  0.00     0.238 A 
ATOM      4  O   UNL     1     191.513 187.500 171.462  1.00  0.00    -0.285 OA
ATOM      5  C   UNL     1     189.808 187.068 172.996  1.00  0.00     0.111 A 
ATOM      6  C   UNL     1     188.969 186.313 172.123  1.00  0.00     0.134 A 
ATOM      7  C   UNL     1     187.684 185.949 172.547  1.00  0.00     0.093 A 
ATOM      8  C   UNL     1     187.235 186.255 173.833  1.00  0.00     0.123 A 
ATOM      9  C   UNL     1     188.070 186.940 174.712  1.00  0.00     0.094 A 
ATOM     10  C   UNL     1     189.343 187.349 174.307  1.00  0.00     0.146 A 
ATOM     11  O   UNL     1     190.103 188.009 175.173  1.00  0.00    -0.452 OA
ENDROOT
BRANCH   1  12
ATOM     12  C   UNL     1     192.074 189.160 175.950  1.00  0.00     0.021 A 
ATOM     13  C   UNL     1     192.959 188.466 176.795  1.00  0.00     0.016 A 
ATOM     14  C   UNL     1     193.644 189.141 177.810  1.00  0.00     0.047 A 
ATOM     15  C   UNL     1     193.443 190.515 178.000  1.00  0.00     0.115 A 
ATOM     16  C   UNL     1     191.863 190.532 176.162  1.00  0.00     0.016 A 
ATOM     17  C   UNL     1     192.551 191.206 177.177  1.00  0.00     0.047 A 
BRANCH  15  18
ATOM     18  O   UNL     1     194.122 191.199 179.007  1.00  0.00    -0.508 OA
ATOM     19  H   UNL     1     194.047 190.922 179.978  1.00  0.00     0.293 HD
ENDBRANCH  15  18
ENDBRANCH   1  12
BRANCH   2  20
ATOM     20  O   UNL     1     193.071 188.846 173.247  1.00  0.00    -0.502 OA
ATOM     21  H   UNL     1     193.516 189.569 173.799  1.00  0.00     0.293 HD
ENDBRANCH   2  20
BRANCH   6  22
ATOM     22  O   UNL     1     189.355 185.875 170.854  1.00  0.00    -0.507 OA
ATOM     23  H   UNL     1     188.747 185.410 170.196  1.00  0.00     0.293 HD
ENDBRANCH   6  22
BRANCH   8  24
ATOM     24  O   UNL     1     185.962 185.875 174.250  1.00  0.00    -0.508 OA
ATOM     25  H   UNL     1     185.813 185.392 175.129  1.00  0.00     0.293 HD
ENDBRANCH   8  24
TORSDOF 5
ENDMDL
MODEL 8
REMARK VINA RESULT:    -0.159      2.751      6.547
REMARK INTER + INTRA:          -0.477
REMARK INTER:                  -0.188
REMARK INTRA:                  -0.289
REMARK UNBOUND:                -0.290
REMARK SMILES O=c1c(O)c(-c2ccc(O)cc2)oc2cc(O)cc(O)c12
REMARK SMILES IDX 5 1 3 2 2 3 1 4 21 5 19 6 18 7 16 8 15 9 14 10 13 11 6 12
REMARK SMILES IDX 7 13 8 14 9 15 12 16 11 17 10 18 4 20 20 22 17 24
REMARK H PARENT 10 19 4 21 20 23 17 25
REMARK Flexibility Score: inf
ROOT
ATOM      1  C   UNL     1     190.880 187.824 173.616  1.00  0.00     0.180 A 
ATOM      2  C   UNL     1     191.631 187.081 174.543  1.00  0.00     0.208 A 
ATOM      3  C   UNL     1     192.864 187.588 174.984  1.00  0.00     0.238 A 
ATOM      4  O   UNL     1     193.507 186.944 175.854  1.00  0.00    -0.285 OA
ATOM      5  C   UNL     1     193.339 188.823 174.479  1.00  0.00     0.111 A 
ATOM      6  C   UNL     1     194.593 189.411 174.825  1.00  0.00     0.134 A 
ATOM      7  C   UNL     1     194.901 190.698 174.367  1.00  0.00     0.093 A 
ATOM      8  C   UNL     1     194.030 191.389 173.522  1.00  0.00     0.123 A 
ATOM      9  C   UNL     1     192.830 190.799 173.131  1.00  0.00     0.094 A 
ATOM     10  C   UNL     1     192.479 189.532 173.601  1.00  0.00     0.146 A 
ATOM     11  O   UNL     1     191.322 189.009 173.212  1.00  0.00    -0.452 OA
ENDROOT
BRANCH   1  12
ATOM     12  C   UNL     1     189.583 187.344 173.086  1.00  0.00     0.021 A 
ATOM     13  C   UNL     1     188.372 187.633 173.741  1.00  0.00     0.016 A 
ATOM     14  C   UNL     1     187.162 187.149 173.235  1.00  0.00     0.047 A 
ATOM     15  C   UNL     1     187.149 186.361 172.077  1.00  0.00     0.115 A 
ATOM     16  C   UNL     1     189.562 186.536 171.938  1.00  0.00     0.016 A 
ATOM     17  C   UNL     1     188.350 186.054 171.433  1.00  0.00     0.047 A 
BRANCH  15  18
ATOM     18  O   UNL     1     185.948 185.875 171.563  1.00  0.00    -0.508 OA
ATOM     19  H   UNL     1     185.904 185.422 170.658  1.00  0.00     0.293 HD
ENDBRANCH  15  18
ENDBRANCH   1  12
BRANCH   2  20
ATOM     20  O   UNL     1     191.134 185.875 175.045  1.00  0.00    -0.502 OA
ATOM     21  H   UNL     1     191.739 185.127 175.364  1.00  0.00     0.293 HD
ENDBRANCH   2  20
BRANCH   6  22
ATOM     22  O   UNL     1     195.573 188.768 175.586  1.00  0.00    -0.507 OA
ATOM     23  H   UNL     1     196.486 188.506 175.245  1.00  0.00     0.293 HD
ENDBRANCH   6  22
BRANCH   8  24
ATOM     24  O   UNL     1     194.352 192.663 173.059  1.00  0.00    -0.508 OA
ATOM     25  H   UNL     1     194.142 193.494 173.600  1.00  0.00     0.293 HD
ENDBRANCH   8  24
TORSDOF 5
ENDMDL
MODEL 9
REMARK VINA RESULT:    -0.144      2.150      3.354
REMARK INTER + INTRA:          -0.459
REMARK INTER:                  -0.159
REMARK INTRA:                  -0.300
REMARK UNBOUND:                -0.290
REMARK SMILES O=c1c(O)c(-c2ccc(O)cc2)oc2cc(O)cc(O)c12
REMARK SMILES IDX 5 1 3 2 2 3 1 4 21 5 19 6 18 7 16 8 15 9 14 10 13 11 6 12
REMARK SMILES IDX 7 13 8 14 9 15 12 16 11 17 10 18 4 20 20 22 17 24
REMARK H PARENT 10 19 4 21 20 23 17 25
REMARK Flexibility Score: inf
ROOT
ATOM      1  C   UNL     1     192.453 186.912 177.864  1.00  0.00     0.180 A 
ATOM      2  C   UNL     1     193.273 186.844 176.725  1.00  0.00     0.208 A 
ATOM      3  C   UNL     1     192.682 186.614 175.472  1.00  0.00     0.238 A 
ATOM      4  O   UNL     1     193.415 186.608 174.449  1.00  0.00    -0.285 OA
ATOM      5  C   UNL     1     191.280 186.438 175.377  1.00  0.00     0.111 A 
ATOM      6  C   UNL     1     190.579 186.160 174.165  1.00  0.00     0.134 A 
ATOM      7  C   UNL     1     189.178 186.136 174.168  1.00  0.00     0.093 A 
ATOM      8  C   UNL     1     188.458 186.314 175.350  1.00  0.00     0.123 A 
ATOM      9  C   UNL     1     189.135 186.527 176.549  1.00  0.00     0.094 A 
ATOM     10  C   UNL     1     190.529 186.593 176.572  1.00  0.00     0.146 A 
ATOM     11  O   UNL     1     191.136 186.808 177.733  1.00  0.00    -0.452 OA
ENDROOT
BRANCH   1  12
ATOM     12  C   UNL     1     193.005 187.126 179.221  1.00  0.00     0.021 A 
ATOM     13  C   UNL     1     193.402 186.045 180.030  1.00  0.00     0.016 A 
ATOM     14  C   UNL     1     193.898 186.270 181.317  1.00  0.00     0.047 A 
ATOM     15  C   UNL     1     193.992 187.575 181.818  1.00  0.00     0.115 A 
ATOM     16  C   UNL     1     193.084 188.429 179.739  1.00  0.00     0.016 A 
ATOM     17  C   UNL     1     193.581 188.651 181.027  1.00  0.00     0.047 A 
BRANCH  15  18
ATOM     18  O   UNL     1     194.487 187.811 183.099  1.00  0.00    -0.508 OA
ATOM     19  H   UNL     1     193.880 188.096 183.857  1.00  0.00     0.293 HD
ENDBRANCH  15  18
ENDBRANCH   1  12
BRANCH   2  20
ATOM     20  O   UNL     1     194.652 187.042 176.838  1.00  0.00    -0.502 OA
ATOM     21  H   UNL     1     195.076 187.468 177.653  1.00  0.00     0.293 HD
ENDBRANCH   2  20
BRANCH   6  22
ATOM     22  O   UNL     1     191.205 185.875 172.949  1.00  0.00    -0.507 OA
ATOM     23  H   UNL     1     190.728 185.573 172.113  1.00  0.00     0.293 HD
ENDBRANCH   6  22
BRANCH   8  24
ATOM     24  O   UNL     1     187.065 186.272 175.346  1.00  0.00    -0.508 OA
ATOM     25  H   UNL     1     186.559 185.417 175.547  1.00  0.00     0.293 HD
ENDBRANCH   8  24
TORSDOF 5
ENDMDL
