MODEL 1
REMARK VINA RESULT:    -6.975      0.000      0.000
REMARK INTER + INTRA:         -11.895
REMARK INTER:                 -10.237
REMARK INTRA:                  -1.657
REMARK UNBOUND:                -1.657
REMARK SMILES O=c1c(O[C@@H]2O[C@@H](CO)[C@@H](O)[C@H](O)[C@@H]2O)c(-c2ccc(O)c(O)c2)oc2cc(O)cc(O)c12
REMARK SMILES IDX 4 1 3 2 16 3 25 4 2 5 26 6 1 7 33 8 27 9 31 10 28 11 30 12
REMARK SMILES IDX 17 13 18 14 19 15 20 16 24 17 22 18 21 19 23 21 32 23 29 25
REMARK SMILES IDX 5 27 14 28 6 29 12 30 7 31 10 32 15 33 13 35 8 37 9 38 11 40
REMARK H PARENT 21 20 23 22 32 24 29 26 15 34 13 36 9 39 11 41
REMARK Flexibility Score: inf
ROOT
ATOM      1  O   UNL     1       2.687  -6.441  37.197  1.00  0.00    -0.454 OA
ENDROOT
BRANCH   1   2
ATOM      2  C   UNL     1       2.757  -5.266  37.977  1.00  0.00     0.214 A 
ATOM      3  C   UNL     1       3.466  -4.165  37.453  1.00  0.00     0.180 A 
ATOM      4  O   UNL     1       3.489  -3.008  38.107  1.00  0.00    -0.452 OA
ATOM      5  C   UNL     1       2.130  -5.116  39.237  1.00  0.00     0.239 A 
ATOM      6  C   UNL     1       2.898  -2.820  39.279  1.00  0.00     0.146 A 
ATOM      7  O   UNL     1       1.515  -6.080  39.763  1.00  0.00    -0.285 OA
ATOM      8  C   UNL     1       2.197  -3.874  39.907  1.00  0.00     0.111 A 
ATOM      9  C   UNL     1       2.984  -1.566  39.888  1.00  0.00     0.094 A 
ATOM     10  C   UNL     1       1.592  -3.641  41.168  1.00  0.00     0.134 A 
ATOM     11  C   UNL     1       2.383  -1.341  41.131  1.00  0.00     0.123 A 
ATOM     12  C   UNL     1       1.693  -2.376  41.765  1.00  0.00     0.093 A 
BRANCH   3  13
ATOM     13  C   UNL     1       4.190  -4.249  36.169  1.00  0.00     0.025 A 
ATOM     14  C   UNL     1       5.591  -4.191  36.156  1.00  0.00     0.016 A 
ATOM     15  C   UNL     1       6.291  -4.302  34.952  1.00  0.00     0.051 A 
ATOM     16  C   UNL     1       5.602  -4.490  33.750  1.00  0.00     0.157 A 
ATOM     17  C   UNL     1       3.499  -4.456  34.964  1.00  0.00     0.062 A 
ATOM     18  C   UNL     1       4.199  -4.573  33.754  1.00  0.00     0.158 A 
BRANCH  16  19
ATOM     19  O   UNL     1       6.326  -4.598  32.563  1.00  0.00    -0.504 OA
ATOM     20  H   UNL     1       6.751  -3.794  32.117  1.00  0.00     0.293 HD
ENDBRANCH  16  19
BRANCH  18  21
ATOM     21  O   UNL     1       3.506  -4.780  32.562  1.00  0.00    -0.504 OA
ATOM     22  H   UNL     1       2.712  -5.407  32.512  1.00  0.00     0.293 HD
ENDBRANCH  18  21
ENDBRANCH   3  13
BRANCH  10  23
ATOM     23  O   UNL     1       0.895  -4.653  41.830  1.00  0.00    -0.507 OA
ATOM     24  H   UNL     1      -0.067  -4.871  41.605  1.00  0.00     0.293 HD
ENDBRANCH  10  23
BRANCH  11  25
ATOM     25  O   UNL     1       2.467  -0.093  41.745  1.00  0.00    -0.508 OA
ATOM     26  H   UNL     1       1.720   0.586  41.670  1.00  0.00     0.293 HD
ENDBRANCH  11  25
ENDBRANCH   1   2
BRANCH   1  27
ATOM     27  C   UNL     1       3.203  -7.733  37.536  1.00  0.00     0.339 C 
ATOM     28  C   UNL     1       2.202  -8.844  37.157  1.00  0.00     0.214 C 
ATOM     29  O   UNL     1       4.473  -7.957  36.942  1.00  0.00    -0.332 OA
ATOM     30  C   UNL     1       2.116  -9.033  35.630  1.00  0.00     0.180 C 
ATOM     31  C   UNL     1       4.391  -7.961  35.526  1.00  0.00     0.179 C 
ATOM     32  C   UNL     1       3.527  -9.145  35.029  1.00  0.00     0.177 C 
BRANCH  28  33
ATOM     33  O   UNL     1       0.937  -8.541  37.688  1.00  0.00    -0.384 OA
ATOM     34  H   UNL     1       0.408  -8.136  36.952  1.00  0.00     0.211 HD
ENDBRANCH  28  33
BRANCH  30  35
ATOM     35  O   UNL     1       1.424  -7.954  35.055  1.00  0.00    -0.387 OA
ATOM     36  H   UNL     1       1.944  -7.670  34.259  1.00  0.00     0.211 HD
ENDBRANCH  30  35
BRANCH  31  37
ATOM     37  C   UNL     1       5.809  -7.991  34.938  1.00  0.00     0.191 C 
BRANCH  37  38
ATOM     38  O   UNL     1       6.652  -8.798  35.714  1.00  0.00    -0.394 OA
ATOM     39  H   UNL     1       6.074  -9.503  36.106  1.00  0.00     0.210 HD
ENDBRANCH  37  38
ENDBRANCH  31  37
BRANCH  32  40
ATOM     40  O   UNL     1       4.092 -10.372  35.420  1.00  0.00    -0.387 OA
ATOM     41  H   UNL     1       5.038 -10.371  35.115  1.00  0.00     0.211 HD
ENDBRANCH  32  40
ENDBRANCH   1  27
TORSDOF 12
ENDMDL
MODEL 2
REMARK VINA RESULT:    -6.904      2.260      6.166
REMARK INTER + INTRA:         -11.790
REMARK INTER:                  -9.984
REMARK INTRA:                  -1.807
REMARK UNBOUND:                -1.657
REMARK SMILES O=c1c(O[C@@H]2O[C@@H](CO)[C@@H](O)[C@H](O)[C@@H]2O)c(-c2ccc(O)c(O)c2)oc2cc(O)cc(O)c12
REMARK SMILES IDX 4 1 3 2 16 3 25 4 2 5 26 6 1 7 33 8 27 9 31 10 28 11 30 12
REMARK SMILES IDX 17 13 18 14 19 15 20 16 24 17 22 18 21 19 23 21 32 23 29 25
REMARK SMILES IDX 5 27 14 28 6 29 12 30 7 31 10 32 15 33 13 35 8 37 9 38 11 40
REMARK H PARENT 21 20 23 22 32 24 29 26 15 34 13 36 9 39 11 41
REMARK Flexibility Score: inf
ROOT
ATOM      1  O   UNL     1       3.013  -5.331  37.735  1.00  0.00    -0.454 OA
ENDROOT
BRANCH   1   2
ATOM      2  C   UNL     1       3.678  -4.153  37.331  1.00  0.00     0.214 A 
ATOM      3  C   UNL     1       3.287  -2.935  37.925  1.00  0.00     0.180 A 
ATOM      4  O   UNL     1       3.937  -1.811  37.645  1.00  0.00    -0.452 OA
ATOM      5  C   UNL     1       4.735  -4.125  36.390  1.00  0.00     0.239 A 
ATOM      6  C   UNL     1       4.945  -1.746  36.786  1.00  0.00     0.146 A 
ATOM      7  O   UNL     1       5.098  -5.180  35.806  1.00  0.00    -0.285 OA
ATOM      8  C   UNL     1       5.385  -2.904  36.106  1.00  0.00     0.111 A 
ATOM      9  C   UNL     1       5.562  -0.513  36.556  1.00  0.00     0.094 A 
ATOM     10  C   UNL     1       6.455  -2.793  35.182  1.00  0.00     0.134 A 
ATOM     11  C   UNL     1       6.618  -0.411  35.645  1.00  0.00     0.123 A 
ATOM     12  C   UNL     1       7.058  -1.546  34.963  1.00  0.00     0.093 A 
BRANCH   3  13
ATOM     13  C   UNL     1       2.162  -2.864  38.880  1.00  0.00     0.025 A 
ATOM     14  C   UNL     1       0.977  -2.212  38.510  1.00  0.00     0.016 A 
ATOM     15  C   UNL     1      -0.107  -2.165  39.390  1.00  0.00     0.051 A 
ATOM     16  C   UNL     1      -0.028  -2.784  40.642  1.00  0.00     0.157 A 
ATOM     17  C   UNL     1       2.235  -3.500  40.129  1.00  0.00     0.062 A 
ATOM     18  C   UNL     1       1.147  -3.460  41.013  1.00  0.00     0.158 A 
BRANCH  16  19
ATOM     19  O   UNL     1      -1.125  -2.721  41.500  1.00  0.00    -0.504 OA
ATOM     20  H   UNL     1      -1.156  -3.235  42.372  1.00  0.00     0.293 HD
ENDBRANCH  16  19
BRANCH  18  21
ATOM     21  O   UNL     1       1.227  -4.095  42.252  1.00  0.00    -0.504 OA
ATOM     22  H   UNL     1       0.945  -3.629  43.106  1.00  0.00     0.293 HD
ENDBRANCH  18  21
ENDBRANCH   3  13
BRANCH  10  23
ATOM     23  O   UNL     1       6.921  -3.907  34.483  1.00  0.00    -0.507 OA
ATOM     24  H   UNL     1       6.325  -4.423  33.848  1.00  0.00     0.293 HD
ENDBRANCH  10  23
BRANCH  11  25
ATOM     25  O   UNL     1       7.236   0.816  35.410  1.00  0.00    -0.508 OA
ATOM     26  H   UNL     1       6.725   1.602  35.025  1.00  0.00     0.293 HD
ENDBRANCH  11  25
ENDBRANCH   1   2
BRANCH   1  27
ATOM     27  C   UNL     1       2.012  -6.050  37.006  1.00  0.00     0.339 C 
ATOM     28  C   UNL     1       2.442  -7.514  36.775  1.00  0.00     0.214 C 
ATOM     29  O   UNL     1       0.748  -5.977  37.649  1.00  0.00    -0.332 OA
ATOM     30  C   UNL     1       2.394  -8.330  38.081  1.00  0.00     0.180 C 
ATOM     31  C   UNL     1       0.778  -6.595  38.926  1.00  0.00     0.179 C 
ATOM     32  C   UNL     1       1.050  -8.113  38.796  1.00  0.00     0.177 C 
BRANCH  28  33
ATOM     33  O   UNL     1       3.732  -7.545  36.221  1.00  0.00    -0.384 OA
ATOM     34  H   UNL     1       3.874  -8.467  35.881  1.00  0.00     0.211 HD
ENDBRANCH  28  33
BRANCH  30  35
ATOM     35  O   UNL     1       3.458  -7.953  38.918  1.00  0.00    -0.387 OA
ATOM     36  H   UNL     1       3.140  -7.185  39.461  1.00  0.00     0.211 HD
ENDBRANCH  30  35
BRANCH  31  37
ATOM     37  C   UNL     1      -0.537  -6.302  39.659  1.00  0.00     0.191 C 
BRANCH  37  38
ATOM     38  O   UNL     1      -0.383  -6.465  41.043  1.00  0.00    -0.394 OA
ATOM     39  H   UNL     1      -0.083  -5.587  41.392  1.00  0.00     0.210 HD
ENDBRANCH  37  38
ENDBRANCH  31  37
BRANCH  32  40
ATOM     40  O   UNL     1       0.033  -8.738  38.052  1.00  0.00    -0.387 OA
ATOM     41  H   UNL     1       0.262  -8.630  37.090  1.00  0.00     0.211 HD
ENDBRANCH  32  40
ENDBRANCH   1  27
TORSDOF 12
ENDMDL
MODEL 3
REMARK VINA RESULT:    -6.796      2.632      5.861
REMARK INTER + INTRA:         -11.632
REMARK INTER:                  -9.594
REMARK INTRA:                  -2.038
REMARK UNBOUND:                -1.657
REMARK SMILES O=c1c(O[C@@H]2O[C@@H](CO)[C@@H](O)[C@H](O)[C@@H]2O)c(-c2ccc(O)c(O)c2)oc2cc(O)cc(O)c12
REMARK SMILES IDX 4 1 3 2 16 3 25 4 2 5 26 6 1 7 33 8 27 9 31 10 28 11 30 12
REMARK SMILES IDX 17 13 18 14 19 15 20 16 24 17 22 18 21 19 23 21 32 23 29 25
REMARK SMILES IDX 5 27 14 28 6 29 12 30 7 31 10 32 15 33 13 35 8 37 9 38 11 40
REMARK H PARENT 21 20 23 22 32 24 29 26 15 34 13 36 9 39 11 41
REMARK Flexibility Score: inf
ROOT
ATOM      1  O   UNL     1       3.862  -3.601  36.804  1.00  0.00    -0.454 OA
ENDROOT
BRANCH   1   2
ATOM      2  C   UNL     1       4.976  -2.993  36.184  1.00  0.00     0.214 A 
ATOM      3  C   UNL     1       5.741  -3.768  35.288  1.00  0.00     0.180 A 
ATOM      4  O   UNL     1       6.746  -3.221  34.614  1.00  0.00    -0.452 OA
ATOM      5  C   UNL     1       5.350  -1.642  36.382  1.00  0.00     0.239 A 
ATOM      6  C   UNL     1       7.115  -1.955  34.755  1.00  0.00     0.146 A 
ATOM      7  O   UNL     1       4.720  -0.918  37.198  1.00  0.00    -0.285 OA
ATOM      8  C   UNL     1       6.438  -1.106  35.660  1.00  0.00     0.111 A 
ATOM      9  C   UNL     1       8.189  -1.473  34.002  1.00  0.00     0.094 A 
ATOM     10  C   UNL     1       6.872   0.237  35.796  1.00  0.00     0.134 A 
ATOM     11  C   UNL     1       8.611  -0.147  34.140  1.00  0.00     0.123 A 
ATOM     12  C   UNL     1       7.954   0.700  35.035  1.00  0.00     0.093 A 
BRANCH   3  13
ATOM     13  C   UNL     1       5.452  -5.198  35.059  1.00  0.00     0.025 A 
ATOM     14  C   UNL     1       4.462  -5.567  34.136  1.00  0.00     0.016 A 
ATOM     15  C   UNL     1       4.200  -6.916  33.884  1.00  0.00     0.051 A 
ATOM     16  C   UNL     1       4.934  -7.912  34.536  1.00  0.00     0.157 A 
ATOM     17  C   UNL     1       6.201  -6.198  35.699  1.00  0.00     0.062 A 
ATOM     18  C   UNL     1       5.944  -7.553  35.445  1.00  0.00     0.158 A 
BRANCH  16  19
ATOM     19  O   UNL     1       4.651  -9.250  34.265  1.00  0.00    -0.504 OA
ATOM     20  H   UNL     1       3.737  -9.652  34.431  1.00  0.00     0.293 HD
ENDBRANCH  16  19
BRANCH  18  21
ATOM     21  O   UNL     1       6.693  -8.539  36.084  1.00  0.00    -0.504 OA
ATOM     22  H   UNL     1       6.760  -9.480  35.712  1.00  0.00     0.293 HD
ENDBRANCH  18  21
ENDBRANCH   3  13
BRANCH  10  23
ATOM     23  O   UNL     1       6.239   1.112  36.681  1.00  0.00    -0.507 OA
ATOM     24  H   UNL     1       5.317   0.919  37.051  1.00  0.00     0.293 HD
ENDBRANCH  10  23
BRANCH  11  25
ATOM     25  O   UNL     1       9.683   0.338  33.393  1.00  0.00    -0.508 OA
ATOM     26  H   UNL     1       9.976   1.306  33.454  1.00  0.00     0.293 HD
ENDBRANCH  11  25
ENDBRANCH   1   2
BRANCH   1  27
ATOM     27  C   UNL     1       3.754  -4.011  38.172  1.00  0.00     0.339 C 
ATOM     28  C   UNL     1       2.464  -3.456  38.813  1.00  0.00     0.214 C 
ATOM     29  O   UNL     1       3.828  -5.423  38.299  1.00  0.00    -0.332 OA
ATOM     30  C   UNL     1       1.210  -4.167  38.268  1.00  0.00     0.180 C 
ATOM     31  C   UNL     1       2.744  -6.062  37.643  1.00  0.00     0.179 C 
ATOM     32  C   UNL     1       1.400  -5.692  38.315  1.00  0.00     0.177 C 
BRANCH  28  33
ATOM     33  O   UNL     1       2.383  -2.072  38.589  1.00  0.00    -0.384 OA
ATOM     34  H   UNL     1       1.986  -1.952  37.687  1.00  0.00     0.211 HD
ENDBRANCH  28  33
BRANCH  30  35
ATOM     35  O   UNL     1       0.959  -3.747  36.951  1.00  0.00    -0.387 OA
ATOM     36  H   UNL     1       1.627  -3.043  36.740  1.00  0.00     0.211 HD
ENDBRANCH  30  35
BRANCH  31  37
ATOM     37  C   UNL     1       2.987  -7.577  37.626  1.00  0.00     0.191 C 
BRANCH  37  38
ATOM     38  O   UNL     1       3.712  -7.978  38.757  1.00  0.00    -0.394 OA
ATOM     39  H   UNL     1       3.765  -7.181  39.345  1.00  0.00     0.210 HD
ENDBRANCH  37  38
ENDBRANCH  31  37
BRANCH  32  40
ATOM     40  O   UNL     1       1.384  -6.111  39.658  1.00  0.00    -0.387 OA
ATOM     41  H   UNL     1       1.210  -5.307  40.215  1.00  0.00     0.211 HD
ENDBRANCH  32  40
ENDBRANCH   1  27
TORSDOF 12
ENDMDL
MODEL 4
REMARK VINA RESULT:    -6.614      2.465      5.710
REMARK INTER + INTRA:         -11.365
REMARK INTER:                  -9.788
REMARK INTRA:                  -1.578
REMARK UNBOUND:                -1.657
REMARK SMILES O=c1c(O[C@@H]2O[C@@H](CO)[C@@H](O)[C@H](O)[C@@H]2O)c(-c2ccc(O)c(O)c2)oc2cc(O)cc(O)c12
REMARK SMILES IDX 4 1 3 2 16 3 25 4 2 5 26 6 1 7 33 8 27 9 31 10 28 11 30 12
REMARK SMILES IDX 17 13 18 14 19 15 20 16 24 17 22 18 21 19 23 21 32 23 29 25
REMARK SMILES IDX 5 27 14 28 6 29 12 30 7 31 10 32 15 33 13 35 8 37 9 38 11 40
REMARK H PARENT 21 20 23 22 32 24 29 26 15 34 13 36 9 39 11 41
REMARK Flexibility Score: inf
ROOT
ATOM      1  O   UNL     1       3.414  -4.615  36.920  1.00  0.00    -0.454 OA
ENDROOT
BRANCH   1   2
ATOM      2  C   UNL     1       4.154  -3.439  36.670  1.00  0.00     0.214 A 
ATOM      3  C   UNL     1       3.832  -2.283  37.411  1.00  0.00     0.180 A 
ATOM      4  O   UNL     1       4.553  -1.175  37.276  1.00  0.00    -0.452 OA
ATOM      5  C   UNL     1       5.222  -3.360  35.744  1.00  0.00     0.239 A 
ATOM      6  C   UNL     1       5.573  -1.067  36.436  1.00  0.00     0.146 A 
ATOM      7  O   UNL     1       5.526  -4.354  35.033  1.00  0.00    -0.285 OA
ATOM      8  C   UNL     1       5.950  -2.156  35.618  1.00  0.00     0.111 A 
ATOM      9  C   UNL     1       6.268   0.144  36.365  1.00  0.00     0.094 A 
ATOM     10  C   UNL     1       7.035  -1.997  34.719  1.00  0.00     0.134 A 
ATOM     11  C   UNL     1       7.338   0.293  35.478  1.00  0.00     0.123 A 
ATOM     12  C   UNL     1       7.716  -0.773  34.660  1.00  0.00     0.093 A 
BRANCH   3  13
ATOM     13  C   UNL     1       2.703  -2.262  38.363  1.00  0.00     0.025 A 
ATOM     14  C   UNL     1       1.419  -1.926  37.910  1.00  0.00     0.016 A 
ATOM     15  C   UNL     1       0.335  -1.934  38.792  1.00  0.00     0.051 A 
ATOM     16  C   UNL     1       0.517  -2.294  40.131  1.00  0.00     0.157 A 
ATOM     17  C   UNL     1       2.882  -2.641  39.703  1.00  0.00     0.062 A 
ATOM     18  C   UNL     1       1.796  -2.655  40.590  1.00  0.00     0.158 A 
BRANCH  16  19
ATOM     19  O   UNL     1      -0.582  -2.293  40.989  1.00  0.00    -0.504 OA
ATOM     20  H   UNL     1      -1.533  -2.245  40.645  1.00  0.00     0.293 HD
ENDBRANCH  16  19
BRANCH  18  21
ATOM     21  O   UNL     1       1.982  -3.033  41.918  1.00  0.00    -0.504 OA
ATOM     22  H   UNL     1       2.818  -3.520  42.220  1.00  0.00     0.293 HD
ENDBRANCH  18  21
ENDBRANCH   3  13
BRANCH  10  23
ATOM     23  O   UNL     1       7.439  -3.042  33.887  1.00  0.00    -0.507 OA
ATOM     24  H   UNL     1       6.853  -3.380  33.135  1.00  0.00     0.293 HD
ENDBRANCH  10  23
BRANCH  11  25
ATOM     25  O   UNL     1       8.033   1.499  35.400  1.00  0.00    -0.508 OA
ATOM     26  H   UNL     1       9.006   1.533  35.122  1.00  0.00     0.293 HD
ENDBRANCH  11  25
ENDBRANCH   1   2
BRANCH   1  27
ATOM     27  C   UNL     1       3.746  -5.666  37.835  1.00  0.00     0.339 C 
ATOM     28  C   UNL     1       2.493  -6.480  38.219  1.00  0.00     0.214 C 
ATOM     29  O   UNL     1       4.768  -6.503  37.314  1.00  0.00    -0.332 OA
ATOM     30  C   UNL     1       2.003  -7.353  37.046  1.00  0.00     0.180 C 
ATOM     31  C   UNL     1       4.343  -7.170  36.136  1.00  0.00     0.179 C 
ATOM     32  C   UNL     1       3.178  -8.141  36.444  1.00  0.00     0.177 C 
BRANCH  28  33
ATOM     33  O   UNL     1       1.476  -5.610  38.644  1.00  0.00    -0.384 OA
ATOM     34  H   UNL     1       0.670  -5.829  38.107  1.00  0.00     0.211 HD
ENDBRANCH  28  33
BRANCH  30  35
ATOM     35  O   UNL     1       1.406  -6.542  36.066  1.00  0.00    -0.387 OA
ATOM     36  H   UNL     1       2.095  -5.892  35.771  1.00  0.00     0.211 HD
ENDBRANCH  30  35
BRANCH  31  37
ATOM     37  C   UNL     1       5.543  -7.886  35.501  1.00  0.00     0.191 C 
BRANCH  37  38
ATOM     38  O   UNL     1       6.371  -8.440  36.487  1.00  0.00    -0.394 OA
ATOM     39  H   UNL     1       7.293  -8.400  36.125  1.00  0.00     0.210 HD
ENDBRANCH  37  38
ENDBRANCH  31  37
BRANCH  32  40
ATOM     40  O   UNL     1       3.582  -9.127  37.361  1.00  0.00    -0.387 OA
ATOM     41  H   UNL     1       2.901  -9.851  37.336  1.00  0.00     0.211 HD
ENDBRANCH  32  40
ENDBRANCH   1  27
TORSDOF 12
ENDMDL
MODEL 5
REMARK VINA RESULT:    -6.611      2.448      5.377
REMARK INTER + INTRA:         -11.359
REMARK INTER:                 -11.457
REMARK INTRA:                   0.097
REMARK UNBOUND:                -1.657
REMARK SMILES O=c1c(O[C@@H]2O[C@@H](CO)[C@@H](O)[C@H](O)[C@@H]2O)c(-c2ccc(O)c(O)c2)oc2cc(O)cc(O)c12
REMARK SMILES IDX 4 1 3 2 16 3 25 4 2 5 26 6 1 7 33 8 27 9 31 10 28 11 30 12
REMARK SMILES IDX 17 13 18 14 19 15 20 16 24 17 22 18 21 19 23 21 32 23 29 25
REMARK SMILES IDX 5 27 14 28 6 29 12 30 7 31 10 32 15 33 13 35 8 37 9 38 11 40
REMARK H PARENT 21 20 23 22 32 24 29 26 15 34 13 36 9 39 11 41
REMARK Flexibility Score: inf
ROOT
ATOM      1  O   UNL     1       3.385  -4.876  37.393  1.00  0.00    -0.454 OA
ENDROOT
BRANCH   1   2
ATOM      2  C   UNL     1       4.304  -3.885  36.986  1.00  0.00     0.214 A 
ATOM      3  C   UNL     1       5.452  -4.296  36.279  1.00  0.00     0.180 A 
ATOM      4  O   UNL     1       6.305  -3.397  35.799  1.00  0.00    -0.452 OA
ATOM      5  C   UNL     1       4.125  -2.499  37.217  1.00  0.00     0.239 A 
ATOM      6  C   UNL     1       6.163  -2.091  35.975  1.00  0.00     0.146 A 
ATOM      7  O   UNL     1       3.134  -2.084  37.874  1.00  0.00    -0.285 OA
ATOM      8  C   UNL     1       5.067  -1.579  36.706  1.00  0.00     0.111 A 
ATOM      9  C   UNL     1       7.117  -1.225  35.433  1.00  0.00     0.094 A 
ATOM     10  C   UNL     1       4.957  -0.177  36.888  1.00  0.00     0.134 A 
ATOM     11  C   UNL     1       7.002   0.156  35.615  1.00  0.00     0.123 A 
ATOM     12  C   UNL     1       5.927   0.674  36.340  1.00  0.00     0.093 A 
BRANCH   3  13
ATOM     13  C   UNL     1       5.743  -5.723  36.036  1.00  0.00     0.025 A 
ATOM     14  C   UNL     1       6.723  -6.084  35.100  1.00  0.00     0.016 A 
ATOM     15  C   UNL     1       7.032  -7.429  34.884  1.00  0.00     0.051 A 
ATOM     16  C   UNL     1       6.379  -8.429  35.611  1.00  0.00     0.157 A 
ATOM     17  C   UNL     1       5.101  -6.727  36.780  1.00  0.00     0.062 A 
ATOM     18  C   UNL     1       5.412  -8.078  36.569  1.00  0.00     0.158 A 
BRANCH  16  19
ATOM     19  O   UNL     1       6.707  -9.764  35.375  1.00  0.00    -0.504 OA
ATOM     20  H   UNL     1       7.108 -10.073  34.497  1.00  0.00     0.293 HD
ENDBRANCH  16  19
BRANCH  18  21
ATOM     21  O   UNL     1       4.771  -9.068  37.312  1.00  0.00    -0.504 OA
ATOM     22  H   UNL     1       4.634 -10.003  36.944  1.00  0.00     0.293 HD
ENDBRANCH  18  21
ENDBRANCH   3  13
BRANCH  10  23
ATOM     23  O   UNL     1       3.896   0.374  37.608  1.00  0.00    -0.507 OA
ATOM     24  H   UNL     1       4.051   0.985  38.400  1.00  0.00     0.293 HD
ENDBRANCH  10  23
BRANCH  11  25
ATOM     25  O   UNL     1       7.952   1.024  35.079  1.00  0.00    -0.508 OA
ATOM     26  H   UNL     1       8.945   0.857  35.190  1.00  0.00     0.293 HD
ENDBRANCH  11  25
ENDBRANCH   1   2
BRANCH   1  27
ATOM     27  C   UNL     1       1.956  -4.807  37.328  1.00  0.00     0.339 C 
ATOM     28  C   UNL     1       1.337  -6.220  37.285  1.00  0.00     0.214 C 
ATOM     29  O   UNL     1       1.423  -4.041  38.398  1.00  0.00    -0.332 OA
ATOM     30  C   UNL     1       1.462  -6.935  38.645  1.00  0.00     0.180 C 
ATOM     31  C   UNL     1       1.699  -4.641  39.654  1.00  0.00     0.179 C 
ATOM     32  C   UNL     1       0.987  -6.010  39.778  1.00  0.00     0.177 C 
BRANCH  28  33
ATOM     33  O   UNL     1       1.952  -6.974  36.273  1.00  0.00    -0.384 OA
ATOM     34  H   UNL     1       1.304  -7.026  35.522  1.00  0.00     0.211 HD
ENDBRANCH  28  33
BRANCH  30  35
ATOM     35  O   UNL     1       2.796  -7.322  38.858  1.00  0.00    -0.387 OA
ATOM     36  H   UNL     1       3.355  -6.784  38.239  1.00  0.00     0.211 HD
ENDBRANCH  30  35
BRANCH  31  37
ATOM     37  C   UNL     1       1.295  -3.674  40.775  1.00  0.00     0.191 C 
BRANCH  37  38
ATOM     38  O   UNL     1       1.095  -4.363  41.979  1.00  0.00    -0.394 OA
ATOM     39  H   UNL     1       0.377  -3.875  42.459  1.00  0.00     0.210 HD
ENDBRANCH  37  38
ENDBRANCH  31  37
BRANCH  32  40
ATOM     40  O   UNL     1      -0.407  -5.855  39.684  1.00  0.00    -0.387 OA
ATOM     41  H   UNL     1      -0.628  -5.746  38.721  1.00  0.00     0.211 HD
ENDBRANCH  32  40
ENDBRANCH   1  27
TORSDOF 12
ENDMDL
MODEL 6
REMARK VINA RESULT:    -6.558      2.581      6.711
REMARK INTER + INTRA:         -11.282
REMARK INTER:                 -11.369
REMARK INTRA:                   0.087
REMARK UNBOUND:                -1.657
REMARK SMILES O=c1c(O[C@@H]2O[C@@H](CO)[C@@H](O)[C@H](O)[C@@H]2O)c(-c2ccc(O)c(O)c2)oc2cc(O)cc(O)c12
REMARK SMILES IDX 4 1 3 2 16 3 25 4 2 5 26 6 1 7 33 8 27 9 31 10 28 11 30 12
REMARK SMILES IDX 17 13 18 14 19 15 20 16 24 17 22 18 21 19 23 21 32 23 29 25
REMARK SMILES IDX 5 27 14 28 6 29 12 30 7 31 10 32 15 33 13 35 8 37 9 38 11 40
REMARK H PARENT 21 20 23 22 32 24 29 26 15 34 13 36 9 39 11 41
REMARK Flexibility Score: inf
ROOT
ATOM      1  O   UNL     1       3.359  -3.779  38.472  1.00  0.00    -0.454 OA
ENDROOT
BRANCH   1   2
ATOM      2  C   UNL     1       4.003  -4.753  37.678  1.00  0.00     0.214 A 
ATOM      3  C   UNL     1       5.027  -4.325  36.807  1.00  0.00     0.180 A 
ATOM      4  O   UNL     1       5.722  -5.211  36.101  1.00  0.00    -0.452 OA
ATOM      5  C   UNL     1       3.705  -6.136  37.726  1.00  0.00     0.239 A 
ATOM      6  C   UNL     1       5.488  -6.515  36.134  1.00  0.00     0.146 A 
ATOM      7  O   UNL     1       2.775  -6.563  38.461  1.00  0.00    -0.285 OA
ATOM      8  C   UNL     1       4.455  -7.040  36.943  1.00  0.00     0.111 A 
ATOM      9  C   UNL     1       6.274  -7.365  35.351  1.00  0.00     0.094 A 
ATOM     10  C   UNL     1       4.224  -8.439  36.940  1.00  0.00     0.134 A 
ATOM     11  C   UNL     1       6.042  -8.744  35.354  1.00  0.00     0.123 A 
ATOM     12  C   UNL     1       5.020  -9.274  36.144  1.00  0.00     0.093 A 
BRANCH   3  13
ATOM     13  C   UNL     1       5.371  -2.897  36.657  1.00  0.00     0.025 A 
ATOM     14  C   UNL     1       6.632  -2.534  36.163  1.00  0.00     0.016 A 
ATOM     15  C   UNL     1       6.960  -1.188  35.985  1.00  0.00     0.051 A 
ATOM     16  C   UNL     1       6.026  -0.189  36.279  1.00  0.00     0.157 A 
ATOM     17  C   UNL     1       4.427  -1.895  36.935  1.00  0.00     0.062 A 
ATOM     18  C   UNL     1       4.751  -0.543  36.752  1.00  0.00     0.158 A 
BRANCH  16  19
ATOM     19  O   UNL     1       6.380   1.147  36.092  1.00  0.00    -0.504 OA
ATOM     20  H   UNL     1       5.989   1.708  35.344  1.00  0.00     0.293 HD
ENDBRANCH  16  19
BRANCH  18  21
ATOM     21  O   UNL     1       3.808   0.446  37.030  1.00  0.00    -0.504 OA
ATOM     22  H   UNL     1       3.932   1.401  36.713  1.00  0.00     0.293 HD
ENDBRANCH  18  21
ENDBRANCH   3  13
BRANCH  10  23
ATOM     23  O   UNL     1       3.211  -9.003  37.718  1.00  0.00    -0.507 OA
ATOM     24  H   UNL     1       3.177  -8.873  38.721  1.00  0.00     0.293 HD
ENDBRANCH  10  23
BRANCH  11  25
ATOM     25  O   UNL     1       6.820  -9.596  34.573  1.00  0.00    -0.508 OA
ATOM     26  H   UNL     1       7.794  -9.397  34.380  1.00  0.00     0.293 HD
ENDBRANCH  11  25
ENDBRANCH   1   2
BRANCH   1  27
ATOM     27  C   UNL     1       2.174  -3.952  39.257  1.00  0.00     0.339 C 
ATOM     28  C   UNL     1       2.140  -2.954  40.434  1.00  0.00     0.214 C 
ATOM     29  O   UNL     1       1.003  -3.851  38.460  1.00  0.00    -0.332 OA
ATOM     30  C   UNL     1       1.877  -1.515  39.949  1.00  0.00     0.180 C 
ATOM     31  C   UNL     1       0.873  -2.558  37.889  1.00  0.00     0.179 C 
ATOM     32  C   UNL     1       0.675  -1.489  38.990  1.00  0.00     0.177 C 
BRANCH  28  33
ATOM     33  O   UNL     1       3.350  -3.022  41.144  1.00  0.00    -0.384 OA
ATOM     34  H   UNL     1       4.032  -2.558  40.591  1.00  0.00     0.211 HD
ENDBRANCH  28  33
BRANCH  30  35
ATOM     35  O   UNL     1       3.022  -1.012  39.309  1.00  0.00    -0.387 OA
ATOM     36  H   UNL     1       3.806  -1.338  39.822  1.00  0.00     0.211 HD
ENDBRANCH  30  35
BRANCH  31  37
ATOM     37  C   UNL     1      -0.279  -2.568  36.875  1.00  0.00     0.191 C 
BRANCH  37  38
ATOM     38  O   UNL     1      -0.875  -1.302  36.786  1.00  0.00    -0.394 OA
ATOM     39  H   UNL     1      -1.407  -1.307  35.950  1.00  0.00     0.210 HD
ENDBRANCH  37  38
ENDBRANCH  31  37
BRANCH  32  40
ATOM     40  O   UNL     1      -0.498  -1.743  39.724  1.00  0.00    -0.387 OA
ATOM     41  H   UNL     1      -0.601  -2.730  39.782  1.00  0.00     0.211 HD
ENDBRANCH  32  40
ENDBRANCH   1  27
TORSDOF 12
ENDMDL
MODEL 7
REMARK VINA RESULT:    -6.539      2.459      5.061
REMARK INTER + INTRA:         -11.254
REMARK INTER:                  -9.422
REMARK INTRA:                  -1.833
REMARK UNBOUND:                -1.657
REMARK SMILES O=c1c(O[C@@H]2O[C@@H](CO)[C@@H](O)[C@H](O)[C@@H]2O)c(-c2ccc(O)c(O)c2)oc2cc(O)cc(O)c12
REMARK SMILES IDX 4 1 3 2 16 3 25 4 2 5 26 6 1 7 33 8 27 9 31 10 28 11 30 12
REMARK SMILES IDX 17 13 18 14 19 15 20 16 24 17 22 18 21 19 23 21 32 23 29 25
REMARK SMILES IDX 5 27 14 28 6 29 12 30 7 31 10 32 15 33 13 35 8 37 9 38 11 40
REMARK H PARENT 21 20 23 22 32 24 29 26 15 34 13 36 9 39 11 41
REMARK Flexibility Score: inf
ROOT
ATOM      1  O   UNL     1       5.206  -5.986  35.813  1.00  0.00    -0.454 OA
ENDROOT
BRANCH   1   2
ATOM      2  C   UNL     1       4.713  -4.732  36.235  1.00  0.00     0.214 A 
ATOM      3  C   UNL     1       3.491  -4.703  36.940  1.00  0.00     0.180 A 
ATOM      4  O   UNL     1       3.026  -3.561  37.433  1.00  0.00    -0.452 OA
ATOM      5  C   UNL     1       5.387  -3.505  36.023  1.00  0.00     0.239 A 
ATOM      6  C   UNL     1       3.637  -2.395  37.275  1.00  0.00     0.146 A 
ATOM      7  O   UNL     1       6.463  -3.473  35.369  1.00  0.00    -0.285 OA
ATOM      8  C   UNL     1       4.846  -2.311  36.547  1.00  0.00     0.111 A 
ATOM      9  C   UNL     1       3.065  -1.247  37.830  1.00  0.00     0.094 A 
ATOM     10  C   UNL     1       5.463  -1.044  36.384  1.00  0.00     0.134 A 
ATOM     11  C   UNL     1       3.679  -0.001  37.666  1.00  0.00     0.123 A 
ATOM     12  C   UNL     1       4.870   0.096  36.945  1.00  0.00     0.093 A 
BRANCH   3  13
ATOM     13  C   UNL     1       2.697  -5.928  37.164  1.00  0.00     0.025 A 
ATOM     14  C   UNL     1       1.608  -6.213  36.328  1.00  0.00     0.016 A 
ATOM     15  C   UNL     1       0.868  -7.385  36.508  1.00  0.00     0.051 A 
ATOM     16  C   UNL     1       1.217  -8.293  37.512  1.00  0.00     0.157 A 
ATOM     17  C   UNL     1       3.058  -6.849  38.161  1.00  0.00     0.062 A 
ATOM     18  C   UNL     1       2.321  -8.028  38.341  1.00  0.00     0.158 A 
BRANCH  16  19
ATOM     19  O   UNL     1       0.460  -9.454  37.669  1.00  0.00    -0.504 OA
ATOM     20  H   UNL     1       0.485 -10.002  38.520  1.00  0.00     0.293 HD
ENDBRANCH  16  19
BRANCH  18  21
ATOM     21  O   UNL     1       2.686  -8.937  39.333  1.00  0.00    -0.504 OA
ATOM     22  H   UNL     1       3.095  -8.632  40.208  1.00  0.00     0.293 HD
ENDBRANCH  18  21
ENDBRANCH   3  13
BRANCH  10  23
ATOM     23  O   UNL     1       6.654  -0.910  35.669  1.00  0.00    -0.507 OA
ATOM     24  H   UNL     1       6.988  -0.007  35.357  1.00  0.00     0.293 HD
ENDBRANCH  10  23
BRANCH  11  25
ATOM     25  O   UNL     1       3.111   1.146  38.216  1.00  0.00    -0.508 OA
ATOM     26  H   UNL     1       3.043   1.277  39.218  1.00  0.00     0.293 HD
ENDBRANCH  11  25
ENDBRANCH   1   2
BRANCH   1  27
ATOM     27  C   UNL     1       4.890  -6.672  34.596  1.00  0.00     0.339 C 
ATOM     28  C   UNL     1       6.145  -6.835  33.714  1.00  0.00     0.214 C 
ATOM     29  O   UNL     1       4.271  -7.924  34.852  1.00  0.00    -0.332 OA
ATOM     30  C   UNL     1       7.123  -7.869  34.304  1.00  0.00     0.180 C 
ATOM     31  C   UNL     1       5.142  -8.802  35.547  1.00  0.00     0.179 C 
ATOM     32  C   UNL     1       6.371  -9.158  34.677  1.00  0.00     0.177 C 
BRANCH  28  33
ATOM     33  O   UNL     1       6.778  -5.591  33.558  1.00  0.00    -0.384 OA
ATOM     34  H   UNL     1       7.751  -5.772  33.489  1.00  0.00     0.211 HD
ENDBRANCH  28  33
BRANCH  30  35
ATOM     35  O   UNL     1       7.759  -7.331  35.435  1.00  0.00    -0.387 OA
ATOM     36  H   UNL     1       8.587  -7.860  35.580  1.00  0.00     0.211 HD
ENDBRANCH  30  35
BRANCH  31  37
ATOM     37  C   UNL     1       4.359 -10.048  35.983  1.00  0.00     0.191 C 
BRANCH  37  38
ATOM     38  O   UNL     1       5.232 -11.078  36.360  1.00  0.00    -0.394 OA
ATOM     39  H   UNL     1       5.030 -11.842  35.761  1.00  0.00     0.210 HD
ENDBRANCH  37  38
ENDBRANCH  31  37
BRANCH  32  40
ATOM     40  O   UNL     1       5.973  -9.810  33.496  1.00  0.00    -0.387 OA
ATOM     41  H   UNL     1       5.325  -9.214  33.035  1.00  0.00     0.211 HD
ENDBRANCH  32  40
ENDBRANCH   1  27
TORSDOF 12
ENDMDL
MODEL 8
REMARK VINA RESULT:    -6.478      2.087      3.470
REMARK INTER + INTRA:         -11.165
REMARK INTER:                  -9.134
REMARK INTRA:                  -2.031
REMARK UNBOUND:                -1.657
REMARK SMILES O=c1c(O[C@@H]2O[C@@H](CO)[C@@H](O)[C@H](O)[C@@H]2O)c(-c2ccc(O)c(O)c2)oc2cc(O)cc(O)c12
REMARK SMILES IDX 4 1 3 2 16 3 25 4 2 5 26 6 1 7 33 8 27 9 31 10 28 11 30 12
REMARK SMILES IDX 17 13 18 14 19 15 20 16 24 17 22 18 21 19 23 21 32 23 29 25
REMARK SMILES IDX 5 27 14 28 6 29 12 30 7 31 10 32 15 33 13 35 8 37 9 38 11 40
REMARK H PARENT 21 20 23 22 32 24 29 26 15 34 13 36 9 39 11 41
REMARK Flexibility Score: inf
ROOT
ATOM      1  O   UNL     1       2.657  -6.127  37.235  1.00  0.00    -0.454 OA
ENDROOT
BRANCH   1   2
ATOM      2  C   UNL     1       3.289  -4.876  37.063  1.00  0.00     0.214 A 
ATOM      3  C   UNL     1       4.294  -4.771  36.079  1.00  0.00     0.180 A 
ATOM      4  O   UNL     1       4.859  -3.598  35.818  1.00  0.00    -0.452 OA
ATOM      5  C   UNL     1       2.951  -3.712  37.796  1.00  0.00     0.239 A 
ATOM      6  C   UNL     1       4.557  -2.481  36.466  1.00  0.00     0.146 A 
ATOM      7  O   UNL     1       2.085  -3.762  38.709  1.00  0.00    -0.285 OA
ATOM      8  C   UNL     1       3.592  -2.489  37.500  1.00  0.00     0.111 A 
ATOM      9  C   UNL     1       5.211  -1.296  36.119  1.00  0.00     0.094 A 
ATOM     10  C   UNL     1       3.307  -1.280  38.183  1.00  0.00     0.134 A 
ATOM     11  C   UNL     1       4.924  -0.106  36.796  1.00  0.00     0.123 A 
ATOM     12  C   UNL     1       3.978  -0.103  37.822  1.00  0.00     0.093 A 
BRANCH   3  13
ATOM     13  C   UNL     1       4.742  -5.943  35.302  1.00  0.00     0.025 A 
ATOM     14  C   UNL     1       4.038  -6.325  34.151  1.00  0.00     0.016 A 
ATOM     15  C   UNL     1       4.469  -7.412  33.387  1.00  0.00     0.051 A 
ATOM     16  C   UNL     1       5.619  -8.120  33.753  1.00  0.00     0.157 A 
ATOM     17  C   UNL     1       5.907  -6.643  35.658  1.00  0.00     0.062 A 
ATOM     18  C   UNL     1       6.346  -7.731  34.891  1.00  0.00     0.158 A 
BRANCH  16  19
ATOM     19  O   UNL     1       6.027  -9.201  32.972  1.00  0.00    -0.504 OA
ATOM     20  H   UNL     1       6.945  -9.242  32.546  1.00  0.00     0.293 HD
ENDBRANCH  16  19
BRANCH  18  21
ATOM     21  O   UNL     1       7.503  -8.420  35.251  1.00  0.00    -0.504 OA
ATOM     22  H   UNL     1       8.410  -7.968  35.255  1.00  0.00     0.293 HD
ENDBRANCH  18  21
ENDBRANCH   3  13
BRANCH  10  23
ATOM     23  O   UNL     1       2.367  -1.240  39.214  1.00  0.00    -0.507 OA
ATOM     24  H   UNL     1       2.402  -0.533  39.937  1.00  0.00     0.293 HD
ENDBRANCH  10  23
BRANCH  11  25
ATOM     25  O   UNL     1       5.575   1.078  36.456  1.00  0.00    -0.508 OA
ATOM     26  H   UNL     1       5.209   1.982  36.730  1.00  0.00     0.293 HD
ENDBRANCH  11  25
ENDBRANCH   1   2
BRANCH   1  27
ATOM     27  C   UNL     1       2.974  -7.126  38.210  1.00  0.00     0.339 C 
ATOM     28  C   UNL     1       1.718  -7.539  39.006  1.00  0.00     0.214 C 
ATOM     29  O   UNL     1       3.601  -8.252  37.613  1.00  0.00    -0.332 OA
ATOM     30  C   UNL     1       0.748  -8.369  38.144  1.00  0.00     0.180 C 
ATOM     31  C   UNL     1       2.736  -8.903  36.696  1.00  0.00     0.179 C 
ATOM     32  C   UNL     1       1.508  -9.497  37.425  1.00  0.00     0.177 C 
BRANCH  28  33
ATOM     33  O   UNL     1       1.078  -6.392  39.504  1.00  0.00    -0.384 OA
ATOM     34  H   UNL     1       1.769  -5.866  39.985  1.00  0.00     0.211 HD
ENDBRANCH  28  33
BRANCH  30  35
ATOM     35  O   UNL     1       0.111  -7.537  37.209  1.00  0.00    -0.387 OA
ATOM     36  H   UNL     1       0.784  -6.874  36.907  1.00  0.00     0.211 HD
ENDBRANCH  30  35
BRANCH  31  37
ATOM     37  C   UNL     1       3.527  -9.971  35.928  1.00  0.00     0.191 C 
BRANCH  37  38
ATOM     38  O   UNL     1       4.690 -10.327  36.626  1.00  0.00    -0.394 OA
ATOM     39  H   UNL     1       4.595 -11.290  36.844  1.00  0.00     0.210 HD
ENDBRANCH  37  38
ENDBRANCH  31  37
BRANCH  32  40
ATOM     40  O   UNL     1       1.907 -10.453  38.376  1.00  0.00    -0.387 OA
ATOM     41  H   UNL     1       2.863 -10.278  38.586  1.00  0.00     0.211 HD
ENDBRANCH  32  40
ENDBRANCH   1  27
TORSDOF 12
ENDMDL
MODEL 9
REMARK VINA RESULT:    -6.452      2.487      4.906
REMARK INTER + INTRA:         -11.128
REMARK INTER:                  -9.100
REMARK INTRA:                  -2.028
REMARK UNBOUND:                -1.657
REMARK SMILES O=c1c(O[C@@H]2O[C@@H](CO)[C@@H](O)[C@H](O)[C@@H]2O)c(-c2ccc(O)c(O)c2)oc2cc(O)cc(O)c12
REMARK SMILES IDX 4 1 3 2 16 3 25 4 2 5 26 6 1 7 33 8 27 9 31 10 28 11 30 12
REMARK SMILES IDX 17 13 18 14 19 15 20 16 24 17 22 18 21 19 23 21 32 23 29 25
REMARK SMILES IDX 5 27 14 28 6 29 12 30 7 31 10 32 15 33 13 35 8 37 9 38 11 40
REMARK H PARENT 21 20 23 22 32 24 29 26 15 34 13 36 9 39 11 41
REMARK Flexibility Score: inf
ROOT
ATOM      1  O   UNL     1       2.708  -4.727  37.376  1.00  0.00    -0.454 OA
ENDROOT
BRANCH   1   2
ATOM      2  C   UNL     1       3.790  -3.912  36.977  1.00  0.00     0.214 A 
ATOM      3  C   UNL     1       4.864  -4.523  36.296  1.00  0.00     0.180 A 
ATOM      4  O   UNL     1       5.865  -3.788  35.823  1.00  0.00    -0.452 OA
ATOM      5  C   UNL     1       3.847  -2.513  37.189  1.00  0.00     0.239 A 
ATOM      6  C   UNL     1       5.945  -2.475  35.983  1.00  0.00     0.146 A 
ATOM      7  O   UNL     1       2.930  -1.927  37.823  1.00  0.00    -0.285 OA
ATOM      8  C   UNL     1       4.941  -1.774  36.688  1.00  0.00     0.111 A 
ATOM      9  C   UNL     1       7.042  -1.792  35.451  1.00  0.00     0.094 A 
ATOM     10  C   UNL     1       5.068  -0.372  36.854  1.00  0.00     0.134 A 
ATOM     11  C   UNL     1       7.162  -0.408  35.616  1.00  0.00     0.123 A 
ATOM     12  C   UNL     1       6.179   0.294  36.316  1.00  0.00     0.093 A 
BRANCH   3  13
ATOM     13  C   UNL     1       4.911  -5.982  36.073  1.00  0.00     0.025 A 
ATOM     14  C   UNL     1       5.540  -6.809  37.015  1.00  0.00     0.016 A 
ATOM     15  C   UNL     1       5.563  -8.194  36.834  1.00  0.00     0.051 A 
ATOM     16  C   UNL     1       4.944  -8.771  35.721  1.00  0.00     0.157 A 
ATOM     17  C   UNL     1       4.274  -6.563  34.965  1.00  0.00     0.062 A 
ATOM     18  C   UNL     1       4.291  -7.953  34.783  1.00  0.00     0.158 A 
BRANCH  16  19
ATOM     19  O   UNL     1       4.983 -10.156  35.565  1.00  0.00    -0.504 OA
ATOM     20  H   UNL     1       4.615 -10.617  34.742  1.00  0.00     0.293 HD
ENDBRANCH  16  19
BRANCH  18  21
ATOM     21  O   UNL     1       3.655  -8.523  33.680  1.00  0.00    -0.504 OA
ATOM     22  H   UNL     1       2.958  -9.251  33.787  1.00  0.00     0.293 HD
ENDBRANCH  18  21
ENDBRANCH   3  13
BRANCH  10  23
ATOM     23  O   UNL     1       4.105   0.362  37.547  1.00  0.00    -0.507 OA
ATOM     24  H   UNL     1       3.198   0.563  37.145  1.00  0.00     0.293 HD
ENDBRANCH  10  23
BRANCH  11  25
ATOM     25  O   UNL     1       8.255   0.277  35.090  1.00  0.00    -0.508 OA
ATOM     26  H   UNL     1       8.158   1.204  34.693  1.00  0.00     0.293 HD
ENDBRANCH  11  25
ENDBRANCH   1   2
BRANCH   1  27
ATOM     27  C   UNL     1       2.473  -5.270  38.680  1.00  0.00     0.339 C 
ATOM     28  C   UNL     1       1.103  -4.818  39.226  1.00  0.00     0.214 C 
ATOM     29  O   UNL     1       2.589  -6.685  38.681  1.00  0.00    -0.332 OA
ATOM     30  C   UNL     1      -0.059  -5.509  38.485  1.00  0.00     0.180 C 
ATOM     31  C   UNL     1       1.606  -7.289  37.855  1.00  0.00     0.179 C 
ATOM     32  C   UNL     1       0.186  -7.025  38.410  1.00  0.00     0.177 C 
BRANCH  28  33
ATOM     33  O   UNL     1       0.991  -3.422  39.125  1.00  0.00    -0.384 OA
ATOM     34  H   UNL     1       1.906  -3.074  38.958  1.00  0.00     0.211 HD
ENDBRANCH  28  33
BRANCH  30  35
ATOM     35  O   UNL     1      -0.186  -4.970  37.194  1.00  0.00    -0.387 OA
ATOM     36  H   UNL     1       0.079  -4.016  37.251  1.00  0.00     0.211 HD
ENDBRANCH  30  35
BRANCH  31  37
ATOM     37  C   UNL     1       1.908  -8.787  37.723  1.00  0.00     0.191 C 
BRANCH  37  38
ATOM     38  O   UNL     1       2.207  -9.347  38.973  1.00  0.00    -0.394 OA
ATOM     39  H   UNL     1       1.391  -9.235  39.526  1.00  0.00     0.210 HD
ENDBRANCH  37  38
ENDBRANCH  31  37
BRANCH  32  40
ATOM     40  O   UNL     1       0.045  -7.573  39.697  1.00  0.00    -0.387 OA
ATOM     41  H   UNL     1       0.945  -7.568  40.120  1.00  0.00     0.211 HD
ENDBRANCH  32  40
ENDBRANCH   1  27
TORSDOF 12
ENDMDL
