MODEL 1
REMARK VINA RESULT:     9.330      0.000      0.000
REMARK INTER + INTRA:          11.318
REMARK INTER:                  11.239
REMARK INTRA:                   0.079
REMARK UNBOUND:                 0.079
REMARK SMILES O=c1c(O)c(-c2ccc(O)c(O)c2)oc2cc(O)cc(O)c12
REMARK SMILES IDX 5 1 3 2 2 3 1 4 22 5 20 6 19 7 17 8 16 9 15 10 14 11 6 12
REMARK SMILES IDX 7 13 8 14 9 15 13 16 11 17 10 18 12 20 4 22 21 24 18 26
REMARK H PARENT 10 19 12 21 4 23 21 25 18 27
REMARK Flexibility Score: inf
ROOT
ATOM      1  C   UNL     1      25.346  -4.204 -18.165  1.00  0.00     0.180 A 
ATOM      2  C   UNL     1      26.155  -3.579 -19.129  1.00  0.00     0.208 A 
ATOM      3  C   UNL     1      26.356  -2.191 -19.054  1.00  0.00     0.238 A 
ATOM      4  O   UNL     1      27.125  -1.645 -19.888  1.00  0.00    -0.285 OA
ATOM      5  C   UNL     1      25.732  -1.445 -18.025  1.00  0.00     0.111 A 
ATOM      6  C   UNL     1      25.834  -0.028 -17.876  1.00  0.00     0.134 A 
ATOM      7  C   UNL     1      25.282   0.588 -16.746  1.00  0.00     0.093 A 
ATOM      8  C   UNL     1      24.577  -0.152 -15.793  1.00  0.00     0.123 A 
ATOM      9  C   UNL     1      24.422  -1.526 -15.961  1.00  0.00     0.094 A 
ATOM     10  C   UNL     1      24.992  -2.175 -17.059  1.00  0.00     0.146 A 
ATOM     11  O   UNL     1      24.829  -3.487 -17.176  1.00  0.00    -0.452 OA
ENDROOT
BRANCH   1  12
ATOM     12  C   UNL     1      25.068  -5.659 -18.195  1.00  0.00     0.025 A 
ATOM     13  C   UNL     1      23.747  -6.111 -18.063  1.00  0.00     0.016 A 
ATOM     14  C   UNL     1      23.461  -7.476 -18.108  1.00  0.00     0.051 A 
ATOM     15  C   UNL     1      24.480  -8.415 -18.301  1.00  0.00     0.157 A 
ATOM     16  C   UNL     1      26.092  -6.596 -18.412  1.00  0.00     0.062 A 
ATOM     17  C   UNL     1      25.813  -7.968 -18.462  1.00  0.00     0.158 A 
BRANCH  15  18
ATOM     18  O   UNL     1      24.128  -9.765 -18.330  1.00  0.00    -0.504 OA
ATOM     19  H   UNL     1      24.788 -10.519 -18.456  1.00  0.00     0.293 HD
ENDBRANCH  15  18
BRANCH  17  20
ATOM     20  O   UNL     1      26.880  -8.843 -18.679  1.00  0.00    -0.504 OA
ATOM     21  H   UNL     1      26.773  -9.802 -18.973  1.00  0.00     0.293 HD
ENDBRANCH  17  20
ENDBRANCH   1  12
BRANCH   2  22
ATOM     22  O   UNL     1      26.779  -4.338 -20.125  1.00  0.00    -0.502 OA
ATOM     23  H   UNL     1      26.983  -3.966 -21.044  1.00  0.00     0.293 HD
ENDBRANCH   2  22
BRANCH   6  24
ATOM     24  O   UNL     1      26.436   0.814 -18.815  1.00  0.00    -0.507 OA
ATOM     25  H   UNL     1      26.920   1.671 -18.593  1.00  0.00     0.293 HD
ENDBRANCH   6  24
BRANCH   8  26
ATOM     26  O   UNL     1      24.019   0.472 -14.681  1.00  0.00    -0.508 OA
ATOM     27  H   UNL     1      24.251   1.427 -14.435  1.00  0.00     0.293 HD
ENDBRANCH   8  26
TORSDOF 6
ENDMDL
