MODEL 1
REMARK VINA RESULT:    -5.686      0.000      0.000
REMARK INTER + INTRA:          -7.056
REMARK INTER:                  -6.850
REMARK INTRA:                  -0.206
REMARK UNBOUND:                -0.206
REMARK SMILES O=c1c(O)c(-c2ccc(O)c(O)c2)oc2cc(O)cc(O)c12
REMARK SMILES IDX 5 1 3 2 2 3 1 4 22 5 20 6 19 7 17 8 16 9 15 10 14 11 6 12
REMARK SMILES IDX 7 13 8 14 9 15 13 16 11 17 10 18 12 20 4 22 21 24 18 26
REMARK H PARENT 10 19 12 21 4 23 21 25 18 27
REMARK Flexibility Score: inf
ROOT
ATOM      1  C   UNL     1      59.366  -4.440  -7.921  1.00  0.00     0.180 A 
ATOM      2  C   UNL     1      60.450  -4.068  -8.735  1.00  0.00     0.208 A 
ATOM      3  C   UNL     1      61.678  -3.755  -8.130  1.00  0.00     0.238 A 
ATOM      4  O   UNL     1      62.660  -3.475  -8.865  1.00  0.00    -0.285 OA
ATOM      5  C   UNL     1      61.801  -3.801  -6.720  1.00  0.00     0.111 A 
ATOM      6  C   UNL     1      62.986  -3.465  -5.998  1.00  0.00     0.134 A 
ATOM      7  C   UNL     1      63.034  -3.673  -4.615  1.00  0.00     0.093 A 
ATOM      8  C   UNL     1      61.922  -4.141  -3.917  1.00  0.00     0.123 A 
ATOM      9  C   UNL     1      60.738  -4.417  -4.604  1.00  0.00     0.094 A 
ATOM     10  C   UNL     1      60.671  -4.255  -5.990  1.00  0.00     0.146 A 
ATOM     11  O   UNL     1      59.531  -4.538  -6.607  1.00  0.00    -0.452 OA
ENDROOT
BRANCH   1  12
ATOM     12  C   UNL     1      58.033  -4.761  -8.484  1.00  0.00     0.025 A 
ATOM     13  C   UNL     1      57.822  -5.918  -9.253  1.00  0.00     0.016 A 
ATOM     14  C   UNL     1      56.563  -6.188  -9.793  1.00  0.00     0.051 A 
ATOM     15  C   UNL     1      55.498  -5.299  -9.585  1.00  0.00     0.157 A 
ATOM     16  C   UNL     1      56.970  -3.863  -8.296  1.00  0.00     0.062 A 
ATOM     17  C   UNL     1      55.706  -4.130  -8.836  1.00  0.00     0.158 A 
BRANCH  15  18
ATOM     18  O   UNL     1      54.242  -5.571 -10.125  1.00  0.00    -0.504 OA
ATOM     19  H   UNL     1      54.130  -6.186 -10.923  1.00  0.00     0.293 HD
ENDBRANCH  15  18
BRANCH  17  20
ATOM     20  O   UNL     1      54.670  -3.222  -8.617  1.00  0.00    -0.504 OA
ATOM     21  H   UNL     1      54.841  -2.281  -8.280  1.00  0.00     0.293 HD
ENDBRANCH  17  20
ENDBRANCH   1  12
BRANCH   2  22
ATOM     22  O   UNL     1      60.313  -4.050 -10.125  1.00  0.00    -0.502 OA
ATOM     23  H   UNL     1      60.331  -3.192 -10.663  1.00  0.00     0.293 HD
ENDBRANCH   2  22
BRANCH   6  24
ATOM     24  O   UNL     1      64.123  -2.903  -6.585  1.00  0.00    -0.507 OA
ATOM     25  H   UNL     1      64.885  -2.480  -6.075  1.00  0.00     0.293 HD
ENDBRANCH   6  24
BRANCH   8  26
ATOM     26  O   UNL     1      62.000  -4.321  -2.538  1.00  0.00    -0.508 OA
ATOM     27  H   UNL     1      61.291  -4.836  -2.030  1.00  0.00     0.293 HD
ENDBRANCH   8  26
TORSDOF 6
ENDMDL
MODEL 2
REMARK VINA RESULT:    -5.528     12.393     15.108
REMARK INTER + INTRA:          -6.866
REMARK INTER:                  -6.535
REMARK INTRA:                  -0.330
REMARK UNBOUND:                -0.206
REMARK SMILES O=c1c(O)c(-c2ccc(O)c(O)c2)oc2cc(O)cc(O)c12
REMARK SMILES IDX 5 1 3 2 2 3 1 4 22 5 20 6 19 7 17 8 16 9 15 10 14 11 6 12
REMARK SMILES IDX 7 13 8 14 9 15 13 16 11 17 10 18 12 20 4 22 21 24 18 26
REMARK H PARENT 10 19 12 21 4 23 21 25 18 27
REMARK Flexibility Score: inf
ROOT
ATOM      1  C   UNL     1      46.758  -7.965  -1.868  1.00  0.00     0.180 A 
ATOM      2  C   UNL     1      45.714  -7.168  -1.368  1.00  0.00     0.208 A 
ATOM      3  C   UNL     1      45.476  -7.149   0.016  1.00  0.00     0.238 A 
ATOM      4  O   UNL     1      44.576  -6.392   0.465  1.00  0.00    -0.285 OA
ATOM      5  C   UNL     1      46.274  -7.939   0.879  1.00  0.00     0.111 A 
ATOM      6  C   UNL     1      46.096  -8.027   2.293  1.00  0.00     0.134 A 
ATOM      7  C   UNL     1      47.025  -8.737   3.063  1.00  0.00     0.093 A 
ATOM      8  C   UNL     1      48.086  -9.416   2.466  1.00  0.00     0.123 A 
ATOM      9  C   UNL     1      48.236  -9.386   1.079  1.00  0.00     0.094 A 
ATOM     10  C   UNL     1      47.346  -8.655   0.287  1.00  0.00     0.146 A 
ATOM     11  O   UNL     1      47.529  -8.644  -1.027  1.00  0.00    -0.452 OA
ENDROOT
BRANCH   1  12
ATOM     12  C   UNL     1      47.053  -8.057  -3.317  1.00  0.00     0.025 A 
ATOM     13  C   UNL     1      46.458  -9.042  -4.125  1.00  0.00     0.016 A 
ATOM     14  C   UNL     1      46.770  -9.125  -5.483  1.00  0.00     0.051 A 
ATOM     15  C   UNL     1      47.690  -8.234  -6.054  1.00  0.00     0.157 A 
ATOM     16  C   UNL     1      47.991  -7.182  -3.888  1.00  0.00     0.062 A 
ATOM     17  C   UNL     1      48.306  -7.261  -5.250  1.00  0.00     0.158 A 
BRANCH  15  18
ATOM     18  O   UNL     1      47.999  -8.319  -7.411  1.00  0.00    -0.504 OA
ATOM     19  H   UNL     1      48.142  -7.489  -7.974  1.00  0.00     0.293 HD
ENDBRANCH  15  18
BRANCH  17  20
ATOM     20  O   UNL     1      49.232  -6.366  -5.784  1.00  0.00    -0.504 OA
ATOM     21  H   UNL     1      49.399  -6.295  -6.781  1.00  0.00     0.293 HD
ENDBRANCH  17  20
ENDBRANCH   1  12
BRANCH   2  22
ATOM     22  O   UNL     1      44.953  -6.380  -2.234  1.00  0.00    -0.502 OA
ATOM     23  H   UNL     1      43.950  -6.487  -2.329  1.00  0.00     0.293 HD
ENDBRANCH   2  22
BRANCH   6  24
ATOM     24  O   UNL     1      45.017  -7.463   2.980  1.00  0.00    -0.507 OA
ATOM     25  H   UNL     1      44.445  -6.707   2.633  1.00  0.00     0.293 HD
ENDBRANCH   6  24
BRANCH   8  26
ATOM     26  O   UNL     1      48.983 -10.125   3.262  1.00  0.00    -0.508 OA
ATOM     27  H   UNL     1      49.910 -10.366   2.930  1.00  0.00     0.293 HD
ENDBRANCH   8  26
TORSDOF 6
ENDMDL
MODEL 3
REMARK VINA RESULT:    -5.466     11.391     14.340
REMARK INTER + INTRA:          -6.790
REMARK INTER:                  -6.467
REMARK INTRA:                  -0.323
REMARK UNBOUND:                -0.206
REMARK SMILES O=c1c(O)c(-c2ccc(O)c(O)c2)oc2cc(O)cc(O)c12
REMARK SMILES IDX 5 1 3 2 2 3 1 4 22 5 20 6 19 7 17 8 16 9 15 10 14 11 6 12
REMARK SMILES IDX 7 13 8 14 9 15 13 16 11 17 10 18 12 20 4 22 21 24 18 26
REMARK H PARENT 10 19 12 21 4 23 21 25 18 27
REMARK Flexibility Score: inf
ROOT
ATOM      1  C   UNL     1      47.661  -8.229  -2.879  1.00  0.00     0.180 A 
ATOM      2  C   UNL     1      48.407  -9.155  -2.131  1.00  0.00     0.208 A 
ATOM      3  C   UNL     1      48.178  -9.256  -0.750  1.00  0.00     0.238 A 
ATOM      4  O   UNL     1      48.810 -10.125  -0.094  1.00  0.00    -0.285 OA
ATOM      5  C   UNL     1      47.217  -8.420  -0.132  1.00  0.00     0.111 A 
ATOM      6  C   UNL     1      46.931  -8.409   1.267  1.00  0.00     0.134 A 
ATOM      7  C   UNL     1      45.870  -7.634   1.749  1.00  0.00     0.093 A 
ATOM      8  C   UNL     1      45.127  -6.819   0.895  1.00  0.00     0.123 A 
ATOM      9  C   UNL     1      45.436  -6.776  -0.465  1.00  0.00     0.094 A 
ATOM     10  C   UNL     1      46.466  -7.567  -0.981  1.00  0.00     0.146 A 
ATOM     11  O   UNL     1      46.722  -7.505  -2.282  1.00  0.00    -0.452 OA
ENDROOT
BRANCH   1  12
ATOM     12  C   UNL     1      47.864  -8.046  -4.335  1.00  0.00     0.025 A 
ATOM     13  C   UNL     1      47.145  -8.805  -5.275  1.00  0.00     0.016 A 
ATOM     14  C   UNL     1      47.371  -8.633  -6.643  1.00  0.00     0.051 A 
ATOM     15  C   UNL     1      48.326  -7.711  -7.092  1.00  0.00     0.157 A 
ATOM     16  C   UNL     1      48.836  -7.140  -4.789  1.00  0.00     0.062 A 
ATOM     17  C   UNL     1      49.064  -6.964  -6.159  1.00  0.00     0.158 A 
BRANCH  15  18
ATOM     18  O   UNL     1      48.548  -7.540  -8.458  1.00  0.00    -0.504 OA
ATOM     19  H   UNL     1      49.017  -8.248  -9.011  1.00  0.00     0.293 HD
ENDBRANCH  15  18
BRANCH  17  20
ATOM     20  O   UNL     1      50.027  -6.045  -6.573  1.00  0.00    -0.504 OA
ATOM     21  H   UNL     1      49.955  -5.057  -6.361  1.00  0.00     0.293 HD
ENDBRANCH  17  20
ENDBRANCH   1  12
BRANCH   2  22
ATOM     22  O   UNL     1      49.335  -9.986  -2.764  1.00  0.00    -0.502 OA
ATOM     23  H   UNL     1      50.323  -9.968  -2.543  1.00  0.00     0.293 HD
ENDBRANCH   2  22
BRANCH   6  24
ATOM     24  O   UNL     1      47.670  -9.115   2.220  1.00  0.00    -0.507 OA
ATOM     25  H   UNL     1      47.272  -9.680   2.955  1.00  0.00     0.293 HD
ENDBRANCH   6  24
BRANCH   8  26
ATOM     26  O   UNL     1      44.088  -6.049   1.412  1.00  0.00    -0.508 OA
ATOM     27  H   UNL     1      43.602  -6.315   2.260  1.00  0.00     0.293 HD
ENDBRANCH   8  26
TORSDOF 6
ENDMDL
MODEL 4
REMARK VINA RESULT:    -5.321      9.911     13.780
REMARK INTER + INTRA:          -6.616
REMARK INTER:                  -6.294
REMARK INTRA:                  -0.322
REMARK UNBOUND:                -0.206
REMARK SMILES O=c1c(O)c(-c2ccc(O)c(O)c2)oc2cc(O)cc(O)c12
REMARK SMILES IDX 5 1 3 2 2 3 1 4 22 5 20 6 19 7 17 8 16 9 15 10 14 11 6 12
REMARK SMILES IDX 7 13 8 14 9 15 13 16 11 17 10 18 12 20 4 22 21 24 18 26
REMARK H PARENT 10 19 12 21 4 23 21 25 18 27
REMARK Flexibility Score: inf
ROOT
ATOM      1  C   UNL     1      47.639  -8.134  -4.508  1.00  0.00     0.180 A 
ATOM      2  C   UNL     1      46.908  -8.976  -5.364  1.00  0.00     0.208 A 
ATOM      3  C   UNL     1      47.167  -8.933  -6.744  1.00  0.00     0.238 A 
ATOM      4  O   UNL     1      46.548  -9.727  -7.500  1.00  0.00    -0.285 OA
ATOM      5  C   UNL     1      48.140  -8.038  -7.251  1.00  0.00     0.111 A 
ATOM      6  C   UNL     1      48.456  -7.883  -8.635  1.00  0.00     0.134 A 
ATOM      7  C   UNL     1      49.527  -7.064  -9.010  1.00  0.00     0.093 A 
ATOM      8  C   UNL     1      50.251  -6.344  -8.061  1.00  0.00     0.123 A 
ATOM      9  C   UNL     1      49.914  -6.443  -6.711  1.00  0.00     0.094 A 
ATOM     10  C   UNL     1      48.874  -7.281  -6.301  1.00  0.00     0.146 A 
ATOM     11  O   UNL     1      48.591  -7.354  -5.006  1.00  0.00    -0.452 OA
ENDROOT
BRANCH   1  12
ATOM     12  C   UNL     1      47.406  -8.104  -3.046  1.00  0.00     0.025 A 
ATOM     13  C   UNL     1      48.131  -8.932  -2.171  1.00  0.00     0.016 A 
ATOM     14  C   UNL     1      47.878  -8.905  -0.798  1.00  0.00     0.051 A 
ATOM     15  C   UNL     1      46.886  -8.060  -0.278  1.00  0.00     0.157 A 
ATOM     16  C   UNL     1      46.399  -7.277  -2.523  1.00  0.00     0.062 A 
ATOM     17  C   UNL     1      46.142  -7.245  -1.147  1.00  0.00     0.158 A 
BRANCH  15  18
ATOM     18  O   UNL     1      46.636  -8.034   1.093  1.00  0.00    -0.504 OA
ATOM     19  H   UNL     1      46.117  -7.276   1.522  1.00  0.00     0.293 HD
ENDBRANCH  15  18
BRANCH  17  20
ATOM     20  O   UNL     1      45.144  -6.400  -0.664  1.00  0.00    -0.504 OA
ATOM     21  H   UNL     1      45.308  -5.415  -0.494  1.00  0.00     0.293 HD
ENDBRANCH  17  20
ENDBRANCH   1  12
BRANCH   2  22
ATOM     22  O   UNL     1      45.968  -9.867  -4.841  1.00  0.00    -0.502 OA
ATOM     23  H   UNL     1      46.231 -10.678  -4.295  1.00  0.00     0.293 HD
ENDBRANCH   2  22
BRANCH   6  24
ATOM     24  O   UNL     1      47.736  -8.484  -9.671  1.00  0.00    -0.507 OA
ATOM     25  H   UNL     1      47.582  -8.072 -10.579  1.00  0.00     0.293 HD
ENDBRANCH   6  24
BRANCH   8  26
ATOM     26  O   UNL     1      51.301  -5.527  -8.473  1.00  0.00    -0.508 OA
ATOM     27  H   UNL     1      51.858  -5.750  -9.290  1.00  0.00     0.293 HD
ENDBRANCH   8  26
TORSDOF 6
ENDMDL
MODEL 5
REMARK VINA RESULT:    -4.882     11.771     15.362
REMARK INTER + INTRA:          -6.087
REMARK INTER:                  -5.766
REMARK INTRA:                  -0.321
REMARK UNBOUND:                -0.206
REMARK SMILES O=c1c(O)c(-c2ccc(O)c(O)c2)oc2cc(O)cc(O)c12
REMARK SMILES IDX 5 1 3 2 2 3 1 4 22 5 20 6 19 7 17 8 16 9 15 10 14 11 6 12
REMARK SMILES IDX 7 13 8 14 9 15 13 16 11 17 10 18 12 20 4 22 21 24 18 26
REMARK H PARENT 10 19 12 21 4 23 21 25 18 27
REMARK Flexibility Score: inf
ROOT
ATOM      1  C   UNL     1      46.524  -8.276  -2.296  1.00  0.00     0.180 A 
ATOM      2  C   UNL     1      45.714  -9.157  -3.033  1.00  0.00     0.208 A 
ATOM      3  C   UNL     1      45.938  -9.294  -4.412  1.00  0.00     0.238 A 
ATOM      4  O   UNL     1      45.246 -10.125  -5.057  1.00  0.00    -0.285 OA
ATOM      5  C   UNL     1      46.957  -8.537  -5.039  1.00  0.00     0.111 A 
ATOM      6  C   UNL     1      47.244  -8.567  -6.438  1.00  0.00     0.134 A 
ATOM      7  C   UNL     1      48.359  -7.876  -6.928  1.00  0.00     0.093 A 
ATOM      8  C   UNL     1      49.157  -7.104  -6.085  1.00  0.00     0.123 A 
ATOM      9  C   UNL     1      48.850  -7.020  -4.726  1.00  0.00     0.094 A 
ATOM     10  C   UNL     1      47.766  -7.728  -4.200  1.00  0.00     0.146 A 
ATOM     11  O   UNL     1      47.514  -7.629  -2.901  1.00  0.00    -0.452 OA
ENDROOT
BRANCH   1  12
ATOM     12  C   UNL     1      46.333  -8.059  -0.843  1.00  0.00     0.025 A 
ATOM     13  C   UNL     1      47.027  -8.825   0.109  1.00  0.00     0.016 A 
ATOM     14  C   UNL     1      46.812  -8.620   1.474  1.00  0.00     0.051 A 
ATOM     15  C   UNL     1      45.893  -7.654   1.908  1.00  0.00     0.157 A 
ATOM     16  C   UNL     1      45.397  -7.109  -0.404  1.00  0.00     0.062 A 
ATOM     17  C   UNL     1      45.180  -6.899   0.963  1.00  0.00     0.158 A 
BRANCH  15  18
ATOM     18  O   UNL     1      45.682  -7.450   3.271  1.00  0.00    -0.504 OA
ATOM     19  H   UNL     1      46.443  -7.498   3.938  1.00  0.00     0.293 HD
ENDBRANCH  15  18
BRANCH  17  20
ATOM     20  O   UNL     1      44.252  -5.937   1.362  1.00  0.00    -0.504 OA
ATOM     21  H   UNL     1      44.326  -5.453   2.249  1.00  0.00     0.293 HD
ENDBRANCH  17  20
ENDBRANCH   1  12
BRANCH   2  22
ATOM     22  O   UNL     1      44.729  -9.911  -2.390  1.00  0.00    -0.502 OA
ATOM     23  H   UNL     1      44.826 -10.905  -2.224  1.00  0.00     0.293 HD
ENDBRANCH   2  22
BRANCH   6  24
ATOM     24  O   UNL     1      46.457  -9.232  -7.382  1.00  0.00    -0.507 OA
ATOM     25  H   UNL     1      46.572 -10.199  -7.648  1.00  0.00     0.293 HD
ENDBRANCH   6  24
BRANCH   8  26
ATOM     26  O   UNL     1      50.249  -6.417  -6.610  1.00  0.00    -0.508 OA
ATOM     27  H   UNL     1      50.394  -5.431  -6.425  1.00  0.00     0.293 HD
ENDBRANCH   8  26
TORSDOF 6
ENDMDL
MODEL 6
REMARK VINA RESULT:    -4.800     12.320     15.179
REMARK INTER + INTRA:          -5.988
REMARK INTER:                  -5.667
REMARK INTRA:                  -0.320
REMARK UNBOUND:                -0.206
REMARK SMILES O=c1c(O)c(-c2ccc(O)c(O)c2)oc2cc(O)cc(O)c12
REMARK SMILES IDX 5 1 3 2 2 3 1 4 22 5 20 6 19 7 17 8 16 9 15 10 14 11 6 12
REMARK SMILES IDX 7 13 8 14 9 15 13 16 11 17 10 18 12 20 4 22 21 24 18 26
REMARK H PARENT 10 19 12 21 4 23 21 25 18 27
REMARK Flexibility Score: inf
ROOT
ATOM      1  C   UNL     1      47.071  -8.596  -1.990  1.00  0.00     0.180 A 
ATOM      2  C   UNL     1      45.713  -8.941  -1.878  1.00  0.00     0.208 A 
ATOM      3  C   UNL     1      45.104  -8.905  -0.614  1.00  0.00     0.238 A 
ATOM      4  O   UNL     1      43.875  -9.163  -0.527  1.00  0.00    -0.285 OA
ATOM      5  C   UNL     1      45.864  -8.541   0.525  1.00  0.00     0.111 A 
ATOM      6  C   UNL     1      45.359  -8.510   1.860  1.00  0.00     0.134 A 
ATOM      7  C   UNL     1      46.164  -8.009   2.890  1.00  0.00     0.093 A 
ATOM      8  C   UNL     1      47.474  -7.601   2.648  1.00  0.00     0.123 A 
ATOM      9  C   UNL     1      47.998  -7.682   1.356  1.00  0.00     0.094 A 
ATOM     10  C   UNL     1      47.207  -8.143   0.301  1.00  0.00     0.146 A 
ATOM     11  O   UNL     1      47.739  -8.196  -0.914  1.00  0.00    -0.452 OA
ENDROOT
BRANCH   1  12
ATOM     12  C   UNL     1      47.789  -8.633  -3.285  1.00  0.00     0.025 A 
ATOM     13  C   UNL     1      48.537  -9.758  -3.674  1.00  0.00     0.016 A 
ATOM     14  C   UNL     1      49.226  -9.762  -4.889  1.00  0.00     0.051 A 
ATOM     15  C   UNL     1      49.190  -8.639  -5.727  1.00  0.00     0.157 A 
ATOM     16  C   UNL     1      47.774  -7.503  -4.117  1.00  0.00     0.062 A 
ATOM     17  C   UNL     1      48.462  -7.503  -5.336  1.00  0.00     0.158 A 
BRANCH  15  18
ATOM     18  O   UNL     1      49.877  -8.646  -6.940  1.00  0.00    -0.504 OA
ATOM     19  H   UNL     1      50.839  -8.333  -7.006  1.00  0.00     0.293 HD
ENDBRANCH  15  18
BRANCH  17  20
ATOM     20  O   UNL     1      48.412  -6.367  -6.143  1.00  0.00    -0.504 OA
ATOM     21  H   UNL     1      49.245  -5.961  -6.554  1.00  0.00     0.293 HD
ENDBRANCH  17  20
ENDBRANCH   1  12
BRANCH   2  22
ATOM     22  O   UNL     1      44.976  -9.276  -3.017  1.00  0.00    -0.502 OA
ATOM     23  H   UNL     1      44.610  -8.578  -3.653  1.00  0.00     0.293 HD
ENDBRANCH   2  22
BRANCH   6  24
ATOM     24  O   UNL     1      44.096  -8.981   2.228  1.00  0.00    -0.507 OA
ATOM     25  H   UNL     1      43.281  -8.400   2.362  1.00  0.00     0.293 HD
ENDBRANCH   6  24
BRANCH   8  26
ATOM     26  O   UNL     1      48.251  -7.122   3.700  1.00  0.00    -0.508 OA
ATOM     27  H   UNL     1      49.212  -7.418   3.826  1.00  0.00     0.293 HD
ENDBRANCH   8  26
TORSDOF 6
ENDMDL
MODEL 7
REMARK VINA RESULT:    -4.309     11.455     14.288
REMARK INTER + INTRA:          -5.397
REMARK INTER:                  -5.456
REMARK INTRA:                   0.058
REMARK UNBOUND:                -0.206
REMARK SMILES O=c1c(O)c(-c2ccc(O)c(O)c2)oc2cc(O)cc(O)c12
REMARK SMILES IDX 5 1 3 2 2 3 1 4 22 5 20 6 19 7 17 8 16 9 15 10 14 11 6 12
REMARK SMILES IDX 7 13 8 14 9 15 13 16 11 17 10 18 12 20 4 22 21 24 18 26
REMARK H PARENT 10 19 12 21 4 23 21 25 18 27
REMARK Flexibility Score: inf
ROOT
ATOM      1  C   UNL     1      47.332  -8.039  -3.062  1.00  0.00     0.180 A 
ATOM      2  C   UNL     1      48.368  -8.969  -2.872  1.00  0.00     0.208 A 
ATOM      3  C   UNL     1      49.165  -9.333  -3.969  1.00  0.00     0.238 A 
ATOM      4  O   UNL     1      50.125 -10.125  -3.782  1.00  0.00    -0.285 OA
ATOM      5  C   UNL     1      48.906  -8.774  -5.244  1.00  0.00     0.111 A 
ATOM      6  C   UNL     1      49.626  -9.101  -6.433  1.00  0.00     0.134 A 
ATOM      7  C   UNL     1      49.370  -8.390  -7.612  1.00  0.00     0.093 A 
ATOM      8  C   UNL     1      48.378  -7.412  -7.663  1.00  0.00     0.123 A 
ATOM      9  C   UNL     1      47.627  -7.126  -6.521  1.00  0.00     0.094 A 
ATOM     10  C   UNL     1      47.885  -7.792  -5.320  1.00  0.00     0.146 A 
ATOM     11  O   UNL     1      47.156  -7.484  -4.255  1.00  0.00    -0.452 OA
ENDROOT
BRANCH   1  12
ATOM     12  C   UNL     1      46.433  -7.626  -1.959  1.00  0.00     0.025 A 
ATOM     13  C   UNL     1      45.038  -7.585  -2.128  1.00  0.00     0.016 A 
ATOM     14  C   UNL     1      44.211  -7.169  -1.083  1.00  0.00     0.051 A 
ATOM     15  C   UNL     1      44.765  -6.774   0.143  1.00  0.00     0.157 A 
ATOM     16  C   UNL     1      46.984  -7.209  -0.737  1.00  0.00     0.062 A 
ATOM     17  C   UNL     1      46.159  -6.792   0.314  1.00  0.00     0.158 A 
BRANCH  15  18
ATOM     18  O   UNL     1      43.937  -6.361   1.186  1.00  0.00    -0.504 OA
ATOM     19  H   UNL     1      43.782  -6.941   2.002  1.00  0.00     0.293 HD
ENDBRANCH  15  18
BRANCH  17  20
ATOM     20  O   UNL     1      46.742  -6.398   1.518  1.00  0.00    -0.504 OA
ATOM     21  H   UNL     1      46.506  -5.522   1.969  1.00  0.00     0.293 HD
ENDBRANCH  17  20
ENDBRANCH   1  12
BRANCH   2  22
ATOM     22  O   UNL     1      48.620  -9.492  -1.601  1.00  0.00    -0.502 OA
ATOM     23  H   UNL     1      49.548  -9.759  -1.296  1.00  0.00     0.293 HD
ENDBRANCH   2  22
BRANCH   6  24
ATOM     24  O   UNL     1      50.574 -10.125  -6.515  1.00  0.00    -0.507 OA
ATOM     25  H   UNL     1      50.560 -10.869  -7.196  1.00  0.00     0.293 HD
ENDBRANCH   6  24
BRANCH   8  26
ATOM     26  O   UNL     1      48.139  -6.736  -8.857  1.00  0.00    -0.508 OA
ATOM     27  H   UNL     1      47.198  -6.518  -9.164  1.00  0.00     0.293 HD
ENDBRANCH   8  26
TORSDOF 6
ENDMDL
MODEL 8
REMARK VINA RESULT:    -4.237     11.569     13.884
REMARK INTER + INTRA:          -5.310
REMARK INTER:                  -5.781
REMARK INTRA:                   0.471
REMARK UNBOUND:                -0.206
REMARK SMILES O=c1c(O)c(-c2ccc(O)c(O)c2)oc2cc(O)cc(O)c12
REMARK SMILES IDX 5 1 3 2 2 3 1 4 22 5 20 6 19 7 17 8 16 9 15 10 14 11 6 12
REMARK SMILES IDX 7 13 8 14 9 15 13 16 11 17 10 18 12 20 4 22 21 24 18 26
REMARK H PARENT 10 19 12 21 4 23 21 25 18 27
REMARK Flexibility Score: inf
ROOT
ATOM      1  C   UNL     1      47.883  -8.350  -4.243  1.00  0.00     0.180 A 
ATOM      2  C   UNL     1      48.976  -9.214  -4.424  1.00  0.00     0.208 A 
ATOM      3  C   UNL     1      49.496  -9.393  -5.715  1.00  0.00     0.238 A 
ATOM      4  O   UNL     1      50.509 -10.125  -5.864  1.00  0.00    -0.285 OA
ATOM      5  C   UNL     1      48.907  -8.718  -6.812  1.00  0.00     0.111 A 
ATOM      6  C   UNL     1      49.326  -8.855  -8.170  1.00  0.00     0.134 A 
ATOM      7  C   UNL     1      48.756  -8.040  -9.154  1.00  0.00     0.093 A 
ATOM      8  C   UNL     1      47.737  -7.141  -8.844  1.00  0.00     0.123 A 
ATOM      9  C   UNL     1      47.277  -7.040  -7.530  1.00  0.00     0.094 A 
ATOM     10  C   UNL     1      47.852  -7.814  -6.519  1.00  0.00     0.146 A 
ATOM     11  O   UNL     1      47.394  -7.681  -5.281  1.00  0.00    -0.452 OA
ENDROOT
BRANCH   1  12
ATOM     12  C   UNL     1      47.264  -8.130  -2.915  1.00  0.00     0.025 A 
ATOM     13  C   UNL     1      47.791  -8.722  -1.754  1.00  0.00     0.016 A 
ATOM     14  C   UNL     1      47.177  -8.521  -0.517  1.00  0.00     0.051 A 
ATOM     15  C   UNL     1      46.019  -7.736  -0.421  1.00  0.00     0.157 A 
ATOM     16  C   UNL     1      46.092  -7.363  -2.817  1.00  0.00     0.062 A 
ATOM     17  C   UNL     1      45.473  -7.158  -1.579  1.00  0.00     0.158 A 
BRANCH  15  18
ATOM     18  O   UNL     1      45.409  -7.535   0.816  1.00  0.00    -0.504 OA
ATOM     19  H   UNL     1      44.920  -8.284   1.294  1.00  0.00     0.293 HD
ENDBRANCH  15  18
BRANCH  17  20
ATOM     20  O   UNL     1      44.318  -6.379  -1.519  1.00  0.00    -0.504 OA
ATOM     21  H   UNL     1      43.402  -6.758  -1.727  1.00  0.00     0.293 HD
ENDBRANCH  17  20
ENDBRANCH   1  12
BRANCH   2  22
ATOM     22  O   UNL     1      49.557  -9.853  -3.325  1.00  0.00    -0.502 OA
ATOM     23  H   UNL     1      50.451 -10.326  -3.380  1.00  0.00     0.293 HD
ENDBRANCH   2  22
BRANCH   6  24
ATOM     24  O   UNL     1      50.272  -9.789  -8.603  1.00  0.00    -0.507 OA
ATOM     25  H   UNL     1      51.271  -9.685  -8.502  1.00  0.00     0.293 HD
ENDBRANCH   6  24
BRANCH   8  26
ATOM     26  O   UNL     1      47.181  -6.357  -9.853  1.00  0.00    -0.508 OA
ATOM     27  H   UNL     1      46.178  -6.244  -9.945  1.00  0.00     0.293 HD
ENDBRANCH   8  26
TORSDOF 6
ENDMDL
MODEL 9
REMARK VINA RESULT:    -4.133     12.265     15.829
REMARK INTER + INTRA:          -5.185
REMARK INTER:                  -4.869
REMARK INTRA:                  -0.316
REMARK UNBOUND:                -0.206
REMARK SMILES O=c1c(O)c(-c2ccc(O)c(O)c2)oc2cc(O)cc(O)c12
REMARK SMILES IDX 5 1 3 2 2 3 1 4 22 5 20 6 19 7 17 8 16 9 15 10 14 11 6 12
REMARK SMILES IDX 7 13 8 14 9 15 13 16 11 17 10 18 12 20 4 22 21 24 18 26
REMARK H PARENT 10 19 12 21 4 23 21 25 18 27
REMARK Flexibility Score: inf
ROOT
ATOM      1  C   UNL     1      46.891  -8.932  -1.437  1.00  0.00     0.180 A 
ATOM      2  C   UNL     1      45.616  -9.288  -1.910  1.00  0.00     0.208 A 
ATOM      3  C   UNL     1      45.465  -9.638  -3.261  1.00  0.00     0.238 A 
ATOM      4  O   UNL     1      44.333 -10.009  -3.668  1.00  0.00    -0.285 OA
ATOM      5  C   UNL     1      46.587  -9.611  -4.126  1.00  0.00     0.111 A 
ATOM      6  C   UNL     1      46.542  -9.908  -5.522  1.00  0.00     0.134 A 
ATOM      7  C   UNL     1      47.735  -9.978  -6.251  1.00  0.00     0.093 A 
ATOM      8  C   UNL     1      48.962  -9.697  -5.654  1.00  0.00     0.123 A 
ATOM      9  C   UNL     1      49.012  -9.347  -4.303  1.00  0.00     0.094 A 
ATOM     10  C   UNL     1      47.843  -9.306  -3.540  1.00  0.00     0.146 A 
ATOM     11  O   UNL     1      47.934  -8.979  -2.257  1.00  0.00    -0.452 OA
ENDROOT
BRANCH   1  12
ATOM     12  C   UNL     1      47.124  -8.526  -0.032  1.00  0.00     0.025 A 
ATOM     13  C   UNL     1      46.847  -7.220   0.409  1.00  0.00     0.016 A 
ATOM     14  C   UNL     1      47.098  -6.853   1.733  1.00  0.00     0.051 A 
ATOM     15  C   UNL     1      47.641  -7.781   2.634  1.00  0.00     0.157 A 
ATOM     16  C   UNL     1      47.688  -9.445   0.868  1.00  0.00     0.062 A 
ATOM     17  C   UNL     1      47.940  -9.081   2.197  1.00  0.00     0.158 A 
BRANCH  15  18
ATOM     18  O   UNL     1      47.888  -7.412   3.955  1.00  0.00    -0.504 OA
ATOM     19  H   UNL     1      48.761  -7.643   4.416  1.00  0.00     0.293 HD
ENDBRANCH  15  18
BRANCH  17  20
ATOM     20  O   UNL     1      48.488 -10.025   3.065  1.00  0.00    -0.504 OA
ATOM     21  H   UNL     1      47.915 -10.701   3.556  1.00  0.00     0.293 HD
ENDBRANCH  17  20
ENDBRANCH   1  12
BRANCH   2  22
ATOM     22  O   UNL     1      44.527  -9.329  -1.036  1.00  0.00    -0.502 OA
ATOM     23  H   UNL     1      43.604  -9.624  -1.329  1.00  0.00     0.293 HD
ENDBRANCH   2  22
BRANCH   6  24
ATOM     24  O   UNL     1      45.360 -10.114  -6.237  1.00  0.00    -0.507 OA
ATOM     25  H   UNL     1      45.296 -10.610  -7.114  1.00  0.00     0.293 HD
ENDBRANCH   6  24
BRANCH   8  26
ATOM     26  O   UNL     1      50.128  -9.761  -6.414  1.00  0.00    -0.508 OA
ATOM     27  H   UNL     1      50.593 -10.642  -6.599  1.00  0.00     0.293 HD
ENDBRANCH   8  26
TORSDOF 6
ENDMDL
