MODEL 1
REMARK VINA RESULT:    -8.067      0.000      0.000
REMARK INTER + INTRA:          -9.718
REMARK INTER:                  -9.717
REMARK INTRA:                  -0.001
REMARK UNBOUND:                -0.001
REMARK SMILES O=c1c(O)c(-c2ccc(O)c(O)c2)oc2cc(O)cc(O)c12
REMARK SMILES IDX 5 1 3 2 2 3 1 4 22 5 20 6 19 7 17 8 16 9 15 10 14 11 6 12
REMARK SMILES IDX 7 13 8 14 9 15 13 16 11 17 10 18 12 20 4 22 21 24 18 26
REMARK H PARENT 10 19 12 21 4 23 21 25 18 27
REMARK Flexibility Score: inf
ROOT
ATOM      1  C   UNL     1     100.228 115.718 124.290  1.00  0.00     0.180 A 
ATOM      2  C   UNL     1      99.585 116.885 124.736  1.00  0.00     0.208 A 
ATOM      3  C   UNL     1      98.964 117.723 123.795  1.00  0.00     0.238 A 
ATOM      4  O   UNL     1      98.437 118.794 124.194  1.00  0.00    -0.285 OA
ATOM      5  C   UNL     1      98.980 117.374 122.423  1.00  0.00     0.111 A 
ATOM      6  C   UNL     1      98.349 118.128 121.388  1.00  0.00     0.134 A 
ATOM      7  C   UNL     1      98.540 117.760 120.050  1.00  0.00     0.093 A 
ATOM      8  C   UNL     1      99.283 116.630 119.714  1.00  0.00     0.123 A 
ATOM      9  C   UNL     1      99.856 115.851 120.721  1.00  0.00     0.094 A 
ATOM     10  C   UNL     1      99.713 116.214 122.062  1.00  0.00     0.146 A 
ATOM     11  O   UNL     1     100.282 115.452 122.989  1.00  0.00    -0.452 OA
ENDROOT
BRANCH   1  12
ATOM     12  C   UNL     1     100.883 114.773 125.223  1.00  0.00     0.025 A 
ATOM     13  C   UNL     1     100.596 113.397 125.192  1.00  0.00     0.016 A 
ATOM     14  C   UNL     1     101.244 112.521 126.066  1.00  0.00     0.051 A 
ATOM     15  C   UNL     1     102.197 113.003 126.974  1.00  0.00     0.157 A 
ATOM     16  C   UNL     1     101.853 115.248 126.121  1.00  0.00     0.062 A 
ATOM     17  C   UNL     1     102.504 114.373 126.998  1.00  0.00     0.158 A 
BRANCH  15  18
ATOM     18  O   UNL     1     102.840 112.126 127.847  1.00  0.00    -0.504 OA
ATOM     19  H   UNL     1     103.557 111.487 127.524  1.00  0.00     0.293 HD
ENDBRANCH  15  18
BRANCH  17  20
ATOM     20  O   UNL     1     103.452 114.883 127.885  1.00  0.00    -0.504 OA
ATOM     21  H   UNL     1     104.081 114.284 128.404  1.00  0.00     0.293 HD
ENDBRANCH  17  20
ENDBRANCH   1  12
BRANCH   2  22
ATOM     22  O   UNL     1      99.601 117.222 126.092  1.00  0.00    -0.502 OA
ATOM     23  H   UNL     1      99.963 116.598 126.803  1.00  0.00     0.293 HD
ENDBRANCH   2  22
BRANCH   6  24
ATOM     24  O   UNL     1      97.509 119.222 121.620  1.00  0.00    -0.507 OA
ATOM     25  H   UNL     1      96.519 119.156 121.802  1.00  0.00     0.293 HD
ENDBRANCH   6  24
BRANCH   8  26
ATOM     26  O   UNL     1      99.440 116.284 118.373  1.00  0.00    -0.508 OA
ATOM     27  H   UNL     1      98.657 116.283 117.731  1.00  0.00     0.293 HD
ENDBRANCH   8  26
TORSDOF 6
ENDMDL
MODEL 2
REMARK VINA RESULT:    -7.377      3.943      7.605
REMARK INTER + INTRA:          -8.888
REMARK INTER:                  -8.571
REMARK INTRA:                  -0.317
REMARK UNBOUND:                -0.001
REMARK SMILES O=c1c(O)c(-c2ccc(O)c(O)c2)oc2cc(O)cc(O)c12
REMARK SMILES IDX 5 1 3 2 2 3 1 4 22 5 20 6 19 7 17 8 16 9 15 10 14 11 6 12
REMARK SMILES IDX 7 13 8 14 9 15 13 16 11 17 10 18 12 20 4 22 21 24 18 26
REMARK H PARENT 10 19 12 21 4 23 21 25 18 27
REMARK Flexibility Score: inf
ROOT
ATOM      1  C   UNL     1     101.172 111.178 123.154  1.00  0.00     0.180 A 
ATOM      2  C   UNL     1     102.248 110.682 123.909  1.00  0.00     0.208 A 
ATOM      3  C   UNL     1     102.582 111.314 125.117  1.00  0.00     0.238 A 
ATOM      4  O   UNL     1     103.581 110.898 125.761  1.00  0.00    -0.285 OA
ATOM      5  C   UNL     1     101.826 112.423 125.564  1.00  0.00     0.111 A 
ATOM      6  C   UNL     1     102.050 113.116 126.792  1.00  0.00     0.134 A 
ATOM      7  C   UNL     1     101.325 114.281 127.071  1.00  0.00     0.093 A 
ATOM      8  C   UNL     1     100.339 114.742 126.199  1.00  0.00     0.123 A 
ATOM      9  C   UNL     1     100.070 114.040 125.023  1.00  0.00     0.094 A 
ATOM     10  C   UNL     1     100.803 112.895 124.701  1.00  0.00     0.146 A 
ATOM     11  O   UNL     1     100.523 112.261 123.567  1.00  0.00    -0.452 OA
ENDROOT
BRANCH   1  12
ATOM     12  C   UNL     1     100.744 110.551 121.883  1.00  0.00     0.025 A 
ATOM     13  C   UNL     1      99.920 109.412 121.870  1.00  0.00     0.016 A 
ATOM     14  C   UNL     1      99.509 108.851 120.658  1.00  0.00     0.051 A 
ATOM     15  C   UNL     1      99.904 109.426 119.443  1.00  0.00     0.157 A 
ATOM     16  C   UNL     1     101.120 111.135 120.662  1.00  0.00     0.062 A 
ATOM     17  C   UNL     1     100.711 110.576 119.446  1.00  0.00     0.158 A 
BRANCH  15  18
ATOM     18  O   UNL     1      99.494 108.862 118.235  1.00  0.00    -0.504 OA
ATOM     19  H   UNL     1      99.934 109.110 117.357  1.00  0.00     0.293 HD
ENDBRANCH  15  18
BRANCH  17  20
ATOM     20  O   UNL     1     101.115 111.176 118.254  1.00  0.00    -0.504 OA
ATOM     21  H   UNL     1     101.230 112.178 118.168  1.00  0.00     0.293 HD
ENDBRANCH  17  20
ENDBRANCH   1  12
BRANCH   2  22
ATOM     22  O   UNL     1     102.996 109.599 123.438  1.00  0.00    -0.502 OA
ATOM     23  H   UNL     1     103.821 109.717 122.862  1.00  0.00     0.293 HD
ENDBRANCH   2  22
BRANCH   6  24
ATOM     24  O   UNL     1     102.947 112.688 127.777  1.00  0.00    -0.507 OA
ATOM     25  H   UNL     1     103.839 112.257 127.591  1.00  0.00     0.293 HD
ENDBRANCH   6  24
BRANCH   8  26
ATOM     26  O   UNL     1      99.626 115.896 126.515  1.00  0.00    -0.508 OA
ATOM     27  H   UNL     1     100.020 116.617 127.110  1.00  0.00     0.293 HD
ENDBRANCH   8  26
TORSDOF 6
ENDMDL
MODEL 3
REMARK VINA RESULT:    -7.070      1.417      3.036
REMARK INTER + INTRA:          -8.518
REMARK INTER:                  -8.281
REMARK INTRA:                  -0.236
REMARK UNBOUND:                -0.001
REMARK SMILES O=c1c(O)c(-c2ccc(O)c(O)c2)oc2cc(O)cc(O)c12
REMARK SMILES IDX 5 1 3 2 2 3 1 4 22 5 20 6 19 7 17 8 16 9 15 10 14 11 6 12
REMARK SMILES IDX 7 13 8 14 9 15 13 16 11 17 10 18 12 20 4 22 21 24 18 26
REMARK H PARENT 10 19 12 21 4 23 21 25 18 27
REMARK Flexibility Score: inf
ROOT
ATOM      1  C   UNL     1     101.211 114.873 123.170  1.00  0.00     0.180 A 
ATOM      2  C   UNL     1     101.900 114.619 121.972  1.00  0.00     0.208 A 
ATOM      3  C   UNL     1     101.547 115.337 120.818  1.00  0.00     0.238 A 
ATOM      4  O   UNL     1     102.131 115.067 119.735  1.00  0.00    -0.285 OA
ATOM      5  C   UNL     1     100.522 116.311 120.880  1.00  0.00     0.111 A 
ATOM      6  C   UNL     1     100.110 117.126 119.783  1.00  0.00     0.134 A 
ATOM      7  C   UNL     1      98.997 117.964 119.924  1.00  0.00     0.093 A 
ATOM      8  C   UNL     1      98.323 118.067 121.140  1.00  0.00     0.123 A 
ATOM      9  C   UNL     1      98.754 117.319 122.237  1.00  0.00     0.094 A 
ATOM     10  C   UNL     1      99.838 116.447 122.116  1.00  0.00     0.146 A 
ATOM     11  O   UNL     1     100.210 115.746 123.181  1.00  0.00    -0.452 OA
ENDROOT
BRANCH   1  12
ATOM     12  C   UNL     1     101.542 114.174 124.433  1.00  0.00     0.025 A 
ATOM     13  C   UNL     1     101.218 112.820 124.627  1.00  0.00     0.016 A 
ATOM     14  C   UNL     1     101.562 112.175 125.817  1.00  0.00     0.051 A 
ATOM     15  C   UNL     1     102.247 112.868 126.825  1.00  0.00     0.157 A 
ATOM     16  C   UNL     1     102.246 114.859 125.438  1.00  0.00     0.062 A 
ATOM     17  C   UNL     1     102.592 114.216 126.632  1.00  0.00     0.158 A 
BRANCH  15  18
ATOM     18  O   UNL     1     102.586 112.222 128.013  1.00  0.00    -0.504 OA
ATOM     19  H   UNL     1     102.981 111.289 128.015  1.00  0.00     0.293 HD
ENDBRANCH  15  18
BRANCH  17  20
ATOM     20  O   UNL     1     103.279 114.931 127.612  1.00  0.00    -0.504 OA
ATOM     21  H   UNL     1     103.026 114.882 128.591  1.00  0.00     0.293 HD
ENDBRANCH  17  20
ENDBRANCH   1  12
BRANCH   2  22
ATOM     22  O   UNL     1     102.894 113.638 121.927  1.00  0.00    -0.502 OA
ATOM     23  H   UNL     1     102.740 112.692 122.259  1.00  0.00     0.293 HD
ENDBRANCH   2  22
BRANCH   6  24
ATOM     24  O   UNL     1     100.771 117.169 118.551  1.00  0.00    -0.507 OA
ATOM     25  H   UNL     1     100.504 116.636 117.738  1.00  0.00     0.293 HD
ENDBRANCH   6  24
BRANCH   8  26
ATOM     26  O   UNL     1      97.229 118.923 121.249  1.00  0.00    -0.508 OA
ATOM     27  H   UNL     1      96.281 118.591 121.117  1.00  0.00     0.293 HD
ENDBRANCH   8  26
TORSDOF 6
ENDMDL
MODEL 4
REMARK VINA RESULT:    -6.898      1.985      6.686
REMARK INTER + INTRA:          -8.311
REMARK INTER:                  -8.692
REMARK INTRA:                   0.381
REMARK UNBOUND:                -0.001
REMARK SMILES O=c1c(O)c(-c2ccc(O)c(O)c2)oc2cc(O)cc(O)c12
REMARK SMILES IDX 5 1 3 2 2 3 1 4 22 5 20 6 19 7 17 8 16 9 15 10 14 11 6 12
REMARK SMILES IDX 7 13 8 14 9 15 13 16 11 17 10 18 12 20 4 22 21 24 18 26
REMARK H PARENT 10 19 12 21 4 23 21 25 18 27
REMARK Flexibility Score: inf
ROOT
ATOM      1  C   UNL     1     100.372 115.952 124.119  1.00  0.00     0.180 A 
ATOM      2  C   UNL     1     100.529 115.238 122.919  1.00  0.00     0.208 A 
ATOM      3  C   UNL     1     101.087 113.950 122.960  1.00  0.00     0.238 A 
ATOM      4  O   UNL     1     101.275 113.338 121.876  1.00  0.00    -0.285 OA
ATOM      5  C   UNL     1     101.466 113.387 124.202  1.00  0.00     0.111 A 
ATOM      6  C   UNL     1     102.005 112.075 124.366  1.00  0.00     0.134 A 
ATOM      7  C   UNL     1     102.467 111.670 125.625  1.00  0.00     0.093 A 
ATOM      8  C   UNL     1     102.350 112.502 126.737  1.00  0.00     0.123 A 
ATOM      9  C   UNL     1     101.770 113.764 126.600  1.00  0.00     0.094 A 
ATOM     10  C   UNL     1     101.334 114.211 125.350  1.00  0.00     0.146 A 
ATOM     11  O   UNL     1     100.798 115.422 125.260  1.00  0.00    -0.452 OA
ENDROOT
BRANCH   1  12
ATOM     12  C   UNL     1      99.769 117.304 124.159  1.00  0.00     0.025 A 
ATOM     13  C   UNL     1      98.998 117.793 123.090  1.00  0.00     0.016 A 
ATOM     14  C   UNL     1      98.418 119.062 123.160  1.00  0.00     0.051 A 
ATOM     15  C   UNL     1      98.588 119.855 124.303  1.00  0.00     0.157 A 
ATOM     16  C   UNL     1      99.919 118.095 125.310  1.00  0.00     0.062 A 
ATOM     17  C   UNL     1      99.340 119.367 125.384  1.00  0.00     0.158 A 
BRANCH  15  18
ATOM     18  O   UNL     1      98.009 121.122 124.368  1.00  0.00    -0.504 OA
ATOM     19  H   UNL     1      97.474 121.501 123.596  1.00  0.00     0.293 HD
ENDBRANCH  15  18
BRANCH  17  20
ATOM     20  O   UNL     1      99.522 120.128 126.537  1.00  0.00    -0.504 OA
ATOM     21  H   UNL     1      99.490 119.720 127.463  1.00  0.00     0.293 HD
ENDBRANCH  17  20
ENDBRANCH   1  12
BRANCH   2  22
ATOM     22  O   UNL     1     100.169 115.822 121.701  1.00  0.00    -0.502 OA
ATOM     23  H   UNL     1      99.758 116.747 121.641  1.00  0.00     0.293 HD
ENDBRANCH   2  22
BRANCH   6  24
ATOM     24  O   UNL     1     102.083 111.129 123.339  1.00  0.00    -0.507 OA
ATOM     25  H   UNL     1     102.910 110.941 122.794  1.00  0.00     0.293 HD
ENDBRANCH   6  24
BRANCH   8  26
ATOM     26  O   UNL     1     102.806 112.061 127.977  1.00  0.00    -0.508 OA
ATOM     27  H   UNL     1     103.699 112.360 128.351  1.00  0.00     0.293 HD
ENDBRANCH   8  26
TORSDOF 6
ENDMDL
MODEL 5
REMARK VINA RESULT:    -6.860      2.473      6.401
REMARK INTER + INTRA:          -8.265
REMARK INTER:                  -8.086
REMARK INTRA:                  -0.180
REMARK UNBOUND:                -0.001
REMARK SMILES O=c1c(O)c(-c2ccc(O)c(O)c2)oc2cc(O)cc(O)c12
REMARK SMILES IDX 5 1 3 2 2 3 1 4 22 5 20 6 19 7 17 8 16 9 15 10 14 11 6 12
REMARK SMILES IDX 7 13 8 14 9 15 13 16 11 17 10 18 12 20 4 22 21 24 18 26
REMARK H PARENT 10 19 12 21 4 23 21 25 18 27
REMARK Flexibility Score: inf
ROOT
ATOM      1  C   UNL     1     100.698 115.897 125.200  1.00  0.00     0.180 A 
ATOM      2  C   UNL     1     100.379 114.971 126.207  1.00  0.00     0.208 A 
ATOM      3  C   UNL     1     101.044 113.735 126.233  1.00  0.00     0.238 A 
ATOM      4  O   UNL     1     100.715 112.888 127.104  1.00  0.00    -0.285 OA
ATOM      5  C   UNL     1     102.033 113.448 125.262  1.00  0.00     0.111 A 
ATOM      6  C   UNL     1     102.799 112.244 125.216  1.00  0.00     0.134 A 
ATOM      7  C   UNL     1     103.657 112.011 124.134  1.00  0.00     0.093 A 
ATOM      8  C   UNL     1     103.827 112.965 123.132  1.00  0.00     0.123 A 
ATOM      9  C   UNL     1     103.128 114.171 123.197  1.00  0.00     0.094 A 
ATOM     10  C   UNL     1     102.237 114.416 124.245  1.00  0.00     0.146 A 
ATOM     11  O   UNL     1     101.583 115.572 124.265  1.00  0.00    -0.452 OA
ENDROOT
BRANCH   1  12
ATOM     12  C   UNL     1     100.057 117.230 125.123  1.00  0.00     0.025 A 
ATOM     13  C   UNL     1     100.220 118.181 126.145  1.00  0.00     0.016 A 
ATOM     14  C   UNL     1      99.626 119.440 126.039  1.00  0.00     0.051 A 
ATOM     15  C   UNL     1      98.872 119.774 124.905  1.00  0.00     0.157 A 
ATOM     16  C   UNL     1      99.318 117.576 123.979  1.00  0.00     0.062 A 
ATOM     17  C   UNL     1      98.721 118.838 123.870  1.00  0.00     0.158 A 
BRANCH  15  18
ATOM     18  O   UNL     1      98.279 121.032 124.804  1.00  0.00    -0.504 OA
ATOM     19  H   UNL     1      97.331 121.146 124.463  1.00  0.00     0.293 HD
ENDBRANCH  15  18
BRANCH  17  20
ATOM     20  O   UNL     1      97.984 119.141 122.726  1.00  0.00    -0.504 OA
ATOM     21  H   UNL     1      98.061 118.597 121.875  1.00  0.00     0.293 HD
ENDBRANCH  17  20
ENDBRANCH   1  12
BRANCH   2  22
ATOM     22  O   UNL     1      99.383 115.265 127.143  1.00  0.00    -0.502 OA
ATOM     23  H   UNL     1      99.565 115.297 128.139  1.00  0.00     0.293 HD
ENDBRANCH   2  22
BRANCH   6  24
ATOM     24  O   UNL     1     102.774 111.264 126.214  1.00  0.00    -0.507 OA
ATOM     25  H   UNL     1     102.419 111.405 127.147  1.00  0.00     0.293 HD
ENDBRANCH   6  24
BRANCH   8  26
ATOM     26  O   UNL     1     104.701 112.708 122.078  1.00  0.00    -0.508 OA
ATOM     27  H   UNL     1     105.251 113.445 121.652  1.00  0.00     0.293 HD
ENDBRANCH   8  26
TORSDOF 6
ENDMDL
MODEL 6
REMARK VINA RESULT:    -6.817      2.170      7.130
REMARK INTER + INTRA:          -8.213
REMARK INTER:                  -7.901
REMARK INTRA:                  -0.312
REMARK UNBOUND:                -0.001
REMARK SMILES O=c1c(O)c(-c2ccc(O)c(O)c2)oc2cc(O)cc(O)c12
REMARK SMILES IDX 5 1 3 2 2 3 1 4 22 5 20 6 19 7 17 8 16 9 15 10 14 11 6 12
REMARK SMILES IDX 7 13 8 14 9 15 13 16 11 17 10 18 12 20 4 22 21 24 18 26
REMARK H PARENT 10 19 12 21 4 23 21 25 18 27
REMARK Flexibility Score: inf
ROOT
ATOM      1  C   UNL     1     101.653 114.584 123.471  1.00  0.00     0.180 A 
ATOM      2  C   UNL     1     101.424 115.029 124.785  1.00  0.00     0.208 A 
ATOM      3  C   UNL     1     101.751 114.183 125.857  1.00  0.00     0.238 A 
ATOM      4  O   UNL     1     101.493 114.565 127.029  1.00  0.00    -0.285 OA
ATOM      5  C   UNL     1     102.317 112.911 125.604  1.00  0.00     0.111 A 
ATOM      6  C   UNL     1     102.723 111.989 126.614  1.00  0.00     0.134 A 
ATOM      7  C   UNL     1     103.149 110.705 126.248  1.00  0.00     0.093 A 
ATOM      8  C   UNL     1     103.247 110.334 124.908  1.00  0.00     0.123 A 
ATOM      9  C   UNL     1     102.909 111.248 123.910  1.00  0.00     0.094 A 
ATOM     10  C   UNL     1     102.445 112.523 124.245  1.00  0.00     0.146 A 
ATOM     11  O   UNL     1     102.124 113.359 123.265  1.00  0.00    -0.452 OA
ENDROOT
BRANCH   1  12
ATOM     12  C   UNL     1     101.358 115.428 122.291  1.00  0.00     0.025 A 
ATOM     13  C   UNL     1     102.364 116.179 121.658  1.00  0.00     0.016 A 
ATOM     14  C   UNL     1     102.067 116.949 120.531  1.00  0.00     0.051 A 
ATOM     15  C   UNL     1     100.766 116.969 120.011  1.00  0.00     0.157 A 
ATOM     16  C   UNL     1     100.060 115.435 121.753  1.00  0.00     0.062 A 
ATOM     17  C   UNL     1      99.759 116.206 120.624  1.00  0.00     0.158 A 
BRANCH  15  18
ATOM     18  O   UNL     1     100.473 117.741 118.887  1.00  0.00    -0.504 OA
ATOM     19  H   UNL     1      99.988 118.627 118.964  1.00  0.00     0.293 HD
ENDBRANCH  15  18
BRANCH  17  20
ATOM     20  O   UNL     1      98.456 116.199 120.127  1.00  0.00    -0.504 OA
ATOM     21  H   UNL     1      98.030 117.024 119.722  1.00  0.00     0.293 HD
ENDBRANCH  17  20
ENDBRANCH   1  12
BRANCH   2  22
ATOM     22  O   UNL     1     100.844 116.279 125.012  1.00  0.00    -0.502 OA
ATOM     23  H   UNL     1     100.076 116.414 125.660  1.00  0.00     0.293 HD
ENDBRANCH   2  22
BRANCH   6  24
ATOM     24  O   UNL     1     102.752 112.290 127.980  1.00  0.00    -0.507 OA
ATOM     25  H   UNL     1     103.487 112.807 128.438  1.00  0.00     0.293 HD
ENDBRANCH   6  24
BRANCH   8  26
ATOM     26  O   UNL     1     103.690 109.055 124.579  1.00  0.00    -0.508 OA
ATOM     27  H   UNL     1     104.569 108.905 124.098  1.00  0.00     0.293 HD
ENDBRANCH   8  26
TORSDOF 6
ENDMDL
MODEL 7
REMARK VINA RESULT:    -6.801      2.370      5.844
REMARK INTER + INTRA:          -8.194
REMARK INTER:                  -8.410
REMARK INTRA:                   0.216
REMARK UNBOUND:                -0.001
REMARK SMILES O=c1c(O)c(-c2ccc(O)c(O)c2)oc2cc(O)cc(O)c12
REMARK SMILES IDX 5 1 3 2 2 3 1 4 22 5 20 6 19 7 17 8 16 9 15 10 14 11 6 12
REMARK SMILES IDX 7 13 8 14 9 15 13 16 11 17 10 18 12 20 4 22 21 24 18 26
REMARK H PARENT 10 19 12 21 4 23 21 25 18 27
REMARK Flexibility Score: inf
ROOT
ATOM      1  C   UNL     1     100.329 115.599 124.739  1.00  0.00     0.180 A 
ATOM      2  C   UNL     1     100.525 114.665 125.772  1.00  0.00     0.208 A 
ATOM      3  C   UNL     1     100.947 113.366 125.445  1.00  0.00     0.238 A 
ATOM      4  O   UNL     1     101.067 112.519 126.369  1.00  0.00    -0.285 OA
ATOM      5  C   UNL     1     101.184 113.022 124.093  1.00  0.00     0.111 A 
ATOM      6  C   UNL     1     101.652 111.748 123.651  1.00  0.00     0.134 A 
ATOM      7  C   UNL     1     101.726 111.477 122.279  1.00  0.00     0.093 A 
ATOM      8  C   UNL     1     101.413 112.453 121.334  1.00  0.00     0.123 A 
ATOM      9  C   UNL     1     101.012 113.722 121.755  1.00  0.00     0.094 A 
ATOM     10  C   UNL     1     100.893 114.010 123.117  1.00  0.00     0.146 A 
ATOM     11  O   UNL     1     100.497 115.226 123.476  1.00  0.00    -0.452 OA
ENDROOT
BRANCH   1  12
ATOM     12  C   UNL     1      99.910 116.993 125.007  1.00  0.00     0.025 A 
ATOM     13  C   UNL     1     100.299 117.662 126.181  1.00  0.00     0.016 A 
ATOM     14  C   UNL     1      99.911 118.986 126.400  1.00  0.00     0.051 A 
ATOM     15  C   UNL     1      99.142 119.665 125.446  1.00  0.00     0.157 A 
ATOM     16  C   UNL     1      99.156 117.685 124.045  1.00  0.00     0.062 A 
ATOM     17  C   UNL     1      98.765 119.012 124.262  1.00  0.00     0.158 A 
BRANCH  15  18
ATOM     18  O   UNL     1      98.755 120.986 125.670  1.00  0.00    -0.504 OA
ATOM     19  H   UNL     1      98.856 121.697 124.956  1.00  0.00     0.293 HD
ENDBRANCH  15  18
BRANCH  17  20
ATOM     20  O   UNL     1      98.006 119.662 123.290  1.00  0.00    -0.504 OA
ATOM     21  H   UNL     1      98.343 119.799 122.346  1.00  0.00     0.293 HD
ENDBRANCH  17  20
ENDBRANCH   1  12
BRANCH   2  22
ATOM     22  O   UNL     1     100.263 115.019 127.098  1.00  0.00    -0.502 OA
ATOM     23  H   UNL     1      99.611 114.506 127.680  1.00  0.00     0.293 HD
ENDBRANCH   2  22
BRANCH   6  24
ATOM     24  O   UNL     1     102.079 110.731 124.511  1.00  0.00    -0.507 OA
ATOM     25  H   UNL     1     103.043 110.509 124.702  1.00  0.00     0.293 HD
ENDBRANCH   6  24
BRANCH   8  26
ATOM     26  O   UNL     1     101.513 112.154 119.977  1.00  0.00    -0.508 OA
ATOM     27  H   UNL     1     102.242 111.547 119.620  1.00  0.00     0.293 HD
ENDBRANCH   8  26
TORSDOF 6
ENDMDL
MODEL 8
REMARK VINA RESULT:    -6.689      4.561      7.126
REMARK INTER + INTRA:          -8.059
REMARK INTER:                  -8.074
REMARK INTRA:                   0.015
REMARK UNBOUND:                -0.001
REMARK SMILES O=c1c(O)c(-c2ccc(O)c(O)c2)oc2cc(O)cc(O)c12
REMARK SMILES IDX 5 1 3 2 2 3 1 4 22 5 20 6 19 7 17 8 16 9 15 10 14 11 6 12
REMARK SMILES IDX 7 13 8 14 9 15 13 16 11 17 10 18 12 20 4 22 21 24 18 26
REMARK H PARENT 10 19 12 21 4 23 21 25 18 27
REMARK Flexibility Score: inf
ROOT
ATOM      1  C   UNL     1     101.423 111.539 123.626  1.00  0.00     0.180 A 
ATOM      2  C   UNL     1     102.294 110.588 124.186  1.00  0.00     0.208 A 
ATOM      3  C   UNL     1     102.427 109.337 123.565  1.00  0.00     0.238 A 
ATOM      4  O   UNL     1     103.166 108.471 124.102  1.00  0.00    -0.285 OA
ATOM      5  C   UNL     1     101.702 109.057 122.382  1.00  0.00     0.111 A 
ATOM      6  C   UNL     1     101.791 107.837 121.646  1.00  0.00     0.134 A 
ATOM      7  C   UNL     1     100.930 107.618 120.564  1.00  0.00     0.093 A 
ATOM      8  C   UNL     1     100.030 108.600 120.150  1.00  0.00     0.123 A 
ATOM      9  C   UNL     1      99.976 109.820 120.825  1.00  0.00     0.094 A 
ATOM     10  C   UNL     1     100.797 110.053 121.931  1.00  0.00     0.146 A 
ATOM     11  O   UNL     1     100.707 111.223 122.553  1.00  0.00    -0.452 OA
ENDROOT
BRANCH   1  12
ATOM     12  C   UNL     1     101.248 112.889 124.209  1.00  0.00     0.025 A 
ATOM     13  C   UNL     1     101.353 114.047 123.419  1.00  0.00     0.016 A 
ATOM     14  C   UNL     1     101.161 115.309 123.987  1.00  0.00     0.051 A 
ATOM     15  C   UNL     1     100.846 115.432 125.347  1.00  0.00     0.157 A 
ATOM     16  C   UNL     1     100.913 113.017 125.567  1.00  0.00     0.062 A 
ATOM     17  C   UNL     1     100.719 114.280 126.139  1.00  0.00     0.158 A 
BRANCH  15  18
ATOM     18  O   UNL     1     100.657 116.694 125.910  1.00  0.00    -0.504 OA
ATOM     19  H   UNL     1      99.927 116.867 126.591  1.00  0.00     0.293 HD
ENDBRANCH  15  18
BRANCH  17  20
ATOM     20  O   UNL     1     100.400 114.368 127.494  1.00  0.00    -0.504 OA
ATOM     21  H   UNL     1      99.581 113.920 127.885  1.00  0.00     0.293 HD
ENDBRANCH  17  20
ENDBRANCH   1  12
BRANCH   2  22
ATOM     22  O   UNL     1     102.983 110.877 125.367  1.00  0.00    -0.502 OA
ATOM     23  H   UNL     1     102.579 111.435 126.111  1.00  0.00     0.293 HD
ENDBRANCH   2  22
BRANCH   6  24
ATOM     24  O   UNL     1     102.719 106.827 121.919  1.00  0.00    -0.507 OA
ATOM     25  H   UNL     1     102.553 106.047 122.537  1.00  0.00     0.293 HD
ENDBRANCH   6  24
BRANCH   8  26
ATOM     26  O   UNL     1      99.199 108.354 119.058  1.00  0.00    -0.508 OA
ATOM     27  H   UNL     1      98.190 108.386 119.143  1.00  0.00     0.293 HD
ENDBRANCH   8  26
TORSDOF 6
ENDMDL
MODEL 9
REMARK VINA RESULT:    -6.656      3.252      6.756
REMARK INTER + INTRA:          -8.019
REMARK INTER:                  -8.012
REMARK INTRA:                  -0.007
REMARK UNBOUND:                -0.001
REMARK SMILES O=c1c(O)c(-c2ccc(O)c(O)c2)oc2cc(O)cc(O)c12
REMARK SMILES IDX 5 1 3 2 2 3 1 4 22 5 20 6 19 7 17 8 16 9 15 10 14 11 6 12
REMARK SMILES IDX 7 13 8 14 9 15 13 16 11 17 10 18 12 20 4 22 21 24 18 26
REMARK H PARENT 10 19 12 21 4 23 21 25 18 27
REMARK Flexibility Score: inf
ROOT
ATOM      1  C   UNL     1     101.393 112.965 124.851  1.00  0.00     0.180 A 
ATOM      2  C   UNL     1     102.377 112.339 125.636  1.00  0.00     0.208 A 
ATOM      3  C   UNL     1     102.847 111.072 125.258  1.00  0.00     0.238 A 
ATOM      4  O   UNL     1     103.688 110.493 125.995  1.00  0.00    -0.285 OA
ATOM      5  C   UNL     1     102.340 110.452 124.090  1.00  0.00     0.111 A 
ATOM      6  C   UNL     1     102.773 109.187 123.590  1.00  0.00     0.134 A 
ATOM      7  C   UNL     1     102.109 108.611 122.500  1.00  0.00     0.093 A 
ATOM      8  C   UNL     1     101.074 109.282 121.851  1.00  0.00     0.123 A 
ATOM      9  C   UNL     1     100.682 110.546 122.294  1.00  0.00     0.094 A 
ATOM     10  C   UNL     1     101.300 111.130 123.402  1.00  0.00     0.146 A 
ATOM     11  O   UNL     1     100.890 112.329 123.798  1.00  0.00    -0.452 OA
ENDROOT
BRANCH   1  12
ATOM     12  C   UNL     1     100.866 114.311 125.172  1.00  0.00     0.025 A 
ATOM     13  C   UNL     1     100.377 114.619 126.453  1.00  0.00     0.016 A 
ATOM     14  C   UNL     1      99.907 115.903 126.740  1.00  0.00     0.051 A 
ATOM     15  C   UNL     1      99.932 116.901 125.756  1.00  0.00     0.157 A 
ATOM     16  C   UNL     1     100.908 115.320 124.196  1.00  0.00     0.062 A 
ATOM     17  C   UNL     1     100.438 116.608 124.480  1.00  0.00     0.158 A 
BRANCH  15  18
ATOM     18  O   UNL     1      99.460 118.181 126.046  1.00  0.00    -0.504 OA
ATOM     19  H   UNL     1      99.087 118.415 126.958  1.00  0.00     0.293 HD
ENDBRANCH  15  18
BRANCH  17  20
ATOM     20  O   UNL     1     100.482 117.580 123.481  1.00  0.00    -0.504 OA
ATOM     21  H   UNL     1     101.355 117.900 123.079  1.00  0.00     0.293 HD
ENDBRANCH  17  20
ENDBRANCH   1  12
BRANCH   2  22
ATOM     22  O   UNL     1     102.847 112.958 126.797  1.00  0.00    -0.502 OA
ATOM     23  H   UNL     1     102.805 113.961 126.935  1.00  0.00     0.293 HD
ENDBRANCH   2  22
BRANCH   6  24
ATOM     24  O   UNL     1     103.859 108.473 124.108  1.00  0.00    -0.507 OA
ATOM     25  H   UNL     1     104.054 107.504 123.912  1.00  0.00     0.293 HD
ENDBRANCH   6  24
BRANCH   8  26
ATOM     26  O   UNL     1     100.446 108.686 120.759  1.00  0.00    -0.508 OA
ATOM     27  H   UNL     1      99.703 108.008 120.880  1.00  0.00     0.293 HD
ENDBRANCH   8  26
TORSDOF 6
ENDMDL
