MODEL 1
REMARK VINA RESULT:    -4.841      0.000      0.000
REMARK INTER + INTRA:          -9.531
REMARK INTER:                  -8.803
REMARK INTRA:                  -0.729
REMARK UNBOUND:                -0.729
REMARK SMILES CCCCCCCCCCCCCCCC(=O)[O-]
REMARK SMILES IDX 9 1 10 2 11 3 12 4 13 5 14 6 15 7 16 8 17 9 18 10 8 11 7 12
REMARK SMILES IDX 6 13 5 14 4 15 3 16 2 17 1 18
REMARK H PARENT
REMARK Flexibility Score: inf
ROOT
ATOM      1  C   UNL     1     111.827 101.937 111.133  1.00  0.00     0.000 C 
ENDROOT
BRANCH   1   2
ATOM      2  C   UNL     1     113.163 101.978 111.887  1.00  0.00     0.000 C 
BRANCH   2   3
ATOM      3  C   UNL     1     114.157 102.918 111.189  1.00  0.00     0.000 C 
BRANCH   3   4
ATOM      4  C   UNL     1     114.260 104.294 111.872  1.00  0.00     0.000 C 
BRANCH   4   5
ATOM      5  C   UNL     1     114.843 104.273 113.299  1.00  0.00     0.000 C 
BRANCH   5   6
ATOM      6  C   UNL     1     116.103 105.138 113.505  1.00  0.00     0.006 C 
BRANCH   6   7
ATOM      7  C   UNL     1     117.350 104.628 112.763  1.00  0.00     0.053 C 
BRANCH   7   8
ATOM      8  C   UNL     1     118.615 105.151 113.371  1.00  0.00     0.041 C 
ATOM      9  O   UNL     1     119.012 104.714 114.482  1.00  0.00    -0.550 OA
ATOM     10  O   UNL     1     119.338 106.145 112.724  1.00  0.00    -0.550 OA
ENDBRANCH   7   8
ENDBRANCH   6   7
ENDBRANCH   5   6
ENDBRANCH   4   5
ENDBRANCH   3   4
ENDBRANCH   2   3
ENDBRANCH   1   2
BRANCH   1  11
ATOM     11  C   UNL     1     110.780 102.904 111.716  1.00  0.00     0.000 C 
BRANCH  11  12
ATOM     12  C   UNL     1     110.068 103.794 110.679  1.00  0.00    -0.000 C 
BRANCH  12  13
ATOM     13  C   UNL     1     108.908 104.647 111.231  1.00  0.00    -0.000 C 
BRANCH  13  14
ATOM     14  C   UNL     1     108.827 106.074 110.662  1.00  0.00    -0.000 C 
BRANCH  14  15
ATOM     15  C   UNL     1     108.224 107.079 111.659  1.00  0.00    -0.000 C 
BRANCH  15  16
ATOM     16  C   UNL     1     107.453 106.391 112.796  1.00  0.00    -0.000 C 
BRANCH  16  17
ATOM     17  C   UNL     1     106.258 107.223 113.285  1.00  0.00    -0.003 C 
ATOM     18  C   UNL     1     105.117 106.325 113.753  1.00  0.00     0.004 C 
ENDBRANCH  16  17
ENDBRANCH  15  16
ENDBRANCH  14  15
ENDBRANCH  13  14
ENDBRANCH  12  13
ENDBRANCH  11  12
ENDBRANCH   1  11
TORSDOF 14
ENDMDL
MODEL 2
REMARK VINA RESULT:    -4.541      3.987      8.617
REMARK INTER + INTRA:          -8.986
REMARK INTER:                  -7.983
REMARK INTRA:                  -1.004
REMARK UNBOUND:                -0.729
REMARK SMILES CCCCCCCCCCCCCCCC(=O)[O-]
REMARK SMILES IDX 9 1 10 2 11 3 12 4 13 5 14 6 15 7 16 8 17 9 18 10 8 11 7 12
REMARK SMILES IDX 6 13 5 14 4 15 3 16 2 17 1 18
REMARK H PARENT
REMARK Flexibility Score: inf
ROOT
ATOM      1  C   UNL     1     113.599 102.092 112.332  1.00  0.00     0.000 C 
ENDROOT
BRANCH   1   2
ATOM      2  C   UNL     1     112.098 102.377 112.473  1.00  0.00     0.000 C 
BRANCH   2   3
ATOM      3  C   UNL     1     111.293 101.615 111.410  1.00  0.00     0.000 C 
BRANCH   3   4
ATOM      4  C   UNL     1     110.441 102.544 110.526  1.00  0.00     0.000 C 
BRANCH   4   5
ATOM      5  C   UNL     1     110.264 103.977 111.065  1.00  0.00     0.000 C 
BRANCH   5   6
ATOM      6  C   UNL     1     108.915 104.644 110.726  1.00  0.00     0.006 C 
BRANCH   6   7
ATOM      7  C   UNL     1     108.972 106.177 110.630  1.00  0.00     0.053 C 
BRANCH   7   8
ATOM      8  C   UNL     1     108.135 106.835 111.682  1.00  0.00     0.041 C 
ATOM      9  O   UNL     1     108.049 106.330 112.832  1.00  0.00    -0.550 OA
ATOM     10  O   UNL     1     107.421 107.989 111.382  1.00  0.00    -0.550 OA
ENDBRANCH   7   8
ENDBRANCH   6   7
ENDBRANCH   5   6
ENDBRANCH   4   5
ENDBRANCH   3   4
ENDBRANCH   2   3
ENDBRANCH   1   2
BRANCH   1  11
ATOM     11  C   UNL     1     114.224 102.775 111.102  1.00  0.00     0.000 C 
BRANCH  11  12
ATOM     12  C   UNL     1     115.265 103.866 111.422  1.00  0.00    -0.000 C 
BRANCH  12  13
ATOM     13  C   UNL     1     115.007 104.659 112.719  1.00  0.00    -0.000 C 
BRANCH  13  14
ATOM     14  C   UNL     1     116.252 104.891 113.593  1.00  0.00    -0.000 C 
BRANCH  14  15
ATOM     15  C   UNL     1     117.543 104.373 112.938  1.00  0.00    -0.000 C 
BRANCH  15  16
ATOM     16  C   UNL     1     118.808 104.845 113.672  1.00  0.00    -0.000 C 
BRANCH  16  17
ATOM     17  C   UNL     1     119.398 106.127 113.066  1.00  0.00    -0.003 C 
ATOM     18  C   UNL     1     119.220 106.151 111.551  1.00  0.00     0.004 C 
ENDBRANCH  16  17
ENDBRANCH  15  16
ENDBRANCH  14  15
ENDBRANCH  13  14
ENDBRANCH  12  13
ENDBRANCH  11  12
ENDBRANCH   1  11
TORSDOF 14
ENDMDL
MODEL 3
REMARK VINA RESULT:    -4.446      0.938      1.795
REMARK INTER + INTRA:          -8.813
REMARK INTER:                  -7.906
REMARK INTRA:                  -0.907
REMARK UNBOUND:                -0.729
REMARK SMILES CCCCCCCCCCCCCCCC(=O)[O-]
REMARK SMILES IDX 9 1 10 2 11 3 12 4 13 5 14 6 15 7 16 8 17 9 18 10 8 11 7 12
REMARK SMILES IDX 6 13 5 14 4 15 3 16 2 17 1 18
REMARK H PARENT
REMARK Flexibility Score: inf
ROOT
ATOM      1  C   UNL     1     113.454 101.983 112.637  1.00  0.00     0.000 C 
ENDROOT
BRANCH   1   2
ATOM      2  C   UNL     1     114.296 102.512 111.468  1.00  0.00     0.000 C 
BRANCH   2   3
ATOM      3  C   UNL     1     114.519 104.026 111.594  1.00  0.00     0.000 C 
BRANCH   3   4
ATOM      4  C   UNL     1     114.586 104.502 113.056  1.00  0.00     0.000 C 
BRANCH   4   5
ATOM      5  C   UNL     1     115.948 105.073 113.495  1.00  0.00     0.000 C 
BRANCH   5   6
ATOM      6  C   UNL     1     117.163 104.560 112.696  1.00  0.00     0.006 C 
BRANCH   6   7
ATOM      7  C   UNL     1     118.416 104.296 113.547  1.00  0.00     0.053 C 
BRANCH   7   8
ATOM      8  C   UNL     1     119.344 105.471 113.556  1.00  0.00     0.041 C 
ATOM      9  O   UNL     1     120.124 105.654 114.527  1.00  0.00    -0.550 OA
ATOM     10  O   UNL     1     119.324 106.382 112.507  1.00  0.00    -0.550 OA
ENDBRANCH   7   8
ENDBRANCH   6   7
ENDBRANCH   5   6
ENDBRANCH   4   5
ENDBRANCH   3   4
ENDBRANCH   2   3
ENDBRANCH   1   2
BRANCH   1  11
ATOM     11  C   UNL     1     111.947 102.246 112.455  1.00  0.00     0.000 C 
BRANCH  11  12
ATOM     12  C   UNL     1     111.435 102.117 111.007  1.00  0.00    -0.000 C 
BRANCH  12  13
ATOM     13  C   UNL     1     110.121 102.865 110.706  1.00  0.00    -0.000 C 
BRANCH  13  14
ATOM     14  C   UNL     1     110.167 104.381 110.968  1.00  0.00    -0.000 C 
BRANCH  14  15
ATOM     15  C   UNL     1     108.798 105.058 110.784  1.00  0.00    -0.000 C 
BRANCH  15  16
ATOM     16  C   UNL     1     108.893 106.592 110.785  1.00  0.00    -0.000 C 
BRANCH  16  17
ATOM     17  C   UNL     1     107.792 107.250 111.630  1.00  0.00    -0.003 C 
ATOM     18  C   UNL     1     107.455 106.401 112.852  1.00  0.00     0.004 C 
ENDBRANCH  16  17
ENDBRANCH  15  16
ENDBRANCH  14  15
ENDBRANCH  13  14
ENDBRANCH  12  13
ENDBRANCH  11  12
ENDBRANCH   1  11
TORSDOF 14
ENDMDL
MODEL 4
REMARK VINA RESULT:    -4.345      0.587      1.329
REMARK INTER + INTRA:          -8.629
REMARK INTER:                  -8.111
REMARK INTRA:                  -0.518
REMARK UNBOUND:                -0.729
REMARK SMILES CCCCCCCCCCCCCCCC(=O)[O-]
REMARK SMILES IDX 9 1 10 2 11 3 12 4 13 5 14 6 15 7 16 8 17 9 18 10 8 11 7 12
REMARK SMILES IDX 6 13 5 14 4 15 3 16 2 17 1 18
REMARK H PARENT
REMARK Flexibility Score: inf
ROOT
ATOM      1  C   UNL     1     110.569 102.713 111.623  1.00  0.00     0.000 C 
ENDROOT
BRANCH   1   2
ATOM      2  C   UNL     1     111.833 101.998 111.124  1.00  0.00     0.000 C 
BRANCH   2   3
ATOM      3  C   UNL     1     113.031 102.302 112.034  1.00  0.00     0.000 C 
BRANCH   3   4
ATOM      4  C   UNL     1     113.963 103.383 111.457  1.00  0.00     0.000 C 
BRANCH   4   5
ATOM      5  C   UNL     1     114.659 104.273 112.505  1.00  0.00     0.000 C 
BRANCH   5   6
ATOM      6  C   UNL     1     116.197 104.159 112.544  1.00  0.00     0.006 C 
BRANCH   6   7
ATOM      7  C   UNL     1     116.890 105.229 113.403  1.00  0.00     0.053 C 
BRANCH   7   8
ATOM      8  C   UNL     1     118.380 105.083 113.385  1.00  0.00     0.041 C 
ATOM      9  O   UNL     1     118.928 104.113 113.971  1.00  0.00    -0.550 OA
ATOM     10  O   UNL     1     119.165 106.036 112.750  1.00  0.00    -0.550 OA
ENDBRANCH   7   8
ENDBRANCH   6   7
ENDBRANCH   5   6
ENDBRANCH   4   5
ENDBRANCH   3   4
ENDBRANCH   2   3
ENDBRANCH   1   2
BRANCH   1  11
ATOM     11  C   UNL     1     110.224 103.965 110.795  1.00  0.00     0.000 C 
BRANCH  11  12
ATOM     12  C   UNL     1     108.902 104.656 111.182  1.00  0.00    -0.000 C 
BRANCH  12  13
ATOM     13  C   UNL     1     108.737 106.098 110.662  1.00  0.00    -0.000 C 
BRANCH  13  14
ATOM     14  C   UNL     1     108.134 107.086 111.676  1.00  0.00    -0.000 C 
BRANCH  14  15
ATOM     15  C   UNL     1     107.320 106.385 112.777  1.00  0.00    -0.000 C 
BRANCH  15  16
ATOM     16  C   UNL     1     106.070 107.181 113.184  1.00  0.00    -0.000 C 
BRANCH  16  17
ATOM     17  C   UNL     1     105.148 106.391 114.124  1.00  0.00    -0.003 C 
ATOM     18  C   UNL     1     103.851 106.000 113.423  1.00  0.00     0.004 C 
ENDBRANCH  16  17
ENDBRANCH  15  16
ENDBRANCH  14  15
ENDBRANCH  13  14
ENDBRANCH  12  13
ENDBRANCH  11  12
ENDBRANCH   1  11
TORSDOF 14
ENDMDL
MODEL 5
REMARK VINA RESULT:    -4.220      4.558      8.847
REMARK INTER + INTRA:          -8.402
REMARK INTER:                  -7.570
REMARK INTRA:                  -0.832
REMARK UNBOUND:                -0.729
REMARK SMILES CCCCCCCCCCCCCCCC(=O)[O-]
REMARK SMILES IDX 9 1 10 2 11 3 12 4 13 5 14 6 15 7 16 8 17 9 18 10 8 11 7 12
REMARK SMILES IDX 6 13 5 14 4 15 3 16 2 17 1 18
REMARK H PARENT
REMARK Flexibility Score: inf
ROOT
ATOM      1  C   UNL     1     111.568 101.833 111.404  1.00  0.00     0.000 C 
ENDROOT
BRANCH   1   2
ATOM      2  C   UNL     1     110.420 102.784 111.771  1.00  0.00     0.000 C 
BRANCH   2   3
ATOM      3  C   UNL     1     110.321 103.938 110.762  1.00  0.00     0.000 C 
BRANCH   3   4
ATOM      4  C   UNL     1     108.971 104.676 110.829  1.00  0.00     0.000 C 
BRANCH   4   5
ATOM      5  C   UNL     1     109.067 106.214 110.826  1.00  0.00     0.000 C 
BRANCH   5   6
ATOM      6  C   UNL     1     107.915 106.944 111.545  1.00  0.00     0.006 C 
BRANCH   6   7
ATOM      7  C   UNL     1     107.693 106.501 113.000  1.00  0.00     0.053 C 
BRANCH   7   8
ATOM      8  C   UNL     1     106.238 106.368 113.329  1.00  0.00     0.041 C 
ATOM      9  O   UNL     1     105.563 107.385 113.640  1.00  0.00    -0.550 OA
ATOM     10  O   UNL     1     105.635 105.117 113.325  1.00  0.00    -0.550 OA
ENDBRANCH   7   8
ENDBRANCH   6   7
ENDBRANCH   5   6
ENDBRANCH   4   5
ENDBRANCH   3   4
ENDBRANCH   2   3
ENDBRANCH   1   2
BRANCH   1  11
ATOM     11  C   UNL     1     112.896 102.206 112.088  1.00  0.00     0.000 C 
BRANCH  11  12
ATOM     12  C   UNL     1     113.967 102.797 111.150  1.00  0.00    -0.000 C 
BRANCH  12  13
ATOM     13  C   UNL     1     114.497 104.188 111.553  1.00  0.00    -0.000 C 
BRANCH  13  14
ATOM     14  C   UNL     1     114.586 104.431 113.070  1.00  0.00    -0.000 C 
BRANCH  14  15
ATOM     15  C   UNL     1     115.989 104.870 113.521  1.00  0.00    -0.000 C 
BRANCH  15  16
ATOM     16  C   UNL     1     117.084 104.465 112.522  1.00  0.00    -0.000 C 
BRANCH  16  17
ATOM     17  C   UNL     1     118.380 105.268 112.710  1.00  0.00    -0.003 C 
ATOM     18  C   UNL     1     119.092 104.869 113.998  1.00  0.00     0.004 C 
ENDBRANCH  16  17
ENDBRANCH  15  16
ENDBRANCH  14  15
ENDBRANCH  13  14
ENDBRANCH  12  13
ENDBRANCH  11  12
ENDBRANCH   1  11
TORSDOF 14
ENDMDL
MODEL 6
REMARK VINA RESULT:    -4.219      4.711      8.872
REMARK INTER + INTRA:          -8.401
REMARK INTER:                  -7.626
REMARK INTRA:                  -0.774
REMARK UNBOUND:                -0.729
REMARK SMILES CCCCCCCCCCCCCCCC(=O)[O-]
REMARK SMILES IDX 9 1 10 2 11 3 12 4 13 5 14 6 15 7 16 8 17 9 18 10 8 11 7 12
REMARK SMILES IDX 6 13 5 14 4 15 3 16 2 17 1 18
REMARK H PARENT
REMARK Flexibility Score: inf
ROOT
ATOM      1  C   UNL     1     110.948 101.870 111.324  1.00  0.00     0.000 C 
ENDROOT
BRANCH   1   2
ATOM      2  C   UNL     1     110.366 102.951 110.403  1.00  0.00     0.000 C 
BRANCH   2   3
ATOM      3  C   UNL     1     110.040 104.227 111.193  1.00  0.00     0.000 C 
BRANCH   3   4
ATOM      4  C   UNL     1     108.833 104.993 110.621  1.00  0.00     0.000 C 
BRANCH   4   5
ATOM      5  C   UNL     1     108.555 106.358 111.279  1.00  0.00     0.000 C 
BRANCH   5   6
ATOM      6  C   UNL     1     107.874 106.295 112.661  1.00  0.00     0.006 C 
BRANCH   6   7
ATOM      7  C   UNL     1     106.584 107.125 112.771  1.00  0.00     0.053 C 
BRANCH   7   8
ATOM      8  C   UNL     1     105.605 106.513 113.724  1.00  0.00     0.041 C 
ATOM      9  O   UNL     1     105.206 105.332 113.552  1.00  0.00    -0.550 OA
ATOM     10  O   UNL     1     105.105 107.261 114.783  1.00  0.00    -0.550 OA
ENDBRANCH   7   8
ENDBRANCH   6   7
ENDBRANCH   5   6
ENDBRANCH   4   5
ENDBRANCH   3   4
ENDBRANCH   2   3
ENDBRANCH   1   2
BRANCH   1  11
ATOM     11  C   UNL     1     111.906 102.441 112.387  1.00  0.00     0.000 C 
BRANCH  11  12
ATOM     12  C   UNL     1     113.391 102.081 112.184  1.00  0.00    -0.000 C 
BRANCH  12  13
ATOM     13  C   UNL     1     114.153 102.977 111.187  1.00  0.00    -0.000 C 
BRANCH  13  14
ATOM     14  C   UNL     1     114.666 104.304 111.774  1.00  0.00    -0.000 C 
BRANCH  14  15
ATOM     15  C   UNL     1     115.163 104.162 113.222  1.00  0.00    -0.000 C 
BRANCH  15  16
ATOM     16  C   UNL     1     116.219 105.216 113.590  1.00  0.00    -0.000 C 
BRANCH  16  17
ATOM     17  C   UNL     1     117.584 104.932 112.947  1.00  0.00    -0.003 C 
ATOM     18  C   UNL     1     118.613 104.524 113.996  1.00  0.00     0.004 C 
ENDBRANCH  16  17
ENDBRANCH  15  16
ENDBRANCH  14  15
ENDBRANCH  13  14
ENDBRANCH  12  13
ENDBRANCH  11  12
ENDBRANCH   1  11
TORSDOF 14
ENDMDL
MODEL 7
REMARK VINA RESULT:    -3.657      1.476      2.663
REMARK INTER + INTRA:          -7.378
REMARK INTER:                  -6.826
REMARK INTRA:                  -0.552
REMARK UNBOUND:                -0.729
REMARK SMILES CCCCCCCCCCCCCCCC(=O)[O-]
REMARK SMILES IDX 9 1 10 2 11 3 12 4 13 5 14 6 15 7 16 8 17 9 18 10 8 11 7 12
REMARK SMILES IDX 6 13 5 14 4 15 3 16 2 17 1 18
REMARK H PARENT
REMARK Flexibility Score: inf
ROOT
ATOM      1  C   UNL     1     110.497 104.230 111.132  1.00  0.00     0.000 C 
ENDROOT
BRANCH   1   2
ATOM      2  C   UNL     1     110.924 102.762 110.987  1.00  0.00     0.000 C 
BRANCH   2   3
ATOM      3  C   UNL     1     111.716 102.298 112.218  1.00  0.00     0.000 C 
BRANCH   3   4
ATOM      4  C   UNL     1     113.201 102.031 111.908  1.00  0.00     0.000 C 
BRANCH   4   5
ATOM      5  C   UNL     1     113.947 103.198 111.232  1.00  0.00     0.000 C 
BRANCH   5   6
ATOM      6  C   UNL     1     114.567 104.227 112.199  1.00  0.00     0.006 C 
BRANCH   6   7
ATOM      7  C   UNL     1     116.036 103.952 112.560  1.00  0.00     0.053 C 
BRANCH   7   8
ATOM      8  C   UNL     1     116.612 105.033 113.421  1.00  0.00     0.041 C 
ATOM      9  O   UNL     1     115.890 105.990 113.806  1.00  0.00    -0.550 OA
ATOM     10  O   UNL     1     117.956 105.002 113.771  1.00  0.00    -0.550 OA
ENDBRANCH   7   8
ENDBRANCH   6   7
ENDBRANCH   5   6
ENDBRANCH   4   5
ENDBRANCH   3   4
ENDBRANCH   2   3
ENDBRANCH   1   2
BRANCH   1  11
ATOM     11  C   UNL     1     109.025 104.465 110.743  1.00  0.00     0.000 C 
BRANCH  11  12
ATOM     12  C   UNL     1     108.496 105.884 111.032  1.00  0.00    -0.000 C 
BRANCH  12  13
ATOM     13  C   UNL     1     108.140 106.164 112.506  1.00  0.00    -0.000 C 
BRANCH  13  14
ATOM     14  C   UNL     1     106.853 106.982 112.715  1.00  0.00    -0.000 C 
BRANCH  14  15
ATOM     15  C   UNL     1     105.874 106.311 113.694  1.00  0.00    -0.000 C 
BRANCH  15  16
ATOM     16  C   UNL     1     104.816 107.286 114.233  1.00  0.00    -0.000 C 
BRANCH  16  17
ATOM     17  C   UNL     1     104.762 107.308 115.767  1.00  0.00    -0.003 C 
ATOM     18  C   UNL     1     105.448 108.551 116.325  1.00  0.00     0.004 C 
ENDBRANCH  16  17
ENDBRANCH  15  16
ENDBRANCH  14  15
ENDBRANCH  13  14
ENDBRANCH  12  13
ENDBRANCH  11  12
ENDBRANCH   1  11
TORSDOF 14
ENDMDL
MODEL 8
REMARK VINA RESULT:    -3.524      4.951      9.553
REMARK INTER + INTRA:          -7.137
REMARK INTER:                  -6.741
REMARK INTRA:                  -0.396
REMARK UNBOUND:                -0.729
REMARK SMILES CCCCCCCCCCCCCCCC(=O)[O-]
REMARK SMILES IDX 9 1 10 2 11 3 12 4 13 5 14 6 15 7 16 8 17 9 18 10 8 11 7 12
REMARK SMILES IDX 6 13 5 14 4 15 3 16 2 17 1 18
REMARK H PARENT
REMARK Flexibility Score: inf
ROOT
ATOM      1  C   UNL     1     110.054 104.228 111.514  1.00  0.00     0.000 C 
ENDROOT
BRANCH   1   2
ATOM      2  C   UNL     1     108.927 104.798 110.641  1.00  0.00     0.000 C 
BRANCH   2   3
ATOM      3  C   UNL     1     108.514 106.196 111.122  1.00  0.00     0.000 C 
BRANCH   3   4
ATOM      4  C   UNL     1     108.024 106.206 112.582  1.00  0.00     0.000 C 
BRANCH   4   5
ATOM      5  C   UNL     1     106.710 106.974 112.823  1.00  0.00     0.000 C 
BRANCH   5   6
ATOM      6  C   UNL     1     105.822 106.415 113.954  1.00  0.00     0.006 C 
BRANCH   6   7
ATOM      7  C   UNL     1     104.762 107.400 114.473  1.00  0.00     0.053 C 
BRANCH   7   8
ATOM      8  C   UNL     1     104.914 107.664 115.939  1.00  0.00     0.041 C 
ATOM      9  O   UNL     1     104.350 106.915 116.780  1.00  0.00    -0.550 OA
ATOM     10  O   UNL     1     105.650 108.758 116.377  1.00  0.00    -0.550 OA
ENDBRANCH   7   8
ENDBRANCH   6   7
ENDBRANCH   5   6
ENDBRANCH   4   5
ENDBRANCH   3   4
ENDBRANCH   2   3
ENDBRANCH   1   2
BRANCH   1  11
ATOM     11  C   UNL     1     110.685 102.955 110.921  1.00  0.00     0.000 C 
BRANCH  11  12
ATOM     12  C   UNL     1     111.716 102.257 111.830  1.00  0.00    -0.000 C 
BRANCH  12  13
ATOM     13  C   UNL     1     113.187 102.412 111.393  1.00  0.00    -0.000 C 
BRANCH  13  14
ATOM     14  C   UNL     1     113.985 103.469 112.177  1.00  0.00    -0.000 C 
BRANCH  14  15
ATOM     15  C   UNL     1     115.469 103.512 111.775  1.00  0.00    -0.000 C 
BRANCH  15  16
ATOM     16  C   UNL     1     116.282 104.501 112.625  1.00  0.00    -0.000 C 
BRANCH  16  17
ATOM     17  C   UNL     1     117.797 104.271 112.510  1.00  0.00    -0.003 C 
ATOM     18  C   UNL     1     118.575 105.340 113.271  1.00  0.00     0.004 C 
ENDBRANCH  16  17
ENDBRANCH  15  16
ENDBRANCH  14  15
ENDBRANCH  13  14
ENDBRANCH  12  13
ENDBRANCH  11  12
ENDBRANCH   1  11
TORSDOF 14
ENDMDL
