MODEL 1
REMARK VINA RESULT:   135.709      0.000      0.000
REMARK INTER + INTRA:         148.521
REMARK INTER:                 147.609
REMARK INTRA:                   0.912
REMARK UNBOUND:                 0.912
REMARK SMILES C[C@H]1[C@H](C)CC[C@@]2(C(=O)[O-])CC[C@]3(C)C(=CC[C@@H]4[C@@]5(C)CC[C@H](O)C(C)(C)[C@@H]5CC[C@@]43C)[C@H]12
REMARK SMILES IDX 7 1 6 2 11 3 33 4 5 5 12 6 15 7 2 8 3 9 13 10 16 11 1 12
REMARK SMILES IDX 4 13 14 14 31 15 17 16 18 17 30 18 32 19 19 20 29 21 28 22
REMARK SMILES IDX 21 23 20 24 25 25 22 26 23 27 26 28 27 29 8 30 9 31 10 32
REMARK SMILES IDX 24 33
REMARK H PARENT 24 34
REMARK Flexibility Score: inf
ROOT
ATOM      1  C   UNL     1      -2.577   1.831   0.598  1.00  0.00     0.017 C 
ATOM      2  C   UNL     1      -3.092   3.246   0.245  1.00  0.00     0.014 C 
ATOM      3  C   UNL     1      -2.383   1.011  -0.737  1.00  0.00     0.014 C 
ATOM      4  C   UNL     1      -1.203   1.957   1.344  1.00  0.00     0.030 C 
ATOM      5  C   UNL     1      -3.250   4.116   1.492  1.00  0.00     0.004 C 
ATOM      6  C   UNL     1      -1.006   0.316  -0.877  1.00  0.00     0.013 C 
ATOM      7  C   UNL     1      -0.672   0.529   1.606  1.00  0.00    -0.063 C 
ATOM      8  C   UNL     1      -1.197   2.970   2.546  1.00  0.00    -0.003 C 
ATOM      9  C   UNL     1      -1.896   4.322   2.184  1.00  0.00    -0.011 C 
ATOM     10  C   UNL     1      -0.574  -0.449   0.426  1.00  0.00    -0.006 C 
ATOM     11  C   UNL     1      -0.290   0.097   2.823  1.00  0.00    -0.027 C 
ATOM     12  C   UNL     1       0.256   3.279   2.991  1.00  0.00     0.008 C 
ATOM     13  C   UNL     1      -2.093   5.211   3.425  1.00  0.00     0.008 C 
ATOM     14  C   UNL     1      -1.620  -1.602   0.608  1.00  0.00     0.017 C 
ATOM     15  C   UNL     1       0.925  -1.040   0.378  1.00  0.00    -0.020 C 
ATOM     16  C   UNL     1       0.390  -1.230   2.991  1.00  0.00     0.032 C 
ATOM     17  C   UNL     1       1.408  -1.532   1.839  1.00  0.00     0.006 C 
ATOM     18  C   UNL     1       1.912   0.039  -0.157  1.00  0.00     0.008 C 
ATOM     19  C   UNL     1       0.962  -2.230  -0.640  1.00  0.00     0.012 C 
ATOM     20  C   UNL     1       2.923  -1.192   2.252  1.00  0.00    -0.025 C 
ATOM     21  C   UNL     1       3.400  -0.365  -0.156  1.00  0.00     0.005 C 
ATOM     22  C   UNL     1       3.818  -1.346   0.973  1.00  0.00     0.003 C 
ATOM     23  C   UNL     1       3.385  -2.244   3.320  1.00  0.00     0.010 C 
ATOM     24  C   UNL     1       3.055   0.239   2.876  1.00  0.00     0.012 C 
ATOM     25  C   UNL     1       5.387  -1.459   1.184  1.00  0.00    -0.006 C 
ATOM     26  C   UNL     1       4.899  -2.282   3.564  1.00  0.00     0.033 C 
ATOM     27  C   UNL     1       5.671  -2.545   2.270  1.00  0.00     0.120 C 
ATOM     28  C   UNL     1       6.083  -0.120   1.556  1.00  0.00     0.014 C 
ATOM     29  C   UNL     1       6.036  -1.944  -0.141  1.00  0.00     0.014 C 
ENDROOT
BRANCH   1  30
ATOM     30  C   UNL     1      -3.641   1.140   1.454  1.00  0.00     0.048 C 
ATOM     31  O   UNL     1      -4.125   1.735   2.454  1.00  0.00    -0.550 OA
ATOM     32  O   UNL     1      -4.078  -0.149   1.173  1.00  0.00    -0.550 OA
ENDBRANCH   1  30
BRANCH  27  33
ATOM     33  O   UNL     1       7.044  -2.613   2.577  1.00  0.00    -0.393 OA
ATOM     34  H   UNL     1       7.438  -1.724   2.373  1.00  0.00     0.210 HD
ENDBRANCH  27  33
TORSDOF 2
ENDMDL
MODEL 2
REMARK VINA RESULT:   137.914      2.743      5.122
REMARK INTER + INTRA:         150.920
REMARK INTER:                 149.391
REMARK INTRA:                   1.529
REMARK UNBOUND:                 0.912
REMARK SMILES C[C@H]1[C@H](C)CC[C@@]2(C(=O)[O-])CC[C@]3(C)C(=CC[C@@H]4[C@@]5(C)CC[C@H](O)C(C)(C)[C@@H]5CC[C@@]43C)[C@H]12
REMARK SMILES IDX 7 1 6 2 11 3 33 4 5 5 12 6 15 7 2 8 3 9 13 10 16 11 1 12
REMARK SMILES IDX 4 13 14 14 31 15 17 16 18 17 30 18 32 19 19 20 29 21 28 22
REMARK SMILES IDX 21 23 20 24 25 25 22 26 23 27 26 28 27 29 8 30 9 31 10 32
REMARK SMILES IDX 24 33
REMARK H PARENT 24 34
REMARK Flexibility Score: inf
ROOT
ATOM      1  C   UNL     1      -1.066  -2.771   1.096  1.00  0.00     0.017 C 
ATOM      2  C   UNL     1      -1.883  -4.007   0.649  1.00  0.00     0.014 C 
ATOM      3  C   UNL     1      -0.824  -2.857   2.653  1.00  0.00     0.014 C 
ATOM      4  C   UNL     1       0.311  -2.769   0.346  1.00  0.00     0.030 C 
ATOM      5  C   UNL     1      -2.108  -4.017  -0.863  1.00  0.00     0.004 C 
ATOM      6  C   UNL     1       0.649  -2.659   3.092  1.00  0.00     0.013 C 
ATOM      7  C   UNL     1       1.138  -1.575   0.876  1.00  0.00    -0.063 C 
ATOM      8  C   UNL     1       0.213  -2.955  -1.212  1.00  0.00    -0.003 C 
ATOM      9  C   UNL     1      -0.771  -4.104  -1.609  1.00  0.00    -0.011 C 
ATOM     10  C   UNL     1       1.333  -1.428   2.393  1.00  0.00    -0.006 C 
ATOM     11  C   UNL     1       1.699  -0.652   0.071  1.00  0.00    -0.027 C 
ATOM     12  C   UNL     1       1.607  -3.280  -1.810  1.00  0.00     0.008 C 
ATOM     13  C   UNL     1      -1.039  -4.125  -3.125  1.00  0.00     0.008 C 
ATOM     14  C   UNL     1       0.557  -0.165   2.903  1.00  0.00     0.017 C 
ATOM     15  C   UNL     1       2.910  -1.291   2.692  1.00  0.00    -0.020 C 
ATOM     16  C   UNL     1       2.642   0.377   0.619  1.00  0.00     0.032 C 
ATOM     17  C   UNL     1       3.601  -0.210   1.711  1.00  0.00     0.006 C 
ATOM     18  C   UNL     1       3.613  -2.670   2.520  1.00  0.00     0.008 C 
ATOM     19  C   UNL     1       3.100  -0.871   4.190  1.00  0.00     0.012 C 
ATOM     20  C   UNL     1       5.047  -0.590   1.120  1.00  0.00    -0.025 C 
ATOM     21  C   UNL     1       5.146  -2.658   2.678  1.00  0.00     0.005 C 
ATOM     22  C   UNL     1       5.845  -1.340   2.243  1.00  0.00     0.003 C 
ATOM     23  C   UNL     1       5.798   0.742   0.772  1.00  0.00     0.010 C 
ATOM     24  C   UNL     1       4.939  -1.455  -0.182  1.00  0.00     0.012 C 
ATOM     25  C   UNL     1       7.417  -1.471   2.065  1.00  0.00    -0.006 C 
ATOM     26  C   UNL     1       7.303   0.580   0.527  1.00  0.00     0.033 C 
ATOM     27  C   UNL     1       8.002  -0.063   1.727  1.00  0.00     0.120 C 
ATOM     28  C   UNL     1       7.858  -2.515   1.001  1.00  0.00     0.014 C 
ATOM     29  C   UNL     1       8.037  -1.922   3.414  1.00  0.00     0.014 C 
ENDROOT
BRANCH   1  30
ATOM     30  C   UNL     1      -1.896  -1.522   0.792  1.00  0.00     0.048 C 
ATOM     31  O   UNL     1      -3.025  -1.636   0.243  1.00  0.00    -0.550 OA
ATOM     32  O   UNL     1      -1.425  -0.246   1.082  1.00  0.00    -0.550 OA
ENDBRANCH   1  30
BRANCH  27  33
ATOM     33  O   UNL     1       9.381  -0.136   1.451  1.00  0.00    -0.393 OA
ATOM     34  H   UNL     1       9.697   0.787   1.268  1.00  0.00     0.210 HD
ENDBRANCH  27  33
TORSDOF 2
ENDMDL
