MODEL 1
REMARK VINA RESULT:    -7.620      0.000      0.000
REMARK INTER + INTRA:          -9.752
REMARK INTER:                  -9.402
REMARK INTRA:                  -0.350
REMARK UNBOUND:                -0.350
REMARK SMILES Oc1cc(O)c2cc(O)c(-c3cc(O)c(O)c(O)c3)[o+]c2c1
REMARK SMILES IDX 10 1 20 2 21 3 22 4 2 5 3 6 4 7 6 8 7 9 8 10 11 11 12 12
REMARK SMILES IDX 13 13 19 14 15 15 17 16 14 17 16 19 18 21 9 23 1 25 5 27
REMARK H PARENT 14 18 16 20 18 22 9 24 1 26 5 28
REMARK Flexibility Score: inf
ROOT
ATOM      1  C   UNL     1     -16.973  38.917  12.554  1.00  0.00     0.402 A 
ATOM      2  O   UNL     1     -16.356  38.915  11.374  1.00  0.00    -0.202 OA
ATOM      3  C   UNL     1     -16.480  39.895  10.486  1.00  0.00     0.368 A 
ATOM      4  C   UNL     1     -15.794  39.820   9.270  1.00  0.00     0.162 A 
ATOM      5  C   UNL     1     -15.916  40.849   8.327  1.00  0.00     0.128 A 
ATOM      6  C   UNL     1     -16.726  41.955   8.602  1.00  0.00     0.093 A 
ATOM      7  C   UNL     1     -17.422  42.044   9.817  1.00  0.00     0.136 A 
ATOM      8  C   UNL     1     -17.300  41.010  10.764  1.00  0.00     0.125 A 
ATOM      9  C   UNL     1     -17.977  41.041  11.988  1.00  0.00     0.078 A 
ATOM     10  C   UNL     1     -17.827  39.985  12.892  1.00  0.00     0.223 A 
ENDROOT
BRANCH   1  11
ATOM     11  C   UNL     1     -16.748  37.770  13.464  1.00  0.00     0.091 A 
ATOM     12  C   UNL     1     -15.582  37.670  14.239  1.00  0.00     0.068 A 
ATOM     13  C   UNL     1     -15.367  36.571  15.078  1.00  0.00     0.162 A 
ATOM     14  C   UNL     1     -17.689  36.733  13.512  1.00  0.00     0.068 A 
ATOM     15  C   UNL     1     -16.336  35.540  15.143  1.00  0.00     0.200 A 
ATOM     16  C   UNL     1     -17.493  35.630  14.348  1.00  0.00     0.162 A 
BRANCH  13  17
ATOM     17  O   UNL     1     -14.183  36.542  15.819  1.00  0.00    -0.504 OA
ATOM     18  H   UNL     1     -14.092  36.107  16.725  1.00  0.00     0.293 HD
ENDBRANCH  13  17
BRANCH  15  19
ATOM     19  O   UNL     1     -16.183  34.424  15.971  1.00  0.00    -0.502 OA
ATOM     20  H   UNL     1     -16.621  33.530  15.805  1.00  0.00     0.293 HD
ENDBRANCH  15  19
BRANCH  16  21
ATOM     21  O   UNL     1     -18.465  34.630  14.376  1.00  0.00    -0.504 OA
ATOM     22  H   UNL     1     -18.358  33.786  14.924  1.00  0.00     0.293 HD
ENDBRANCH  16  21
ENDBRANCH   1  11
BRANCH  10  23
ATOM     23  O   UNL     1     -18.538  39.986  14.093  1.00  0.00    -0.500 OA
ATOM     24  H   UNL     1     -19.397  40.512  14.202  1.00  0.00     0.294 HD
ENDBRANCH  10  23
BRANCH   5  25
ATOM     25  O   UNL     1     -15.234  40.783   7.114  1.00  0.00    -0.507 OA
ATOM     26  H   UNL     1     -15.027  41.617   6.576  1.00  0.00     0.293 HD
ENDBRANCH   5  25
BRANCH   7  27
ATOM     27  O   UNL     1     -18.229  43.152  10.078  1.00  0.00    -0.507 OA
ATOM     28  H   UNL     1     -17.883  43.952  10.594  1.00  0.00     0.293 HD
ENDBRANCH   7  27
TORSDOF 7
ENDMDL
MODEL 2
REMARK VINA RESULT:    -7.371      1.226      7.148
REMARK INTER + INTRA:          -9.444
REMARK INTER:                  -9.317
REMARK INTRA:                  -0.127
REMARK UNBOUND:                -0.350
REMARK SMILES Oc1cc(O)c2cc(O)c(-c3cc(O)c(O)c(O)c3)[o+]c2c1
REMARK SMILES IDX 10 1 20 2 21 3 22 4 2 5 3 6 4 7 6 8 7 9 8 10 11 11 12 12
REMARK SMILES IDX 13 13 19 14 15 15 17 16 14 17 16 19 18 21 9 23 1 25 5 27
REMARK H PARENT 14 18 16 20 18 22 9 24 1 26 5 28
REMARK Flexibility Score: inf
ROOT
ATOM      1  C   UNL     1     -16.249  39.226  12.142  1.00  0.00     0.402 A 
ATOM      2  O   UNL     1     -17.141  38.258  12.351  1.00  0.00    -0.202 OA
ATOM      3  C   UNL     1     -16.925  37.234  13.169  1.00  0.00     0.368 A 
ATOM      4  C   UNL     1     -17.916  36.261  13.337  1.00  0.00     0.162 A 
ATOM      5  C   UNL     1     -17.701  35.177  14.199  1.00  0.00     0.128 A 
ATOM      6  C   UNL     1     -16.491  35.067  14.892  1.00  0.00     0.093 A 
ATOM      7  C   UNL     1     -15.488  36.034  14.733  1.00  0.00     0.136 A 
ATOM      8  C   UNL     1     -15.704  37.123  13.867  1.00  0.00     0.125 A 
ATOM      9  C   UNL     1     -14.736  38.112  13.663  1.00  0.00     0.078 A 
ATOM     10  C   UNL     1     -14.997  39.170  12.787  1.00  0.00     0.223 A 
ENDROOT
BRANCH   1  11
ATOM     11  C   UNL     1     -16.609  40.322  11.214  1.00  0.00     0.091 A 
ATOM     12  C   UNL     1     -15.810  40.630  10.102  1.00  0.00     0.068 A 
ATOM     13  C   UNL     1     -16.146  41.682   9.243  1.00  0.00     0.162 A 
ATOM     14  C   UNL     1     -17.738  41.107  11.480  1.00  0.00     0.068 A 
ATOM     15  C   UNL     1     -17.305  42.454   9.502  1.00  0.00     0.200 A 
ATOM     16  C   UNL     1     -18.091  42.160  10.630  1.00  0.00     0.162 A 
BRANCH  13  17
ATOM     17  O   UNL     1     -15.302  41.928   8.157  1.00  0.00    -0.504 OA
ATOM     18  H   UNL     1     -14.342  41.623   8.104  1.00  0.00     0.293 HD
ENDBRANCH  13  17
BRANCH  15  19
ATOM     19  O   UNL     1     -17.698  43.510   8.674  1.00  0.00    -0.502 OA
ATOM     20  H   UNL     1     -18.056  43.393   7.737  1.00  0.00     0.293 HD
ENDBRANCH  15  19
BRANCH  16  21
ATOM     21  O   UNL     1     -19.234  42.904  10.926  1.00  0.00    -0.504 OA
ATOM     22  H   UNL     1     -19.867  43.231  10.207  1.00  0.00     0.293 HD
ENDBRANCH  16  21
ENDBRANCH   1  11
BRANCH  10  23
ATOM     23  O   UNL     1     -14.017  40.132  12.541  1.00  0.00    -0.500 OA
ATOM     24  H   UNL     1     -14.236  41.010  12.085  1.00  0.00     0.294 HD
ENDBRANCH  10  23
BRANCH   5  25
ATOM     25  O   UNL     1     -18.683  34.205  14.373  1.00  0.00    -0.507 OA
ATOM     26  H   UNL     1     -18.541  33.414  14.991  1.00  0.00     0.293 HD
ENDBRANCH   5  25
BRANCH   7  27
ATOM     27  O   UNL     1     -14.285  35.911  15.430  1.00  0.00    -0.507 OA
ATOM     28  H   UNL     1     -14.032  35.053  15.904  1.00  0.00     0.293 HD
ENDBRANCH   7  27
TORSDOF 7
ENDMDL
MODEL 3
REMARK VINA RESULT:    -7.091      2.063      7.236
REMARK INTER + INTRA:          -9.099
REMARK INTER:                  -8.829
REMARK INTRA:                  -0.271
REMARK UNBOUND:                -0.350
REMARK SMILES Oc1cc(O)c2cc(O)c(-c3cc(O)c(O)c(O)c3)[o+]c2c1
REMARK SMILES IDX 10 1 20 2 21 3 22 4 2 5 3 6 4 7 6 8 7 9 8 10 11 11 12 12
REMARK SMILES IDX 13 13 19 14 15 15 17 16 14 17 16 19 18 21 9 23 1 25 5 27
REMARK H PARENT 14 18 16 20 18 22 9 24 1 26 5 28
REMARK Flexibility Score: inf
ROOT
ATOM      1  C   UNL     1     -15.758  40.266  11.923  1.00  0.00     0.402 A 
ATOM      2  O   UNL     1     -14.815  39.588  12.575  1.00  0.00    -0.202 OA
ATOM      3  C   UNL     1     -15.078  38.559  13.373  1.00  0.00     0.368 A 
ATOM      4  C   UNL     1     -14.030  37.896  14.019  1.00  0.00     0.162 A 
ATOM      5  C   UNL     1     -14.295  36.808  14.861  1.00  0.00     0.128 A 
ATOM      6  C   UNL     1     -15.613  36.383  15.056  1.00  0.00     0.093 A 
ATOM      7  C   UNL     1     -16.676  37.038  14.416  1.00  0.00     0.136 A 
ATOM      8  C   UNL     1     -16.409  38.131  13.571  1.00  0.00     0.125 A 
ATOM      9  C   UNL     1     -17.429  38.828  12.913  1.00  0.00     0.078 A 
ATOM     10  C   UNL     1     -17.112  39.912  12.089  1.00  0.00     0.223 A 
ENDROOT
BRANCH   1  11
ATOM     11  C   UNL     1     -15.339  41.389  11.054  1.00  0.00     0.091 A 
ATOM     12  C   UNL     1     -15.629  42.721  11.391  1.00  0.00     0.068 A 
ATOM     13  C   UNL     1     -15.249  43.775  10.552  1.00  0.00     0.162 A 
ATOM     14  C   UNL     1     -14.690  41.119   9.842  1.00  0.00     0.068 A 
ATOM     15  C   UNL     1     -14.568  43.496   9.343  1.00  0.00     0.200 A 
ATOM     16  C   UNL     1     -14.300  42.160   8.994  1.00  0.00     0.162 A 
BRANCH  13  17
ATOM     17  O   UNL     1     -15.572  45.073  10.955  1.00  0.00    -0.504 OA
ATOM     18  H   UNL     1     -16.250  45.659  10.489  1.00  0.00     0.293 HD
ENDBRANCH  13  17
BRANCH  15  19
ATOM     19  O   UNL     1     -14.153  44.507   8.470  1.00  0.00    -0.502 OA
ATOM     20  H   UNL     1     -13.920  45.445   8.759  1.00  0.00     0.293 HD
ENDBRANCH  15  19
BRANCH  16  21
ATOM     21  O   UNL     1     -13.641  41.843   7.806  1.00  0.00    -0.504 OA
ATOM     22  H   UNL     1     -12.750  42.253   7.556  1.00  0.00     0.293 HD
ENDBRANCH  16  21
ENDBRANCH   1  11
BRANCH  10  23
ATOM     23  O   UNL     1     -18.128  40.641  11.471  1.00  0.00    -0.500 OA
ATOM     24  H   UNL     1     -18.119  40.827  10.475  1.00  0.00     0.294 HD
ENDBRANCH  10  23
BRANCH   5  25
ATOM     25  O   UNL     1     -13.256  36.142  15.507  1.00  0.00    -0.507 OA
ATOM     26  H   UNL     1     -12.561  35.617  14.989  1.00  0.00     0.293 HD
ENDBRANCH   5  25
BRANCH   7  27
ATOM     27  O   UNL     1     -17.986  36.605  14.621  1.00  0.00    -0.507 OA
ATOM     28  H   UNL     1     -18.202  35.856  15.268  1.00  0.00     0.293 HD
ENDBRANCH   7  27
TORSDOF 7
ENDMDL
MODEL 4
REMARK VINA RESULT:    -7.061      1.988      2.588
REMARK INTER + INTRA:          -9.061
REMARK INTER:                  -8.875
REMARK INTRA:                  -0.186
REMARK UNBOUND:                -0.350
REMARK SMILES Oc1cc(O)c2cc(O)c(-c3cc(O)c(O)c(O)c3)[o+]c2c1
REMARK SMILES IDX 10 1 20 2 21 3 22 4 2 5 3 6 4 7 6 8 7 9 8 10 11 11 12 12
REMARK SMILES IDX 13 13 19 14 15 15 17 16 14 17 16 19 18 21 9 23 1 25 5 27
REMARK H PARENT 14 18 16 20 18 22 9 24 1 26 5 28
REMARK Flexibility Score: inf
ROOT
ATOM      1  C   UNL     1     -15.791  38.944  12.534  1.00  0.00     0.402 A 
ATOM      2  O   UNL     1     -16.699  39.579  11.793  1.00  0.00    -0.202 OA
ATOM      3  C   UNL     1     -16.459  40.734  11.182  1.00  0.00     0.368 A 
ATOM      4  C   UNL     1     -17.464  41.335  10.417  1.00  0.00     0.162 A 
ATOM      5  C   UNL     1     -17.223  42.552   9.766  1.00  0.00     0.128 A 
ATOM      6  C   UNL     1     -15.973  43.168   9.881  1.00  0.00     0.093 A 
ATOM      7  C   UNL     1     -14.955  42.578  10.646  1.00  0.00     0.136 A 
ATOM      8  C   UNL     1     -15.198  41.356  11.300  1.00  0.00     0.125 A 
ATOM      9  C   UNL     1     -14.223  40.727  12.082  1.00  0.00     0.078 A 
ATOM     10  C   UNL     1     -14.517  39.516  12.717  1.00  0.00     0.223 A 
ENDROOT
BRANCH   1  11
ATOM     11  C   UNL     1     -16.174  37.657  13.158  1.00  0.00     0.091 A 
ATOM     12  C   UNL     1     -16.178  37.493  14.552  1.00  0.00     0.068 A 
ATOM     13  C   UNL     1     -16.518  36.266  15.132  1.00  0.00     0.162 A 
ATOM     14  C   UNL     1     -16.484  36.560  12.343  1.00  0.00     0.068 A 
ATOM     15  C   UNL     1     -16.858  35.170  14.302  1.00  0.00     0.200 A 
ATOM     16  C   UNL     1     -16.830  35.328  12.904  1.00  0.00     0.162 A 
BRANCH  13  17
ATOM     17  O   UNL     1     -16.500  36.179  16.526  1.00  0.00    -0.504 OA
ATOM     18  H   UNL     1     -15.677  35.964  17.070  1.00  0.00     0.293 HD
ENDBRANCH  13  17
BRANCH  15  19
ATOM     19  O   UNL     1     -17.218  33.923  14.823  1.00  0.00    -0.502 OA
ATOM     20  H   UNL     1     -16.602  33.124  14.858  1.00  0.00     0.293 HD
ENDBRANCH  15  19
BRANCH  16  21
ATOM     21  O   UNL     1     -17.148  34.270  12.053  1.00  0.00    -0.504 OA
ATOM     22  H   UNL     1     -17.203  33.312  12.377  1.00  0.00     0.293 HD
ENDBRANCH  16  21
ENDBRANCH   1  11
BRANCH  10  23
ATOM     23  O   UNL     1     -13.567  38.909  13.538  1.00  0.00    -0.500 OA
ATOM     24  H   UNL     1     -13.292  39.315  14.425  1.00  0.00     0.294 HD
ENDBRANCH  10  23
BRANCH   5  25
ATOM     25  O   UNL     1     -18.219  43.156   9.001  1.00  0.00    -0.507 OA
ATOM     26  H   UNL     1     -18.870  42.608   8.451  1.00  0.00     0.293 HD
ENDBRANCH   5  25
BRANCH   7  27
ATOM     27  O   UNL     1     -13.713  43.205  10.753  1.00  0.00    -0.507 OA
ATOM     28  H   UNL     1     -13.156  43.138  11.596  1.00  0.00     0.293 HD
ENDBRANCH   7  27
TORSDOF 7
ENDMDL
MODEL 5
REMARK VINA RESULT:    -7.014      2.062      2.945
REMARK INTER + INTRA:          -9.004
REMARK INTER:                  -8.810
REMARK INTRA:                  -0.194
REMARK UNBOUND:                -0.350
REMARK SMILES Oc1cc(O)c2cc(O)c(-c3cc(O)c(O)c(O)c3)[o+]c2c1
REMARK SMILES IDX 10 1 20 2 21 3 22 4 2 5 3 6 4 7 6 8 7 9 8 10 11 11 12 12
REMARK SMILES IDX 13 13 19 14 15 15 17 16 14 17 16 19 18 21 9 23 1 25 5 27
REMARK H PARENT 14 18 16 20 18 22 9 24 1 26 5 28
REMARK Flexibility Score: inf
ROOT
ATOM      1  C   UNL     1     -15.700  39.047  12.438  1.00  0.00     0.402 A 
ATOM      2  O   UNL     1     -16.607  39.686  11.700  1.00  0.00    -0.202 OA
ATOM      3  C   UNL     1     -16.377  40.859  11.120  1.00  0.00     0.368 A 
ATOM      4  C   UNL     1     -17.380  41.463  10.356  1.00  0.00     0.162 A 
ATOM      5  C   UNL     1     -17.149  42.699   9.737  1.00  0.00     0.128 A 
ATOM      6  C   UNL     1     -15.910  43.330   9.884  1.00  0.00     0.093 A 
ATOM      7  C   UNL     1     -14.893  42.738  10.648  1.00  0.00     0.136 A 
ATOM      8  C   UNL     1     -15.126  41.497  11.270  1.00  0.00     0.125 A 
ATOM      9  C   UNL     1     -14.153  40.863  12.050  1.00  0.00     0.078 A 
ATOM     10  C   UNL     1     -14.437  39.633  12.652  1.00  0.00     0.223 A 
ENDROOT
BRANCH   1  11
ATOM     11  C   UNL     1     -16.072  37.740  13.026  1.00  0.00     0.091 A 
ATOM     12  C   UNL     1     -16.417  36.646  12.217  1.00  0.00     0.068 A 
ATOM     13  C   UNL     1     -16.790  35.421  12.781  1.00  0.00     0.162 A 
ATOM     14  C   UNL     1     -16.137  37.604  14.418  1.00  0.00     0.068 A 
ATOM     15  C   UNL     1     -16.826  35.282  14.190  1.00  0.00     0.200 A 
ATOM     16  C   UNL     1     -16.503  36.386  15.000  1.00  0.00     0.162 A 
BRANCH  13  17
ATOM     17  O   UNL     1     -17.119  34.379  11.912  1.00  0.00    -0.504 OA
ATOM     18  H   UNL     1     -16.680  34.228  11.016  1.00  0.00     0.293 HD
ENDBRANCH  13  17
BRANCH  15  19
ATOM     19  O   UNL     1     -17.178  34.081  14.812  1.00  0.00    -0.502 OA
ATOM     20  H   UNL     1     -17.060  33.897  15.798  1.00  0.00     0.293 HD
ENDBRANCH  15  19
BRANCH  16  21
ATOM     21  O   UNL     1     -16.538  36.293  16.392  1.00  0.00    -0.504 OA
ATOM     22  H   UNL     1     -16.153  37.012  16.992  1.00  0.00     0.293 HD
ENDBRANCH  16  21
ENDBRANCH   1  11
BRANCH  10  23
ATOM     23  O   UNL     1     -13.489  39.021  13.472  1.00  0.00    -0.500 OA
ATOM     24  H   UNL     1     -13.353  39.306  14.434  1.00  0.00     0.294 HD
ENDBRANCH  10  23
BRANCH   5  25
ATOM     25  O   UNL     1     -18.143  43.306   8.974  1.00  0.00    -0.507 OA
ATOM     26  H   UNL     1     -18.360  44.291   9.074  1.00  0.00     0.293 HD
ENDBRANCH   5  25
BRANCH   7  27
ATOM     27  O   UNL     1     -13.663  43.380  10.788  1.00  0.00    -0.507 OA
ATOM     28  H   UNL     1     -13.392  43.827  11.656  1.00  0.00     0.293 HD
ENDBRANCH   7  27
TORSDOF 7
ENDMDL
MODEL 6
REMARK VINA RESULT:    -6.856      2.459      3.985
REMARK INTER + INTRA:          -8.808
REMARK INTER:                  -8.463
REMARK INTRA:                  -0.346
REMARK UNBOUND:                -0.350
REMARK SMILES Oc1cc(O)c2cc(O)c(-c3cc(O)c(O)c(O)c3)[o+]c2c1
REMARK SMILES IDX 10 1 20 2 21 3 22 4 2 5 3 6 4 7 6 8 7 9 8 10 11 11 12 12
REMARK SMILES IDX 13 13 19 14 15 15 17 16 14 17 16 19 18 21 9 23 1 25 5 27
REMARK H PARENT 14 18 16 20 18 22 9 24 1 26 5 28
REMARK Flexibility Score: inf
ROOT
ATOM      1  C   UNL     1     -15.881  40.794  11.161  1.00  0.00     0.402 A 
ATOM      2  O   UNL     1     -15.591  42.020  11.596  1.00  0.00    -0.202 OA
ATOM      3  C   UNL     1     -15.517  43.077  10.795  1.00  0.00     0.368 A 
ATOM      4  C   UNL     1     -15.212  44.333  11.330  1.00  0.00     0.162 A 
ATOM      5  C   UNL     1     -15.134  45.455  10.495  1.00  0.00     0.128 A 
ATOM      6  C   UNL     1     -15.362  45.320   9.122  1.00  0.00     0.093 A 
ATOM      7  C   UNL     1     -15.668  44.068   8.570  1.00  0.00     0.136 A 
ATOM      8  C   UNL     1     -15.746  42.940   9.408  1.00  0.00     0.125 A 
ATOM      9  C   UNL     1     -16.040  41.665   8.912  1.00  0.00     0.078 A 
ATOM     10  C   UNL     1     -16.099  40.576   9.786  1.00  0.00     0.223 A 
ENDROOT
BRANCH   1  11
ATOM     11  C   UNL     1     -15.943  39.697  12.153  1.00  0.00     0.091 A 
ATOM     12  C   UNL     1     -17.171  39.168  12.582  1.00  0.00     0.068 A 
ATOM     13  C   UNL     1     -17.221  38.147  13.538  1.00  0.00     0.162 A 
ATOM     14  C   UNL     1     -14.758  39.212  12.721  1.00  0.00     0.068 A 
ATOM     15  C   UNL     1     -16.017  37.642  14.086  1.00  0.00     0.200 A 
ATOM     16  C   UNL     1     -14.788  38.189  13.673  1.00  0.00     0.162 A 
BRANCH  13  17
ATOM     17  O   UNL     1     -18.479  37.672  13.915  1.00  0.00    -0.504 OA
ATOM     18  H   UNL     1     -19.345  38.160  13.740  1.00  0.00     0.293 HD
ENDBRANCH  13  17
BRANCH  15  19
ATOM     19  O   UNL     1     -16.002  36.615  15.034  1.00  0.00    -0.502 OA
ATOM     20  H   UNL     1     -15.789  36.749  16.012  1.00  0.00     0.293 HD
ENDBRANCH  15  19
BRANCH  16  21
ATOM     21  O   UNL     1     -13.581  37.727  14.198  1.00  0.00    -0.504 OA
ATOM     22  H   UNL     1     -13.461  36.775  14.523  1.00  0.00     0.293 HD
ENDBRANCH  16  21
ENDBRANCH   1  11
BRANCH  10  23
ATOM     23  O   UNL     1     -16.341  39.294   9.291  1.00  0.00    -0.500 OA
ATOM     24  H   UNL     1     -15.791  38.497   9.585  1.00  0.00     0.294 HD
ENDBRANCH  10  23
BRANCH   5  25
ATOM     25  O   UNL     1     -14.831  46.709  11.021  1.00  0.00    -0.507 OA
ATOM     26  H   UNL     1     -15.423  47.149  11.717  1.00  0.00     0.293 HD
ENDBRANCH   5  25
BRANCH   7  27
ATOM     27  O   UNL     1     -15.892  43.947   7.198  1.00  0.00    -0.507 OA
ATOM     28  H   UNL     1     -15.481  44.593   6.534  1.00  0.00     0.293 HD
ENDBRANCH   7  27
TORSDOF 7
ENDMDL
MODEL 7
REMARK VINA RESULT:    -6.546     10.428     13.041
REMARK INTER + INTRA:          -8.427
REMARK INTER:                  -8.632
REMARK INTRA:                   0.205
REMARK UNBOUND:                -0.350
REMARK SMILES Oc1cc(O)c2cc(O)c(-c3cc(O)c(O)c(O)c3)[o+]c2c1
REMARK SMILES IDX 10 1 20 2 21 3 22 4 2 5 3 6 4 7 6 8 7 9 8 10 11 11 12 12
REMARK SMILES IDX 13 13 19 14 15 15 17 16 14 17 16 19 18 21 9 23 1 25 5 27
REMARK H PARENT 14 18 16 20 18 22 9 24 1 26 5 28
REMARK Flexibility Score: inf
ROOT
ATOM      1  C   UNL     1     -26.062  33.018  18.191  1.00  0.00     0.402 A 
ATOM      2  O   UNL     1     -26.630  33.382  17.042  1.00  0.00    -0.202 OA
ATOM      3  C   UNL     1     -26.047  33.219  15.859  1.00  0.00     0.368 A 
ATOM      4  C   UNL     1     -26.713  33.622  14.697  1.00  0.00     0.162 A 
ATOM      5  C   UNL     1     -26.109  33.453  13.444  1.00  0.00     0.128 A 
ATOM      6  C   UNL     1     -24.838  32.878  13.355  1.00  0.00     0.093 A 
ATOM      7  C   UNL     1     -24.157  32.469  14.511  1.00  0.00     0.136 A 
ATOM      8  C   UNL     1     -24.763  32.640  15.770  1.00  0.00     0.125 A 
ATOM      9  C   UNL     1     -24.128  32.258  16.957  1.00  0.00     0.078 A 
ATOM     10  C   UNL     1     -24.770  32.455  18.183  1.00  0.00     0.223 A 
ENDROOT
BRANCH   1  11
ATOM     11  C   UNL     1     -26.815  33.243  19.446  1.00  0.00     0.091 A 
ATOM     12  C   UNL     1     -26.156  33.495  20.659  1.00  0.00     0.068 A 
ATOM     13  C   UNL     1     -26.876  33.683  21.844  1.00  0.00     0.162 A 
ATOM     14  C   UNL     1     -28.213  33.147  19.438  1.00  0.00     0.068 A 
ATOM     15  C   UNL     1     -28.290  33.613  21.823  1.00  0.00     0.200 A 
ATOM     16  C   UNL     1     -28.948  33.336  20.611  1.00  0.00     0.162 A 
BRANCH  13  17
ATOM     17  O   UNL     1     -26.150  33.930  23.012  1.00  0.00    -0.504 OA
ATOM     18  H   UNL     1     -25.146  33.849  23.084  1.00  0.00     0.293 HD
ENDBRANCH  13  17
BRANCH  15  19
ATOM     19  O   UNL     1     -29.063  33.804  22.972  1.00  0.00    -0.502 OA
ATOM     20  H   UNL     1     -29.636  33.088  23.395  1.00  0.00     0.293 HD
ENDBRANCH  15  19
BRANCH  16  21
ATOM     21  O   UNL     1     -30.340  33.247  20.552  1.00  0.00    -0.504 OA
ATOM     22  H   UNL     1     -30.830  33.010  19.699  1.00  0.00     0.293 HD
ENDBRANCH  16  21
ENDBRANCH   1  11
BRANCH  10  23
ATOM     23  O   UNL     1     -24.122  32.123  19.373  1.00  0.00    -0.500 OA
ATOM     24  H   UNL     1     -23.420  31.395  19.411  1.00  0.00     0.294 HD
ENDBRANCH  10  23
BRANCH   5  25
ATOM     25  O   UNL     1     -26.766  33.852  12.282  1.00  0.00    -0.507 OA
ATOM     26  H   UNL     1     -27.078  34.807  12.150  1.00  0.00     0.293 HD
ENDBRANCH   5  25
BRANCH   7  27
ATOM     27  O   UNL     1     -22.888  31.899  14.407  1.00  0.00    -0.507 OA
ATOM     28  H   UNL     1     -22.601  31.388  13.581  1.00  0.00     0.293 HD
ENDBRANCH   7  27
TORSDOF 7
ENDMDL
MODEL 8
REMARK VINA RESULT:    -6.539     10.321     13.133
REMARK INTER + INTRA:          -8.418
REMARK INTER:                  -8.679
REMARK INTRA:                   0.261
REMARK UNBOUND:                -0.350
REMARK SMILES Oc1cc(O)c2cc(O)c(-c3cc(O)c(O)c(O)c3)[o+]c2c1
REMARK SMILES IDX 10 1 20 2 21 3 22 4 2 5 3 6 4 7 6 8 7 9 8 10 11 11 12 12
REMARK SMILES IDX 13 13 19 14 15 15 17 16 14 17 16 19 18 21 9 23 1 25 5 27
REMARK H PARENT 14 18 16 20 18 22 9 24 1 26 5 28
REMARK Flexibility Score: inf
ROOT
ATOM      1  C   UNL     1     -26.035  32.999  18.223  1.00  0.00     0.402 A 
ATOM      2  O   UNL     1     -26.578  33.349  17.057  1.00  0.00    -0.202 OA
ATOM      3  C   UNL     1     -25.959  33.198  15.892  1.00  0.00     0.368 A 
ATOM      4  C   UNL     1     -26.600  33.586  14.711  1.00  0.00     0.162 A 
ATOM      5  C   UNL     1     -25.958  33.430  13.476  1.00  0.00     0.128 A 
ATOM      6  C   UNL     1     -24.672  32.884  13.423  1.00  0.00     0.093 A 
ATOM      7  C   UNL     1     -24.015  32.491  14.598  1.00  0.00     0.136 A 
ATOM      8  C   UNL     1     -24.660  32.648  15.839  1.00  0.00     0.125 A 
ATOM      9  C   UNL     1     -24.050  32.282  17.044  1.00  0.00     0.078 A 
ATOM     10  C   UNL     1     -24.731  32.465  18.251  1.00  0.00     0.223 A 
ENDROOT
BRANCH   1  11
ATOM     11  C   UNL     1     -26.828  33.208  19.456  1.00  0.00     0.091 A 
ATOM     12  C   UNL     1     -28.231  33.198  19.432  1.00  0.00     0.068 A 
ATOM     13  C   UNL     1     -28.973  33.420  20.598  1.00  0.00     0.162 A 
ATOM     14  C   UNL     1     -26.169  33.478  20.662  1.00  0.00     0.068 A 
ATOM     15  C   UNL     1     -28.300  33.664  21.819  1.00  0.00     0.200 A 
ATOM     16  C   UNL     1     -26.893  33.698  21.837  1.00  0.00     0.162 A 
BRANCH  13  17
ATOM     17  O   UNL     1     -30.366  33.394  20.496  1.00  0.00    -0.504 OA
ATOM     18  H   UNL     1     -30.966  34.169  20.736  1.00  0.00     0.293 HD
ENDBRANCH  13  17
BRANCH  15  19
ATOM     19  O   UNL     1     -28.985  33.880  23.019  1.00  0.00    -0.502 OA
ATOM     20  H   UNL     1     -29.429  34.752  23.269  1.00  0.00     0.293 HD
ENDBRANCH  15  19
BRANCH  16  21
ATOM     21  O   UNL     1     -26.194  33.946  23.018  1.00  0.00    -0.504 OA
ATOM     22  H   UNL     1     -25.847  34.866  23.258  1.00  0.00     0.293 HD
ENDBRANCH  16  21
ENDBRANCH   1  11
BRANCH  10  23
ATOM     23  O   UNL     1     -24.109  32.149  19.460  1.00  0.00    -0.500 OA
ATOM     24  H   UNL     1     -23.153  32.420  19.653  1.00  0.00     0.294 HD
ENDBRANCH  10  23
BRANCH   5  25
ATOM     25  O   UNL     1     -26.591  33.813  12.295  1.00  0.00    -0.507 OA
ATOM     26  H   UNL     1     -26.170  33.641  11.389  1.00  0.00     0.293 HD
ENDBRANCH   5  25
BRANCH   7  27
ATOM     27  O   UNL     1     -22.731  31.949  14.531  1.00  0.00    -0.507 OA
ATOM     28  H   UNL     1     -21.926  32.518  14.296  1.00  0.00     0.293 HD
ENDBRANCH   7  27
TORSDOF 7
ENDMDL
MODEL 9
REMARK VINA RESULT:    -6.430     14.510     16.043
REMARK INTER + INTRA:          -8.283
REMARK INTER:                  -7.902
REMARK INTRA:                  -0.381
REMARK UNBOUND:                -0.350
REMARK SMILES Oc1cc(O)c2cc(O)c(-c3cc(O)c(O)c(O)c3)[o+]c2c1
REMARK SMILES IDX 10 1 20 2 21 3 22 4 2 5 3 6 4 7 6 8 7 9 8 10 11 11 12 12
REMARK SMILES IDX 13 13 19 14 15 15 17 16 14 17 16 19 18 21 9 23 1 25 5 27
REMARK H PARENT 14 18 16 20 18 22 9 24 1 26 5 28
REMARK Flexibility Score: inf
ROOT
ATOM      1  C   UNL     1     -30.873  37.603  20.181  1.00  0.00     0.402 A 
ATOM      2  O   UNL     1     -29.983  38.439  19.648  1.00  0.00    -0.202 OA
ATOM      3  C   UNL     1     -30.224  39.731  19.454  1.00  0.00     0.368 A 
ATOM      4  C   UNL     1     -29.235  40.544  18.892  1.00  0.00     0.162 A 
ATOM      5  C   UNL     1     -29.477  41.908  18.685  1.00  0.00     0.128 A 
ATOM      6  C   UNL     1     -30.712  42.459  19.040  1.00  0.00     0.093 A 
ATOM      7  C   UNL     1     -31.715  41.656  19.603  1.00  0.00     0.136 A 
ATOM      8  C   UNL     1     -31.472  40.286  19.811  1.00  0.00     0.125 A 
ATOM      9  C   UNL     1     -32.438  39.436  20.360  1.00  0.00     0.078 A 
ATOM     10  C   UNL     1     -32.149  38.080  20.540  1.00  0.00     0.223 A 
ENDROOT
BRANCH   1  11
ATOM     11  C   UNL     1     -30.484  36.185  20.356  1.00  0.00     0.091 A 
ATOM     12  C   UNL     1     -30.008  35.704  21.586  1.00  0.00     0.068 A 
ATOM     13  C   UNL     1     -29.620  34.368  21.735  1.00  0.00     0.162 A 
ATOM     14  C   UNL     1     -30.535  35.315  19.259  1.00  0.00     0.068 A 
ATOM     15  C   UNL     1     -29.701  33.488  20.630  1.00  0.00     0.200 A 
ATOM     16  C   UNL     1     -30.156  33.976  19.391  1.00  0.00     0.162 A 
BRANCH  13  17
ATOM     17  O   UNL     1     -29.157  33.963  22.990  1.00  0.00    -0.504 OA
ATOM     18  H   UNL     1     -28.584  33.147  23.146  1.00  0.00     0.293 HD
ENDBRANCH  13  17
BRANCH  15  19
ATOM     19  O   UNL     1     -29.340  32.140  20.721  1.00  0.00    -0.502 OA
ATOM     20  H   UNL     1     -29.449  31.472  19.973  1.00  0.00     0.293 HD
ENDBRANCH  15  19
BRANCH  16  21
ATOM     21  O   UNL     1     -30.240  33.143  18.275  1.00  0.00    -0.504 OA
ATOM     22  H   UNL     1     -29.453  32.982  17.659  1.00  0.00     0.293 HD
ENDBRANCH  16  21
ENDBRANCH   1  11
BRANCH  10  23
ATOM     23  O   UNL     1     -33.125  37.217  21.041  1.00  0.00    -0.500 OA
ATOM     24  H   UNL     1     -33.015  36.750  21.933  1.00  0.00     0.294 HD
ENDBRANCH  10  23
BRANCH   5  25
ATOM     25  O   UNL     1     -28.496  42.725  18.128  1.00  0.00    -0.507 OA
ATOM     26  H   UNL     1     -28.710  43.377  17.382  1.00  0.00     0.293 HD
ENDBRANCH   5  25
BRANCH   7  27
ATOM     27  O   UNL     1     -32.944  42.219  19.951  1.00  0.00    -0.507 OA
ATOM     28  H   UNL     1     -33.629  41.705  20.492  1.00  0.00     0.293 HD
ENDBRANCH   7  27
TORSDOF 7
ENDMDL
