MODEL 1
REMARK VINA RESULT:    -7.030      0.000      0.000
REMARK INTER + INTRA:          -8.779
REMARK INTER:                  -8.469
REMARK INTRA:                  -0.310
REMARK UNBOUND:                -0.310
REMARK SMILES O=c1c(O)c(-c2ccc(O)c(O)c2)oc2cc(O)cc(O)c12
REMARK SMILES IDX 5 1 3 2 2 3 1 4 22 5 20 6 19 7 17 8 16 9 15 10 14 11 6 12
REMARK SMILES IDX 7 13 8 14 9 15 13 16 11 17 10 18 12 20 4 22 21 24 18 26
REMARK H PARENT 10 19 12 21 4 23 21 25 18 27
REMARK Flexibility Score: inf
ROOT
ATOM      1  C   UNL     1      20.488 -36.914  -7.635  1.00  0.00     0.180 A 
ATOM      2  C   UNL     1      20.833 -35.574  -7.386  1.00  0.00     0.208 A 
ATOM      3  C   UNL     1      21.814 -34.964  -8.183  1.00  0.00     0.238 A 
ATOM      4  O   UNL     1      22.157 -33.782  -7.921  1.00  0.00    -0.285 OA
ATOM      5  C   UNL     1      22.426 -35.694  -9.231  1.00  0.00     0.111 A 
ATOM      6  C   UNL     1      23.402 -35.164 -10.127  1.00  0.00     0.134 A 
ATOM      7  C   UNL     1      24.034 -36.014 -11.041  1.00  0.00     0.093 A 
ATOM      8  C   UNL     1      23.680 -37.360 -11.138  1.00  0.00     0.123 A 
ATOM      9  C   UNL     1      22.684 -37.875 -10.308  1.00  0.00     0.094 A 
ATOM     10  C   UNL     1      22.061 -37.060  -9.360  1.00  0.00     0.146 A 
ATOM     11  O   UNL     1      21.126 -37.592  -8.582  1.00  0.00    -0.452 OA
ENDROOT
BRANCH   1  12
ATOM     12  C   UNL     1      19.446 -37.618  -6.854  1.00  0.00     0.025 A 
ATOM     13  C   UNL     1      18.078 -37.434  -7.124  1.00  0.00     0.016 A 
ATOM     14  C   UNL     1      17.114 -38.127  -6.390  1.00  0.00     0.051 A 
ATOM     15  C   UNL     1      17.496 -39.022  -5.385  1.00  0.00     0.157 A 
ATOM     16  C   UNL     1      19.828 -38.532  -5.858  1.00  0.00     0.062 A 
ATOM     17  C   UNL     1      18.860 -39.229  -5.118  1.00  0.00     0.158 A 
BRANCH  15  18
ATOM     18  O   UNL     1      16.511 -39.698  -4.667  1.00  0.00    -0.504 OA
ATOM     19  H   UNL     1      15.575 -39.326  -4.557  1.00  0.00     0.293 HD
ENDBRANCH  15  18
BRANCH  17  20
ATOM     20  O   UNL     1      19.250 -40.124  -4.124  1.00  0.00    -0.504 OA
ATOM     21  H   UNL     1      19.900 -40.878  -4.312  1.00  0.00     0.293 HD
ENDBRANCH  17  20
ENDBRANCH   1  12
BRANCH   2  22
ATOM     22  O   UNL     1      20.232 -34.879  -6.333  1.00  0.00    -0.502 OA
ATOM     23  H   UNL     1      20.685 -34.101  -5.868  1.00  0.00     0.293 HD
ENDBRANCH   2  22
BRANCH   6  24
ATOM     24  O   UNL     1      23.763 -33.814 -10.177  1.00  0.00    -0.507 OA
ATOM     25  H   UNL     1      23.624 -33.211 -10.974  1.00  0.00     0.293 HD
ENDBRANCH   6  24
BRANCH   8  26
ATOM     26  O   UNL     1      24.320 -38.174 -12.070  1.00  0.00    -0.508 OA
ATOM     27  H   UNL     1      25.306 -38.391 -11.995  1.00  0.00     0.293 HD
ENDBRANCH   8  26
TORSDOF 6
ENDMDL
MODEL 2
REMARK VINA RESULT:    -6.801      3.658      8.406
REMARK INTER + INTRA:          -8.503
REMARK INTER:                  -8.200
REMARK INTRA:                  -0.303
REMARK UNBOUND:                -0.310
REMARK SMILES O=c1c(O)c(-c2ccc(O)c(O)c2)oc2cc(O)cc(O)c12
REMARK SMILES IDX 5 1 3 2 2 3 1 4 22 5 20 6 19 7 17 8 16 9 15 10 14 11 6 12
REMARK SMILES IDX 7 13 8 14 9 15 13 16 11 17 10 18 12 20 4 22 21 24 18 26
REMARK H PARENT 10 19 12 21 4 23 21 25 18 27
REMARK Flexibility Score: inf
ROOT
ATOM      1  C   UNL     1      23.179 -32.065  -9.207  1.00  0.00     0.180 A 
ATOM      2  C   UNL     1      22.003 -31.537  -8.646  1.00  0.00     0.208 A 
ATOM      3  C   UNL     1      21.083 -32.410  -8.045  1.00  0.00     0.238 A 
ATOM      4  O   UNL     1      20.008 -31.938  -7.593  1.00  0.00    -0.285 OA
ATOM      5  C   UNL     1      21.357 -33.799  -7.997  1.00  0.00     0.111 A 
ATOM      6  C   UNL     1      20.515 -34.770  -7.378  1.00  0.00     0.134 A 
ATOM      7  C   UNL     1      20.820 -36.131  -7.505  1.00  0.00     0.093 A 
ATOM      8  C   UNL     1      21.971 -36.551  -8.171  1.00  0.00     0.123 A 
ATOM      9  C   UNL     1      22.832 -35.607  -8.729  1.00  0.00     0.094 A 
ATOM     10  C   UNL     1      22.536 -34.244  -8.651  1.00  0.00     0.146 A 
ATOM     11  O   UNL     1      23.376 -33.379  -9.204  1.00  0.00    -0.452 OA
ENDROOT
BRANCH   1  12
ATOM     12  C   UNL     1      24.207 -31.206  -9.835  1.00  0.00     0.025 A 
ATOM     13  C   UNL     1      25.367 -30.823  -9.139  1.00  0.00     0.016 A 
ATOM     14  C   UNL     1      26.336 -30.031  -9.760  1.00  0.00     0.051 A 
ATOM     15  C   UNL     1      26.170 -29.621 -11.086  1.00  0.00     0.157 A 
ATOM     16  C   UNL     1      24.053 -30.809 -11.175  1.00  0.00     0.062 A 
ATOM     17  C   UNL     1      25.025 -30.013 -11.800  1.00  0.00     0.158 A 
BRANCH  15  18
ATOM     18  O   UNL     1      27.153 -28.830 -11.680  1.00  0.00    -0.504 OA
ATOM     19  H   UNL     1      27.383 -28.905 -12.663  1.00  0.00     0.293 HD
ENDBRANCH  15  18
BRANCH  17  20
ATOM     20  O   UNL     1      24.856 -29.614 -13.125  1.00  0.00    -0.504 OA
ATOM     21  H   UNL     1      25.647 -29.392 -13.717  1.00  0.00     0.293 HD
ENDBRANCH  17  20
ENDBRANCH   1  12
BRANCH   2  22
ATOM     22  O   UNL     1      21.743 -30.166  -8.724  1.00  0.00    -0.502 OA
ATOM     23  H   UNL     1      21.321 -29.649  -7.961  1.00  0.00     0.293 HD
ENDBRANCH   2  22
BRANCH   6  24
ATOM     24  O   UNL     1      19.391 -34.452  -6.609  1.00  0.00    -0.507 OA
ATOM     25  H   UNL     1      18.631 -33.864  -6.917  1.00  0.00     0.293 HD
ENDBRANCH   6  24
BRANCH   8  26
ATOM     26  O   UNL     1      22.251 -37.913  -8.265  1.00  0.00    -0.508 OA
ATOM     27  H   UNL     1      21.514 -38.607  -8.260  1.00  0.00     0.293 HD
ENDBRANCH   8  26
TORSDOF 6
ENDMDL
MODEL 3
REMARK VINA RESULT:    -6.768      3.931      6.531
REMARK INTER + INTRA:          -8.463
REMARK INTER:                  -8.175
REMARK INTRA:                  -0.288
REMARK UNBOUND:                -0.310
REMARK SMILES O=c1c(O)c(-c2ccc(O)c(O)c2)oc2cc(O)cc(O)c12
REMARK SMILES IDX 5 1 3 2 2 3 1 4 22 5 20 6 19 7 17 8 16 9 15 10 14 11 6 12
REMARK SMILES IDX 7 13 8 14 9 15 13 16 11 17 10 18 12 20 4 22 21 24 18 26
REMARK H PARENT 10 19 12 21 4 23 21 25 18 27
REMARK Flexibility Score: inf
ROOT
ATOM      1  C   UNL     1      22.129 -34.069  -9.323  1.00  0.00     0.180 A 
ATOM      2  C   UNL     1      22.260 -33.840  -7.942  1.00  0.00     0.208 A 
ATOM      3  C   UNL     1      21.669 -32.695  -7.383  1.00  0.00     0.238 A 
ATOM      4  O   UNL     1      21.835 -32.467  -6.157  1.00  0.00    -0.285 OA
ATOM      5  C   UNL     1      20.940 -31.804  -8.207  1.00  0.00     0.111 A 
ATOM      6  C   UNL     1      20.266 -30.636  -7.741  1.00  0.00     0.134 A 
ATOM      7  C   UNL     1      19.687 -29.757  -8.664  1.00  0.00     0.093 A 
ATOM      8  C   UNL     1      19.700 -30.037 -10.031  1.00  0.00     0.123 A 
ATOM      9  C   UNL     1      20.305 -31.206 -10.493  1.00  0.00     0.094 A 
ATOM     10  C   UNL     1      20.923 -32.084  -9.599  1.00  0.00     0.146 A 
ATOM     11  O   UNL     1      21.496 -33.180 -10.080  1.00  0.00    -0.452 OA
ENDROOT
BRANCH   1  12
ATOM     12  C   UNL     1      22.703 -35.265  -9.980  1.00  0.00     0.025 A 
ATOM     13  C   UNL     1      23.919 -35.202 -10.683  1.00  0.00     0.016 A 
ATOM     14  C   UNL     1      24.452 -36.349 -11.275  1.00  0.00     0.051 A 
ATOM     15  C   UNL     1      23.791 -37.576 -11.165  1.00  0.00     0.157 A 
ATOM     16  C   UNL     1      22.051 -36.503  -9.854  1.00  0.00     0.062 A 
ATOM     17  C   UNL     1      22.585 -37.656 -10.448  1.00  0.00     0.158 A 
BRANCH  15  18
ATOM     18  O   UNL     1      24.348 -38.703 -11.768  1.00  0.00    -0.504 OA
ATOM     19  H   UNL     1      25.121 -39.209 -11.353  1.00  0.00     0.293 HD
ENDBRANCH  15  18
BRANCH  17  20
ATOM     20  O   UNL     1      21.924 -38.877 -10.328  1.00  0.00    -0.504 OA
ATOM     21  H   UNL     1      22.048 -39.617 -11.008  1.00  0.00     0.293 HD
ENDBRANCH  17  20
ENDBRANCH   1  12
BRANCH   2  22
ATOM     22  O   UNL     1      23.001 -34.721  -7.151  1.00  0.00    -0.502 OA
ATOM     23  H   UNL     1      23.999 -34.612  -7.005  1.00  0.00     0.293 HD
ENDBRANCH   2  22
BRANCH   6  24
ATOM     24  O   UNL     1      20.114 -30.310  -6.389  1.00  0.00    -0.507 OA
ATOM     25  H   UNL     1      20.740 -30.601  -5.654  1.00  0.00     0.293 HD
ENDBRANCH   6  24
BRANCH   8  26
ATOM     26  O   UNL     1      19.101 -29.147 -10.920  1.00  0.00    -0.508 OA
ATOM     27  H   UNL     1      19.309 -29.169 -11.911  1.00  0.00     0.293 HD
ENDBRANCH   8  26
TORSDOF 6
ENDMDL
MODEL 4
REMARK VINA RESULT:    -6.672      5.473      9.983
REMARK INTER + INTRA:          -8.348
REMARK INTER:                  -8.028
REMARK INTRA:                  -0.320
REMARK UNBOUND:                -0.310
REMARK SMILES O=c1c(O)c(-c2ccc(O)c(O)c2)oc2cc(O)cc(O)c12
REMARK SMILES IDX 5 1 3 2 2 3 1 4 22 5 20 6 19 7 17 8 16 9 15 10 14 11 6 12
REMARK SMILES IDX 7 13 8 14 9 15 13 16 11 17 10 18 12 20 4 22 21 24 18 26
REMARK H PARENT 10 19 12 21 4 23 21 25 18 27
REMARK Flexibility Score: inf
ROOT
ATOM      1  C   UNL     1      23.710 -30.593  -9.878  1.00  0.00     0.180 A 
ATOM      2  C   UNL     1      23.681 -31.873  -9.296  1.00  0.00     0.208 A 
ATOM      3  C   UNL     1      22.440 -32.467  -9.017  1.00  0.00     0.238 A 
ATOM      4  O   UNL     1      22.421 -33.588  -8.448  1.00  0.00    -0.285 OA
ATOM      5  C   UNL     1      21.243 -31.783  -9.340  1.00  0.00     0.111 A 
ATOM      6  C   UNL     1      19.930 -32.306  -9.139  1.00  0.00     0.134 A 
ATOM      7  C   UNL     1      18.818 -31.489  -9.372  1.00  0.00     0.093 A 
ATOM      8  C   UNL     1      18.967 -30.191  -9.862  1.00  0.00     0.123 A 
ATOM      9  C   UNL     1      20.243 -29.690 -10.118  1.00  0.00     0.094 A 
ATOM     10  C   UNL     1      21.375 -30.468  -9.860  1.00  0.00     0.146 A 
ATOM     11  O   UNL     1      22.571 -29.950 -10.108  1.00  0.00    -0.452 OA
ENDROOT
BRANCH   1  12
ATOM     12  C   UNL     1      24.978 -29.913 -10.224  1.00  0.00     0.025 A 
ATOM     13  C   UNL     1      25.675 -29.138  -9.279  1.00  0.00     0.016 A 
ATOM     14  C   UNL     1      26.882 -28.526  -9.621  1.00  0.00     0.051 A 
ATOM     15  C   UNL     1      27.420 -28.686 -10.902  1.00  0.00     0.157 A 
ATOM     16  C   UNL     1      25.531 -30.089 -11.503  1.00  0.00     0.062 A 
ATOM     17  C   UNL     1      26.745 -29.474 -11.849  1.00  0.00     0.158 A 
BRANCH  15  18
ATOM     18  O   UNL     1      28.627 -28.060 -11.214  1.00  0.00    -0.504 OA
ATOM     19  H   UNL     1      29.523 -28.478 -10.993  1.00  0.00     0.293 HD
ENDBRANCH  15  18
BRANCH  17  20
ATOM     20  O   UNL     1      27.277 -29.644 -13.125  1.00  0.00    -0.504 OA
ATOM     21  H   UNL     1      26.838 -29.237 -13.942  1.00  0.00     0.293 HD
ENDBRANCH  17  20
ENDBRANCH   1  12
BRANCH   2  22
ATOM     22  O   UNL     1      24.874 -32.521  -8.967  1.00  0.00    -0.502 OA
ATOM     23  H   UNL     1      25.390 -32.312  -8.119  1.00  0.00     0.293 HD
ENDBRANCH   2  22
BRANCH   6  24
ATOM     24  O   UNL     1      19.667 -33.620  -8.741  1.00  0.00    -0.507 OA
ATOM     25  H   UNL     1      20.372 -34.298  -8.493  1.00  0.00     0.293 HD
ENDBRANCH   6  24
BRANCH   8  26
ATOM     26  O   UNL     1      17.836 -29.412 -10.097  1.00  0.00    -0.508 OA
ATOM     27  H   UNL     1      16.902 -29.791 -10.001  1.00  0.00     0.293 HD
ENDBRANCH   8  26
TORSDOF 6
ENDMDL
MODEL 5
REMARK VINA RESULT:    -6.412      5.828      7.481
REMARK INTER + INTRA:          -8.034
REMARK INTER:                  -7.714
REMARK INTRA:                  -0.320
REMARK UNBOUND:                -0.310
REMARK SMILES O=c1c(O)c(-c2ccc(O)c(O)c2)oc2cc(O)cc(O)c12
REMARK SMILES IDX 5 1 3 2 2 3 1 4 22 5 20 6 19 7 17 8 16 9 15 10 14 11 6 12
REMARK SMILES IDX 7 13 8 14 9 15 13 16 11 17 10 18 12 20 4 22 21 24 18 26
REMARK H PARENT 10 19 12 21 4 23 21 25 18 27
REMARK Flexibility Score: inf
ROOT
ATOM      1  C   UNL     1      21.656 -31.418  -9.954  1.00  0.00     0.180 A 
ATOM      2  C   UNL     1      21.968 -32.355  -8.953  1.00  0.00     0.208 A 
ATOM      3  C   UNL     1      23.291 -32.441  -8.491  1.00  0.00     0.238 A 
ATOM      4  O   UNL     1      23.576 -33.317  -7.634  1.00  0.00    -0.285 OA
ATOM      5  C   UNL     1      24.281 -31.578  -9.021  1.00  0.00     0.111 A 
ATOM      6  C   UNL     1      25.644 -31.550  -8.598  1.00  0.00     0.134 A 
ATOM      7  C   UNL     1      26.564 -30.748  -9.283  1.00  0.00     0.093 A 
ATOM      8  C   UNL     1      26.159 -29.923 -10.333  1.00  0.00     0.123 A 
ATOM      9  C   UNL     1      24.818 -29.898 -10.716  1.00  0.00     0.094 A 
ATOM     10  C   UNL     1      23.883 -30.715 -10.076  1.00  0.00     0.146 A 
ATOM     11  O   UNL     1      22.619 -30.669 -10.478  1.00  0.00    -0.452 OA
ENDROOT
BRANCH   1  12
ATOM     12  C   UNL     1      20.280 -31.252 -10.475  1.00  0.00     0.025 A 
ATOM     13  C   UNL     1      19.416 -30.270  -9.959  1.00  0.00     0.016 A 
ATOM     14  C   UNL     1      18.130 -30.115 -10.483  1.00  0.00     0.051 A 
ATOM     15  C   UNL     1      17.692 -30.926 -11.534  1.00  0.00     0.157 A 
ATOM     16  C   UNL     1      19.844 -32.051 -11.545  1.00  0.00     0.062 A 
ATOM     17  C   UNL     1      18.553 -31.898 -12.072  1.00  0.00     0.158 A 
BRANCH  15  18
ATOM     18  O   UNL     1      16.402 -30.749 -12.035  1.00  0.00    -0.504 OA
ATOM     19  H   UNL     1      15.749 -30.095 -11.621  1.00  0.00     0.293 HD
ENDBRANCH  15  18
BRANCH  17  20
ATOM     20  O   UNL     1      18.126 -32.705 -13.124  1.00  0.00    -0.504 OA
ATOM     21  H   UNL     1      18.514 -33.628 -13.276  1.00  0.00     0.293 HD
ENDBRANCH  17  20
ENDBRANCH   1  12
BRANCH   2  22
ATOM     22  O   UNL     1      20.981 -33.211  -8.460  1.00  0.00    -0.502 OA
ATOM     23  H   UNL     1      21.134 -34.206  -8.341  1.00  0.00     0.293 HD
ENDBRANCH   2  22
BRANCH   6  24
ATOM     24  O   UNL     1      26.135 -32.265  -7.500  1.00  0.00    -0.507 OA
ATOM     25  H   UNL     1      26.689 -31.868  -6.757  1.00  0.00     0.293 HD
ENDBRANCH   6  24
BRANCH   8  26
ATOM     26  O   UNL     1      27.099 -29.126 -10.982  1.00  0.00    -0.508 OA
ATOM     27  H   UNL     1      28.093 -29.248 -10.829  1.00  0.00     0.293 HD
ENDBRANCH   8  26
TORSDOF 6
ENDMDL
MODEL 6
REMARK VINA RESULT:    -6.409      3.472      5.539
REMARK INTER + INTRA:          -8.030
REMARK INTER:                  -7.713
REMARK INTRA:                  -0.317
REMARK UNBOUND:                -0.310
REMARK SMILES O=c1c(O)c(-c2ccc(O)c(O)c2)oc2cc(O)cc(O)c12
REMARK SMILES IDX 5 1 3 2 2 3 1 4 22 5 20 6 19 7 17 8 16 9 15 10 14 11 6 12
REMARK SMILES IDX 7 13 8 14 9 15 13 16 11 17 10 18 12 20 4 22 21 24 18 26
REMARK H PARENT 10 19 12 21 4 23 21 25 18 27
REMARK Flexibility Score: inf
ROOT
ATOM      1  C   UNL     1      22.516 -33.300  -9.420  1.00  0.00     0.180 A 
ATOM      2  C   UNL     1      21.847 -32.944 -10.604  1.00  0.00     0.208 A 
ATOM      3  C   UNL     1      22.398 -31.946 -11.424  1.00  0.00     0.238 A 
ATOM      4  O   UNL     1      21.767 -31.594 -12.454  1.00  0.00    -0.285 OA
ATOM      5  C   UNL     1      23.619 -31.329 -11.060  1.00  0.00     0.111 A 
ATOM      6  C   UNL     1      24.289 -30.335 -11.835  1.00  0.00     0.134 A 
ATOM      7  C   UNL     1      25.422 -29.700 -11.314  1.00  0.00     0.093 A 
ATOM      8  C   UNL     1      25.949 -30.068 -10.076  1.00  0.00     0.123 A 
ATOM      9  C   UNL     1      25.337 -31.079  -9.336  1.00  0.00     0.094 A 
ATOM     10  C   UNL     1      24.183 -31.706  -9.812  1.00  0.00     0.146 A 
ATOM     11  O   UNL     1      23.625 -32.656  -9.073  1.00  0.00    -0.452 OA
ENDROOT
BRANCH   1  12
ATOM     12  C   UNL     1      22.011 -34.359  -8.518  1.00  0.00     0.025 A 
ATOM     13  C   UNL     1      21.178 -34.056  -7.426  1.00  0.00     0.016 A 
ATOM     14  C   UNL     1      20.694 -35.074  -6.602  1.00  0.00     0.051 A 
ATOM     15  C   UNL     1      21.021 -36.409  -6.861  1.00  0.00     0.157 A 
ATOM     16  C   UNL     1      22.321 -35.703  -8.787  1.00  0.00     0.062 A 
ATOM     17  C   UNL     1      21.836 -36.728  -7.960  1.00  0.00     0.158 A 
BRANCH  15  18
ATOM     18  O   UNL     1      20.524 -37.404  -6.020  1.00  0.00    -0.504 OA
ATOM     19  H   UNL     1      20.067 -37.188  -5.142  1.00  0.00     0.293 HD
ENDBRANCH  15  18
BRANCH  17  20
ATOM     20  O   UNL     1      22.160 -38.056  -8.228  1.00  0.00    -0.504 OA
ATOM     21  H   UNL     1      22.935 -38.517  -7.766  1.00  0.00     0.293 HD
ENDBRANCH  17  20
ENDBRANCH   1  12
BRANCH   2  22
ATOM     22  O   UNL     1      20.632 -33.550 -10.933  1.00  0.00    -0.502 OA
ATOM     23  H   UNL     1      20.377 -34.472 -10.599  1.00  0.00     0.293 HD
ENDBRANCH   2  22
BRANCH   6  24
ATOM     24  O   UNL     1      23.900 -29.959 -13.125  1.00  0.00    -0.507 OA
ATOM     25  H   UNL     1      24.121 -29.075 -13.557  1.00  0.00     0.293 HD
ENDBRANCH   6  24
BRANCH   8  26
ATOM     26  O   UNL     1      27.087 -29.425  -9.595  1.00  0.00    -0.508 OA
ATOM     27  H   UNL     1      27.218 -29.248  -8.607  1.00  0.00     0.293 HD
ENDBRANCH   8  26
TORSDOF 6
ENDMDL
MODEL 7
REMARK VINA RESULT:    -6.293      1.587      3.356
REMARK INTER + INTRA:          -7.891
REMARK INTER:                  -7.761
REMARK INTRA:                  -0.130
REMARK UNBOUND:                -0.310
REMARK SMILES O=c1c(O)c(-c2ccc(O)c(O)c2)oc2cc(O)cc(O)c12
REMARK SMILES IDX 5 1 3 2 2 3 1 4 22 5 20 6 19 7 17 8 16 9 15 10 14 11 6 12
REMARK SMILES IDX 7 13 8 14 9 15 13 16 11 17 10 18 12 20 4 22 21 24 18 26
REMARK H PARENT 10 19 12 21 4 23 21 25 18 27
REMARK Flexibility Score: inf
ROOT
ATOM      1  C   UNL     1      20.289 -36.513  -7.320  1.00  0.00     0.180 A 
ATOM      2  C   UNL     1      21.403 -36.980  -8.039  1.00  0.00     0.208 A 
ATOM      3  C   UNL     1      22.306 -36.048  -8.576  1.00  0.00     0.238 A 
ATOM      4  O   UNL     1      23.272 -36.469  -9.264  1.00  0.00    -0.285 OA
ATOM      5  C   UNL     1      22.094 -34.662  -8.372  1.00  0.00     0.111 A 
ATOM      6  C   UNL     1      22.966 -33.632  -8.835  1.00  0.00     0.134 A 
ATOM      7  C   UNL     1      22.590 -32.292  -8.691  1.00  0.00     0.093 A 
ATOM      8  C   UNL     1      21.405 -31.942  -8.041  1.00  0.00     0.123 A 
ATOM      9  C   UNL     1      20.574 -32.940  -7.531  1.00  0.00     0.094 A 
ATOM     10  C   UNL     1      20.905 -34.288  -7.693  1.00  0.00     0.146 A 
ATOM     11  O   UNL     1      20.082 -35.206  -7.203  1.00  0.00    -0.452 OA
ENDROOT
BRANCH   1  12
ATOM     12  C   UNL     1      19.307 -37.434  -6.704  1.00  0.00     0.025 A 
ATOM     13  C   UNL     1      17.967 -37.465  -7.127  1.00  0.00     0.016 A 
ATOM     14  C   UNL     1      17.064 -38.359  -6.548  1.00  0.00     0.051 A 
ATOM     15  C   UNL     1      17.484 -39.243  -5.549  1.00  0.00     0.157 A 
ATOM     16  C   UNL     1      19.732 -38.337  -5.715  1.00  0.00     0.062 A 
ATOM     17  C   UNL     1      18.826 -39.236  -5.131  1.00  0.00     0.158 A 
BRANCH  15  18
ATOM     18  O   UNL     1      16.560 -40.123  -4.988  1.00  0.00    -0.504 OA
ATOM     19  H   UNL     1      16.298 -40.078  -4.011  1.00  0.00     0.293 HD
ENDBRANCH  15  18
BRANCH  17  20
ATOM     20  O   UNL     1      19.255 -40.118  -4.142  1.00  0.00    -0.504 OA
ATOM     21  H   UNL     1      18.665 -40.359  -3.353  1.00  0.00     0.293 HD
ENDBRANCH  17  20
ENDBRANCH   1  12
BRANCH   2  22
ATOM     22  O   UNL     1      21.581 -38.349  -8.246  1.00  0.00    -0.502 OA
ATOM     23  H   UNL     1      21.919 -38.970  -7.520  1.00  0.00     0.293 HD
ENDBRANCH   2  22
BRANCH   6  24
ATOM     24  O   UNL     1      24.216 -33.870  -9.415  1.00  0.00    -0.507 OA
ATOM     25  H   UNL     1      24.923 -34.477  -9.029  1.00  0.00     0.293 HD
ENDBRANCH   6  24
BRANCH   8  26
ATOM     26  O   UNL     1      21.070 -30.597  -7.902  1.00  0.00    -0.508 OA
ATOM     27  H   UNL     1      21.555 -29.995  -7.248  1.00  0.00     0.293 HD
ENDBRANCH   8  26
TORSDOF 6
ENDMDL
MODEL 8
REMARK VINA RESULT:    -6.225      1.883      7.344
REMARK INTER + INTRA:          -7.809
REMARK INTER:                  -7.798
REMARK INTRA:                  -0.011
REMARK UNBOUND:                -0.310
REMARK SMILES O=c1c(O)c(-c2ccc(O)c(O)c2)oc2cc(O)cc(O)c12
REMARK SMILES IDX 5 1 3 2 2 3 1 4 22 5 20 6 19 7 17 8 16 9 15 10 14 11 6 12
REMARK SMILES IDX 7 13 8 14 9 15 13 16 11 17 10 18 12 20 4 22 21 24 18 26
REMARK H PARENT 10 19 12 21 4 23 21 25 18 27
REMARK Flexibility Score: inf
ROOT
ATOM      1  C   UNL     1      20.537 -35.931  -7.488  1.00  0.00     0.180 A 
ATOM      2  C   UNL     1      20.742 -37.321  -7.533  1.00  0.00     0.208 A 
ATOM      3  C   UNL     1      19.756 -38.172  -7.008  1.00  0.00     0.238 A 
ATOM      4  O   UNL     1      19.969 -39.412  -7.001  1.00  0.00    -0.285 OA
ATOM      5  C   UNL     1      18.570 -37.624  -6.462  1.00  0.00     0.111 A 
ATOM      6  C   UNL     1      17.487 -38.393  -5.940  1.00  0.00     0.134 A 
ATOM      7  C   UNL     1      16.422 -37.744  -5.305  1.00  0.00     0.093 A 
ATOM      8  C   UNL     1      16.367 -36.352  -5.232  1.00  0.00     0.123 A 
ATOM      9  C   UNL     1      17.391 -35.588  -5.792  1.00  0.00     0.094 A 
ATOM     10  C   UNL     1      18.486 -36.208  -6.399  1.00  0.00     0.146 A 
ATOM     11  O   UNL     1      19.444 -35.446  -6.910  1.00  0.00    -0.452 OA
ENDROOT
BRANCH   1  12
ATOM     12  C   UNL     1      21.519 -34.972  -8.043  1.00  0.00     0.025 A 
ATOM     13  C   UNL     1      22.050 -33.932  -7.259  1.00  0.00     0.016 A 
ATOM     14  C   UNL     1      22.993 -33.054  -7.797  1.00  0.00     0.051 A 
ATOM     15  C   UNL     1      23.431 -33.205  -9.117  1.00  0.00     0.157 A 
ATOM     16  C   UNL     1      21.975 -35.134  -9.362  1.00  0.00     0.062 A 
ATOM     17  C   UNL     1      22.922 -34.252  -9.904  1.00  0.00     0.158 A 
BRANCH  15  18
ATOM     18  O   UNL     1      24.372 -32.312  -9.626  1.00  0.00    -0.504 OA
ATOM     19  H   UNL     1      24.887 -32.500 -10.478  1.00  0.00     0.293 HD
ENDBRANCH  15  18
BRANCH  17  20
ATOM     20  O   UNL     1      23.358 -34.414 -11.218  1.00  0.00    -0.504 OA
ATOM     21  H   UNL     1      23.554 -33.619 -11.814  1.00  0.00     0.293 HD
ENDBRANCH  17  20
ENDBRANCH   1  12
BRANCH   2  22
ATOM     22  O   UNL     1      21.929 -37.839  -8.056  1.00  0.00    -0.502 OA
ATOM     23  H   UNL     1      22.736 -37.258  -8.252  1.00  0.00     0.293 HD
ENDBRANCH   2  22
BRANCH   6  24
ATOM     24  O   UNL     1      17.398 -39.785  -6.043  1.00  0.00    -0.507 OA
ATOM     25  H   UNL     1      18.134 -40.385  -6.382  1.00  0.00     0.293 HD
ENDBRANCH   6  24
BRANCH   8  26
ATOM     26  O   UNL     1      15.283 -35.739  -4.607  1.00  0.00    -0.508 OA
ATOM     27  H   UNL     1      15.410 -34.964  -3.967  1.00  0.00     0.293 HD
ENDBRANCH   8  26
TORSDOF 6
ENDMDL
MODEL 9
REMARK VINA RESULT:    -6.215      2.866      4.084
REMARK INTER + INTRA:          -7.796
REMARK INTER:                  -7.909
REMARK INTRA:                   0.113
REMARK UNBOUND:                -0.310
REMARK SMILES O=c1c(O)c(-c2ccc(O)c(O)c2)oc2cc(O)cc(O)c12
REMARK SMILES IDX 5 1 3 2 2 3 1 4 22 5 20 6 19 7 17 8 16 9 15 10 14 11 6 12
REMARK SMILES IDX 7 13 8 14 9 15 13 16 11 17 10 18 12 20 4 22 21 24 18 26
REMARK H PARENT 10 19 12 21 4 23 21 25 18 27
REMARK Flexibility Score: inf
ROOT
ATOM      1  C   UNL     1      21.969 -34.123  -7.812  1.00  0.00     0.180 A 
ATOM      2  C   UNL     1      21.548 -32.956  -8.474  1.00  0.00     0.208 A 
ATOM      3  C   UNL     1      22.512 -32.023  -8.887  1.00  0.00     0.238 A 
ATOM      4  O   UNL     1      22.126 -30.956  -9.431  1.00  0.00    -0.285 OA
ATOM      5  C   UNL     1      23.885 -32.275  -8.649  1.00  0.00     0.111 A 
ATOM      6  C   UNL     1      24.950 -31.418  -9.060  1.00  0.00     0.134 A 
ATOM      7  C   UNL     1      26.260 -31.702  -8.656  1.00  0.00     0.093 A 
ATOM      8  C   UNL     1      26.553 -32.845  -7.913  1.00  0.00     0.123 A 
ATOM      9  C   UNL     1      25.528 -33.721  -7.556  1.00  0.00     0.094 A 
ATOM     10  C   UNL     1      24.205 -33.446  -7.913  1.00  0.00     0.146 A 
ATOM     11  O   UNL     1      23.258 -34.299  -7.545  1.00  0.00    -0.452 OA
ENDROOT
BRANCH   1  12
ATOM     12  C   UNL     1      21.015 -35.164  -7.368  1.00  0.00     0.025 A 
ATOM     13  C   UNL     1      19.800 -34.828  -6.746  1.00  0.00     0.016 A 
ATOM     14  C   UNL     1      18.904 -35.827  -6.358  1.00  0.00     0.051 A 
ATOM     15  C   UNL     1      19.199 -37.173  -6.595  1.00  0.00     0.157 A 
ATOM     16  C   UNL     1      21.299 -36.517  -7.624  1.00  0.00     0.062 A 
ATOM     17  C   UNL     1      20.400 -37.522  -7.234  1.00  0.00     0.158 A 
BRANCH  15  18
ATOM     18  O   UNL     1      18.286 -38.148  -6.195  1.00  0.00    -0.504 OA
ATOM     19  H   UNL     1      17.606 -38.543  -6.833  1.00  0.00     0.293 HD
ENDBRANCH  15  18
BRANCH  17  20
ATOM     20  O   UNL     1      20.698 -38.860  -7.480  1.00  0.00    -0.504 OA
ATOM     21  H   UNL     1      21.481 -39.321  -7.032  1.00  0.00     0.293 HD
ENDBRANCH  17  20
ENDBRANCH   1  12
BRANCH   2  22
ATOM     22  O   UNL     1      20.187 -32.718  -8.679  1.00  0.00    -0.502 OA
ATOM     23  H   UNL     1      19.473 -33.389  -8.423  1.00  0.00     0.293 HD
ENDBRANCH   2  22
BRANCH   6  24
ATOM     24  O   UNL     1      24.779 -30.300  -9.883  1.00  0.00    -0.507 OA
ATOM     25  H   UNL     1      24.066 -29.598  -9.757  1.00  0.00     0.293 HD
ENDBRANCH   6  24
BRANCH   8  26
ATOM     26  O   UNL     1      27.870 -33.104  -7.541  1.00  0.00    -0.508 OA
ATOM     27  H   UNL     1      28.155 -34.012  -7.197  1.00  0.00     0.293 HD
ENDBRANCH   8  26
TORSDOF 6
ENDMDL
