MODEL 1
REMARK VINA RESULT:    -6.959      0.000      0.000
REMARK INTER + INTRA:          -7.163
REMARK INTER:                  -7.163
REMARK INTRA:                   0.000
REMARK UNBOUND:                 0.000
REMARK SMILES O=c1ccc2ccc(O)cc2o1
REMARK SMILES IDX 6 1 7 2 8 3 10 4 11 5 5 6 4 7 3 8 2 9 1 10 12 11 9 12
REMARK H PARENT 9 13
REMARK Flexibility Score: inf
ROOT
ATOM      1  C   UNL     1      10.236  71.513  -4.780  1.00  0.00     0.016 A 
ATOM      2  C   UNL     1       9.870  70.757  -3.662  1.00  0.00     0.047 A 
ATOM      3  C   UNL     1      10.617  70.831  -2.481  1.00  0.00     0.119 A 
ATOM      4  C   UNL     1      11.741  71.668  -2.415  1.00  0.00     0.094 A 
ATOM      5  C   UNL     1      12.115  72.428  -3.528  1.00  0.00     0.142 A 
ATOM      6  C   UNL     1      11.359  72.351  -4.719  1.00  0.00     0.018 A 
ATOM      7  C   UNL     1      11.757  73.123  -5.814  1.00  0.00     0.019 A 
ATOM      8  C   UNL     1      12.882  73.940  -5.702  1.00  0.00     0.094 A 
ATOM      9  C   UNL     1      13.583  73.966  -4.491  1.00  0.00     0.336 A 
ATOM     10  O   UNL     1      14.601  74.699  -4.370  1.00  0.00    -0.246 OA
ATOM     11  O   UNL     1      13.182  73.222  -3.464  1.00  0.00    -0.423 OA
ENDROOT
BRANCH   3  12
ATOM     12  O   UNL     1      10.236  70.069  -1.378  1.00  0.00    -0.508 OA
ATOM     13  H   UNL     1      10.857  69.928  -0.591  1.00  0.00     0.293 HD
ENDBRANCH   3  12
TORSDOF 1
ENDMDL
MODEL 2
REMARK VINA RESULT:    -6.659      1.930      4.419
REMARK INTER + INTRA:          -6.854
REMARK INTER:                  -6.854
REMARK INTRA:                   0.000
REMARK UNBOUND:                 0.000
REMARK SMILES O=c1ccc2ccc(O)cc2o1
REMARK SMILES IDX 6 1 7 2 8 3 10 4 11 5 5 6 4 7 3 8 2 9 1 10 12 11 9 12
REMARK H PARENT 9 13
REMARK Flexibility Score: inf
ROOT
ATOM      1  C   UNL     1      12.882  72.309  -2.427  1.00  0.00     0.016 A 
ATOM      2  C   UNL     1      13.947  73.148  -2.773  1.00  0.00     0.047 A 
ATOM      3  C   UNL     1      14.043  73.672  -4.067  1.00  0.00     0.119 A 
ATOM      4  C   UNL     1      13.069  73.356  -5.025  1.00  0.00     0.094 A 
ATOM      5  C   UNL     1      12.001  72.517  -4.688  1.00  0.00     0.142 A 
ATOM      6  C   UNL     1      11.906  71.990  -3.382  1.00  0.00     0.018 A 
ATOM      7  C   UNL     1      10.828  71.155  -3.075  1.00  0.00     0.019 A 
ATOM      8  C   UNL     1       9.884  70.868  -4.061  1.00  0.00     0.094 A 
ATOM      9  C   UNL     1      10.041  71.426  -5.334  1.00  0.00     0.336 A 
ATOM     10  O   UNL     1       9.198  71.179  -6.237  1.00  0.00    -0.246 OA
ATOM     11  O   UNL     1      11.076  72.218  -5.599  1.00  0.00    -0.423 OA
ENDROOT
BRANCH   3  12
ATOM     12  O   UNL     1      15.111  74.507  -4.392  1.00  0.00    -0.508 OA
ATOM     13  H   UNL     1      16.064  74.164  -4.412  1.00  0.00     0.293 HD
ENDBRANCH   3  12
TORSDOF 1
ENDMDL
MODEL 3
REMARK VINA RESULT:    -6.637      1.787      2.607
REMARK INTER + INTRA:          -6.831
REMARK INTER:                  -6.831
REMARK INTRA:                   0.000
REMARK UNBOUND:                 0.000
REMARK SMILES O=c1ccc2ccc(O)cc2o1
REMARK SMILES IDX 6 1 7 2 8 3 10 4 11 5 5 6 4 7 3 8 2 9 1 10 12 11 9 12
REMARK H PARENT 9 13
REMARK Flexibility Score: inf
ROOT
ATOM      1  C   UNL     1      10.844  71.210  -3.002  1.00  0.00     0.016 A 
ATOM      2  C   UNL     1       9.921  70.900  -4.006  1.00  0.00     0.047 A 
ATOM      3  C   UNL     1      10.110  71.367  -5.312  1.00  0.00     0.119 A 
ATOM      4  C   UNL     1      11.232  72.151  -5.618  1.00  0.00     0.094 A 
ATOM      5  C   UNL     1      12.161  72.467  -4.621  1.00  0.00     0.142 A 
ATOM      6  C   UNL     1      11.966  71.994  -3.304  1.00  0.00     0.018 A 
ATOM      7  C   UNL     1      12.912  72.325  -2.329  1.00  0.00     0.019 A 
ATOM      8  C   UNL     1      14.010  73.109  -2.681  1.00  0.00     0.094 A 
ATOM      9  C   UNL     1      14.139  73.542  -4.005  1.00  0.00     0.336 A 
ATOM     10  O   UNL     1      15.125  74.250  -4.342  1.00  0.00    -0.246 OA
ATOM     11  O   UNL     1      13.225  73.212  -4.914  1.00  0.00    -0.423 OA
ENDROOT
BRANCH   3  12
ATOM     12  O   UNL     1       9.179  71.047  -6.297  1.00  0.00    -0.508 OA
ATOM     13  H   UNL     1       8.838  70.101  -6.417  1.00  0.00     0.293 HD
ENDBRANCH   3  12
TORSDOF 1
ENDMDL
MODEL 4
REMARK VINA RESULT:    -6.561      0.799      4.226
REMARK INTER + INTRA:          -6.752
REMARK INTER:                  -6.752
REMARK INTRA:                   0.000
REMARK UNBOUND:                 0.000
REMARK SMILES O=c1ccc2ccc(O)cc2o1
REMARK SMILES IDX 6 1 7 2 8 3 10 4 11 5 5 6 4 7 3 8 2 9 1 10 12 11 9 12
REMARK H PARENT 9 13
REMARK Flexibility Score: inf
ROOT
ATOM      1  C   UNL     1      11.825  73.293  -5.881  1.00  0.00     0.016 A 
ATOM      2  C   UNL     1      12.955  74.100  -5.718  1.00  0.00     0.047 A 
ATOM      3  C   UNL     1      13.658  74.100  -4.508  1.00  0.00     0.119 A 
ATOM      4  C   UNL     1      13.229  73.286  -3.450  1.00  0.00     0.094 A 
ATOM      5  C   UNL     1      12.099  72.474  -3.603  1.00  0.00     0.142 A 
ATOM      6  C   UNL     1      11.392  72.478  -4.825  1.00  0.00     0.018 A 
ATOM      7  C   UNL     1      10.268  71.656  -4.948  1.00  0.00     0.019 A 
ATOM      8  C   UNL     1       9.878  70.865  -3.868  1.00  0.00     0.094 A 
ATOM      9  C   UNL     1      10.626  70.912  -2.687  1.00  0.00     0.336 A 
ATOM     10  O   UNL     1      10.291  70.204  -1.701  1.00  0.00    -0.246 OA
ATOM     11  O   UNL     1      11.693  71.702  -2.597  1.00  0.00    -0.423 OA
ENDROOT
BRANCH   3  12
ATOM     12  O   UNL     1      14.782  74.911  -4.367  1.00  0.00    -0.508 OA
ATOM     13  H   UNL     1      14.825  75.834  -4.781  1.00  0.00     0.293 HD
ENDBRANCH   3  12
TORSDOF 1
ENDMDL
MODEL 5
REMARK VINA RESULT:    -6.552      2.963      3.316
REMARK INTER + INTRA:          -6.744
REMARK INTER:                  -6.744
REMARK INTRA:                   0.000
REMARK UNBOUND:                 0.000
REMARK SMILES O=c1ccc2ccc(O)cc2o1
REMARK SMILES IDX 6 1 7 2 8 3 10 4 11 5 5 6 4 7 3 8 2 9 1 10 12 11 9 12
REMARK H PARENT 9 13
REMARK Flexibility Score: inf
ROOT
ATOM      1  C   UNL     1       9.810  71.534  -4.737  1.00  0.00     0.016 A 
ATOM      2  C   UNL     1      10.234  70.767  -3.647  1.00  0.00     0.047 A 
ATOM      3  C   UNL     1      10.290  71.327  -2.366  1.00  0.00     0.119 A 
ATOM      4  C   UNL     1       9.918  72.665  -2.170  1.00  0.00     0.094 A 
ATOM      5  C   UNL     1       9.492  73.441  -3.254  1.00  0.00     0.142 A 
ATOM      6  C   UNL     1       9.438  72.873  -4.546  1.00  0.00     0.018 A 
ATOM      7  C   UNL     1       9.008  73.672  -5.609  1.00  0.00     0.019 A 
ATOM      8  C   UNL     1       8.650  74.998  -5.366  1.00  0.00     0.094 A 
ATOM      9  C   UNL     1       8.729  75.493  -4.060  1.00  0.00     0.336 A 
ATOM     10  O   UNL     1       8.408  76.688  -3.820  1.00  0.00    -0.246 OA
ATOM     11  O   UNL     1       9.140  74.711  -3.066  1.00  0.00    -0.423 OA
ENDROOT
BRANCH   3  12
ATOM     12  O   UNL     1      10.715  70.546  -1.293  1.00  0.00    -0.508 OA
ATOM     13  H   UNL     1      10.573  69.543  -1.279  1.00  0.00     0.293 HD
ENDBRANCH   3  12
TORSDOF 1
ENDMDL
MODEL 6
REMARK VINA RESULT:    -6.541      3.074      4.548
REMARK INTER + INTRA:          -6.732
REMARK INTER:                  -6.732
REMARK INTRA:                   0.000
REMARK UNBOUND:                 0.000
REMARK SMILES O=c1ccc2ccc(O)cc2o1
REMARK SMILES IDX 6 1 7 2 8 3 10 4 11 5 5 6 4 7 3 8 2 9 1 10 12 11 9 12
REMARK H PARENT 9 13
REMARK Flexibility Score: inf
ROOT
ATOM      1  C   UNL     1       8.951  73.722  -5.866  1.00  0.00     0.016 A 
ATOM      2  C   UNL     1       8.449  74.996  -5.582  1.00  0.00     0.047 A 
ATOM      3  C   UNL     1       8.378  75.451  -4.260  1.00  0.00     0.119 A 
ATOM      4  C   UNL     1       8.812  74.626  -3.212  1.00  0.00     0.094 A 
ATOM      5  C   UNL     1       9.316  73.350  -3.486  1.00  0.00     0.142 A 
ATOM      6  C   UNL     1       9.386  72.894  -4.821  1.00  0.00     0.018 A 
ATOM      7  C   UNL     1       9.894  71.615  -5.064  1.00  0.00     0.019 A 
ATOM      8  C   UNL     1      10.313  70.830  -3.990  1.00  0.00     0.094 A 
ATOM      9  C   UNL     1      10.214  71.347  -2.693  1.00  0.00     0.336 A 
ATOM     10  O   UNL     1      10.588  70.654  -1.710  1.00  0.00    -0.246 OA
ATOM     11  O   UNL     1       9.727  72.568  -2.490  1.00  0.00    -0.423 OA
ENDROOT
BRANCH   3  12
ATOM     12  O   UNL     1       7.875  76.723  -3.998  1.00  0.00    -0.508 OA
ATOM     13  H   UNL     1       8.201  77.270  -3.210  1.00  0.00     0.293 HD
ENDBRANCH   3  12
TORSDOF 1
ENDMDL
MODEL 7
REMARK VINA RESULT:    -6.028      3.687      4.866
REMARK INTER + INTRA:          -6.204
REMARK INTER:                  -6.204
REMARK INTRA:                   0.000
REMARK UNBOUND:                 0.000
REMARK SMILES O=c1ccc2ccc(O)cc2o1
REMARK SMILES IDX 6 1 7 2 8 3 10 4 11 5 5 6 4 7 3 8 2 9 1 10 12 11 9 12
REMARK H PARENT 9 13
REMARK Flexibility Score: inf
ROOT
ATOM      1  C   UNL     1       9.660  74.159  -1.618  1.00  0.00     0.016 A 
ATOM      2  C   UNL     1       9.214  75.475  -1.780  1.00  0.00     0.047 A 
ATOM      3  C   UNL     1       8.800  75.932  -3.037  1.00  0.00     0.119 A 
ATOM      4  C   UNL     1       8.832  75.069  -4.141  1.00  0.00     0.094 A 
ATOM      5  C   UNL     1       9.277  73.751  -3.988  1.00  0.00     0.142 A 
ATOM      6  C   UNL     1       9.694  73.293  -2.719  1.00  0.00     0.018 A 
ATOM      7  C   UNL     1      10.132  71.971  -2.598  1.00  0.00     0.019 A 
ATOM      8  C   UNL     1      10.147  71.149  -3.724  1.00  0.00     0.094 A 
ATOM      9  C   UNL     1       9.719  71.671  -4.950  1.00  0.00     0.336 A 
ATOM     10  O   UNL     1       9.725  70.944  -5.979  1.00  0.00    -0.246 OA
ATOM     11  O   UNL     1       9.306  72.932  -5.038  1.00  0.00    -0.423 OA
ENDROOT
BRANCH   3  12
ATOM     12  O   UNL     1       8.359  77.246  -3.178  1.00  0.00    -0.508 OA
ATOM     13  H   UNL     1       7.391  77.461  -3.384  1.00  0.00     0.293 HD
ENDBRANCH   3  12
TORSDOF 1
ENDMDL
MODEL 8
REMARK VINA RESULT:    -5.931      2.316      3.096
REMARK INTER + INTRA:          -6.104
REMARK INTER:                  -6.104
REMARK INTRA:                   0.000
REMARK UNBOUND:                 0.000
REMARK SMILES O=c1ccc2ccc(O)cc2o1
REMARK SMILES IDX 6 1 7 2 8 3 10 4 11 5 5 6 4 7 3 8 2 9 1 10 12 11 9 12
REMARK H PARENT 9 13
REMARK Flexibility Score: inf
ROOT
ATOM      1  C   UNL     1      12.660  72.563  -3.541  1.00  0.00     0.016 A 
ATOM      2  C   UNL     1      12.468  71.718  -2.443  1.00  0.00     0.047 A 
ATOM      3  C   UNL     1      11.207  71.170  -2.183  1.00  0.00     0.119 A 
ATOM      4  C   UNL     1      10.127  71.468  -3.026  1.00  0.00     0.094 A 
ATOM      5  C   UNL     1      10.308  72.312  -4.127  1.00  0.00     0.142 A 
ATOM      6  C   UNL     1      11.582  72.864  -4.387  1.00  0.00     0.018 A 
ATOM      7  C   UNL     1      11.732  73.704  -5.494  1.00  0.00     0.019 A 
ATOM      8  C   UNL     1      10.629  73.972  -6.303  1.00  0.00     0.094 A 
ATOM      9  C   UNL     1       9.397  73.390  -5.985  1.00  0.00     0.336 A 
ATOM     10  O   UNL     1       8.389  73.620  -6.705  1.00  0.00    -0.246 OA
ATOM     11  O   UNL     1       9.281  72.594  -4.926  1.00  0.00    -0.423 OA
ENDROOT
BRANCH   3  12
ATOM     12  O   UNL     1      11.037  70.330  -1.084  1.00  0.00    -0.508 OA
ATOM     13  H   UNL     1      11.773  69.705  -0.776  1.00  0.00     0.293 HD
ENDBRANCH   3  12
TORSDOF 1
ENDMDL
MODEL 9
REMARK VINA RESULT:    -5.696      2.506      3.880
REMARK INTER + INTRA:          -5.863
REMARK INTER:                  -5.863
REMARK INTRA:                   0.000
REMARK UNBOUND:                 0.000
REMARK SMILES O=c1ccc2ccc(O)cc2o1
REMARK SMILES IDX 6 1 7 2 8 3 10 4 11 5 5 6 4 7 3 8 2 9 1 10 12 11 9 12
REMARK H PARENT 9 13
REMARK Flexibility Score: inf
ROOT
ATOM      1  C   UNL     1      12.130  71.868  -3.228  1.00  0.00     0.016 A 
ATOM      2  C   UNL     1      12.817  72.763  -2.401  1.00  0.00     0.047 A 
ATOM      3  C   UNL     1      12.545  74.134  -2.461  1.00  0.00     0.119 A 
ATOM      4  C   UNL     1      11.579  74.617  -3.356  1.00  0.00     0.094 A 
ATOM      5  C   UNL     1      10.887  73.730  -4.188  1.00  0.00     0.142 A 
ATOM      6  C   UNL     1      11.164  72.347  -4.125  1.00  0.00     0.018 A 
ATOM      7  C   UNL     1      10.457  71.485  -4.968  1.00  0.00     0.019 A 
ATOM      8  C   UNL     1       9.507  72.011  -5.842  1.00  0.00     0.094 A 
ATOM      9  C   UNL     1       9.284  73.393  -5.851  1.00  0.00     0.336 A 
ATOM     10  O   UNL     1       8.429  73.887  -6.632  1.00  0.00    -0.246 OA
ATOM     11  O   UNL     1       9.971  74.191  -5.037  1.00  0.00    -0.423 OA
ENDROOT
BRANCH   3  12
ATOM     12  O   UNL     1      13.239  75.009  -1.628  1.00  0.00    -0.508 OA
ATOM     13  H   UNL     1      13.188  76.013  -1.754  1.00  0.00     0.293 HD
ENDBRANCH   3  12
TORSDOF 1
ENDMDL
