MODEL 1
REMARK VINA RESULT:    -7.669      0.000      0.000
REMARK INTER + INTRA:         -11.385
REMARK INTER:                 -10.583
REMARK INTRA:                  -0.802
REMARK UNBOUND:                -0.802
REMARK SMILES CC[C@@H](CC[C@H](C)[C@@H]1CC[C@@H]2[C@@H]3CC=C4C[C@H](O)CC[C@]4(C)[C@H]3CC[C@]21C)C(C)C
REMARK SMILES IDX 5 1 4 2 3 3 2 4 1 5 28 6 29 7 30 8 6 9 7 10 8 11 9 12 26 13
REMARK SMILES IDX 10 14 11 15 25 16 27 17 12 18 24 19 23 20 13 21 21 22 14 23
REMARK SMILES IDX 15 24 20 25 22 26 16 27 19 28 17 29 18 30
REMARK H PARENT 18 31
REMARK Flexibility Score: inf
ROOT
ATOM      1  C   UNL     1     115.824 126.962 126.674  1.00  0.00     0.004 C 
ENDROOT
BRANCH   1   2
ATOM      2  C   UNL     1     116.703 127.879 125.790  1.00  0.00     0.004 C 
BRANCH   2   3
ATOM      3  C   UNL     1     116.596 129.380 126.183  1.00  0.00    -0.009 C 
BRANCH   3   4
ATOM      4  C   UNL     1     115.191 130.005 125.927  1.00  0.00     0.000 C 
ATOM      5  C   UNL     1     115.018 130.798 124.623  1.00  0.00     0.004 C 
ENDBRANCH   3   4
BRANCH   3   6
ATOM      6  C   UNL     1     117.768 130.271 125.645  1.00  0.00    -0.014 C 
ATOM      7  C   UNL     1     118.118 131.422 126.606  1.00  0.00     0.007 C 
ATOM      8  C   UNL     1     119.040 129.494 125.272  1.00  0.00     0.007 C 
ENDBRANCH   3   6
ENDBRANCH   2   3
ENDBRANCH   1   2
BRANCH   1   9
ATOM      9  C   UNL     1     115.752 125.490 126.175  1.00  0.00    -0.011 C 
ATOM     10  C   UNL     1     116.413 125.370 124.788  1.00  0.00     0.008 C 
BRANCH   9  11
ATOM     11  C   UNL     1     114.261 125.002 126.136  1.00  0.00    -0.002 C 
ATOM     12  C   UNL     1     113.456 125.420 127.401  1.00  0.00     0.005 C 
ATOM     13  C   UNL     1     113.981 123.467 126.009  1.00  0.00    -0.026 C 
ATOM     14  C   UNL     1     112.399 124.334 127.656  1.00  0.00     0.005 C 
ATOM     15  C   UNL     1     112.500 123.440 126.433  1.00  0.00    -0.001 C 
ATOM     16  C   UNL     1     114.095 122.887 124.555  1.00  0.00     0.007 C 
ATOM     17  C   UNL     1     114.905 122.687 126.998  1.00  0.00     0.012 C 
ATOM     18  C   UNL     1     111.797 122.053 126.418  1.00  0.00     0.000 C 
ATOM     19  C   UNL     1     112.954 121.905 124.152  1.00  0.00     0.005 C 
ATOM     20  C   UNL     1     112.435 121.101 125.371  1.00  0.00     0.003 C 
ATOM     21  C   UNL     1     111.681 121.318 127.755  1.00  0.00     0.031 C 
ATOM     22  C   UNL     1     111.481 119.891 125.065  1.00  0.00    -0.008 C 
ATOM     23  C   UNL     1     111.006 119.979 127.574  1.00  0.00    -0.027 C 
ATOM     24  C   UNL     1     110.954 119.306 126.392  1.00  0.00    -0.065 C 
ATOM     25  C   UNL     1     112.290 118.780 124.319  1.00  0.00     0.014 C 
ATOM     26  C   UNL     1     110.280 120.327 124.182  1.00  0.00     0.016 C 
ATOM     27  C   UNL     1     110.274 117.953 126.354  1.00  0.00     0.063 C 
ATOM     28  C   UNL     1     111.572 117.420 124.254  1.00  0.00     0.033 C 
ATOM     29  C   UNL     1     111.163 116.921 125.647  1.00  0.00     0.118 C 
BRANCH  29  30
ATOM     30  O   UNL     1     112.313 116.657 126.411  1.00  0.00    -0.393 OA
ATOM     31  H   UNL     1     112.825 117.507 126.458  1.00  0.00     0.210 HD
ENDBRANCH  29  30
ENDBRANCH   9  11
ENDBRANCH   1   9
TORSDOF 7
ENDMDL
MODEL 2
REMARK VINA RESULT:    -7.661      3.019      9.844
REMARK INTER + INTRA:         -11.374
REMARK INTER:                  -9.623
REMARK INTRA:                  -1.751
REMARK UNBOUND:                -0.802
REMARK SMILES CC[C@@H](CC[C@H](C)[C@@H]1CC[C@@H]2[C@@H]3CC=C4C[C@H](O)CC[C@]4(C)[C@H]3CC[C@]21C)C(C)C
REMARK SMILES IDX 5 1 4 2 3 3 2 4 1 5 28 6 29 7 30 8 6 9 7 10 8 11 9 12 26 13
REMARK SMILES IDX 10 14 11 15 25 16 27 17 12 18 24 19 23 20 13 21 21 22 14 23
REMARK SMILES IDX 15 24 20 25 22 26 16 27 19 28 17 29 18 30
REMARK H PARENT 18 31
REMARK Flexibility Score: inf
ROOT
ATOM      1  C   UNL     1     111.751 115.992 127.105  1.00  0.00     0.004 C 
ENDROOT
BRANCH   1   2
ATOM      2  C   UNL     1     110.308 115.830 126.570  1.00  0.00     0.004 C 
BRANCH   2   3
ATOM      3  C   UNL     1     110.262 115.368 125.086  1.00  0.00    -0.009 C 
BRANCH   3   4
ATOM      4  C   UNL     1     111.600 114.755 124.570  1.00  0.00     0.000 C 
ATOM      5  C   UNL     1     111.534 113.317 124.031  1.00  0.00     0.004 C 
ENDBRANCH   3   4
BRANCH   3   6
ATOM      6  C   UNL     1     109.655 116.425 124.101  1.00  0.00    -0.014 C 
ATOM      7  C   UNL     1     109.270 117.735 124.813  1.00  0.00     0.007 C 
ATOM      8  C   UNL     1     110.530 116.732 122.876  1.00  0.00     0.007 C 
ENDBRANCH   3   6
ENDBRANCH   2   3
ENDBRANCH   1   2
BRANCH   1   9
ATOM      9  C   UNL     1     112.060 117.413 127.658  1.00  0.00    -0.011 C 
ATOM     10  C   UNL     1     110.926 117.873 128.594  1.00  0.00     0.008 C 
BRANCH   9  11
ATOM     11  C   UNL     1     112.262 118.424 126.474  1.00  0.00    -0.002 C 
ATOM     12  C   UNL     1     113.134 117.839 125.324  1.00  0.00     0.005 C 
ATOM     13  C   UNL     1     112.932 119.806 126.779  1.00  0.00    -0.026 C 
ATOM     14  C   UNL     1     113.896 119.009 124.682  1.00  0.00     0.005 C 
ATOM     15  C   UNL     1     113.299 120.236 125.346  1.00  0.00    -0.001 C 
ATOM     16  C   UNL     1     111.975 120.888 127.396  1.00  0.00     0.007 C 
ATOM     17  C   UNL     1     114.187 119.588 127.683  1.00  0.00     0.012 C 
ATOM     18  C   UNL     1     113.986 121.622 125.190  1.00  0.00     0.000 C 
ATOM     19  C   UNL     1     112.119 122.312 126.781  1.00  0.00     0.005 C 
ATOM     20  C   UNL     1     113.573 122.595 126.327  1.00  0.00     0.003 C 
ATOM     21  C   UNL     1     115.510 121.631 125.053  1.00  0.00     0.031 C 
ATOM     22  C   UNL     1     113.917 124.078 125.942  1.00  0.00    -0.008 C 
ATOM     23  C   UNL     1     116.029 123.046 124.941  1.00  0.00    -0.027 C 
ATOM     24  C   UNL     1     115.353 124.142 125.380  1.00  0.00    -0.065 C 
ATOM     25  C   UNL     1     113.846 124.969 127.225  1.00  0.00     0.014 C 
ATOM     26  C   UNL     1     112.925 124.632 124.882  1.00  0.00     0.016 C 
ATOM     27  C   UNL     1     116.003 125.503 125.237  1.00  0.00     0.063 C 
ATOM     28  C   UNL     1     114.476 126.362 127.056  1.00  0.00     0.033 C 
ATOM     29  C   UNL     1     115.925 126.280 126.559  1.00  0.00     0.118 C 
BRANCH  29  30
ATOM     30  O   UNL     1     116.727 125.667 127.538  1.00  0.00    -0.393 OA
ATOM     31  H   UNL     1     117.634 125.571 127.143  1.00  0.00     0.210 HD
ENDBRANCH  29  30
ENDBRANCH   9  11
ENDBRANCH   1   9
TORSDOF 7
ENDMDL
MODEL 3
REMARK VINA RESULT:    -7.422      1.362      2.629
REMARK INTER + INTRA:         -11.044
REMARK INTER:                 -10.089
REMARK INTRA:                  -0.955
REMARK UNBOUND:                -0.802
REMARK SMILES CC[C@@H](CC[C@H](C)[C@@H]1CC[C@@H]2[C@@H]3CC=C4C[C@H](O)CC[C@]4(C)[C@H]3CC[C@]21C)C(C)C
REMARK SMILES IDX 5 1 4 2 3 3 2 4 1 5 28 6 29 7 30 8 6 9 7 10 8 11 9 12 26 13
REMARK SMILES IDX 10 14 11 15 25 16 27 17 12 18 24 19 23 20 13 21 21 22 14 23
REMARK SMILES IDX 15 24 20 25 22 26 16 27 19 28 17 29 18 30
REMARK H PARENT 18 31
REMARK Flexibility Score: inf
ROOT
ATOM      1  C   UNL     1     116.098 126.986 125.294  1.00  0.00     0.004 C 
ENDROOT
BRANCH   1   2
ATOM      2  C   UNL     1     117.302 127.794 125.833  1.00  0.00     0.004 C 
BRANCH   2   3
ATOM      3  C   UNL     1     116.950 129.281 126.127  1.00  0.00    -0.009 C 
BRANCH   3   4
ATOM      4  C   UNL     1     115.492 129.675 125.741  1.00  0.00     0.000 C 
ATOM      5  C   UNL     1     115.334 130.828 124.738  1.00  0.00     0.004 C 
ENDBRANCH   3   4
BRANCH   3   6
ATOM      6  C   UNL     1     118.017 130.308 125.616  1.00  0.00    -0.014 C 
ATOM      7  C   UNL     1     118.248 131.458 126.614  1.00  0.00     0.007 C 
ATOM      8  C   UNL     1     119.362 129.684 125.213  1.00  0.00     0.007 C 
ENDBRANCH   3   6
ENDBRANCH   2   3
ENDBRANCH   1   2
BRANCH   1   9
ATOM      9  C   UNL     1     115.448 126.047 126.351  1.00  0.00    -0.011 C 
ATOM     10  C   UNL     1     116.099 126.274 127.729  1.00  0.00     0.008 C 
BRANCH   9  11
ATOM     11  C   UNL     1     115.582 124.549 125.902  1.00  0.00    -0.002 C 
ATOM     12  C   UNL     1     115.868 124.400 124.378  1.00  0.00     0.005 C 
ATOM     13  C   UNL     1     114.372 123.586 126.147  1.00  0.00    -0.026 C 
ATOM     14  C   UNL     1     115.226 123.082 123.915  1.00  0.00     0.005 C 
ATOM     15  C   UNL     1     114.768 122.431 125.207  1.00  0.00    -0.001 C 
ATOM     16  C   UNL     1     114.254 123.023 127.608  1.00  0.00     0.007 C 
ATOM     17  C   UNL     1     113.048 124.291 125.710  1.00  0.00     0.012 C 
ATOM     18  C   UNL     1     113.812 121.205 125.170  1.00  0.00     0.000 C 
ATOM     19  C   UNL     1     113.933 121.501 127.698  1.00  0.00     0.005 C 
ATOM     20  C   UNL     1     113.052 121.032 126.512  1.00  0.00     0.003 C 
ATOM     21  C   UNL     1     112.809 121.142 124.016  1.00  0.00     0.031 C 
ATOM     22  C   UNL     1     112.432 119.594 126.619  1.00  0.00    -0.008 C 
ATOM     23  C   UNL     1     111.934 119.916 124.134  1.00  0.00    -0.027 C 
ATOM     24  C   UNL     1     111.715 119.245 125.298  1.00  0.00    -0.065 C 
ATOM     25  C   UNL     1     111.378 119.576 127.775  1.00  0.00     0.014 C 
ATOM     26  C   UNL     1     113.523 118.527 126.908  1.00  0.00     0.016 C 
ATOM     27  C   UNL     1     110.786 118.048 125.284  1.00  0.00     0.063 C 
ATOM     28  C   UNL     1     110.466 118.337 127.772  1.00  0.00     0.033 C 
ATOM     29  C   UNL     1     109.762 118.146 126.422  1.00  0.00     0.118 C 
BRANCH  29  30
ATOM     30  O   UNL     1     108.876 119.214 126.196  1.00  0.00    -0.393 OA
ATOM     31  H   UNL     1     109.275 119.768 125.474  1.00  0.00     0.210 HD
ENDBRANCH  29  30
ENDBRANCH   9  11
ENDBRANCH   1   9
TORSDOF 7
ENDMDL
MODEL 4
REMARK VINA RESULT:    -7.352      3.272     10.036
REMARK INTER + INTRA:         -10.947
REMARK INTER:                  -9.240
REMARK INTRA:                  -1.707
REMARK UNBOUND:                -0.802
REMARK SMILES CC[C@@H](CC[C@H](C)[C@@H]1CC[C@@H]2[C@@H]3CC=C4C[C@H](O)CC[C@]4(C)[C@H]3CC[C@]21C)C(C)C
REMARK SMILES IDX 5 1 4 2 3 3 2 4 1 5 28 6 29 7 30 8 6 9 7 10 8 11 9 12 26 13
REMARK SMILES IDX 10 14 11 15 25 16 27 17 12 18 24 19 23 20 13 21 21 22 14 23
REMARK SMILES IDX 15 24 20 25 22 26 16 27 19 28 17 29 18 30
REMARK H PARENT 18 31
REMARK Flexibility Score: inf
ROOT
ATOM      1  C   UNL     1     110.064 115.326 125.046  1.00  0.00     0.004 C 
ENDROOT
BRANCH   1   2
ATOM      2  C   UNL     1     111.177 114.294 124.745  1.00  0.00     0.004 C 
BRANCH   2   3
ATOM      3  C   UNL     1     112.003 114.649 123.476  1.00  0.00    -0.009 C 
BRANCH   3   4
ATOM      4  C   UNL     1     112.248 113.440 122.521  1.00  0.00     0.000 C 
ATOM      5  C   UNL     1     112.514 112.081 123.186  1.00  0.00     0.004 C 
ENDBRANCH   3   4
BRANCH   3   6
ATOM      6  C   UNL     1     113.304 115.473 123.764  1.00  0.00    -0.014 C 
ATOM      7  C   UNL     1     114.088 114.927 124.971  1.00  0.00     0.007 C 
ATOM      8  C   UNL     1     114.242 115.628 122.556  1.00  0.00     0.007 C 
ENDBRANCH   3   6
ENDBRANCH   2   3
ENDBRANCH   1   2
BRANCH   1   9
ATOM      9  C   UNL     1     110.471 116.403 126.091  1.00  0.00    -0.011 C 
ATOM     10  C   UNL     1     109.636 116.235 127.376  1.00  0.00     0.008 C 
BRANCH   9  11
ATOM     11  C   UNL     1     110.296 117.841 125.486  1.00  0.00    -0.002 C 
ATOM     12  C   UNL     1     110.227 117.835 123.930  1.00  0.00     0.005 C 
ATOM     13  C   UNL     1     111.382 118.922 125.805  1.00  0.00    -0.026 C 
ATOM     14  C   UNL     1     110.832 119.160 123.438  1.00  0.00     0.005 C 
ATOM     15  C   UNL     1     111.046 119.955 124.712  1.00  0.00    -0.001 C 
ATOM     16  C   UNL     1     111.241 119.615 127.207  1.00  0.00     0.007 C 
ATOM     17  C   UNL     1     112.804 118.300 125.628  1.00  0.00     0.012 C 
ATOM     18  C   UNL     1     111.904 121.252 124.692  1.00  0.00     0.000 C 
ATOM     19  C   UNL     1     111.434 121.161 127.194  1.00  0.00     0.005 C 
ATOM     20  C   UNL     1     112.443 121.602 126.105  1.00  0.00     0.003 C 
ATOM     21  C   UNL     1     113.059 121.303 123.689  1.00  0.00     0.031 C 
ATOM     22  C   UNL     1     112.933 123.093 126.159  1.00  0.00    -0.008 C 
ATOM     23  C   UNL     1     113.814 122.607 123.810  1.00  0.00    -0.027 C 
ATOM     24  C   UNL     1     113.810 123.390 124.923  1.00  0.00    -0.065 C 
ATOM     25  C   UNL     1     113.801 123.299 127.444  1.00  0.00     0.014 C 
ATOM     26  C   UNL     1     111.736 124.082 126.188  1.00  0.00     0.016 C 
ATOM     27  C   UNL     1     114.639 124.657 124.925  1.00  0.00     0.063 C 
ATOM     28  C   UNL     1     114.609 124.608 127.450  1.00  0.00     0.033 C 
ATOM     29  C   UNL     1     115.489 124.745 126.200  1.00  0.00     0.118 C 
BRANCH  29  30
ATOM     30  O   UNL     1     116.475 123.742 126.204  1.00  0.00    -0.393 OA
ATOM     31  H   UNL     1     117.132 123.993 126.906  1.00  0.00     0.210 HD
ENDBRANCH  29  30
ENDBRANCH   9  11
ENDBRANCH   1   9
TORSDOF 7
ENDMDL
MODEL 5
REMARK VINA RESULT:    -7.299      3.518      9.556
REMARK INTER + INTRA:         -10.875
REMARK INTER:                 -10.347
REMARK INTRA:                  -0.528
REMARK UNBOUND:                -0.802
REMARK SMILES CC[C@@H](CC[C@H](C)[C@@H]1CC[C@@H]2[C@@H]3CC=C4C[C@H](O)CC[C@]4(C)[C@H]3CC[C@]21C)C(C)C
REMARK SMILES IDX 5 1 4 2 3 3 2 4 1 5 28 6 29 7 30 8 6 9 7 10 8 11 9 12 26 13
REMARK SMILES IDX 10 14 11 15 25 16 27 17 12 18 24 19 23 20 13 21 21 22 14 23
REMARK SMILES IDX 15 24 20 25 22 26 16 27 19 28 17 29 18 30
REMARK H PARENT 18 31
REMARK Flexibility Score: inf
ROOT
ATOM      1  C   UNL     1     110.875 116.166 127.143  1.00  0.00     0.004 C 
ENDROOT
BRANCH   1   2
ATOM      2  C   UNL     1     110.259 115.989 128.551  1.00  0.00     0.004 C 
BRANCH   2   3
ATOM      3  C   UNL     1     111.331 115.758 129.656  1.00  0.00    -0.009 C 
BRANCH   3   4
ATOM      4  C   UNL     1     110.929 116.317 131.055  1.00  0.00     0.000 C 
ATOM      5  C   UNL     1     109.625 117.125 131.124  1.00  0.00     0.004 C 
ENDBRANCH   3   4
BRANCH   3   6
ATOM      6  C   UNL     1     112.786 116.156 129.234  1.00  0.00    -0.014 C 
ATOM      7  C   UNL     1     113.134 117.604 129.624  1.00  0.00     0.007 C 
ATOM      8  C   UNL     1     113.880 115.200 129.736  1.00  0.00     0.007 C 
ENDBRANCH   3   6
ENDBRANCH   2   3
ENDBRANCH   1   2
BRANCH   1   9
ATOM      9  C   UNL     1     109.821 116.267 126.004  1.00  0.00    -0.011 C 
ATOM     10  C   UNL     1     110.145 115.249 124.893  1.00  0.00     0.008 C 
BRANCH   9  11
ATOM     11  C   UNL     1     109.774 117.729 125.436  1.00  0.00    -0.002 C 
ATOM     12  C   UNL     1     109.650 117.769 123.884  1.00  0.00     0.005 C 
ATOM     13  C   UNL     1     110.977 118.685 125.736  1.00  0.00    -0.026 C 
ATOM     14  C   UNL     1     110.371 119.036 123.396  1.00  0.00     0.005 C 
ATOM     15  C   UNL     1     110.711 119.774 124.678  1.00  0.00    -0.001 C 
ATOM     16  C   UNL     1     110.959 119.354 127.157  1.00  0.00     0.007 C 
ATOM     17  C   UNL     1     112.320 117.925 125.492  1.00  0.00     0.012 C 
ATOM     18  C   UNL     1     111.698 120.975 124.652  1.00  0.00     0.000 C 
ATOM     19  C   UNL     1     111.309 120.872 127.168  1.00  0.00     0.005 C 
ATOM     20  C   UNL     1     112.320 121.234 126.050  1.00  0.00     0.003 C 
ATOM     21  C   UNL     1     112.815 120.932 123.608  1.00  0.00     0.031 C 
ATOM     22  C   UNL     1     112.963 122.665 126.116  1.00  0.00    -0.008 C 
ATOM     23  C   UNL     1     113.705 122.148 123.727  1.00  0.00    -0.027 C 
ATOM     24  C   UNL     1     113.821 122.900 124.855  1.00  0.00    -0.065 C 
ATOM     25  C   UNL     1     113.892 122.749 127.371  1.00  0.00     0.014 C 
ATOM     26  C   UNL     1     111.877 123.770 126.211  1.00  0.00     0.016 C 
ATOM     27  C   UNL     1     114.777 124.075 124.851  1.00  0.00     0.063 C 
ATOM     28  C   UNL     1     114.832 123.967 127.374  1.00  0.00     0.033 C 
ATOM     29  C   UNL     1     115.676 124.043 126.095  1.00  0.00     0.118 C 
BRANCH  29  30
ATOM     30  O   UNL     1     116.552 122.945 126.041  1.00  0.00    -0.393 OA
ATOM     31  H   UNL     1     116.058 122.168 126.414  1.00  0.00     0.210 HD
ENDBRANCH  29  30
ENDBRANCH   9  11
ENDBRANCH   1   9
TORSDOF 7
ENDMDL
MODEL 6
REMARK VINA RESULT:    -7.268      2.787      9.653
REMARK INTER + INTRA:         -10.832
REMARK INTER:                  -9.335
REMARK INTRA:                  -1.497
REMARK UNBOUND:                -0.802
REMARK SMILES CC[C@@H](CC[C@H](C)[C@@H]1CC[C@@H]2[C@@H]3CC=C4C[C@H](O)CC[C@]4(C)[C@H]3CC[C@]21C)C(C)C
REMARK SMILES IDX 5 1 4 2 3 3 2 4 1 5 28 6 29 7 30 8 6 9 7 10 8 11 9 12 26 13
REMARK SMILES IDX 10 14 11 15 25 16 27 17 12 18 24 19 23 20 13 21 21 22 14 23
REMARK SMILES IDX 15 24 20 25 22 26 16 27 19 28 17 29 18 30
REMARK H PARENT 18 31
REMARK Flexibility Score: inf
ROOT
ATOM      1  C   UNL     1     109.474 119.824 124.991  1.00  0.00     0.004 C 
ENDROOT
BRANCH   1   2
ATOM      2  C   UNL     1     109.054 118.554 124.213  1.00  0.00     0.004 C 
BRANCH   2   3
ATOM      3  C   UNL     1     109.276 117.246 125.026  1.00  0.00    -0.009 C 
BRANCH   3   4
ATOM      4  C   UNL     1     110.159 117.432 126.298  1.00  0.00     0.000 C 
ATOM      5  C   UNL     1     109.513 117.067 127.643  1.00  0.00     0.004 C 
ENDBRANCH   3   4
BRANCH   3   6
ATOM      6  C   UNL     1     109.705 116.014 124.158  1.00  0.00    -0.014 C 
ATOM      7  C   UNL     1     109.908 116.383 122.677  1.00  0.00     0.007 C 
ATOM      8  C   UNL     1     110.937 115.261 124.685  1.00  0.00     0.007 C 
ENDBRANCH   3   6
ENDBRANCH   2   3
ENDBRANCH   1   2
BRANCH   1   9
ATOM      9  C   UNL     1     110.683 120.574 124.363  1.00  0.00    -0.011 C 
ATOM     10  C   UNL     1     111.307 119.722 123.240  1.00  0.00     0.008 C 
BRANCH   9  11
ATOM     11  C   UNL     1     111.743 120.916 125.468  1.00  0.00    -0.002 C 
ATOM     12  C   UNL     1     111.152 120.862 126.908  1.00  0.00     0.005 C 
ATOM     13  C   UNL     1     112.455 122.310 125.414  1.00  0.00    -0.026 C 
ATOM     14  C   UNL     1     111.911 121.894 127.757  1.00  0.00     0.005 C 
ATOM     15  C   UNL     1     113.027 122.363 126.843  1.00  0.00    -0.001 C 
ATOM     16  C   UNL     1     113.647 122.410 124.395  1.00  0.00     0.007 C 
ATOM     17  C   UNL     1     111.395 123.426 125.147  1.00  0.00     0.012 C 
ATOM     18  C   UNL     1     113.865 123.621 127.211  1.00  0.00     0.000 C 
ATOM     19  C   UNL     1     114.915 123.130 124.942  1.00  0.00     0.005 C 
ATOM     20  C   UNL     1     114.548 124.238 125.962  1.00  0.00     0.003 C 
ATOM     21  C   UNL     1     113.149 124.728 127.988  1.00  0.00     0.031 C 
ATOM     22  C   UNL     1     115.700 125.218 126.385  1.00  0.00    -0.008 C 
ATOM     23  C   UNL     1     114.080 125.891 128.243  1.00  0.00    -0.027 C 
ATOM     24  C   UNL     1     115.193 126.151 127.504  1.00  0.00    -0.065 C 
ATOM     25  C   UNL     1     116.104 126.093 125.154  1.00  0.00     0.014 C 
ATOM     26  C   UNL     1     116.947 124.441 126.889  1.00  0.00     0.016 C 
ATOM     27  C   UNL     1     116.023 127.372 127.846  1.00  0.00     0.063 C 
ATOM     28  C   UNL     1     116.978 127.308 125.509  1.00  0.00     0.033 C 
ATOM     29  C   UNL     1     116.326 128.189 126.583  1.00  0.00     0.118 C 
BRANCH  29  30
ATOM     30  O   UNL     1     115.148 128.763 126.073  1.00  0.00    -0.393 OA
ATOM     31  H   UNL     1     114.559 128.943 126.853  1.00  0.00     0.210 HD
ENDBRANCH  29  30
ENDBRANCH   9  11
ENDBRANCH   1   9
TORSDOF 7
ENDMDL
MODEL 7
REMARK VINA RESULT:    -7.231      3.316      5.140
REMARK INTER + INTRA:         -10.781
REMARK INTER:                  -8.721
REMARK INTRA:                  -2.059
REMARK UNBOUND:                -0.802
REMARK SMILES CC[C@@H](CC[C@H](C)[C@@H]1CC[C@@H]2[C@@H]3CC=C4C[C@H](O)CC[C@]4(C)[C@H]3CC[C@]21C)C(C)C
REMARK SMILES IDX 5 1 4 2 3 3 2 4 1 5 28 6 29 7 30 8 6 9 7 10 8 11 9 12 26 13
REMARK SMILES IDX 10 14 11 15 25 16 27 17 12 18 24 19 23 20 13 21 21 22 14 23
REMARK SMILES IDX 15 24 20 25 22 26 16 27 19 28 17 29 18 30
REMARK H PARENT 18 31
REMARK Flexibility Score: inf
ROOT
ATOM      1  C   UNL     1     113.127 124.151 126.697  1.00  0.00     0.004 C 
ENDROOT
BRANCH   1   2
ATOM      2  C   UNL     1     114.572 124.500 126.269  1.00  0.00     0.004 C 
BRANCH   2   3
ATOM      3  C   UNL     1     115.366 123.264 125.756  1.00  0.00    -0.009 C 
BRANCH   3   4
ATOM      4  C   UNL     1     116.498 122.793 126.719  1.00  0.00     0.000 C 
ATOM      5  C   UNL     1     116.217 121.526 127.541  1.00  0.00     0.004 C 
ENDBRANCH   3   4
BRANCH   3   6
ATOM      6  C   UNL     1     115.839 123.377 124.266  1.00  0.00    -0.014 C 
ATOM      7  C   UNL     1     116.599 122.123 123.796  1.00  0.00     0.007 C 
ATOM      8  C   UNL     1     114.724 123.721 123.267  1.00  0.00     0.007 C 
ENDBRANCH   3   6
ENDBRANCH   2   3
ENDBRANCH   1   2
BRANCH   1   9
ATOM      9  C   UNL     1     112.332 123.347 125.629  1.00  0.00    -0.011 C 
ATOM     10  C   UNL     1     111.163 124.197 125.091  1.00  0.00     0.008 C 
BRANCH   9  11
ATOM     11  C   UNL     1     111.816 121.996 126.238  1.00  0.00    -0.002 C 
ATOM     12  C   UNL     1     112.506 121.641 127.588  1.00  0.00     0.005 C 
ATOM     13  C   UNL     1     111.969 120.689 125.390  1.00  0.00    -0.026 C 
ATOM     14  C   UNL     1     112.571 120.108 127.684  1.00  0.00     0.005 C 
ATOM     15  C   UNL     1     111.753 119.638 126.496  1.00  0.00    -0.001 C 
ATOM     16  C   UNL     1     110.874 120.481 124.283  1.00  0.00     0.007 C 
ATOM     17  C   UNL     1     113.404 120.631 124.775  1.00  0.00     0.012 C 
ATOM     18  C   UNL     1     111.796 118.147 126.057  1.00  0.00     0.000 C 
ATOM     19  C   UNL     1     110.300 119.035 124.196  1.00  0.00     0.005 C 
ATOM     20  C   UNL     1     111.363 117.974 124.576  1.00  0.00     0.003 C 
ATOM     21  C   UNL     1     113.109 117.394 126.284  1.00  0.00     0.031 C 
ATOM     22  C   UNL     1     111.005 116.476 124.272  1.00  0.00    -0.008 C 
ATOM     23  C   UNL     1     113.005 115.973 125.781  1.00  0.00    -0.027 C 
ATOM     24  C   UNL     1     112.107 115.559 124.846  1.00  0.00    -0.065 C 
ATOM     25  C   UNL     1     110.946 116.269 122.723  1.00  0.00     0.014 C 
ATOM     26  C   UNL     1     109.636 116.084 124.892  1.00  0.00     0.016 C 
ATOM     27  C   UNL     1     112.132 114.111 124.404  1.00  0.00     0.063 C 
ATOM     28  C   UNL     1     110.933 114.793 122.288  1.00  0.00     0.033 C 
ATOM     29  C   UNL     1     112.119 114.013 122.873  1.00  0.00     0.118 C 
BRANCH  29  30
ATOM     30  O   UNL     1     113.320 114.509 122.338  1.00  0.00    -0.393 OA
ATOM     31  H   UNL     1     113.515 115.359 122.815  1.00  0.00     0.210 HD
ENDBRANCH  29  30
ENDBRANCH   9  11
ENDBRANCH   1   9
TORSDOF 7
ENDMDL
MODEL 8
REMARK VINA RESULT:    -7.160      1.508      2.655
REMARK INTER + INTRA:         -10.682
REMARK INTER:                  -9.537
REMARK INTRA:                  -1.145
REMARK UNBOUND:                -0.802
REMARK SMILES CC[C@@H](CC[C@H](C)[C@@H]1CC[C@@H]2[C@@H]3CC=C4C[C@H](O)CC[C@]4(C)[C@H]3CC[C@]21C)C(C)C
REMARK SMILES IDX 5 1 4 2 3 3 2 4 1 5 28 6 29 7 30 8 6 9 7 10 8 11 9 12 26 13
REMARK SMILES IDX 10 14 11 15 25 16 27 17 12 18 24 19 23 20 13 21 21 22 14 23
REMARK SMILES IDX 15 24 20 25 22 26 16 27 19 28 17 29 18 30
REMARK H PARENT 18 31
REMARK Flexibility Score: inf
ROOT
ATOM      1  C   UNL     1     115.599 125.032 124.884  1.00  0.00     0.004 C 
ENDROOT
BRANCH   1   2
ATOM      2  C   UNL     1     116.542 125.414 126.049  1.00  0.00     0.004 C 
BRANCH   2   3
ATOM      3  C   UNL     1     115.967 126.548 126.946  1.00  0.00    -0.009 C 
BRANCH   3   4
ATOM      4  C   UNL     1     114.417 126.504 127.108  1.00  0.00     0.000 C 
ATOM      5  C   UNL     1     113.874 125.738 128.324  1.00  0.00     0.004 C 
ENDBRANCH   3   4
BRANCH   3   6
ATOM      6  C   UNL     1     116.505 127.978 126.598  1.00  0.00    -0.014 C 
ATOM      7  C   UNL     1     117.692 127.935 125.618  1.00  0.00     0.007 C 
ATOM      8  C   UNL     1     115.435 128.954 126.082  1.00  0.00     0.007 C 
ENDBRANCH   3   6
ENDBRANCH   2   3
ENDBRANCH   1   2
BRANCH   1   9
ATOM      9  C   UNL     1     115.448 123.498 124.675  1.00  0.00    -0.011 C 
ATOM     10  C   UNL     1     116.172 123.068 123.384  1.00  0.00     0.008 C 
BRANCH   9  11
ATOM     11  C   UNL     1     113.930 123.102 124.630  1.00  0.00    -0.002 C 
ATOM     12  C   UNL     1     113.023 124.105 125.401  1.00  0.00     0.005 C 
ATOM     13  C   UNL     1     113.506 121.707 125.201  1.00  0.00    -0.026 C 
ATOM     14  C   UNL     1     111.832 123.312 125.964  1.00  0.00     0.005 C 
ATOM     15  C   UNL     1     111.989 121.937 125.343  1.00  0.00    -0.001 C 
ATOM     16  C   UNL     1     113.738 120.492 124.232  1.00  0.00     0.007 C 
ATOM     17  C   UNL     1     114.211 121.470 126.575  1.00  0.00     0.012 C 
ATOM     18  C   UNL     1     111.150 120.739 125.871  1.00  0.00     0.000 C 
ATOM     19  C   UNL     1     112.558 119.478 124.163  1.00  0.00     0.005 C 
ATOM     20  C   UNL     1     111.808 119.379 125.516  1.00  0.00     0.003 C 
ATOM     21  C   UNL     1     110.790 120.746 127.358  1.00  0.00     0.031 C 
ATOM     22  C   UNL     1     110.777 118.205 125.667  1.00  0.00    -0.008 C 
ATOM     23  C   UNL     1     110.003 119.509 127.724  1.00  0.00    -0.027 C 
ATOM     24  C   UNL     1     110.028 118.351 127.009  1.00  0.00    -0.065 C 
ATOM     25  C   UNL     1     111.549 116.845 125.676  1.00  0.00     0.014 C 
ATOM     26  C   UNL     1     109.749 118.201 124.503  1.00  0.00     0.016 C 
ATOM     27  C   UNL     1     109.217 117.172 127.506  1.00  0.00     0.063 C 
ATOM     28  C   UNL     1     110.704 115.648 126.146  1.00  0.00     0.033 C 
ATOM     29  C   UNL     1     110.073 115.898 127.522  1.00  0.00     0.118 C 
BRANCH  29  30
ATOM     30  O   UNL     1     111.084 115.996 128.495  1.00  0.00    -0.393 OA
ATOM     31  H   UNL     1     110.632 116.211 129.354  1.00  0.00     0.210 HD
ENDBRANCH  29  30
ENDBRANCH   9  11
ENDBRANCH   1   9
TORSDOF 7
ENDMDL
MODEL 9
REMARK VINA RESULT:    -7.140      2.447      4.641
REMARK INTER + INTRA:         -10.655
REMARK INTER:                  -9.348
REMARK INTRA:                  -1.307
REMARK UNBOUND:                -0.802
REMARK SMILES CC[C@@H](CC[C@H](C)[C@@H]1CC[C@@H]2[C@@H]3CC=C4C[C@H](O)CC[C@]4(C)[C@H]3CC[C@]21C)C(C)C
REMARK SMILES IDX 5 1 4 2 3 3 2 4 1 5 28 6 29 7 30 8 6 9 7 10 8 11 9 12 26 13
REMARK SMILES IDX 10 14 11 15 25 16 27 17 12 18 24 19 23 20 13 21 21 22 14 23
REMARK SMILES IDX 15 24 20 25 22 26 16 27 19 28 17 29 18 30
REMARK H PARENT 18 31
REMARK Flexibility Score: inf
ROOT
ATOM      1  C   UNL     1     115.337 123.501 124.452  1.00  0.00     0.004 C 
ENDROOT
BRANCH   1   2
ATOM      2  C   UNL     1     115.660 124.424 125.650  1.00  0.00     0.004 C 
BRANCH   2   3
ATOM      3  C   UNL     1     114.434 125.260 126.118  1.00  0.00    -0.009 C 
BRANCH   3   4
ATOM      4  C   UNL     1     114.806 126.648 126.722  1.00  0.00     0.000 C 
ATOM      5  C   UNL     1     116.160 126.745 127.442  1.00  0.00     0.004 C 
ENDBRANCH   3   4
BRANCH   3   6
ATOM      6  C   UNL     1     113.412 124.464 127.000  1.00  0.00    -0.014 C 
ATOM      7  C   UNL     1     113.137 125.157 128.348  1.00  0.00     0.007 C 
ATOM      8  C   UNL     1     112.084 124.136 126.299  1.00  0.00     0.007 C 
ENDBRANCH   3   6
ENDBRANCH   2   3
ENDBRANCH   1   2
BRANCH   1   9
ATOM      9  C   UNL     1     115.820 122.035 124.640  1.00  0.00    -0.011 C 
ATOM     10  C   UNL     1     117.022 121.752 123.717  1.00  0.00     0.008 C 
BRANCH   9  11
ATOM     11  C   UNL     1     114.643 121.035 124.358  1.00  0.00    -0.002 C 
ATOM     12  C   UNL     1     113.416 121.722 123.689  1.00  0.00     0.005 C 
ATOM     13  C   UNL     1     114.019 120.257 125.565  1.00  0.00    -0.026 C 
ATOM     14  C   UNL     1     112.157 120.974 124.158  1.00  0.00     0.005 C 
ATOM     15  C   UNL     1     112.707 119.779 124.913  1.00  0.00    -0.001 C 
ATOM     16  C   UNL     1     114.830 118.998 126.037  1.00  0.00     0.007 C 
ATOM     17  C   UNL     1     113.777 121.244 126.751  1.00  0.00     0.012 C 
ATOM     18  C   UNL     1     111.768 118.910 125.796  1.00  0.00     0.000 C 
ATOM     19  C   UNL     1     113.965 117.736 126.331  1.00  0.00     0.005 C 
ATOM     20  C   UNL     1     112.562 118.118 126.869  1.00  0.00     0.003 C 
ATOM     21  C   UNL     1     110.593 119.624 126.470  1.00  0.00     0.031 C 
ATOM     22  C   UNL     1     111.691 116.952 127.458  1.00  0.00    -0.008 C 
ATOM     23  C   UNL     1     109.794 118.658 127.314  1.00  0.00    -0.027 C 
ATOM     24  C   UNL     1     110.286 117.488 127.805  1.00  0.00    -0.065 C 
ATOM     25  C   UNL     1     112.360 116.428 128.771  1.00  0.00     0.014 C 
ATOM     26  C   UNL     1     111.558 115.779 126.450  1.00  0.00     0.016 C 
ATOM     27  C   UNL     1     109.387 116.627 128.668  1.00  0.00     0.063 C 
ATOM     28  C   UNL     1     111.450 115.523 129.620  1.00  0.00     0.033 C 
ATOM     29  C   UNL     1     110.115 116.203 129.951  1.00  0.00     0.118 C 
BRANCH  29  30
ATOM     30  O   UNL     1     110.344 117.317 130.778  1.00  0.00    -0.393 OA
ATOM     31  H   UNL     1     111.068 117.060 131.408  1.00  0.00     0.210 HD
ENDBRANCH  29  30
ENDBRANCH   9  11
ENDBRANCH   1   9
TORSDOF 7
ENDMDL
