MODEL 1
REMARK VINA RESULT:     0.928      0.000      0.000
REMARK INTER + INTRA:           1.704
REMARK INTER:                   2.338
REMARK INTRA:                  -0.634
REMARK UNBOUND:                -0.634
REMARK SMILES CCCCCCCCCCCCCCCCCCCCCCCCCCCC(=O)[O-]
REMARK SMILES IDX 15 1 16 2 17 3 18 4 19 5 20 6 21 7 22 8 23 9 24 10 25 11
REMARK SMILES IDX 26 12 27 13 28 14 29 15 30 16 14 17 13 18 12 19 11 20 10 21
REMARK SMILES IDX 9 22 8 23 7 24 6 25 5 26 4 27 3 28 2 29 1 30
REMARK H PARENT
REMARK Flexibility Score: inf
ROOT
ATOM      1  C   UNL     1     -20.550   1.220   6.880  1.00  0.00     0.000 C 
ENDROOT
BRANCH   1   2
ATOM      2  C   UNL     1     -21.197   2.014   8.030  1.00  0.00     0.000 C 
BRANCH   2   3
ATOM      3  C   UNL     1     -21.738   3.384   7.584  1.00  0.00     0.000 C 
BRANCH   3   4
ATOM      4  C   UNL     1     -22.511   4.106   8.709  1.00  0.00     0.000 C 
BRANCH   4   5
ATOM      5  C   UNL     1     -22.177   5.603   8.836  1.00  0.00     0.000 C 
BRANCH   5   6
ATOM      6  C   UNL     1     -21.018   5.873   9.809  1.00  0.00     0.000 C 
BRANCH   6   7
ATOM      7  C   UNL     1     -19.693   6.171   9.089  1.00  0.00     0.000 C 
BRANCH   7   8
ATOM      8  C   UNL     1     -18.624   6.764  10.026  1.00  0.00     0.000 C 
BRANCH   8   9
ATOM      9  C   UNL     1     -18.140   8.149   9.563  1.00  0.00     0.000 C 
BRANCH   9  10
ATOM     10  C   UNL     1     -16.621   8.197   9.329  1.00  0.00     0.000 C 
BRANCH  10  11
ATOM     11  C   UNL     1     -15.972   9.473   9.890  1.00  0.00     0.000 C 
BRANCH  11  12
ATOM     12  C   UNL     1     -15.446   9.316  11.333  1.00  0.00     0.006 C 
BRANCH  12  13
ATOM     13  C   UNL     1     -14.165  10.125  11.576  1.00  0.00     0.053 C 
BRANCH  13  14
ATOM     14  C   UNL     1     -13.768  10.057  13.016  1.00  0.00     0.041 C 
ATOM     15  O   UNL     1     -14.644  10.125  13.919  1.00  0.00    -0.550 OA
ATOM     16  O   UNL     1     -12.435   9.875  13.363  1.00  0.00    -0.550 OA
ENDBRANCH  13  14
ENDBRANCH  12  13
ENDBRANCH  11  12
ENDBRANCH  10  11
ENDBRANCH   9  10
ENDBRANCH   8   9
ENDBRANCH   7   8
ENDBRANCH   6   7
ENDBRANCH   5   6
ENDBRANCH   4   5
ENDBRANCH   3   4
ENDBRANCH   2   3
ENDBRANCH   1   2
BRANCH   1  17
ATOM     17  C   UNL     1     -21.538   0.531   5.920  1.00  0.00     0.000 C 
BRANCH  17  18
ATOM     18  C   UNL     1     -22.030  -0.830   6.442  1.00  0.00     0.000 C 
BRANCH  18  19
ATOM     19  C   UNL     1     -20.902  -1.873   6.519  1.00  0.00     0.000 C 
BRANCH  19  20
ATOM     20  C   UNL     1     -20.711  -2.433   7.941  1.00  0.00     0.000 C 
BRANCH  20  21
ATOM     21  C   UNL     1     -20.751  -1.339   9.021  1.00  0.00     0.000 C 
BRANCH  21  22
ATOM     22  C   UNL     1     -20.258  -1.842  10.389  1.00  0.00    -0.000 C 
BRANCH  22  23
ATOM     23  C   UNL     1     -21.407  -2.276  11.318  1.00  0.00    -0.000 C 
BRANCH  23  24
ATOM     24  C   UNL     1     -21.065  -2.299  12.820  1.00  0.00    -0.000 C 
BRANCH  24  25
ATOM     25  C   UNL     1     -21.988  -1.402  13.663  1.00  0.00    -0.000 C 
BRANCH  25  26
ATOM     26  C   UNL     1     -21.200  -0.372  14.501  1.00  0.00    -0.000 C 
BRANCH  26  27
ATOM     27  C   UNL     1     -21.538   1.089  14.159  1.00  0.00    -0.000 C 
BRANCH  27  28
ATOM     28  C   UNL     1     -21.343   1.413  12.669  1.00  0.00    -0.000 C 
BRANCH  28  29
ATOM     29  C   UNL     1     -22.671   1.469  11.898  1.00  0.00    -0.003 C 
ATOM     30  C   UNL     1     -22.473   1.669  10.397  1.00  0.00     0.004 C 
ENDBRANCH  28  29
ENDBRANCH  27  28
ENDBRANCH  26  27
ENDBRANCH  25  26
ENDBRANCH  24  25
ENDBRANCH  23  24
ENDBRANCH  22  23
ENDBRANCH  21  22
ENDBRANCH  20  21
ENDBRANCH  19  20
ENDBRANCH  18  19
ENDBRANCH  17  18
ENDBRANCH   1  17
TORSDOF 26
ENDMDL
MODEL 2
REMARK VINA RESULT:     1.067      6.051      9.087
REMARK INTER + INTRA:           2.054
REMARK INTER:                   4.021
REMARK INTRA:                  -1.967
REMARK UNBOUND:                -0.634
REMARK SMILES CCCCCCCCCCCCCCCCCCCCCCCCCCCC(=O)[O-]
REMARK SMILES IDX 15 1 16 2 17 3 18 4 19 5 20 6 21 7 22 8 23 9 24 10 25 11
REMARK SMILES IDX 26 12 27 13 28 14 29 15 30 16 14 17 13 18 12 19 11 20 10 21
REMARK SMILES IDX 9 22 8 23 7 24 6 25 5 26 4 27 3 28 2 29 1 30
REMARK H PARENT
REMARK Flexibility Score: inf
ROOT
ATOM      1  C   UNL     1     -20.642  -1.787   8.370  1.00  0.00     0.000 C 
ENDROOT
BRANCH   1   2
ATOM      2  C   UNL     1     -21.009  -1.820   6.874  1.00  0.00     0.000 C 
BRANCH   2   3
ATOM      3  C   UNL     1     -20.502  -0.589   6.103  1.00  0.00     0.000 C 
BRANCH   3   4
ATOM      4  C   UNL     1     -21.430   0.634   6.269  1.00  0.00     0.000 C 
BRANCH   4   5
ATOM      5  C   UNL     1     -20.921   1.671   7.286  1.00  0.00     0.000 C 
BRANCH   5   6
ATOM      6  C   UNL     1     -21.978   2.730   7.636  1.00  0.00     0.000 C 
BRANCH   6   7
ATOM      7  C   UNL     1     -22.274   2.799   9.144  1.00  0.00     0.000 C 
BRANCH   7   8
ATOM      8  C   UNL     1     -21.981   1.474   9.872  1.00  0.00     0.000 C 
BRANCH   8   9
ATOM      9  C   UNL     1     -22.523   1.462  11.311  1.00  0.00     0.000 C 
BRANCH   9  10
ATOM     10  C   UNL     1     -21.418   1.660  12.361  1.00  0.00     0.000 C 
BRANCH  10  11
ATOM     11  C   UNL     1     -21.808   1.115  13.745  1.00  0.00     0.000 C 
BRANCH  11  12
ATOM     12  C   UNL     1     -21.060  -0.179  14.133  1.00  0.00     0.006 C 
BRANCH  12  13
ATOM     13  C   UNL     1     -21.869  -1.439  13.801  1.00  0.00     0.053 C 
BRANCH  13  14
ATOM     14  C   UNL     1     -21.363  -2.070  12.542  1.00  0.00     0.041 C 
ATOM     15  O   UNL     1     -21.888  -3.130  12.109  1.00  0.00    -0.550 OA
ATOM     16  O   UNL     1     -20.340  -1.465  11.823  1.00  0.00    -0.550 OA
ENDBRANCH  13  14
ENDBRANCH  12  13
ENDBRANCH  11  12
ENDBRANCH  10  11
ENDBRANCH   9  10
ENDBRANCH   8   9
ENDBRANCH   7   8
ENDBRANCH   6   7
ENDBRANCH   5   6
ENDBRANCH   4   5
ENDBRANCH   3   4
ENDBRANCH   2   3
ENDBRANCH   1   2
BRANCH   1  17
ATOM     17  C   UNL     1     -20.294  -3.152   8.991  1.00  0.00     0.000 C 
BRANCH  17  18
ATOM     18  C   UNL     1     -19.893  -4.203   7.942  1.00  0.00     0.000 C 
BRANCH  18  19
ATOM     19  C   UNL     1     -20.277  -5.631   8.364  1.00  0.00     0.000 C 
BRANCH  19  20
ATOM     20  C   UNL     1     -21.766  -5.759   8.734  1.00  0.00     0.000 C 
BRANCH  20  21
ATOM     21  C   UNL     1     -22.337  -7.154   8.427  1.00  0.00     0.000 C 
BRANCH  21  22
ATOM     22  C   UNL     1     -23.868  -7.144   8.278  1.00  0.00    -0.000 C 
BRANCH  22  23
ATOM     23  C   UNL     1     -24.441  -8.518   7.882  1.00  0.00    -0.000 C 
BRANCH  23  24
ATOM     24  C   UNL     1     -25.948  -8.533   7.561  1.00  0.00    -0.000 C 
BRANCH  24  25
ATOM     25  C   UNL     1     -26.594  -9.914   7.763  1.00  0.00    -0.000 C 
BRANCH  25  26
ATOM     26  C   UNL     1     -27.310 -10.033   9.127  1.00  0.00    -0.000 C 
BRANCH  26  27
ATOM     27  C   UNL     1     -27.518  -8.683   9.833  1.00  0.00    -0.000 C 
BRANCH  27  28
ATOM     28  C   UNL     1     -28.236  -8.822  11.185  1.00  0.00    -0.000 C 
BRANCH  28  29
ATOM     29  C   UNL     1     -27.909  -7.671  12.149  1.00  0.00    -0.003 C 
ATOM     30  C   UNL     1     -27.415  -6.419  11.426  1.00  0.00     0.004 C 
ENDBRANCH  28  29
ENDBRANCH  27  28
ENDBRANCH  26  27
ENDBRANCH  25  26
ENDBRANCH  24  25
ENDBRANCH  23  24
ENDBRANCH  22  23
ENDBRANCH  21  22
ENDBRANCH  20  21
ENDBRANCH  19  20
ENDBRANCH  18  19
ENDBRANCH  17  18
ENDBRANCH   1  17
TORSDOF 26
ENDMDL
MODEL 3
REMARK VINA RESULT:     1.145      7.322     13.266
REMARK INTER + INTRA:           2.252
REMARK INTER:                   3.704
REMARK INTRA:                  -1.452
REMARK UNBOUND:                -0.634
REMARK SMILES CCCCCCCCCCCCCCCCCCCCCCCCCCCC(=O)[O-]
REMARK SMILES IDX 15 1 16 2 17 3 18 4 19 5 20 6 21 7 22 8 23 9 24 10 25 11
REMARK SMILES IDX 26 12 27 13 28 14 29 15 30 16 14 17 13 18 12 19 11 20 10 21
REMARK SMILES IDX 9 22 8 23 7 24 6 25 5 26 4 27 3 28 2 29 1 30
REMARK H PARENT
REMARK Flexibility Score: inf
ROOT
ATOM      1  C   UNL     1     -19.363  -3.203   9.369  1.00  0.00     0.000 C 
ENDROOT
BRANCH   1   2
ATOM      2  C   UNL     1     -20.131  -3.712   8.135  1.00  0.00     0.000 C 
BRANCH   2   3
ATOM      3  C   UNL     1     -20.104  -5.245   8.001  1.00  0.00     0.000 C 
BRANCH   3   4
ATOM      4  C   UNL     1     -21.268  -5.923   8.756  1.00  0.00     0.000 C 
BRANCH   4   5
ATOM      5  C   UNL     1     -22.203  -6.746   7.853  1.00  0.00     0.000 C 
BRANCH   5   6
ATOM      6  C   UNL     1     -23.515  -7.136   8.553  1.00  0.00     0.000 C 
BRANCH   6   7
ATOM      7  C   UNL     1     -24.139  -8.417   7.976  1.00  0.00     0.000 C 
BRANCH   7   8
ATOM      8  C   UNL     1     -25.677  -8.355   7.913  1.00  0.00     0.000 C 
BRANCH   8   9
ATOM      9  C   UNL     1     -26.303  -9.698   7.498  1.00  0.00     0.000 C 
BRANCH   9  10
ATOM     10  C   UNL     1     -27.597 -10.010   8.267  1.00  0.00     0.000 C 
BRANCH  10  11
ATOM     11  C   UNL     1     -27.375 -10.125   9.784  1.00  0.00     0.000 C 
BRANCH  11  12
ATOM     12  C   UNL     1     -28.093  -9.028  10.599  1.00  0.00     0.006 C 
BRANCH  12  13
ATOM     13  C   UNL     1     -27.376  -7.675  10.511  1.00  0.00     0.053 C 
BRANCH  13  14
ATOM     14  C   UNL     1     -27.801  -6.783  11.634  1.00  0.00     0.041 C 
ATOM     15  O   UNL     1     -27.960  -7.253  12.792  1.00  0.00    -0.550 OA
ATOM     16  O   UNL     1     -27.981  -5.423  11.413  1.00  0.00    -0.550 OA
ENDBRANCH  13  14
ENDBRANCH  12  13
ENDBRANCH  11  12
ENDBRANCH  10  11
ENDBRANCH   9  10
ENDBRANCH   8   9
ENDBRANCH   7   8
ENDBRANCH   6   7
ENDBRANCH   5   6
ENDBRANCH   4   5
ENDBRANCH   3   4
ENDBRANCH   2   3
ENDBRANCH   1   2
BRANCH   1  17
ATOM     17  C   UNL     1     -20.081  -2.113  10.186  1.00  0.00     0.000 C 
BRANCH  17  18
ATOM     18  C   UNL     1     -21.388  -2.609  10.829  1.00  0.00     0.000 C 
BRANCH  18  19
ATOM     19  C   UNL     1     -21.327  -2.600  12.366  1.00  0.00     0.000 C 
BRANCH  19  20
ATOM     20  C   UNL     1     -20.789  -1.272  12.929  1.00  0.00     0.000 C 
BRANCH  20  21
ATOM     21  C   UNL     1     -21.897  -0.388  13.527  1.00  0.00     0.000 C 
BRANCH  21  22
ATOM     22  C   UNL     1     -21.492   1.094  13.604  1.00  0.00    -0.000 C 
BRANCH  22  23
ATOM     23  C   UNL     1     -21.492   1.789  12.229  1.00  0.00    -0.000 C 
BRANCH  23  24
ATOM     24  C   UNL     1     -22.147   0.988  11.088  1.00  0.00    -0.000 C 
BRANCH  24  25
ATOM     25  C   UNL     1     -22.199   1.763   9.760  1.00  0.00    -0.000 C 
BRANCH  25  26
ATOM     26  C   UNL     1     -21.427   1.045   8.632  1.00  0.00    -0.000 C 
BRANCH  26  27
ATOM     27  C   UNL     1     -21.342   1.858   7.329  1.00  0.00    -0.000 C 
BRANCH  27  28
ATOM     28  C   UNL     1     -21.292   0.971   6.074  1.00  0.00    -0.000 C 
BRANCH  28  29
ATOM     29  C   UNL     1     -20.634  -0.391   6.339  1.00  0.00    -0.003 C 
ATOM     30  C   UNL     1     -21.656  -1.506   6.559  1.00  0.00     0.004 C 
ENDBRANCH  28  29
ENDBRANCH  27  28
ENDBRANCH  26  27
ENDBRANCH  25  26
ENDBRANCH  24  25
ENDBRANCH  23  24
ENDBRANCH  22  23
ENDBRANCH  21  22
ENDBRANCH  20  21
ENDBRANCH  19  20
ENDBRANCH  18  19
ENDBRANCH  17  18
ENDBRANCH   1  17
TORSDOF 26
ENDMDL
MODEL 4
REMARK VINA RESULT:     1.208      7.396     13.028
REMARK INTER + INTRA:           2.409
REMARK INTER:                   4.545
REMARK INTRA:                  -2.137
REMARK UNBOUND:                -0.634
REMARK SMILES CCCCCCCCCCCCCCCCCCCCCCCCCCCC(=O)[O-]
REMARK SMILES IDX 15 1 16 2 17 3 18 4 19 5 20 6 21 7 22 8 23 9 24 10 25 11
REMARK SMILES IDX 26 12 27 13 28 14 29 15 30 16 14 17 13 18 12 19 11 20 10 21
REMARK SMILES IDX 9 22 8 23 7 24 6 25 5 26 4 27 3 28 2 29 1 30
REMARK H PARENT
REMARK Flexibility Score: inf
ROOT
ATOM      1  C   UNL     1     -20.805  -3.385   7.514  1.00  0.00     0.000 C 
ENDROOT
BRANCH   1   2
ATOM      2  C   UNL     1     -19.837  -4.343   8.234  1.00  0.00     0.000 C 
BRANCH   2   3
ATOM      3  C   UNL     1     -20.291  -5.813   8.176  1.00  0.00     0.000 C 
BRANCH   3   4
ATOM      4  C   UNL     1     -21.696  -6.019   8.780  1.00  0.00     0.000 C 
BRANCH   4   5
ATOM      5  C   UNL     1     -22.662  -6.793   7.866  1.00  0.00     0.000 C 
BRANCH   5   6
ATOM      6  C   UNL     1     -23.939  -7.244   8.594  1.00  0.00     0.000 C 
BRANCH   6   7
ATOM      7  C   UNL     1     -24.448  -8.612   8.111  1.00  0.00     0.000 C 
BRANCH   7   8
ATOM      8  C   UNL     1     -25.827  -8.528   7.429  1.00  0.00     0.000 C 
BRANCH   8   9
ATOM      9  C   UNL     1     -26.566  -9.877   7.431  1.00  0.00     0.000 C 
BRANCH   9  10
ATOM     10  C   UNL     1     -27.773  -9.889   8.383  1.00  0.00     0.000 C 
BRANCH  10  11
ATOM     11  C   UNL     1     -27.372 -10.125   9.849  1.00  0.00     0.000 C 
BRANCH  11  12
ATOM     12  C   UNL     1     -27.971  -9.092  10.827  1.00  0.00     0.006 C 
BRANCH  12  13
ATOM     13  C   UNL     1     -27.301  -7.717  10.703  1.00  0.00     0.053 C 
BRANCH  13  14
ATOM     14  C   UNL     1     -27.957  -6.730  11.616  1.00  0.00     0.041 C 
ATOM     15  O   UNL     1     -28.616  -7.129  12.612  1.00  0.00    -0.550 OA
ATOM     16  O   UNL     1     -27.807  -5.367  11.391  1.00  0.00    -0.550 OA
ENDBRANCH  13  14
ENDBRANCH  12  13
ENDBRANCH  11  12
ENDBRANCH  10  11
ENDBRANCH   9  10
ENDBRANCH   8   9
ENDBRANCH   7   8
ENDBRANCH   6   7
ENDBRANCH   5   6
ENDBRANCH   4   5
ENDBRANCH   3   4
ENDBRANCH   2   3
ENDBRANCH   1   2
BRANCH   1  17
ATOM     17  C   UNL     1     -20.516  -1.886   7.714  1.00  0.00     0.000 C 
BRANCH  17  18
ATOM     18  C   UNL     1     -20.643  -1.073   6.415  1.00  0.00     0.000 C 
BRANCH  18  19
ATOM     19  C   UNL     1     -21.756  -0.014   6.491  1.00  0.00     0.000 C 
BRANCH  19  20
ATOM     20  C   UNL     1     -21.204   1.418   6.613  1.00  0.00     0.000 C 
BRANCH  20  21
ATOM     21  C   UNL     1     -21.487   2.049   7.987  1.00  0.00     0.000 C 
BRANCH  21  22
ATOM     22  C   UNL     1     -21.732   0.996   9.081  1.00  0.00    -0.000 C 
BRANCH  22  23
ATOM     23  C   UNL     1     -22.523   1.550  10.281  1.00  0.00    -0.000 C 
BRANCH  23  24
ATOM     24  C   UNL     1     -21.673   1.936  11.506  1.00  0.00    -0.000 C 
BRANCH  24  25
ATOM     25  C   UNL     1     -22.154   1.272  12.808  1.00  0.00    -0.000 C 
BRANCH  25  26
ATOM     26  C   UNL     1     -21.118   0.277  13.377  1.00  0.00    -0.000 C 
BRANCH  26  27
ATOM     27  C   UNL     1     -21.725  -1.072  13.798  1.00  0.00    -0.000 C 
BRANCH  27  28
ATOM     28  C   UNL     1     -21.410  -2.203  12.807  1.00  0.00    -0.000 C 
BRANCH  28  29
ATOM     29  C   UNL     1     -20.967  -1.679  11.432  1.00  0.00    -0.003 C 
ATOM     30  C   UNL     1     -19.586  -2.189  11.023  1.00  0.00     0.004 C 
ENDBRANCH  28  29
ENDBRANCH  27  28
ENDBRANCH  26  27
ENDBRANCH  25  26
ENDBRANCH  24  25
ENDBRANCH  23  24
ENDBRANCH  22  23
ENDBRANCH  21  22
ENDBRANCH  20  21
ENDBRANCH  19  20
ENDBRANCH  18  19
ENDBRANCH  17  18
ENDBRANCH   1  17
TORSDOF 26
ENDMDL
MODEL 5
REMARK VINA RESULT:     1.419      6.446      9.525
REMARK INTER + INTRA:           2.942
REMARK INTER:                   4.741
REMARK INTRA:                  -1.799
REMARK UNBOUND:                -0.634
REMARK SMILES CCCCCCCCCCCCCCCCCCCCCCCCCCCC(=O)[O-]
REMARK SMILES IDX 15 1 16 2 17 3 18 4 19 5 20 6 21 7 22 8 23 9 24 10 25 11
REMARK SMILES IDX 26 12 27 13 28 14 29 15 30 16 14 17 13 18 12 19 11 20 10 21
REMARK SMILES IDX 9 22 8 23 7 24 6 25 5 26 4 27 3 28 2 29 1 30
REMARK H PARENT
REMARK Flexibility Score: inf
ROOT
ATOM      1  C   UNL     1     -19.764  -2.894   9.383  1.00  0.00     0.000 C 
ENDROOT
BRANCH   1   2
ATOM      2  C   UNL     1     -20.624  -1.820  10.076  1.00  0.00     0.000 C 
BRANCH   2   3
ATOM      3  C   UNL     1     -21.103  -2.243  11.476  1.00  0.00     0.000 C 
BRANCH   3   4
ATOM      4  C   UNL     1     -20.318  -1.539  12.604  1.00  0.00     0.000 C 
BRANCH   4   5
ATOM      5  C   UNL     1     -21.168  -1.207  13.843  1.00  0.00     0.000 C 
BRANCH   5   6
ATOM      6  C   UNL     1     -22.328  -0.249  13.530  1.00  0.00     0.000 C 
BRANCH   6   7
ATOM      7  C   UNL     1     -21.857   1.190  13.263  1.00  0.00     0.000 C 
BRANCH   7   8
ATOM      8  C   UNL     1     -21.612   1.471  11.768  1.00  0.00     0.000 C 
BRANCH   8   9
ATOM      9  C   UNL     1     -22.921   1.643  10.980  1.00  0.00     0.000 C 
BRANCH   9  10
ATOM     10  C   UNL     1     -22.686   2.145   9.546  1.00  0.00     0.000 C 
BRANCH  10  11
ATOM     11  C   UNL     1     -21.473   1.479   8.873  1.00  0.00     0.000 C 
BRANCH  11  12
ATOM     12  C   UNL     1     -21.366   1.773   7.362  1.00  0.00     0.006 C 
BRANCH  12  13
ATOM     13  C   UNL     1     -20.219   1.000   6.699  1.00  0.00     0.053 C 
BRANCH  13  14
ATOM     14  C   UNL     1     -20.657  -0.385   6.344  1.00  0.00     0.041 C 
ATOM     15  O   UNL     1     -21.659  -0.898   6.910  1.00  0.00    -0.550 OA
ATOM     16  O   UNL     1     -19.986  -1.097   5.358  1.00  0.00    -0.550 OA
ENDBRANCH  13  14
ENDBRANCH  12  13
ENDBRANCH  11  12
ENDBRANCH  10  11
ENDBRANCH   9  10
ENDBRANCH   8   9
ENDBRANCH   7   8
ENDBRANCH   6   7
ENDBRANCH   5   6
ENDBRANCH   4   5
ENDBRANCH   3   4
ENDBRANCH   2   3
ENDBRANCH   1   2
BRANCH   1  17
ATOM     17  C   UNL     1     -20.442  -3.619   8.207  1.00  0.00     0.000 C 
BRANCH  17  18
ATOM     18  C   UNL     1     -19.977  -5.078   8.054  1.00  0.00     0.000 C 
BRANCH  18  19
ATOM     19  C   UNL     1     -20.937  -6.074   8.727  1.00  0.00     0.000 C 
BRANCH  19  20
ATOM     20  C   UNL     1     -22.191  -6.351   7.878  1.00  0.00     0.000 C 
BRANCH  20  21
ATOM     21  C   UNL     1     -23.315  -7.027   8.683  1.00  0.00     0.000 C 
BRANCH  21  22
ATOM     22  C   UNL     1     -23.928  -8.229   7.945  1.00  0.00    -0.000 C 
BRANCH  22  23
ATOM     23  C   UNL     1     -25.468  -8.211   7.941  1.00  0.00    -0.000 C 
BRANCH  23  24
ATOM     24  C   UNL     1     -26.136  -9.300   7.081  1.00  0.00    -0.000 C 
BRANCH  24  25
ATOM     25  C   UNL     1     -27.359  -9.940   7.760  1.00  0.00    -0.000 C 
BRANCH  25  26
ATOM     26  C   UNL     1     -27.165 -10.106   9.283  1.00  0.00    -0.000 C 
BRANCH  26  27
ATOM     27  C   UNL     1     -28.450  -9.877  10.097  1.00  0.00    -0.000 C 
BRANCH  27  28
ATOM     28  C   UNL     1     -28.187  -9.197  11.450  1.00  0.00    -0.000 C 
BRANCH  28  29
ATOM     29  C   UNL     1     -27.630  -7.774  11.297  1.00  0.00    -0.003 C 
ATOM     30  C   UNL     1     -28.350  -6.761  12.187  1.00  0.00     0.004 C 
ENDBRANCH  28  29
ENDBRANCH  27  28
ENDBRANCH  26  27
ENDBRANCH  25  26
ENDBRANCH  24  25
ENDBRANCH  23  24
ENDBRANCH  22  23
ENDBRANCH  21  22
ENDBRANCH  20  21
ENDBRANCH  19  20
ENDBRANCH  18  19
ENDBRANCH  17  18
ENDBRANCH   1  17
TORSDOF 26
ENDMDL
MODEL 6
REMARK VINA RESULT:     1.590      1.191      4.603
REMARK INTER + INTRA:           3.373
REMARK INTER:                   5.288
REMARK INTRA:                  -1.915
REMARK UNBOUND:                -0.634
REMARK SMILES CCCCCCCCCCCCCCCCCCCCCCCCCCCC(=O)[O-]
REMARK SMILES IDX 15 1 16 2 17 3 18 4 19 5 20 6 21 7 22 8 23 9 24 10 25 11
REMARK SMILES IDX 26 12 27 13 28 14 29 15 30 16 14 17 13 18 12 19 11 20 10 21
REMARK SMILES IDX 9 22 8 23 7 24 6 25 5 26 4 27 3 28 2 29 1 30
REMARK H PARENT
REMARK Flexibility Score: inf
ROOT
ATOM      1  C   UNL     1     -22.177   1.837  12.079  1.00  0.00     0.000 C 
ENDROOT
BRANCH   1   2
ATOM      2  C   UNL     1     -21.566   0.955  10.974  1.00  0.00     0.000 C 
BRANCH   2   3
ATOM      3  C   UNL     1     -22.105   1.288   9.572  1.00  0.00     0.000 C 
BRANCH   3   4
ATOM      4  C   UNL     1     -22.776   2.678   9.513  1.00  0.00     0.000 C 
BRANCH   4   5
ATOM      5  C   UNL     1     -22.094   3.660   8.544  1.00  0.00     0.000 C 
BRANCH   5   6
ATOM      6  C   UNL     1     -22.783   5.034   8.506  1.00  0.00     0.000 C 
BRANCH   6   7
ATOM      7  C   UNL     1     -21.931   6.144   9.143  1.00  0.00     0.000 C 
BRANCH   7   8
ATOM      8  C   UNL     1     -20.441   6.045   8.765  1.00  0.00     0.000 C 
BRANCH   8   9
ATOM      9  C   UNL     1     -19.512   6.408   9.935  1.00  0.00     0.000 C 
BRANCH   9  10
ATOM     10  C   UNL     1     -18.692   7.681   9.666  1.00  0.00     0.000 C 
BRANCH  10  11
ATOM     11  C   UNL     1     -17.188   7.484   9.918  1.00  0.00     0.000 C 
BRANCH  11  12
ATOM     12  C   UNL     1     -16.293   8.416   9.073  1.00  0.00     0.006 C 
BRANCH  12  13
ATOM     13  C   UNL     1     -16.177   9.820   9.681  1.00  0.00     0.053 C 
BRANCH  13  14
ATOM     14  C   UNL     1     -14.920   9.940  10.484  1.00  0.00     0.041 C 
ATOM     15  O   UNL     1     -13.812  10.098   9.906  1.00  0.00    -0.550 OA
ATOM     16  O   UNL     1     -14.976   9.922  11.872  1.00  0.00    -0.550 OA
ENDBRANCH  13  14
ENDBRANCH  12  13
ENDBRANCH  11  12
ENDBRANCH  10  11
ENDBRANCH   9  10
ENDBRANCH   8   9
ENDBRANCH   7   8
ENDBRANCH   6   7
ENDBRANCH   5   6
ENDBRANCH   4   5
ENDBRANCH   3   4
ENDBRANCH   2   3
ENDBRANCH   1   2
BRANCH   1  17
ATOM     17  C   UNL     1     -21.583   1.634  13.485  1.00  0.00     0.000 C 
BRANCH  17  18
ATOM     18  C   UNL     1     -21.088   0.197  13.725  1.00  0.00     0.000 C 
BRANCH  18  19
ATOM     19  C   UNL     1     -22.200  -0.727  14.248  1.00  0.00     0.000 C 
BRANCH  19  20
ATOM     20  C   UNL     1     -22.067  -2.169  13.723  1.00  0.00     0.000 C 
BRANCH  20  21
ATOM     21  C   UNL     1     -20.856  -2.353  12.793  1.00  0.00     0.000 C 
BRANCH  21  22
ATOM     22  C   UNL     1     -21.252  -2.373  11.306  1.00  0.00    -0.000 C 
BRANCH  22  23
ATOM     23  C   UNL     1     -20.095  -1.971  10.372  1.00  0.00    -0.000 C 
BRANCH  23  24
ATOM     24  C   UNL     1     -19.714  -3.020   9.310  1.00  0.00    -0.000 C 
BRANCH  24  25
ATOM     25  C   UNL     1     -20.552  -2.910   8.025  1.00  0.00    -0.000 C 
BRANCH  25  26
ATOM     26  C   UNL     1     -20.978  -1.456   7.725  1.00  0.00    -0.000 C 
BRANCH  26  27
ATOM     27  C   UNL     1     -20.672  -1.008   6.285  1.00  0.00    -0.000 C 
BRANCH  27  28
ATOM     28  C   UNL     1     -21.758  -0.091   5.702  1.00  0.00    -0.000 C 
BRANCH  28  29
ATOM     29  C   UNL     1     -21.581   1.376   6.123  1.00  0.00    -0.003 C 
ATOM     30  C   UNL     1     -20.167   1.682   6.612  1.00  0.00     0.004 C 
ENDBRANCH  28  29
ENDBRANCH  27  28
ENDBRANCH  26  27
ENDBRANCH  25  26
ENDBRANCH  24  25
ENDBRANCH  23  24
ENDBRANCH  22  23
ENDBRANCH  21  22
ENDBRANCH  20  21
ENDBRANCH  19  20
ENDBRANCH  18  19
ENDBRANCH  17  18
ENDBRANCH   1  17
TORSDOF 26
ENDMDL
MODEL 7
REMARK VINA RESULT:     1.623      6.383      9.079
REMARK INTER + INTRA:           3.455
REMARK INTER:                   4.511
REMARK INTRA:                  -1.056
REMARK UNBOUND:                -0.634
REMARK SMILES CCCCCCCCCCCCCCCCCCCCCCCCCCCC(=O)[O-]
REMARK SMILES IDX 15 1 16 2 17 3 18 4 19 5 20 6 21 7 22 8 23 9 24 10 25 11
REMARK SMILES IDX 26 12 27 13 28 14 29 15 30 16 14 17 13 18 12 19 11 20 10 21
REMARK SMILES IDX 9 22 8 23 7 24 6 25 5 26 4 27 3 28 2 29 1 30
REMARK H PARENT
REMARK Flexibility Score: inf
ROOT
ATOM      1  C   UNL     1     -20.435  -5.975   8.369  1.00  0.00     0.000 C 
ENDROOT
BRANCH   1   2
ATOM      2  C   UNL     1     -20.055  -4.491   8.522  1.00  0.00     0.000 C 
BRANCH   2   3
ATOM      3  C   UNL     1     -20.586  -3.613   7.375  1.00  0.00     0.000 C 
BRANCH   3   4
ATOM      4  C   UNL     1     -20.631  -2.116   7.752  1.00  0.00     0.000 C 
BRANCH   4   5
ATOM      5  C   UNL     1     -21.445  -1.250   6.774  1.00  0.00     0.000 C 
BRANCH   5   6
ATOM      6  C   UNL     1     -20.661  -0.030   6.264  1.00  0.00     0.000 C 
BRANCH   6   7
ATOM      7  C   UNL     1     -21.046   1.270   6.989  1.00  0.00     0.000 C 
BRANCH   7   8
ATOM      8  C   UNL     1     -21.449   1.040   8.457  1.00  0.00     0.000 C 
BRANCH   8   9
ATOM      9  C   UNL     1     -22.265   2.209   9.034  1.00  0.00     0.000 C 
BRANCH   9  10
ATOM     10  C   UNL     1     -22.849   1.895  10.421  1.00  0.00     0.000 C 
BRANCH  10  11
ATOM     11  C   UNL     1     -21.855   1.154  11.331  1.00  0.00     0.000 C 
BRANCH  11  12
ATOM     12  C   UNL     1     -21.789   1.722  12.765  1.00  0.00     0.006 C 
BRANCH  12  13
ATOM     13  C   UNL     1     -21.091   0.763  13.738  1.00  0.00     0.053 C 
BRANCH  13  14
ATOM     14  C   UNL     1     -21.691  -0.604  13.648  1.00  0.00     0.041 C 
ATOM     15  O   UNL     1     -21.153  -1.486  12.928  1.00  0.00    -0.550 OA
ATOM     16  O   UNL     1     -22.822  -0.919  14.391  1.00  0.00    -0.550 OA
ENDBRANCH  13  14
ENDBRANCH  12  13
ENDBRANCH  11  12
ENDBRANCH  10  11
ENDBRANCH   9  10
ENDBRANCH   8   9
ENDBRANCH   7   8
ENDBRANCH   6   7
ENDBRANCH   5   6
ENDBRANCH   4   5
ENDBRANCH   3   4
ENDBRANCH   2   3
ENDBRANCH   1   2
BRANCH   1  17
ATOM     17  C   UNL     1     -21.801  -6.239   7.709  1.00  0.00     0.000 C 
BRANCH  17  18
ATOM     18  C   UNL     1     -22.859  -6.748   8.703  1.00  0.00     0.000 C 
BRANCH  18  19
ATOM     19  C   UNL     1     -23.650  -7.948   8.156  1.00  0.00     0.000 C 
BRANCH  19  20
ATOM     20  C   UNL     1     -25.142  -7.629   7.949  1.00  0.00     0.000 C 
BRANCH  20  21
ATOM     21  C   UNL     1     -25.955  -8.854   7.500  1.00  0.00     0.000 C 
BRANCH  21  22
ATOM     22  C   UNL     1     -26.245  -9.826   8.657  1.00  0.00    -0.000 C 
BRANCH  22  23
ATOM     23  C   UNL     1     -27.715  -9.791   9.116  1.00  0.00    -0.000 C 
BRANCH  23  24
ATOM     24  C   UNL     1     -27.955  -9.169  10.505  1.00  0.00    -0.000 C 
BRANCH  24  25
ATOM     25  C   UNL     1     -27.406  -7.737  10.628  1.00  0.00    -0.000 C 
BRANCH  25  26
ATOM     26  C   UNL     1     -28.132  -6.922  11.720  1.00  0.00    -0.000 C 
BRANCH  26  27
ATOM     27  C   UNL     1     -27.809  -5.418  11.683  1.00  0.00    -0.000 C 
BRANCH  27  28
ATOM     28  C   UNL     1     -29.054  -4.547  11.454  1.00  0.00    -0.000 C 
BRANCH  28  29
ATOM     29  C   UNL     1     -28.815  -3.071  11.807  1.00  0.00    -0.003 C 
ATOM     30  C   UNL     1     -28.946  -2.146  10.598  1.00  0.00     0.004 C 
ENDBRANCH  28  29
ENDBRANCH  27  28
ENDBRANCH  26  27
ENDBRANCH  25  26
ENDBRANCH  24  25
ENDBRANCH  23  24
ENDBRANCH  22  23
ENDBRANCH  21  22
ENDBRANCH  20  21
ENDBRANCH  19  20
ENDBRANCH  18  19
ENDBRANCH  17  18
ENDBRANCH   1  17
TORSDOF 26
ENDMDL
MODEL 8
REMARK VINA RESULT:     1.630      7.229     12.413
REMARK INTER + INTRA:           3.473
REMARK INTER:                   4.600
REMARK INTRA:                  -1.128
REMARK UNBOUND:                -0.634
REMARK SMILES CCCCCCCCCCCCCCCCCCCCCCCCCCCC(=O)[O-]
REMARK SMILES IDX 15 1 16 2 17 3 18 4 19 5 20 6 21 7 22 8 23 9 24 10 25 11
REMARK SMILES IDX 26 12 27 13 28 14 29 15 30 16 14 17 13 18 12 19 11 20 10 21
REMARK SMILES IDX 9 22 8 23 7 24 6 25 5 26 4 27 3 28 2 29 1 30
REMARK H PARENT
REMARK Flexibility Score: inf
ROOT
ATOM      1  C   UNL     1     -21.305  -0.662   9.065  1.00  0.00     0.000 C 
ENDROOT
BRANCH   1   2
ATOM      2  C   UNL     1     -20.858  -0.249   7.651  1.00  0.00     0.000 C 
BRANCH   2   3
ATOM      3  C   UNL     1     -21.361  -1.209   6.557  1.00  0.00     0.000 C 
BRANCH   3   4
ATOM      4  C   UNL     1     -20.460  -2.453   6.407  1.00  0.00     0.000 C 
BRANCH   4   5
ATOM      5  C   UNL     1     -20.922  -3.663   7.237  1.00  0.00     0.000 C 
BRANCH   5   6
ATOM      6  C   UNL     1     -19.756  -4.401   7.915  1.00  0.00     0.000 C 
BRANCH   6   7
ATOM      7  C   UNL     1     -20.059  -5.886   8.172  1.00  0.00     0.000 C 
BRANCH   7   8
ATOM      8  C   UNL     1     -21.555  -6.224   8.025  1.00  0.00     0.000 C 
BRANCH   8   9
ATOM      9  C   UNL     1     -22.319  -6.103   9.354  1.00  0.00     0.000 C 
BRANCH   9  10
ATOM     10  C   UNL     1     -23.710  -6.754   9.298  1.00  0.00     0.000 C 
BRANCH  10  11
ATOM     11  C   UNL     1     -24.020  -7.378   7.928  1.00  0.00     0.000 C 
BRANCH  11  12
ATOM     12  C   UNL     1     -25.476  -7.871   7.789  1.00  0.00     0.006 C 
BRANCH  12  13
ATOM     13  C   UNL     1     -25.577  -9.402   7.811  1.00  0.00     0.053 C 
BRANCH  13  14
ATOM     14  C   UNL     1     -26.999  -9.831   7.983  1.00  0.00     0.041 C 
ATOM     15  O   UNL     1     -27.508  -9.891   9.134  1.00  0.00    -0.550 OA
ATOM     16  O   UNL     1     -27.778 -10.125   6.871  1.00  0.00    -0.550 OA
ENDBRANCH  13  14
ENDBRANCH  12  13
ENDBRANCH  11  12
ENDBRANCH  10  11
ENDBRANCH   9  10
ENDBRANCH   8   9
ENDBRANCH   7   8
ENDBRANCH   6   7
ENDBRANCH   5   6
ENDBRANCH   4   5
ENDBRANCH   3   4
ENDBRANCH   2   3
ENDBRANCH   1   2
BRANCH   1  17
ATOM     17  C   UNL     1     -20.378  -1.661   9.781  1.00  0.00     0.000 C 
BRANCH  17  18
ATOM     18  C   UNL     1     -21.115  -2.520  10.824  1.00  0.00     0.000 C 
BRANCH  18  19
ATOM     19  C   UNL     1     -20.659  -2.220  12.261  1.00  0.00     0.000 C 
BRANCH  19  20
ATOM     20  C   UNL     1     -21.676  -1.365  13.039  1.00  0.00     0.000 C 
BRANCH  20  21
ATOM     21  C   UNL     1     -21.013  -0.467  14.097  1.00  0.00     0.000 C 
BRANCH  21  22
ATOM     22  C   UNL     1     -21.729   0.885  14.255  1.00  0.00    -0.000 C 
BRANCH  22  23
ATOM     23  C   UNL     1     -21.433   1.861  13.100  1.00  0.00    -0.000 C 
BRANCH  23  24
ATOM     24  C   UNL     1     -22.529   1.955  12.022  1.00  0.00    -0.000 C 
BRANCH  24  25
ATOM     25  C   UNL     1     -22.060   1.467  10.641  1.00  0.00    -0.000 C 
BRANCH  25  26
ATOM     26  C   UNL     1     -22.776   2.199   9.485  1.00  0.00    -0.000 C 
BRANCH  26  27
ATOM     27  C   UNL     1     -21.923   3.299   8.830  1.00  0.00    -0.000 C 
BRANCH  27  28
ATOM     28  C   UNL     1     -22.701   4.606   8.609  1.00  0.00    -0.000 C 
BRANCH  28  29
ATOM     29  C   UNL     1     -21.805   5.850   8.698  1.00  0.00    -0.003 C 
ATOM     30  C   UNL     1     -20.768   5.751   9.816  1.00  0.00     0.004 C 
ENDBRANCH  28  29
ENDBRANCH  27  28
ENDBRANCH  26  27
ENDBRANCH  25  26
ENDBRANCH  24  25
ENDBRANCH  23  24
ENDBRANCH  22  23
ENDBRANCH  21  22
ENDBRANCH  20  21
ENDBRANCH  19  20
ENDBRANCH  18  19
ENDBRANCH  17  18
ENDBRANCH   1  17
TORSDOF 26
ENDMDL
MODEL 9
REMARK VINA RESULT:     3.357      6.395     12.859
REMARK INTER + INTRA:           7.824
REMARK INTER:                   9.269
REMARK INTRA:                  -1.445
REMARK UNBOUND:                -0.634
REMARK SMILES CCCCCCCCCCCCCCCCCCCCCCCCCCCC(=O)[O-]
REMARK SMILES IDX 15 1 16 2 17 3 18 4 19 5 20 6 21 7 22 8 23 9 24 10 25 11
REMARK SMILES IDX 26 12 27 13 28 14 29 15 30 16 14 17 13 18 12 19 11 20 10 21
REMARK SMILES IDX 9 22 8 23 7 24 6 25 5 26 4 27 3 28 2 29 1 30
REMARK H PARENT
REMARK Flexibility Score: inf
ROOT
ATOM      1  C   UNL     1     -22.045   1.614   8.253  1.00  0.00     0.000 C 
ENDROOT
BRANCH   1   2
ATOM      2  C   UNL     1     -20.851   1.591   7.281  1.00  0.00     0.000 C 
BRANCH   2   3
ATOM      3  C   UNL     1     -20.923   0.435   6.267  1.00  0.00     0.000 C 
BRANCH   3   4
ATOM      4  C   UNL     1     -21.750  -0.758   6.793  1.00  0.00     0.000 C 
BRANCH   4   5
ATOM      5  C   UNL     1     -20.898  -1.897   7.381  1.00  0.00     0.000 C 
BRANCH   5   6
ATOM      6  C   UNL     1     -21.007  -1.992   8.911  1.00  0.00     0.000 C 
BRANCH   6   7
ATOM      7  C   UNL     1     -20.358  -3.267   9.476  1.00  0.00     0.000 C 
BRANCH   7   8
ATOM      8  C   UNL     1     -19.436  -3.968   8.461  1.00  0.00     0.000 C 
BRANCH   8   9
ATOM      9  C   UNL     1     -19.821  -5.440   8.236  1.00  0.00     0.000 C 
BRANCH   9  10
ATOM     10  C   UNL     1     -21.293  -5.610   7.825  1.00  0.00     0.000 C 
BRANCH  10  11
ATOM     11  C   UNL     1     -21.848  -7.004   8.162  1.00  0.00     0.000 C 
BRANCH  11  12
ATOM     12  C   UNL     1     -23.388  -7.049   8.258  1.00  0.00     0.006 C 
BRANCH  12  13
ATOM     13  C   UNL     1     -23.944  -8.459   8.022  1.00  0.00     0.053 C 
BRANCH  13  14
ATOM     14  C   UNL     1     -25.430  -8.416   7.858  1.00  0.00     0.041 C 
ATOM     15  O   UNL     1     -25.977  -7.429   7.298  1.00  0.00    -0.550 OA
ATOM     16  O   UNL     1     -26.209  -9.484   8.285  1.00  0.00    -0.550 OA
ENDBRANCH  13  14
ENDBRANCH  12  13
ENDBRANCH  11  12
ENDBRANCH  10  11
ENDBRANCH   9  10
ENDBRANCH   8   9
ENDBRANCH   7   8
ENDBRANCH   6   7
ENDBRANCH   5   6
ENDBRANCH   4   5
ENDBRANCH   3   4
ENDBRANCH   2   3
ENDBRANCH   1   2
BRANCH   1  17
ATOM     17  C   UNL     1     -22.038   2.765   9.275  1.00  0.00     0.000 C 
BRANCH  17  18
ATOM     18  C   UNL     1     -22.816   4.001   8.791  1.00  0.00     0.000 C 
BRANCH  18  19
ATOM     19  C   UNL     1     -21.887   5.139   8.334  1.00  0.00     0.000 C 
BRANCH  19  20
ATOM     20  C   UNL     1     -21.034   5.705   9.485  1.00  0.00     0.000 C 
BRANCH  20  21
ATOM     21  C   UNL     1     -20.031   6.771   9.014  1.00  0.00     0.000 C 
BRANCH  21  22
ATOM     22  C   UNL     1     -18.815   6.890   9.948  1.00  0.00    -0.000 C 
BRANCH  22  23
ATOM     23  C   UNL     1     -18.077   8.235   9.804  1.00  0.00    -0.000 C 
BRANCH  23  24
ATOM     24  C   UNL     1     -16.624   8.136   9.303  1.00  0.00    -0.000 C 
BRANCH  24  25
ATOM     25  C   UNL     1     -15.803   9.408   9.579  1.00  0.00    -0.000 C 
BRANCH  25  26
ATOM     26  C   UNL     1     -15.865   9.838  11.061  1.00  0.00    -0.000 C 
BRANCH  26  27
ATOM     27  C   UNL     1     -14.486  10.125  11.678  1.00  0.00    -0.000 C 
BRANCH  27  28
ATOM     28  C   UNL     1     -14.296   9.460  13.050  1.00  0.00    -0.000 C 
BRANCH  28  29
ATOM     29  C   UNL     1     -13.056   9.981  13.793  1.00  0.00    -0.003 C 
ATOM     30  C   UNL     1     -11.819  10.049  12.900  1.00  0.00     0.004 C 
ENDBRANCH  28  29
ENDBRANCH  27  28
ENDBRANCH  26  27
ENDBRANCH  25  26
ENDBRANCH  24  25
ENDBRANCH  23  24
ENDBRANCH  22  23
ENDBRANCH  21  22
ENDBRANCH  20  21
ENDBRANCH  19  20
ENDBRANCH  18  19
ENDBRANCH  17  18
ENDBRANCH   1  17
TORSDOF 26
ENDMDL
