MODEL 1
REMARK VINA RESULT:    -4.368      0.000      0.000
REMARK INTER + INTRA:         -13.986
REMARK INTER:                  -9.986
REMARK INTRA:                  -4.000
REMARK UNBOUND:                -4.000
REMARK SMILES CCCCCCCCCCCCCCCCCCCCCCCC(=O)[O-]
REMARK SMILES IDX 13 1 14 2 15 3 16 4 17 5 18 6 19 7 20 8 21 9 22 10 23 11
REMARK SMILES IDX 24 12 25 13 26 14 12 15 11 16 10 17 9 18 8 19 7 20 6 21 5 22
REMARK SMILES IDX 4 23 3 24 2 25 1 26
REMARK H PARENT
REMARK Flexibility Score: inf
ROOT
ATOM      1  C   UNL     1       7.979  29.352  27.766  1.00  0.00     0.000 C 
ENDROOT
BRANCH   1   2
ATOM      2  C   UNL     1       9.053  28.988  26.730  1.00  0.00     0.000 C 
BRANCH   2   3
ATOM      3  C   UNL     1       8.454  28.889  25.322  1.00  0.00     0.000 C 
BRANCH   3   4
ATOM      4  C   UNL     1       9.376  29.555  24.290  1.00  0.00     0.000 C 
BRANCH   4   5
ATOM      5  C   UNL     1      10.577  30.263  24.933  1.00  0.00     0.000 C 
BRANCH   5   6
ATOM      6  C   UNL     1      10.653  31.753  24.569  1.00  0.00     0.000 C 
BRANCH   6   7
ATOM      7  C   UNL     1      10.095  32.623  25.702  1.00  0.00     0.000 C 
BRANCH   7   8
ATOM      8  C   UNL     1      11.107  32.759  26.846  1.00  0.00     0.000 C 
BRANCH   8   9
ATOM      9  C   UNL     1      10.400  32.718  28.209  1.00  0.00     0.000 C 
BRANCH   9  10
ATOM     10  C   UNL     1      10.760  31.469  29.029  1.00  0.00     0.006 C 
BRANCH  10  11
ATOM     11  C   UNL     1      11.909  30.660  28.406  1.00  0.00     0.053 C 
BRANCH  11  12
ATOM     12  C   UNL     1      13.232  31.187  28.866  1.00  0.00     0.041 C 
ATOM     13  O   UNL     1      14.262  31.020  28.157  1.00  0.00    -0.550 OA
ATOM     14  O   UNL     1      13.336  31.830  30.092  1.00  0.00    -0.550 OA
ENDBRANCH  11  12
ENDBRANCH  10  11
ENDBRANCH   9  10
ENDBRANCH   8   9
ENDBRANCH   7   8
ENDBRANCH   6   7
ENDBRANCH   5   6
ENDBRANCH   4   5
ENDBRANCH   3   4
ENDBRANCH   2   3
ENDBRANCH   1   2
BRANCH   1  15
ATOM     15  C   UNL     1       6.778  30.087  27.144  1.00  0.00     0.000 C 
BRANCH  15  16
ATOM     16  C   UNL     1       5.431  29.848  27.855  1.00  0.00     0.000 C 
BRANCH  16  17
ATOM     17  C   UNL     1       4.301  29.319  26.949  1.00  0.00     0.000 C 
BRANCH  17  18
ATOM     18  C   UNL     1       4.751  28.861  25.547  1.00  0.00    -0.000 C 
BRANCH  18  19
ATOM     19  C   UNL     1       4.462  27.384  25.225  1.00  0.00    -0.000 C 
BRANCH  19  20
ATOM     20  C   UNL     1       5.647  26.681  24.538  1.00  0.00    -0.000 C 
BRANCH  20  21
ATOM     21  C   UNL     1       5.512  25.151  24.545  1.00  0.00    -0.000 C 
BRANCH  21  22
ATOM     22  C   UNL     1       6.497  24.478  25.517  1.00  0.00    -0.000 C 
BRANCH  22  23
ATOM     23  C   UNL     1       7.725  25.354  25.814  1.00  0.00    -0.000 C 
BRANCH  23  24
ATOM     24  C   UNL     1       7.892  25.651  27.315  1.00  0.00    -0.000 C 
BRANCH  24  25
ATOM     25  C   UNL     1       6.546  25.845  28.031  1.00  0.00    -0.003 C 
ATOM     26  C   UNL     1       6.710  26.250  29.497  1.00  0.00     0.004 C 
ENDBRANCH  24  25
ENDBRANCH  23  24
ENDBRANCH  22  23
ENDBRANCH  21  22
ENDBRANCH  20  21
ENDBRANCH  19  20
ENDBRANCH  18  19
ENDBRANCH  17  18
ENDBRANCH  16  17
ENDBRANCH  15  16
ENDBRANCH   1  15
TORSDOF 22
ENDMDL
MODEL 2
REMARK VINA RESULT:    -4.350      1.221      2.838
REMARK INTER + INTRA:         -13.944
REMARK INTER:                 -10.176
REMARK INTRA:                  -3.768
REMARK UNBOUND:                -4.000
REMARK SMILES CCCCCCCCCCCCCCCCCCCCCCCC(=O)[O-]
REMARK SMILES IDX 13 1 14 2 15 3 16 4 17 5 18 6 19 7 20 8 21 9 22 10 23 11
REMARK SMILES IDX 24 12 25 13 26 14 12 15 11 16 10 17 9 18 8 19 7 20 6 21 5 22
REMARK SMILES IDX 4 23 3 24 2 25 1 26
REMARK H PARENT
REMARK Flexibility Score: inf
ROOT
ATOM      1  C   UNL     1       7.277  27.870  24.101  1.00  0.00     0.000 C 
ENDROOT
BRANCH   1   2
ATOM      2  C   UNL     1       8.057  28.175  22.813  1.00  0.00     0.000 C 
BRANCH   2   3
ATOM      3  C   UNL     1       9.456  28.719  23.127  1.00  0.00     0.000 C 
BRANCH   3   4
ATOM      4  C   UNL     1       9.463  29.457  24.473  1.00  0.00     0.000 C 
BRANCH   4   5
ATOM      5  C   UNL     1      10.565  30.524  24.562  1.00  0.00     0.000 C 
BRANCH   5   6
ATOM      6  C   UNL     1      10.994  30.815  26.007  1.00  0.00     0.000 C 
BRANCH   6   7
ATOM      7  C   UNL     1      10.216  32.005  26.582  1.00  0.00     0.000 C 
BRANCH   7   8
ATOM      8  C   UNL     1       9.849  31.771  28.051  1.00  0.00     0.000 C 
BRANCH   8   9
ATOM      9  C   UNL     1      10.598  32.751  28.966  1.00  0.00     0.000 C 
BRANCH   9  10
ATOM     10  C   UNL     1      11.347  32.046  30.107  1.00  0.00     0.006 C 
BRANCH  10  11
ATOM     11  C   UNL     1      12.864  31.979  29.871  1.00  0.00     0.053 C 
BRANCH  11  12
ATOM     12  C   UNL     1      13.199  30.872  28.921  1.00  0.00     0.041 C 
ATOM     13  O   UNL     1      12.606  29.763  29.004  1.00  0.00    -0.550 OA
ATOM     14  O   UNL     1      14.193  31.052  27.967  1.00  0.00    -0.550 OA
ENDBRANCH  11  12
ENDBRANCH  10  11
ENDBRANCH   9  10
ENDBRANCH   8   9
ENDBRANCH   7   8
ENDBRANCH   6   7
ENDBRANCH   5   6
ENDBRANCH   4   5
ENDBRANCH   3   4
ENDBRANCH   2   3
ENDBRANCH   1   2
BRANCH   1  15
ATOM     15  C   UNL     1       5.818  28.355  24.041  1.00  0.00     0.000 C 
BRANCH  15  16
ATOM     16  C   UNL     1       4.900  27.793  25.146  1.00  0.00     0.000 C 
BRANCH  16  17
ATOM     17  C   UNL     1       4.702  28.721  26.361  1.00  0.00     0.000 C 
BRANCH  17  18
ATOM     18  C   UNL     1       5.317  30.127  26.215  1.00  0.00    -0.000 C 
BRANCH  18  19
ATOM     19  C   UNL     1       6.647  30.333  26.963  1.00  0.00    -0.000 C 
BRANCH  19  20
ATOM     20  C   UNL     1       7.030  29.126  27.838  1.00  0.00    -0.000 C 
BRANCH  20  21
ATOM     21  C   UNL     1       8.350  28.473  27.401  1.00  0.00    -0.000 C 
BRANCH  21  22
ATOM     22  C   UNL     1       8.409  26.976  27.750  1.00  0.00    -0.000 C 
BRANCH  22  23
ATOM     23  C   UNL     1       7.078  26.447  28.310  1.00  0.00    -0.000 C 
BRANCH  23  24
ATOM     24  C   UNL     1       6.404  25.429  27.373  1.00  0.00    -0.000 C 
BRANCH  24  25
ATOM     25  C   UNL     1       7.411  24.706  26.465  1.00  0.00    -0.003 C 
ATOM     26  C   UNL     1       6.825  24.354  25.096  1.00  0.00     0.004 C 
ENDBRANCH  24  25
ENDBRANCH  23  24
ENDBRANCH  22  23
ENDBRANCH  21  22
ENDBRANCH  20  21
ENDBRANCH  19  20
ENDBRANCH  18  19
ENDBRANCH  17  18
ENDBRANCH  16  17
ENDBRANCH  15  16
ENDBRANCH   1  15
TORSDOF 22
ENDMDL
MODEL 3
REMARK VINA RESULT:    -4.325      2.811      6.861
REMARK INTER + INTRA:         -13.887
REMARK INTER:                  -9.690
REMARK INTRA:                  -4.197
REMARK UNBOUND:                -4.000
REMARK SMILES CCCCCCCCCCCCCCCCCCCCCCCC(=O)[O-]
REMARK SMILES IDX 13 1 14 2 15 3 16 4 17 5 18 6 19 7 20 8 21 9 22 10 23 11
REMARK SMILES IDX 24 12 25 13 26 14 12 15 11 16 10 17 9 18 8 19 7 20 6 21 5 22
REMARK SMILES IDX 4 23 3 24 2 25 1 26
REMARK H PARENT
REMARK Flexibility Score: inf
ROOT
ATOM      1  C   UNL     1       4.480  28.957  24.283  1.00  0.00     0.000 C 
ENDROOT
BRANCH   1   2
ATOM      2  C   UNL     1       4.308  28.360  25.688  1.00  0.00     0.000 C 
BRANCH   2   3
ATOM      3  C   UNL     1       3.963  29.446  26.714  1.00  0.00     0.000 C 
BRANCH   3   4
ATOM      4  C   UNL     1       5.121  30.443  26.862  1.00  0.00     0.000 C 
BRANCH   4   5
ATOM      5  C   UNL     1       5.503  30.700  28.327  1.00  0.00     0.000 C 
BRANCH   5   6
ATOM      6  C   UNL     1       4.645  29.895  29.313  1.00  0.00     0.000 C 
BRANCH   6   7
ATOM      7  C   UNL     1       5.506  29.307  30.438  1.00  0.00     0.000 C 
BRANCH   7   8
ATOM      8  C   UNL     1       6.870  28.847  29.910  1.00  0.00     0.000 C 
BRANCH   8   9
ATOM      9  C   UNL     1       6.810  27.385  29.443  1.00  0.00     0.000 C 
BRANCH   9  10
ATOM     10  C   UNL     1       6.900  27.243  27.916  1.00  0.00     0.006 C 
BRANCH  10  11
ATOM     11  C   UNL     1       6.437  25.866  27.418  1.00  0.00     0.053 C 
BRANCH  11  12
ATOM     12  C   UNL     1       7.546  25.169  26.693  1.00  0.00     0.041 C 
ATOM     13  O   UNL     1       7.410  23.969  26.329  1.00  0.00    -0.550 OA
ATOM     14  O   UNL     1       8.742  25.832  26.449  1.00  0.00    -0.550 OA
ENDBRANCH  11  12
ENDBRANCH  10  11
ENDBRANCH   9  10
ENDBRANCH   8   9
ENDBRANCH   7   8
ENDBRANCH   6   7
ENDBRANCH   5   6
ENDBRANCH   4   5
ENDBRANCH   3   4
ENDBRANCH   2   3
ENDBRANCH   1   2
BRANCH   1  15
ATOM     15  C   UNL     1       5.486  28.171  23.423  1.00  0.00     0.000 C 
BRANCH  15  16
ATOM     16  C   UNL     1       6.803  27.804  24.135  1.00  0.00     0.000 C 
BRANCH  16  17
ATOM     17  C   UNL     1       8.080  28.347  23.462  1.00  0.00     0.000 C 
BRANCH  17  18
ATOM     18  C   UNL     1       9.091  29.008  24.421  1.00  0.00    -0.000 C 
BRANCH  18  19
ATOM     19  C   UNL     1       8.461  29.758  25.609  1.00  0.00    -0.000 C 
BRANCH  19  20
ATOM     20  C   UNL     1       9.293  29.637  26.898  1.00  0.00    -0.000 C 
BRANCH  20  21
ATOM     21  C   UNL     1       9.233  30.905  27.762  1.00  0.00    -0.000 C 
BRANCH  21  22
ATOM     22  C   UNL     1      10.629  31.474  28.069  1.00  0.00    -0.000 C 
BRANCH  22  23
ATOM     23  C   UNL     1      11.422  31.812  26.796  1.00  0.00    -0.000 C 
BRANCH  23  24
ATOM     24  C   UNL     1      11.207  33.263  26.331  1.00  0.00    -0.000 C 
BRANCH  24  25
ATOM     25  C   UNL     1      10.543  33.348  24.948  1.00  0.00    -0.003 C 
ATOM     26  C   UNL     1      10.925  32.179  24.037  1.00  0.00     0.004 C 
ENDBRANCH  24  25
ENDBRANCH  23  24
ENDBRANCH  22  23
ENDBRANCH  21  22
ENDBRANCH  20  21
ENDBRANCH  19  20
ENDBRANCH  18  19
ENDBRANCH  17  18
ENDBRANCH  16  17
ENDBRANCH  15  16
ENDBRANCH   1  15
TORSDOF 22
ENDMDL
MODEL 4
REMARK VINA RESULT:    -4.319      1.760      3.544
REMARK INTER + INTRA:         -13.873
REMARK INTER:                  -9.830
REMARK INTRA:                  -4.043
REMARK UNBOUND:                -4.000
REMARK SMILES CCCCCCCCCCCCCCCCCCCCCCCC(=O)[O-]
REMARK SMILES IDX 13 1 14 2 15 3 16 4 17 5 18 6 19 7 20 8 21 9 22 10 23 11
REMARK SMILES IDX 24 12 25 13 26 14 12 15 11 16 10 17 9 18 8 19 7 20 6 21 5 22
REMARK SMILES IDX 4 23 3 24 2 25 1 26
REMARK H PARENT
REMARK Flexibility Score: inf
ROOT
ATOM      1  C   UNL     1       5.993  30.568  26.681  1.00  0.00     0.000 C 
ENDROOT
BRANCH   1   2
ATOM      2  C   UNL     1       7.446  30.557  27.181  1.00  0.00     0.000 C 
BRANCH   2   3
ATOM      3  C   UNL     1       8.320  29.636  26.322  1.00  0.00     0.000 C 
BRANCH   3   4
ATOM      4  C   UNL     1       9.530  29.131  27.122  1.00  0.00     0.000 C 
BRANCH   4   5
ATOM      5  C   UNL     1       9.970  30.111  28.219  1.00  0.00     0.000 C 
BRANCH   5   6
ATOM      6  C   UNL     1      11.497  30.236  28.325  1.00  0.00     0.000 C 
BRANCH   6   7
ATOM      7  C   UNL     1      11.950  31.675  28.046  1.00  0.00     0.000 C 
BRANCH   7   8
ATOM      8  C   UNL     1      10.760  32.571  27.685  1.00  0.00     0.000 C 
BRANCH   8   9
ATOM      9  C   UNL     1      10.957  33.213  26.304  1.00  0.00     0.000 C 
BRANCH   9  10
ATOM     10  C   UNL     1      10.085  32.565  25.217  1.00  0.00     0.006 C 
BRANCH  10  11
ATOM     11  C   UNL     1      10.900  32.097  24.002  1.00  0.00     0.053 C 
BRANCH  11  12
ATOM     12  C   UNL     1      11.241  30.645  24.125  1.00  0.00     0.041 C 
ATOM     13  O   UNL     1      10.505  29.772  23.590  1.00  0.00    -0.550 OA
ATOM     14  O   UNL     1      12.351  30.251  24.861  1.00  0.00    -0.550 OA
ENDBRANCH  11  12
ENDBRANCH  10  11
ENDBRANCH   9  10
ENDBRANCH   8   9
ENDBRANCH   7   8
ENDBRANCH   6   7
ENDBRANCH   5   6
ENDBRANCH   4   5
ENDBRANCH   3   4
ENDBRANCH   2   3
ENDBRANCH   1   2
BRANCH   1  15
ATOM     15  C   UNL     1       5.724  29.494  25.613  1.00  0.00     0.000 C 
BRANCH  15  16
ATOM     16  C   UNL     1       4.370  28.768  25.748  1.00  0.00     0.000 C 
BRANCH  16  17
ATOM     17  C   UNL     1       4.462  27.233  25.853  1.00  0.00     0.000 C 
BRANCH  17  18
ATOM     18  C   UNL     1       4.018  26.645  27.208  1.00  0.00    -0.000 C 
BRANCH  18  19
ATOM     19  C   UNL     1       5.164  26.123  28.094  1.00  0.00    -0.000 C 
BRANCH  19  20
ATOM     20  C   UNL     1       6.443  26.971  27.975  1.00  0.00    -0.000 C 
BRANCH  20  21
ATOM     21  C   UNL     1       7.723  26.140  28.143  1.00  0.00    -0.000 C 
BRANCH  21  22
ATOM     22  C   UNL     1       8.061  25.321  26.886  1.00  0.00    -0.000 C 
BRANCH  22  23
ATOM     23  C   UNL     1       7.936  26.144  25.593  1.00  0.00    -0.000 C 
BRANCH  23  24
ATOM     24  C   UNL     1       7.626  25.272  24.363  1.00  0.00    -0.000 C 
BRANCH  24  25
ATOM     25  C   UNL     1       6.345  24.441  24.537  1.00  0.00    -0.003 C 
ATOM     26  C   UNL     1       6.625  22.944  24.679  1.00  0.00     0.004 C 
ENDBRANCH  24  25
ENDBRANCH  23  24
ENDBRANCH  22  23
ENDBRANCH  21  22
ENDBRANCH  20  21
ENDBRANCH  19  20
ENDBRANCH  18  19
ENDBRANCH  17  18
ENDBRANCH  16  17
ENDBRANCH  15  16
ENDBRANCH   1  15
TORSDOF 22
ENDMDL
MODEL 5
REMARK VINA RESULT:    -4.315      2.012      4.128
REMARK INTER + INTRA:         -13.864
REMARK INTER:                  -9.889
REMARK INTRA:                  -3.975
REMARK UNBOUND:                -4.000
REMARK SMILES CCCCCCCCCCCCCCCCCCCCCCCC(=O)[O-]
REMARK SMILES IDX 13 1 14 2 15 3 16 4 17 5 18 6 19 7 20 8 21 9 22 10 23 11
REMARK SMILES IDX 24 12 25 13 26 14 12 15 11 16 10 17 9 18 8 19 7 20 6 21 5 22
REMARK SMILES IDX 4 23 3 24 2 25 1 26
REMARK H PARENT
REMARK Flexibility Score: inf
ROOT
ATOM      1  C   UNL     1       6.255  30.601  26.616  1.00  0.00     0.000 C 
ENDROOT
BRANCH   1   2
ATOM      2  C   UNL     1       7.700  30.593  27.136  1.00  0.00     0.000 C 
BRANCH   2   3
ATOM      3  C   UNL     1       8.512  29.458  26.499  1.00  0.00     0.000 C 
BRANCH   3   4
ATOM      4  C   UNL     1       9.634  28.996  27.440  1.00  0.00     0.000 C 
BRANCH   4   5
ATOM      5  C   UNL     1      10.087  30.096  28.412  1.00  0.00     0.000 C 
BRANCH   5   6
ATOM      6  C   UNL     1      11.607  30.313  28.394  1.00  0.00     0.000 C 
BRANCH   6   7
ATOM      7  C   UNL     1      11.947  31.803  28.264  1.00  0.00     0.000 C 
BRANCH   7   8
ATOM      8  C   UNL     1      10.741  32.605  27.760  1.00  0.00     0.000 C 
BRANCH   8   9
ATOM      9  C   UNL     1      11.025  33.211  26.379  1.00  0.00     0.000 C 
BRANCH   9  10
ATOM     10  C   UNL     1      10.111  32.645  25.280  1.00  0.00     0.006 C 
BRANCH  10  11
ATOM     11  C   UNL     1      10.892  32.156  24.051  1.00  0.00     0.053 C 
BRANCH  11  12
ATOM     12  C   UNL     1      11.261  30.714  24.201  1.00  0.00     0.041 C 
ATOM     13  O   UNL     1      10.552  29.818  23.667  1.00  0.00    -0.550 OA
ATOM     14  O   UNL     1      12.367  30.355  24.960  1.00  0.00    -0.550 OA
ENDBRANCH  11  12
ENDBRANCH  10  11
ENDBRANCH   9  10
ENDBRANCH   8   9
ENDBRANCH   7   8
ENDBRANCH   6   7
ENDBRANCH   5   6
ENDBRANCH   4   5
ENDBRANCH   3   4
ENDBRANCH   2   3
ENDBRANCH   1   2
BRANCH   1  15
ATOM     15  C   UNL     1       5.888  29.312  25.860  1.00  0.00     0.000 C 
BRANCH  15  16
ATOM     16  C   UNL     1       4.383  28.976  25.840  1.00  0.00     0.000 C 
BRANCH  16  17
ATOM     17  C   UNL     1       4.052  27.472  25.756  1.00  0.00     0.000 C 
BRANCH  17  18
ATOM     18  C   UNL     1       4.026  26.734  27.110  1.00  0.00    -0.000 C 
BRANCH  18  19
ATOM     19  C   UNL     1       5.378  26.142  27.550  1.00  0.00    -0.000 C 
BRANCH  19  20
ATOM     20  C   UNL     1       5.520  26.054  29.080  1.00  0.00    -0.000 C 
BRANCH  20  21
ATOM     21  C   UNL     1       6.791  26.744  29.596  1.00  0.00    -0.000 C 
BRANCH  21  22
ATOM     22  C   UNL     1       6.665  28.277  29.608  1.00  0.00    -0.000 C 
BRANCH  22  23
ATOM     23  C   UNL     1       5.465  28.765  30.436  1.00  0.00    -0.000 C 
BRANCH  23  24
ATOM     24  C   UNL     1       4.861  30.072  29.891  1.00  0.00    -0.000 C 
BRANCH  24  25
ATOM     25  C   UNL     1       3.341  30.152  30.104  1.00  0.00    -0.003 C 
ATOM     26  C   UNL     1       2.550  29.545  28.944  1.00  0.00     0.004 C 
ENDBRANCH  24  25
ENDBRANCH  23  24
ENDBRANCH  22  23
ENDBRANCH  21  22
ENDBRANCH  20  21
ENDBRANCH  19  20
ENDBRANCH  18  19
ENDBRANCH  17  18
ENDBRANCH  16  17
ENDBRANCH  15  16
ENDBRANCH   1  15
TORSDOF 22
ENDMDL
MODEL 6
REMARK VINA RESULT:    -4.306      1.497      4.059
REMARK INTER + INTRA:         -13.843
REMARK INTER:                  -9.613
REMARK INTRA:                  -4.230
REMARK UNBOUND:                -4.000
REMARK SMILES CCCCCCCCCCCCCCCCCCCCCCCC(=O)[O-]
REMARK SMILES IDX 13 1 14 2 15 3 16 4 17 5 18 6 19 7 20 8 21 9 22 10 23 11
REMARK SMILES IDX 24 12 25 13 26 14 12 15 11 16 10 17 9 18 8 19 7 20 6 21 5 22
REMARK SMILES IDX 4 23 3 24 2 25 1 26
REMARK H PARENT
REMARK Flexibility Score: inf
ROOT
ATOM      1  C   UNL     1       7.961  25.753  27.380  1.00  0.00     0.000 C 
ENDROOT
BRANCH   1   2
ATOM      2  C   UNL     1       7.190  25.558  26.065  1.00  0.00     0.000 C 
BRANCH   2   3
ATOM      3  C   UNL     1       8.119  25.694  24.853  1.00  0.00     0.000 C 
BRANCH   3   4
ATOM      4  C   UNL     1       7.560  26.714  23.850  1.00  0.00     0.000 C 
BRANCH   4   5
ATOM      5  C   UNL     1       8.520  27.885  23.594  1.00  0.00     0.000 C 
BRANCH   5   6
ATOM      6  C   UNL     1       8.124  29.155  24.362  1.00  0.00     0.000 C 
BRANCH   6   7
ATOM      7  C   UNL     1       9.365  29.893  24.878  1.00  0.00     0.000 C 
BRANCH   7   8
ATOM      8  C   UNL     1       8.976  31.076  25.772  1.00  0.00     0.000 C 
BRANCH   8   9
ATOM      9  C   UNL     1      10.104  31.410  26.760  1.00  0.00     0.000 C 
BRANCH   9  10
ATOM     10  C   UNL     1      11.050  30.224  27.006  1.00  0.00     0.006 C 
BRANCH  10  11
ATOM     11  C   UNL     1      11.361  30.012  28.495  1.00  0.00     0.053 C 
BRANCH  11  12
ATOM     12  C   UNL     1      12.400  30.984  28.959  1.00  0.00     0.041 C 
ATOM     13  O   UNL     1      12.070  31.983  29.653  1.00  0.00    -0.550 OA
ATOM     14  O   UNL     1      13.729  30.806  28.596  1.00  0.00    -0.550 OA
ENDBRANCH  11  12
ENDBRANCH  10  11
ENDBRANCH   9  10
ENDBRANCH   8   9
ENDBRANCH   7   8
ENDBRANCH   6   7
ENDBRANCH   5   6
ENDBRANCH   4   5
ENDBRANCH   3   4
ENDBRANCH   2   3
ENDBRANCH   1   2
BRANCH   1  15
ATOM     15  C   UNL     1       8.650  27.126  27.467  1.00  0.00     0.000 C 
BRANCH  15  16
ATOM     16  C   UNL     1       7.716  28.300  27.823  1.00  0.00     0.000 C 
BRANCH  16  17
ATOM     17  C   UNL     1       7.273  28.355  29.299  1.00  0.00     0.000 C 
BRANCH  17  18
ATOM     18  C   UNL     1       5.752  28.240  29.527  1.00  0.00    -0.000 C 
BRANCH  18  19
ATOM     19  C   UNL     1       5.081  29.518  30.064  1.00  0.00    -0.000 C 
BRANCH  19  20
ATOM     20  C   UNL     1       3.638  29.690  29.557  1.00  0.00    -0.000 C 
BRANCH  20  21
ATOM     21  C   UNL     1       3.466  29.243  28.098  1.00  0.00    -0.000 C 
BRANCH  21  22
ATOM     22  C   UNL     1       3.998  30.284  27.098  1.00  0.00    -0.000 C 
BRANCH  22  23
ATOM     23  C   UNL     1       4.837  29.650  25.975  1.00  0.00    -0.000 C 
BRANCH  23  24
ATOM     24  C   UNL     1       4.600  28.135  25.842  1.00  0.00    -0.000 C 
BRANCH  24  25
ATOM     25  C   UNL     1       4.083  27.738  24.450  1.00  0.00    -0.003 C 
ATOM     26  C   UNL     1       4.359  28.806  23.391  1.00  0.00     0.004 C 
ENDBRANCH  24  25
ENDBRANCH  23  24
ENDBRANCH  22  23
ENDBRANCH  21  22
ENDBRANCH  20  21
ENDBRANCH  19  20
ENDBRANCH  18  19
ENDBRANCH  17  18
ENDBRANCH  16  17
ENDBRANCH  15  16
ENDBRANCH   1  15
TORSDOF 22
ENDMDL
MODEL 7
REMARK VINA RESULT:    -4.296      2.873      6.906
REMARK INTER + INTRA:         -13.822
REMARK INTER:                  -9.983
REMARK INTRA:                  -3.838
REMARK UNBOUND:                -4.000
REMARK SMILES CCCCCCCCCCCCCCCCCCCCCCCC(=O)[O-]
REMARK SMILES IDX 13 1 14 2 15 3 16 4 17 5 18 6 19 7 20 8 21 9 22 10 23 11
REMARK SMILES IDX 24 12 25 13 26 14 12 15 11 16 10 17 9 18 8 19 7 20 6 21 5 22
REMARK SMILES IDX 4 23 3 24 2 25 1 26
REMARK H PARENT
REMARK Flexibility Score: inf
ROOT
ATOM      1  C   UNL     1       7.419  26.504  28.074  1.00  0.00     0.000 C 
ENDROOT
BRANCH   1   2
ATOM      2  C   UNL     1       8.392  25.893  27.055  1.00  0.00     0.000 C 
BRANCH   2   3
ATOM      3  C   UNL     1       7.647  25.375  25.818  1.00  0.00     0.000 C 
BRANCH   3   4
ATOM      4  C   UNL     1       6.133  25.338  26.071  1.00  0.00     0.000 C 
BRANCH   4   5
ATOM      5  C   UNL     1       5.338  26.170  25.053  1.00  0.00     0.000 C 
BRANCH   5   6
ATOM      6  C   UNL     1       6.144  27.354  24.498  1.00  0.00     0.000 C 
BRANCH   6   7
ATOM      7  C   UNL     1       5.406  28.678  24.732  1.00  0.00     0.000 C 
BRANCH   7   8
ATOM      8  C   UNL     1       4.402  28.557  25.885  1.00  0.00     0.000 C 
BRANCH   8   9
ATOM      9  C   UNL     1       4.467  29.789  26.798  1.00  0.00     0.000 C 
BRANCH   9  10
ATOM     10  C   UNL     1       3.262  29.892  27.746  1.00  0.00     0.006 C 
BRANCH  10  11
ATOM     11  C   UNL     1       3.305  28.855  28.878  1.00  0.00     0.053 C 
BRANCH  11  12
ATOM     12  C   UNL     1       4.223  29.306  29.970  1.00  0.00     0.041 C 
ATOM     13  O   UNL     1       5.007  28.486  30.519  1.00  0.00    -0.550 OA
ATOM     14  O   UNL     1       4.189  30.624  30.407  1.00  0.00    -0.550 OA
ENDBRANCH  11  12
ENDBRANCH  10  11
ENDBRANCH   9  10
ENDBRANCH   8   9
ENDBRANCH   7   8
ENDBRANCH   6   7
ENDBRANCH   5   6
ENDBRANCH   4   5
ENDBRANCH   3   4
ENDBRANCH   2   3
ENDBRANCH   1   2
BRANCH   1  15
ATOM     15  C   UNL     1       7.572  28.030  28.200  1.00  0.00     0.000 C 
BRANCH  15  16
ATOM     16  C   UNL     1       8.638  28.655  27.277  1.00  0.00     0.000 C 
BRANCH  16  17
ATOM     17  C   UNL     1       8.221  29.977  26.602  1.00  0.00     0.000 C 
BRANCH  17  18
ATOM     18  C   UNL     1       9.320  30.652  25.757  1.00  0.00    -0.000 C 
BRANCH  18  19
ATOM     19  C   UNL     1       9.623  32.113  26.137  1.00  0.00    -0.000 C 
BRANCH  19  20
ATOM     20  C   UNL     1      11.053  32.305  26.672  1.00  0.00    -0.000 C 
BRANCH  20  21
ATOM     21  C   UNL     1      11.829  30.983  26.773  1.00  0.00    -0.000 C 
BRANCH  21  22
ATOM     22  C   UNL     1      12.735  30.927  28.016  1.00  0.00    -0.000 C 
BRANCH  22  23
ATOM     23  C   UNL     1      12.053  30.247  29.214  1.00  0.00    -0.000 C 
BRANCH  23  24
ATOM     24  C   UNL     1      11.896  31.190  30.420  1.00  0.00    -0.000 C 
BRANCH  24  25
ATOM     25  C   UNL     1      10.542  31.917  30.430  1.00  0.00    -0.003 C 
ATOM     26  C   UNL     1       9.381  31.008  30.023  1.00  0.00     0.004 C 
ENDBRANCH  24  25
ENDBRANCH  23  24
ENDBRANCH  22  23
ENDBRANCH  21  22
ENDBRANCH  20  21
ENDBRANCH  19  20
ENDBRANCH  18  19
ENDBRANCH  17  18
ENDBRANCH  16  17
ENDBRANCH  15  16
ENDBRANCH   1  15
TORSDOF 22
ENDMDL
MODEL 8
REMARK VINA RESULT:    -4.276      1.865      4.117
REMARK INTER + INTRA:         -13.774
REMARK INTER:                  -9.740
REMARK INTRA:                  -4.034
REMARK UNBOUND:                -4.000
REMARK SMILES CCCCCCCCCCCCCCCCCCCCCCCC(=O)[O-]
REMARK SMILES IDX 13 1 14 2 15 3 16 4 17 5 18 6 19 7 20 8 21 9 22 10 23 11
REMARK SMILES IDX 24 12 25 13 26 14 12 15 11 16 10 17 9 18 8 19 7 20 6 21 5 22
REMARK SMILES IDX 4 23 3 24 2 25 1 26
REMARK H PARENT
REMARK Flexibility Score: inf
ROOT
ATOM      1  C   UNL     1       8.296  25.856  24.425  1.00  0.00     0.000 C 
ENDROOT
BRANCH   1   2
ATOM      2  C   UNL     1       7.201  24.932  24.980  1.00  0.00     0.000 C 
BRANCH   2   3
ATOM      3  C   UNL     1       7.154  24.986  26.512  1.00  0.00     0.000 C 
BRANCH   3   4
ATOM      4  C   UNL     1       8.309  25.836  27.063  1.00  0.00     0.000 C 
BRANCH   4   5
ATOM      5  C   UNL     1       7.827  27.126  27.744  1.00  0.00     0.000 C 
BRANCH   5   6
ATOM      6  C   UNL     1       8.537  28.379  27.211  1.00  0.00     0.000 C 
BRANCH   6   7
ATOM      7  C   UNL     1       8.611  29.468  28.289  1.00  0.00     0.000 C 
BRANCH   7   8
ATOM      8  C   UNL     1       9.459  30.656  27.820  1.00  0.00     0.000 C 
BRANCH   8   9
ATOM      9  C   UNL     1      10.908  30.223  27.555  1.00  0.00     0.000 C 
BRANCH   9  10
ATOM     10  C   UNL     1      11.713  30.014  28.847  1.00  0.00     0.006 C 
BRANCH  10  11
ATOM     11  C   UNL     1      12.776  31.101  29.067  1.00  0.00     0.053 C 
BRANCH  11  12
ATOM     12  C   UNL     1      12.430  31.943  30.254  1.00  0.00     0.041 C 
ATOM     13  O   UNL     1      11.273  32.429  30.372  1.00  0.00    -0.550 OA
ATOM     14  O   UNL     1      13.395  32.222  31.214  1.00  0.00    -0.550 OA
ENDBRANCH  11  12
ENDBRANCH  10  11
ENDBRANCH   9  10
ENDBRANCH   8   9
ENDBRANCH   7   8
ENDBRANCH   6   7
ENDBRANCH   5   6
ENDBRANCH   4   5
ENDBRANCH   3   4
ENDBRANCH   2   3
ENDBRANCH   1   2
BRANCH   1  15
ATOM     15  C   UNL     1       7.799  26.734  23.262  1.00  0.00     0.000 C 
BRANCH  15  16
ATOM     16  C   UNL     1       7.221  28.101  23.680  1.00  0.00     0.000 C 
BRANCH  16  17
ATOM     17  C   UNL     1       5.685  28.148  23.803  1.00  0.00     0.000 C 
BRANCH  17  18
ATOM     18  C   UNL     1       5.139  27.928  25.228  1.00  0.00    -0.000 C 
BRANCH  18  19
ATOM     19  C   UNL     1       4.456  29.157  25.856  1.00  0.00    -0.000 C 
BRANCH  19  20
ATOM     20  C   UNL     1       5.463  30.228  26.312  1.00  0.00    -0.000 C 
BRANCH  20  21
ATOM     21  C   UNL     1       5.149  30.777  27.713  1.00  0.00    -0.000 C 
BRANCH  21  22
ATOM     22  C   UNL     1       4.312  29.798  28.553  1.00  0.00    -0.000 C 
BRANCH  22  23
ATOM     23  C   UNL     1       5.154  29.041  29.593  1.00  0.00    -0.000 C 
BRANCH  23  24
ATOM     24  C   UNL     1       4.713  27.575  29.760  1.00  0.00    -0.000 C 
BRANCH  24  25
ATOM     25  C   UNL     1       3.475  27.232  28.916  1.00  0.00    -0.003 C 
ATOM     26  C   UNL     1       3.723  26.075  27.946  1.00  0.00     0.004 C 
ENDBRANCH  24  25
ENDBRANCH  23  24
ENDBRANCH  22  23
ENDBRANCH  21  22
ENDBRANCH  20  21
ENDBRANCH  19  20
ENDBRANCH  18  19
ENDBRANCH  17  18
ENDBRANCH  16  17
ENDBRANCH  15  16
ENDBRANCH   1  15
TORSDOF 22
ENDMDL
MODEL 9
REMARK VINA RESULT:    -4.275      1.542      5.183
REMARK INTER + INTRA:         -13.773
REMARK INTER:                  -9.523
REMARK INTRA:                  -4.250
REMARK UNBOUND:                -4.000
REMARK SMILES CCCCCCCCCCCCCCCCCCCCCCCC(=O)[O-]
REMARK SMILES IDX 13 1 14 2 15 3 16 4 17 5 18 6 19 7 20 8 21 9 22 10 23 11
REMARK SMILES IDX 24 12 25 13 26 14 12 15 11 16 10 17 9 18 8 19 7 20 6 21 5 22
REMARK SMILES IDX 4 23 3 24 2 25 1 26
REMARK H PARENT
REMARK Flexibility Score: inf
ROOT
ATOM      1  C   UNL     1       4.709  26.987  25.274  1.00  0.00     0.000 C 
ENDROOT
BRANCH   1   2
ATOM      2  C   UNL     1       4.098  28.274  25.847  1.00  0.00     0.000 C 
BRANCH   2   3
ATOM      3  C   UNL     1       4.973  29.493  25.529  1.00  0.00     0.000 C 
BRANCH   3   4
ATOM      4  C   UNL     1       5.310  30.270  26.810  1.00  0.00     0.000 C 
BRANCH   4   5
ATOM      5  C   UNL     1       4.522  29.775  28.032  1.00  0.00     0.000 C 
BRANCH   5   6
ATOM      6  C   UNL     1       5.415  29.546  29.261  1.00  0.00     0.000 C 
BRANCH   6   7
ATOM      7  C   UNL     1       6.738  30.312  29.127  1.00  0.00     0.000 C 
BRANCH   7   8
ATOM      8  C   UNL     1       7.190  30.877  30.479  1.00  0.00     0.000 C 
BRANCH   8   9
ATOM      9  C   UNL     1       8.603  31.470  30.378  1.00  0.00     0.000 C 
BRANCH   9  10
ATOM     10  C   UNL     1       9.481  30.745  29.346  1.00  0.00     0.006 C 
BRANCH  10  11
ATOM     11  C   UNL     1      10.599  31.637  28.785  1.00  0.00     0.053 C 
BRANCH  11  12
ATOM     12  C   UNL     1      11.746  30.804  28.306  1.00  0.00     0.041 C 
ATOM     13  O   UNL     1      11.969  29.675  28.821  1.00  0.00    -0.550 OA
ATOM     14  O   UNL     1      12.591  31.288  27.315  1.00  0.00    -0.550 OA
ENDBRANCH  11  12
ENDBRANCH  10  11
ENDBRANCH   9  10
ENDBRANCH   8   9
ENDBRANCH   7   8
ENDBRANCH   6   7
ENDBRANCH   5   6
ENDBRANCH   4   5
ENDBRANCH   3   4
ENDBRANCH   2   3
ENDBRANCH   1   2
BRANCH   1  15
ATOM     15  C   UNL     1       4.540  25.779  26.213  1.00  0.00     0.000 C 
BRANCH  15  16
ATOM     16  C   UNL     1       4.254  26.137  27.685  1.00  0.00     0.000 C 
BRANCH  16  17
ATOM     17  C   UNL     1       5.455  25.979  28.639  1.00  0.00     0.000 C 
BRANCH  17  18
ATOM     18  C   UNL     1       6.814  25.759  27.943  1.00  0.00    -0.000 C 
BRANCH  18  19
ATOM     19  C   UNL     1       7.743  26.986  27.937  1.00  0.00    -0.000 C 
BRANCH  19  20
ATOM     20  C   UNL     1       7.981  27.546  26.523  1.00  0.00    -0.000 C 
BRANCH  20  21
ATOM     21  C   UNL     1       8.964  28.726  26.511  1.00  0.00    -0.000 C 
BRANCH  21  22
ATOM     22  C   UNL     1       8.675  29.720  25.373  1.00  0.00    -0.000 C 
BRANCH  22  23
ATOM     23  C   UNL     1       9.768  30.792  25.233  1.00  0.00    -0.000 C 
BRANCH  23  24
ATOM     24  C   UNL     1       9.217  32.222  25.372  1.00  0.00    -0.000 C 
BRANCH  24  25
ATOM     25  C   UNL     1      10.121  33.271  24.706  1.00  0.00    -0.003 C 
ATOM     26  C   UNL     1      11.079  32.660  23.682  1.00  0.00     0.004 C 
ENDBRANCH  24  25
ENDBRANCH  23  24
ENDBRANCH  22  23
ENDBRANCH  21  22
ENDBRANCH  20  21
ENDBRANCH  19  20
ENDBRANCH  18  19
ENDBRANCH  17  18
ENDBRANCH  16  17
ENDBRANCH  15  16
ENDBRANCH   1  15
TORSDOF 22
ENDMDL
