MODEL 1
REMARK VINA RESULT:    -3.276      0.000      0.000
REMARK INTER + INTRA:         -11.834
REMARK INTER:                  -8.256
REMARK INTRA:                  -3.578
REMARK UNBOUND:                -3.578
REMARK SMILES CCCCCCCCCCCCCCCCCCCCCCCCCCCC(=O)[O-]
REMARK SMILES IDX 15 1 16 2 17 3 18 4 19 5 20 6 21 7 22 8 23 9 24 10 25 11
REMARK SMILES IDX 26 12 27 13 28 14 29 15 30 16 14 17 13 18 12 19 11 20 10 21
REMARK SMILES IDX 9 22 8 23 7 24 6 25 5 26 4 27 3 28 2 29 1 30
REMARK H PARENT
REMARK Flexibility Score: inf
ROOT
ATOM      1  C   UNL     1     -13.950 -15.279   3.152  1.00  0.00     0.000 C 
ENDROOT
BRANCH   1   2
ATOM      2  C   UNL     1     -15.340 -15.929   2.955  1.00  0.00     0.000 C 
BRANCH   2   3
ATOM      3  C   UNL     1     -15.909 -16.677   4.183  1.00  0.00     0.000 C 
BRANCH   3   4
ATOM      4  C   UNL     1     -15.237 -16.303   5.516  1.00  0.00     0.000 C 
BRANCH   4   5
ATOM      5  C   UNL     1     -15.131 -17.498   6.480  1.00  0.00     0.000 C 
BRANCH   5   6
ATOM      6  C   UNL     1     -15.140 -18.862   5.770  1.00  0.00     0.000 C 
BRANCH   6   7
ATOM      7  C   UNL     1     -13.780 -19.591   5.752  1.00  0.00     0.000 C 
BRANCH   7   8
ATOM      8  C   UNL     1     -12.553 -18.732   5.373  1.00  0.00     0.000 C 
BRANCH   8   9
ATOM      9  C   UNL     1     -11.967 -18.977   3.970  1.00  0.00     0.000 C 
BRANCH   9  10
ATOM     10  C   UNL     1     -12.998 -18.796   2.843  1.00  0.00     0.000 C 
BRANCH  10  11
ATOM     11  C   UNL     1     -13.116 -20.034   1.934  1.00  0.00     0.000 C 
BRANCH  11  12
ATOM     12  C   UNL     1     -12.736 -21.375   2.597  1.00  0.00     0.006 C 
BRANCH  12  13
ATOM     13  C   UNL     1     -13.918 -22.324   2.849  1.00  0.00     0.053 C 
BRANCH  13  14
ATOM     14  C   UNL     1     -13.651 -23.270   3.981  1.00  0.00     0.041 C 
ATOM     15  O   UNL     1     -13.018 -22.879   4.996  1.00  0.00    -0.550 OA
ATOM     16  O   UNL     1     -14.133 -24.573   3.930  1.00  0.00    -0.550 OA
ENDBRANCH  13  14
ENDBRANCH  12  13
ENDBRANCH  11  12
ENDBRANCH  10  11
ENDBRANCH   9  10
ENDBRANCH   8   9
ENDBRANCH   7   8
ENDBRANCH   6   7
ENDBRANCH   5   6
ENDBRANCH   4   5
ENDBRANCH   3   4
ENDBRANCH   2   3
ENDBRANCH   1   2
BRANCH   1  17
ATOM     17  C   UNL     1     -13.131 -15.103   1.859  1.00  0.00     0.000 C 
BRANCH  17  18
ATOM     18  C   UNL     1     -12.698 -13.642   1.619  1.00  0.00     0.000 C 
BRANCH  18  19
ATOM     19  C   UNL     1     -13.376 -12.663   2.593  1.00  0.00     0.000 C 
BRANCH  19  20
ATOM     20  C   UNL     1     -12.417 -12.099   3.658  1.00  0.00     0.000 C 
BRANCH  20  21
ATOM     21  C   UNL     1     -13.138 -11.728   4.962  1.00  0.00     0.000 C 
BRANCH  21  22
ATOM     22  C   UNL     1     -14.620 -12.123   4.897  1.00  0.00    -0.000 C 
BRANCH  22  23
ATOM     23  C   UNL     1     -15.564 -10.906   4.897  1.00  0.00    -0.000 C 
BRANCH  23  24
ATOM     24  C   UNL     1     -14.859  -9.534   4.869  1.00  0.00    -0.000 C 
BRANCH  24  25
ATOM     25  C   UNL     1     -14.992  -8.765   3.544  1.00  0.00    -0.000 C 
BRANCH  25  26
ATOM     26  C   UNL     1     -13.722  -8.843   2.680  1.00  0.00    -0.000 C 
BRANCH  26  27
ATOM     27  C   UNL     1     -13.836  -8.022   1.384  1.00  0.00    -0.000 C 
BRANCH  27  28
ATOM     28  C   UNL     1     -14.236  -6.549   1.591  1.00  0.00    -0.000 C 
BRANCH  28  29
ATOM     29  C   UNL     1     -13.128  -5.719   2.260  1.00  0.00    -0.003 C 
ATOM     30  C   UNL     1     -12.143  -5.182   1.226  1.00  0.00     0.004 C 
ENDBRANCH  28  29
ENDBRANCH  27  28
ENDBRANCH  26  27
ENDBRANCH  25  26
ENDBRANCH  24  25
ENDBRANCH  23  24
ENDBRANCH  22  23
ENDBRANCH  21  22
ENDBRANCH  20  21
ENDBRANCH  19  20
ENDBRANCH  18  19
ENDBRANCH  17  18
ENDBRANCH   1  17
TORSDOF 26
ENDMDL
MODEL 2
REMARK VINA RESULT:    -2.985      4.790     11.242
REMARK INTER + INTRA:         -11.101
REMARK INTER:                  -7.367
REMARK INTRA:                  -3.734
REMARK UNBOUND:                -3.578
REMARK SMILES CCCCCCCCCCCCCCCCCCCCCCCCCCCC(=O)[O-]
REMARK SMILES IDX 15 1 16 2 17 3 18 4 19 5 20 6 21 7 22 8 23 9 24 10 25 11
REMARK SMILES IDX 26 12 27 13 28 14 29 15 30 16 14 17 13 18 12 19 11 20 10 21
REMARK SMILES IDX 9 22 8 23 7 24 6 25 5 26 4 27 3 28 2 29 1 30
REMARK H PARENT
REMARK Flexibility Score: inf
ROOT
ATOM      1  C   UNL     1     -14.605 -14.718   5.048  1.00  0.00     0.000 C 
ENDROOT
BRANCH   1   2
ATOM      2  C   UNL     1     -15.436 -13.465   5.411  1.00  0.00     0.000 C 
BRANCH   2   3
ATOM      3  C   UNL     1     -14.662 -12.128   5.417  1.00  0.00     0.000 C 
BRANCH   3   4
ATOM      4  C   UNL     1     -13.153 -12.271   5.151  1.00  0.00     0.000 C 
BRANCH   4   5
ATOM      5  C   UNL     1     -12.732 -11.673   3.797  1.00  0.00     0.000 C 
BRANCH   5   6
ATOM      6  C   UNL     1     -12.452 -12.732   2.718  1.00  0.00     0.000 C 
BRANCH   6   7
ATOM      7  C   UNL     1     -13.389 -12.671   1.494  1.00  0.00     0.000 C 
BRANCH   7   8
ATOM      8  C   UNL     1     -14.814 -13.233   1.699  1.00  0.00     0.000 C 
BRANCH   8   9
ATOM      9  C   UNL     1     -15.971 -12.280   1.345  1.00  0.00     0.000 C 
BRANCH   9  10
ATOM     10  C   UNL     1     -16.067 -11.068   2.287  1.00  0.00     0.000 C 
BRANCH  10  11
ATOM     11  C   UNL     1     -15.458  -9.789   1.682  1.00  0.00     0.000 C 
BRANCH  11  12
ATOM     12  C   UNL     1     -14.999  -8.732   2.709  1.00  0.00     0.006 C 
BRANCH  12  13
ATOM     13  C   UNL     1     -13.527  -8.310   2.579  1.00  0.00     0.053 C 
BRANCH  13  14
ATOM     14  C   UNL     1     -13.370  -6.820   2.520  1.00  0.00     0.041 C 
ATOM     15  O   UNL     1     -12.749  -6.287   1.565  1.00  0.00    -0.550 OA
ATOM     16  O   UNL     1     -13.941  -6.019   3.502  1.00  0.00    -0.550 OA
ENDBRANCH  13  14
ENDBRANCH  12  13
ENDBRANCH  11  12
ENDBRANCH  10  11
ENDBRANCH   9  10
ENDBRANCH   8   9
ENDBRANCH   7   8
ENDBRANCH   6   7
ENDBRANCH   5   6
ENDBRANCH   4   5
ENDBRANCH   3   4
ENDBRANCH   2   3
ENDBRANCH   1   2
BRANCH   1  17
ATOM     17  C   UNL     1     -15.339 -16.059   5.241  1.00  0.00     0.000 C 
BRANCH  17  18
ATOM     18  C   UNL     1     -14.463 -17.278   4.887  1.00  0.00     0.000 C 
BRANCH  18  19
ATOM     19  C   UNL     1     -13.324 -16.918   3.916  1.00  0.00     0.000 C 
BRANCH  19  20
ATOM     20  C   UNL     1     -13.786 -16.796   2.451  1.00  0.00     0.000 C 
BRANCH  20  21
ATOM     21  C   UNL     1     -13.185 -17.887   1.553  1.00  0.00     0.000 C 
BRANCH  21  22
ATOM     22  C   UNL     1     -14.007 -19.180   1.641  1.00  0.00    -0.000 C 
BRANCH  22  23
ATOM     23  C   UNL     1     -13.160 -20.444   1.403  1.00  0.00    -0.000 C 
BRANCH  23  24
ATOM     24  C   UNL     1     -13.027 -21.380   2.621  1.00  0.00    -0.000 C 
BRANCH  24  25
ATOM     25  C   UNL     1     -12.717 -20.672   3.951  1.00  0.00    -0.000 C 
BRANCH  25  26
ATOM     26  C   UNL     1     -13.833 -20.848   4.994  1.00  0.00    -0.000 C 
BRANCH  26  27
ATOM     27  C   UNL     1     -14.008 -22.313   5.433  1.00  0.00    -0.000 C 
BRANCH  27  28
ATOM     28  C   UNL     1     -15.392 -22.914   5.122  1.00  0.00    -0.000 C 
BRANCH  28  29
ATOM     29  C   UNL     1     -15.308 -24.345   4.567  1.00  0.00    -0.003 C 
ATOM     30  C   UNL     1     -13.961 -24.597   3.896  1.00  0.00     0.004 C 
ENDBRANCH  28  29
ENDBRANCH  27  28
ENDBRANCH  26  27
ENDBRANCH  25  26
ENDBRANCH  24  25
ENDBRANCH  23  24
ENDBRANCH  22  23
ENDBRANCH  21  22
ENDBRANCH  20  21
ENDBRANCH  19  20
ENDBRANCH  18  19
ENDBRANCH  17  18
ENDBRANCH   1  17
TORSDOF 26
ENDMDL
MODEL 3
REMARK VINA RESULT:    -2.866      1.933      4.031
REMARK INTER + INTRA:         -10.801
REMARK INTER:                  -7.300
REMARK INTRA:                  -3.502
REMARK UNBOUND:                -3.578
REMARK SMILES CCCCCCCCCCCCCCCCCCCCCCCCCCCC(=O)[O-]
REMARK SMILES IDX 15 1 16 2 17 3 18 4 19 5 20 6 21 7 22 8 23 9 24 10 25 11
REMARK SMILES IDX 26 12 27 13 28 14 29 15 30 16 14 17 13 18 12 19 11 20 10 21
REMARK SMILES IDX 9 22 8 23 7 24 6 25 5 26 4 27 3 28 2 29 1 30
REMARK H PARENT
REMARK Flexibility Score: inf
ROOT
ATOM      1  C   UNL     1     -13.695 -18.514   1.123  1.00  0.00     0.000 C 
ENDROOT
BRANCH   1   2
ATOM      2  C   UNL     1     -14.765 -19.615   0.941  1.00  0.00     0.000 C 
BRANCH   2   3
ATOM      3  C   UNL     1     -14.293 -21.060   1.224  1.00  0.00     0.000 C 
BRANCH   3   4
ATOM      4  C   UNL     1     -12.896 -21.153   1.861  1.00  0.00     0.000 C 
BRANCH   4   5
ATOM      5  C   UNL     1     -12.833 -22.188   2.998  1.00  0.00     0.000 C 
BRANCH   5   6
ATOM      6  C   UNL     1     -14.080 -23.083   3.083  1.00  0.00     0.000 C 
BRANCH   6   7
ATOM      7  C   UNL     1     -14.551 -23.401   4.518  1.00  0.00     0.000 C 
BRANCH   7   8
ATOM      8  C   UNL     1     -14.903 -22.185   5.403  1.00  0.00     0.000 C 
BRANCH   8   9
ATOM      9  C   UNL     1     -15.919 -21.192   4.810  1.00  0.00     0.000 C 
BRANCH   9  10
ATOM     10  C   UNL     1     -15.813 -19.782   5.415  1.00  0.00     0.000 C 
BRANCH  10  11
ATOM     11  C   UNL     1     -15.167 -18.765   4.456  1.00  0.00     0.000 C 
BRANCH  11  12
ATOM     12  C   UNL     1     -13.867 -18.111   4.971  1.00  0.00     0.006 C 
BRANCH  12  13
ATOM     13  C   UNL     1     -12.764 -19.104   5.369  1.00  0.00     0.053 C 
BRANCH  13  14
ATOM     14  C   UNL     1     -11.435 -18.737   4.782  1.00  0.00     0.041 C 
ATOM     15  O   UNL     1     -11.269 -18.750   3.534  1.00  0.00    -0.550 OA
ATOM     16  O   UNL     1     -10.390 -18.345   5.611  1.00  0.00    -0.550 OA
ENDBRANCH  13  14
ENDBRANCH  12  13
ENDBRANCH  11  12
ENDBRANCH  10  11
ENDBRANCH   9  10
ENDBRANCH   8   9
ENDBRANCH   7   8
ENDBRANCH   6   7
ENDBRANCH   5   6
ENDBRANCH   4   5
ENDBRANCH   3   4
ENDBRANCH   2   3
ENDBRANCH   1   2
BRANCH   1  17
ATOM     17  C   UNL     1     -14.256 -17.086   1.272  1.00  0.00     0.000 C 
BRANCH  17  18
ATOM     18  C   UNL     1     -13.180 -16.061   1.686  1.00  0.00     0.000 C 
BRANCH  18  19
ATOM     19  C   UNL     1     -13.278 -14.753   0.881  1.00  0.00     0.000 C 
BRANCH  19  20
ATOM     20  C   UNL     1     -12.205 -13.717   1.266  1.00  0.00     0.000 C 
BRANCH  20  21
ATOM     21  C   UNL     1     -12.813 -12.421   1.824  1.00  0.00     0.000 C 
BRANCH  21  22
ATOM     22  C   UNL     1     -12.609 -12.334   3.343  1.00  0.00    -0.000 C 
BRANCH  22  23
ATOM     23  C   UNL     1     -13.777 -12.947   4.138  1.00  0.00    -0.000 C 
BRANCH  23  24
ATOM     24  C   UNL     1     -14.352 -12.048   5.251  1.00  0.00    -0.000 C 
BRANCH  24  25
ATOM     25  C   UNL     1     -15.333 -10.966   4.767  1.00  0.00    -0.000 C 
BRANCH  25  26
ATOM     26  C   UNL     1     -14.697  -9.567   4.715  1.00  0.00    -0.000 C 
BRANCH  26  27
ATOM     27  C   UNL     1     -15.432  -8.618   3.751  1.00  0.00    -0.000 C 
BRANCH  27  28
ATOM     28  C   UNL     1     -14.816  -8.533   2.341  1.00  0.00    -0.000 C 
BRANCH  28  29
ATOM     29  C   UNL     1     -13.378  -7.988   2.351  1.00  0.00    -0.003 C 
ATOM     30  C   UNL     1     -13.370  -6.461   2.327  1.00  0.00     0.004 C 
ENDBRANCH  28  29
ENDBRANCH  27  28
ENDBRANCH  26  27
ENDBRANCH  25  26
ENDBRANCH  24  25
ENDBRANCH  23  24
ENDBRANCH  22  23
ENDBRANCH  21  22
ENDBRANCH  20  21
ENDBRANCH  19  20
ENDBRANCH  18  19
ENDBRANCH  17  18
ENDBRANCH   1  17
TORSDOF 26
ENDMDL
MODEL 4
REMARK VINA RESULT:    -2.764      4.824     11.628
REMARK INTER + INTRA:         -10.543
REMARK INTER:                  -7.110
REMARK INTRA:                  -3.433
REMARK UNBOUND:                -3.578
REMARK SMILES CCCCCCCCCCCCCCCCCCCCCCCCCCCC(=O)[O-]
REMARK SMILES IDX 15 1 16 2 17 3 18 4 19 5 20 6 21 7 22 8 23 9 24 10 25 11
REMARK SMILES IDX 26 12 27 13 28 14 29 15 30 16 14 17 13 18 12 19 11 20 10 21
REMARK SMILES IDX 9 22 8 23 7 24 6 25 5 26 4 27 3 28 2 29 1 30
REMARK H PARENT
REMARK Flexibility Score: inf
ROOT
ATOM      1  C   UNL     1     -12.967 -17.633   3.821  1.00  0.00     0.000 C 
ENDROOT
BRANCH   1   2
ATOM      2  C   UNL     1     -13.944 -16.467   4.099  1.00  0.00     0.000 C 
BRANCH   2   3
ATOM      3  C   UNL     1     -13.867 -15.280   3.113  1.00  0.00     0.000 C 
BRANCH   3   4
ATOM      4  C   UNL     1     -14.482 -13.974   3.648  1.00  0.00     0.000 C 
BRANCH   4   5
ATOM      5  C   UNL     1     -14.341 -13.838   5.175  1.00  0.00     0.000 C 
BRANCH   5   6
ATOM      6  C   UNL     1     -13.404 -12.697   5.605  1.00  0.00     0.000 C 
BRANCH   6   7
ATOM      7  C   UNL     1     -12.736 -11.935   4.441  1.00  0.00     0.000 C 
BRANCH   7   8
ATOM      8  C   UNL     1     -13.218 -10.485   4.211  1.00  0.00     0.000 C 
BRANCH   8   9
ATOM      9  C   UNL     1     -14.736 -10.303   4.022  1.00  0.00     0.000 C 
BRANCH   9  10
ATOM     10  C   UNL     1     -15.153 -10.192   2.546  1.00  0.00     0.000 C 
BRANCH  10  11
ATOM     11  C   UNL     1     -14.059  -9.572   1.658  1.00  0.00     0.000 C 
BRANCH  11  12
ATOM     12  C   UNL     1     -14.424  -8.216   1.016  1.00  0.00     0.006 C 
BRANCH  12  13
ATOM     13  C   UNL     1     -14.713  -7.089   2.020  1.00  0.00     0.053 C 
BRANCH  13  14
ATOM     14  C   UNL     1     -13.479  -6.315   2.370  1.00  0.00     0.041 C 
ATOM     15  O   UNL     1     -12.466  -6.367   1.625  1.00  0.00    -0.550 OA
ATOM     16  O   UNL     1     -13.459  -5.508   3.502  1.00  0.00    -0.550 OA
ENDBRANCH  13  14
ENDBRANCH  12  13
ENDBRANCH  11  12
ENDBRANCH  10  11
ENDBRANCH   9  10
ENDBRANCH   8   9
ENDBRANCH   7   8
ENDBRANCH   6   7
ENDBRANCH   5   6
ENDBRANCH   4   5
ENDBRANCH   3   4
ENDBRANCH   2   3
ENDBRANCH   1   2
BRANCH   1  17
ATOM     17  C   UNL     1     -13.150 -18.315   2.451  1.00  0.00     0.000 C 
BRANCH  17  18
ATOM     18  C   UNL     1     -14.632 -18.541   2.088  1.00  0.00     0.000 C 
BRANCH  18  19
ATOM     19  C   UNL     1     -14.894 -19.960   1.552  1.00  0.00     0.000 C 
BRANCH  19  20
ATOM     20  C   UNL     1     -15.758 -20.819   2.494  1.00  0.00     0.000 C 
BRANCH  20  21
ATOM     21  C   UNL     1     -15.880 -20.211   3.899  1.00  0.00     0.000 C 
BRANCH  21  22
ATOM     22  C   UNL     1     -15.224 -21.122   4.946  1.00  0.00    -0.000 C 
BRANCH  22  23
ATOM     23  C   UNL     1     -13.694 -21.203   4.793  1.00  0.00    -0.000 C 
BRANCH  23  24
ATOM     24  C   UNL     1     -13.128 -22.629   4.641  1.00  0.00    -0.000 C 
BRANCH  24  25
ATOM     25  C   UNL     1     -14.162 -23.698   4.247  1.00  0.00    -0.000 C 
BRANCH  25  26
ATOM     26  C   UNL     1     -13.777 -24.454   2.964  1.00  0.00    -0.000 C 
BRANCH  26  27
ATOM     27  C   UNL     1     -13.494 -23.510   1.782  1.00  0.00    -0.000 C 
BRANCH  27  28
ATOM     28  C   UNL     1     -12.329 -23.949   0.875  1.00  0.00    -0.000 C 
BRANCH  28  29
ATOM     29  C   UNL     1     -11.114 -23.011   0.969  1.00  0.00    -0.003 C 
ATOM     30  C   UNL     1     -11.553 -21.562   1.164  1.00  0.00     0.004 C 
ENDBRANCH  28  29
ENDBRANCH  27  28
ENDBRANCH  26  27
ENDBRANCH  25  26
ENDBRANCH  24  25
ENDBRANCH  23  24
ENDBRANCH  22  23
ENDBRANCH  21  22
ENDBRANCH  20  21
ENDBRANCH  19  20
ENDBRANCH  18  19
ENDBRANCH  17  18
ENDBRANCH   1  17
TORSDOF 26
ENDMDL
MODEL 5
REMARK VINA RESULT:    -2.693      4.794     11.668
REMARK INTER + INTRA:         -10.363
REMARK INTER:                  -7.057
REMARK INTRA:                  -3.306
REMARK UNBOUND:                -3.578
REMARK SMILES CCCCCCCCCCCCCCCCCCCCCCCCCCCC(=O)[O-]
REMARK SMILES IDX 15 1 16 2 17 3 18 4 19 5 20 6 21 7 22 8 23 9 24 10 25 11
REMARK SMILES IDX 26 12 27 13 28 14 29 15 30 16 14 17 13 18 12 19 11 20 10 21
REMARK SMILES IDX 9 22 8 23 7 24 6 25 5 26 4 27 3 28 2 29 1 30
REMARK H PARENT
REMARK Flexibility Score: inf
ROOT
ATOM      1  C   UNL     1     -14.458 -15.937   3.292  1.00  0.00     0.000 C 
ENDROOT
BRANCH   1   2
ATOM      2  C   UNL     1     -14.247 -14.497   3.816  1.00  0.00     0.000 C 
BRANCH   2   3
ATOM      3  C   UNL     1     -13.545 -13.526   2.839  1.00  0.00     0.000 C 
BRANCH   3   4
ATOM      4  C   UNL     1     -14.508 -12.641   2.029  1.00  0.00     0.000 C 
BRANCH   4   5
ATOM      5  C   UNL     1     -13.776 -11.551   1.227  1.00  0.00     0.000 C 
BRANCH   5   6
ATOM      6  C   UNL     1     -14.246 -10.125   1.558  1.00  0.00     0.000 C 
BRANCH   6   7
ATOM      7  C   UNL     1     -15.626 -10.041   2.242  1.00  0.00     0.000 C 
BRANCH   7   8
ATOM      8  C   UNL     1     -15.619  -9.700   3.749  1.00  0.00     0.000 C 
BRANCH   8   9
ATOM      9  C   UNL     1     -14.230  -9.566   4.401  1.00  0.00     0.000 C 
BRANCH   9  10
ATOM     10  C   UNL     1     -13.850  -8.112   4.725  1.00  0.00     0.000 C 
BRANCH  10  11
ATOM     11  C   UNL     1     -15.062  -7.163   4.736  1.00  0.00     0.000 C 
BRANCH  11  12
ATOM     12  C   UNL     1     -15.029  -6.044   3.673  1.00  0.00     0.006 C 
BRANCH  12  13
ATOM     13  C   UNL     1     -13.619  -5.579   3.276  1.00  0.00     0.053 C 
BRANCH  13  14
ATOM     14  C   UNL     1     -13.305  -5.890   1.844  1.00  0.00     0.041 C 
ATOM     15  O   UNL     1     -12.131  -5.761   1.411  1.00  0.00    -0.550 OA
ATOM     16  O   UNL     1     -14.303  -6.359   0.996  1.00  0.00    -0.550 OA
ENDBRANCH  13  14
ENDBRANCH  12  13
ENDBRANCH  11  12
ENDBRANCH  10  11
ENDBRANCH   9  10
ENDBRANCH   8   9
ENDBRANCH   7   8
ENDBRANCH   6   7
ENDBRANCH   5   6
ENDBRANCH   4   5
ENDBRANCH   3   4
ENDBRANCH   2   3
ENDBRANCH   1   2
BRANCH   1  17
ATOM     17  C   UNL     1     -13.933 -16.189   1.865  1.00  0.00     0.000 C 
BRANCH  17  18
ATOM     18  C   UNL     1     -12.740 -17.165   1.830  1.00  0.00     0.000 C 
BRANCH  18  19
ATOM     19  C   UNL     1     -13.130 -18.584   2.278  1.00  0.00     0.000 C 
BRANCH  19  20
ATOM     20  C   UNL     1     -12.194 -19.166   3.354  1.00  0.00     0.000 C 
BRANCH  20  21
ATOM     21  C   UNL     1     -12.223 -18.356   4.658  1.00  0.00     0.000 C 
BRANCH  21  22
ATOM     22  C   UNL     1     -12.996 -19.108   5.750  1.00  0.00    -0.000 C 
BRANCH  22  23
ATOM     23  C   UNL     1     -14.395 -18.517   6.007  1.00  0.00    -0.000 C 
BRANCH  23  24
ATOM     24  C   UNL     1     -15.517 -19.085   5.115  1.00  0.00    -0.000 C 
BRANCH  24  25
ATOM     25  C   UNL     1     -15.470 -20.608   4.906  1.00  0.00    -0.000 C 
BRANCH  25  26
ATOM     26  C   UNL     1     -15.835 -21.024   3.471  1.00  0.00    -0.000 C 
BRANCH  26  27
ATOM     27  C   UNL     1     -15.071 -22.277   3.005  1.00  0.00    -0.000 C 
BRANCH  27  28
ATOM     28  C   UNL     1     -13.562 -22.260   3.314  1.00  0.00    -0.000 C 
BRANCH  28  29
ATOM     29  C   UNL     1     -13.133 -23.401   4.251  1.00  0.00    -0.003 C 
ATOM     30  C   UNL     1     -13.729 -24.733   3.804  1.00  0.00     0.004 C 
ENDBRANCH  28  29
ENDBRANCH  27  28
ENDBRANCH  26  27
ENDBRANCH  25  26
ENDBRANCH  24  25
ENDBRANCH  23  24
ENDBRANCH  22  23
ENDBRANCH  21  22
ENDBRANCH  20  21
ENDBRANCH  19  20
ENDBRANCH  18  19
ENDBRANCH  17  18
ENDBRANCH   1  17
TORSDOF 26
ENDMDL
MODEL 6
REMARK VINA RESULT:    -2.573      1.891      6.247
REMARK INTER + INTRA:         -10.063
REMARK INTER:                  -6.444
REMARK INTRA:                  -3.619
REMARK UNBOUND:                -3.578
REMARK SMILES CCCCCCCCCCCCCCCCCCCCCCCCCCCC(=O)[O-]
REMARK SMILES IDX 15 1 16 2 17 3 18 4 19 5 20 6 21 7 22 8 23 9 24 10 25 11
REMARK SMILES IDX 26 12 27 13 28 14 29 15 30 16 14 17 13 18 12 19 11 20 10 21
REMARK SMILES IDX 9 22 8 23 7 24 6 25 5 26 4 27 3 28 2 29 1 30
REMARK H PARENT
REMARK Flexibility Score: inf
ROOT
ATOM      1  C   UNL     1     -12.851 -11.380   4.622  1.00  0.00     0.000 C 
ENDROOT
BRANCH   1   2
ATOM      2  C   UNL     1     -13.362 -12.725   5.191  1.00  0.00     0.000 C 
BRANCH   2   3
ATOM      3  C   UNL     1     -14.735 -12.673   5.897  1.00  0.00     0.000 C 
BRANCH   3   4
ATOM      4  C   UNL     1     -15.570 -13.957   5.747  1.00  0.00     0.000 C 
BRANCH   4   5
ATOM      5  C   UNL     1     -15.032 -14.886   4.643  1.00  0.00     0.000 C 
BRANCH   5   6
ATOM      6  C   UNL     1     -16.047 -15.947   4.186  1.00  0.00     0.000 C 
BRANCH   6   7
ATOM      7  C   UNL     1     -15.603 -17.407   4.414  1.00  0.00     0.000 C 
BRANCH   7   8
ATOM      8  C   UNL     1     -15.053 -17.739   5.819  1.00  0.00     0.000 C 
BRANCH   8   9
ATOM      9  C   UNL     1     -14.064 -18.917   5.894  1.00  0.00     0.000 C 
BRANCH   9  10
ATOM     10  C   UNL     1     -14.645 -20.232   5.348  1.00  0.00     0.000 C 
BRANCH  10  11
ATOM     11  C   UNL     1     -13.821 -21.467   5.755  1.00  0.00     0.000 C 
BRANCH  11  12
ATOM     12  C   UNL     1     -14.115 -22.748   4.946  1.00  0.00     0.006 C 
BRANCH  12  13
ATOM     13  C   UNL     1     -12.947 -23.238   4.076  1.00  0.00     0.053 C 
BRANCH  13  14
ATOM     14  C   UNL     1     -13.410 -24.114   2.951  1.00  0.00     0.041 C 
ATOM     15  O   UNL     1     -12.702 -24.247   1.920  1.00  0.00    -0.550 OA
ATOM     16  O   UNL     1     -14.609 -24.811   3.057  1.00  0.00    -0.550 OA
ENDBRANCH  13  14
ENDBRANCH  12  13
ENDBRANCH  11  12
ENDBRANCH  10  11
ENDBRANCH   9  10
ENDBRANCH   8   9
ENDBRANCH   7   8
ENDBRANCH   6   7
ENDBRANCH   5   6
ENDBRANCH   4   5
ENDBRANCH   3   4
ENDBRANCH   2   3
ENDBRANCH   1   2
BRANCH   1  17
ATOM     17  C   UNL     1     -13.901 -10.253   4.587  1.00  0.00     0.000 C 
BRANCH  17  18
ATOM     18  C   UNL     1     -13.961  -9.533   3.224  1.00  0.00     0.000 C 
BRANCH  18  19
ATOM     19  C   UNL     1     -15.322  -9.711   2.528  1.00  0.00     0.000 C 
BRANCH  19  20
ATOM     20  C   UNL     1     -15.917 -11.121   2.700  1.00  0.00     0.000 C 
BRANCH  20  21
ATOM     21  C   UNL     1     -15.605 -12.041   1.511  1.00  0.00     0.000 C 
BRANCH  21  22
ATOM     22  C   UNL     1     -14.241 -11.695   0.897  1.00  0.00    -0.000 C 
BRANCH  22  23
ATOM     23  C   UNL     1     -13.218 -12.838   1.032  1.00  0.00    -0.000 C 
BRANCH  23  24
ATOM     24  C   UNL     1     -13.805 -14.258   0.903  1.00  0.00    -0.000 C 
BRANCH  24  25
ATOM     25  C   UNL     1     -12.771 -15.394   0.967  1.00  0.00    -0.000 C 
BRANCH  25  26
ATOM     26  C   UNL     1     -13.257 -16.596   1.794  1.00  0.00    -0.000 C 
BRANCH  26  27
ATOM     27  C   UNL     1     -12.414 -17.862   1.553  1.00  0.00    -0.000 C 
BRANCH  27  28
ATOM     28  C   UNL     1     -12.566 -18.949   2.633  1.00  0.00    -0.000 C 
BRANCH  28  29
ATOM     29  C   UNL     1     -13.084 -20.282   2.069  1.00  0.00    -0.003 C 
ATOM     30  C   UNL     1     -12.247 -20.735   0.875  1.00  0.00     0.004 C 
ENDBRANCH  28  29
ENDBRANCH  27  28
ENDBRANCH  26  27
ENDBRANCH  25  26
ENDBRANCH  24  25
ENDBRANCH  23  24
ENDBRANCH  22  23
ENDBRANCH  21  22
ENDBRANCH  20  21
ENDBRANCH  19  20
ENDBRANCH  18  19
ENDBRANCH  17  18
ENDBRANCH   1  17
TORSDOF 26
ENDMDL
MODEL 7
REMARK VINA RESULT:    -2.544      4.633     11.380
REMARK INTER + INTRA:          -9.990
REMARK INTER:                  -6.906
REMARK INTRA:                  -3.084
REMARK UNBOUND:                -3.578
REMARK SMILES CCCCCCCCCCCCCCCCCCCCCCCCCCCC(=O)[O-]
REMARK SMILES IDX 15 1 16 2 17 3 18 4 19 5 20 6 21 7 22 8 23 9 24 10 25 11
REMARK SMILES IDX 26 12 27 13 28 14 29 15 30 16 14 17 13 18 12 19 11 20 10 21
REMARK SMILES IDX 9 22 8 23 7 24 6 25 5 26 4 27 3 28 2 29 1 30
REMARK H PARENT
REMARK Flexibility Score: inf
ROOT
ATOM      1  C   UNL     1     -14.277 -16.167   3.707  1.00  0.00     0.000 C 
ENDROOT
BRANCH   1   2
ATOM      2  C   UNL     1     -14.881 -14.748   3.826  1.00  0.00     0.000 C 
BRANCH   2   3
ATOM      3  C   UNL     1     -14.000 -13.599   3.286  1.00  0.00     0.000 C 
BRANCH   3   4
ATOM      4  C   UNL     1     -14.528 -12.954   1.992  1.00  0.00     0.000 C 
BRANCH   4   5
ATOM      5  C   UNL     1     -13.536 -11.946   1.386  1.00  0.00     0.000 C 
BRANCH   5   6
ATOM      6  C   UNL     1     -13.885 -10.480   1.694  1.00  0.00     0.000 C 
BRANCH   6   7
ATOM      7  C   UNL     1     -15.344 -10.242   2.134  1.00  0.00     0.000 C 
BRANCH   7   8
ATOM      8  C   UNL     1     -15.580 -10.087   3.653  1.00  0.00     0.000 C 
BRANCH   8   9
ATOM      9  C   UNL     1     -14.313 -10.019   4.527  1.00  0.00     0.000 C 
BRANCH   9  10
ATOM     10  C   UNL     1     -13.707  -8.608   4.608  1.00  0.00     0.000 C 
BRANCH  10  11
ATOM     11  C   UNL     1     -14.768  -7.494   4.531  1.00  0.00     0.000 C 
BRANCH  11  12
ATOM     12  C   UNL     1     -14.207  -6.059   4.435  1.00  0.00     0.006 C 
BRANCH  12  13
ATOM     13  C   UNL     1     -14.290  -5.431   3.035  1.00  0.00     0.053 C 
BRANCH  13  14
ATOM     14  C   UNL     1     -14.264  -6.466   1.951  1.00  0.00     0.041 C 
ATOM     15  O   UNL     1     -15.330  -6.806   1.376  1.00  0.00    -0.550 OA
ATOM     16  O   UNL     1     -13.057  -7.027   1.550  1.00  0.00    -0.550 OA
ENDBRANCH  13  14
ENDBRANCH  12  13
ENDBRANCH  11  12
ENDBRANCH  10  11
ENDBRANCH   9  10
ENDBRANCH   8   9
ENDBRANCH   7   8
ENDBRANCH   6   7
ENDBRANCH   5   6
ENDBRANCH   4   5
ENDBRANCH   3   4
ENDBRANCH   2   3
ENDBRANCH   1   2
BRANCH   1  17
ATOM     17  C   UNL     1     -13.259 -16.342   2.564  1.00  0.00     0.000 C 
BRANCH  17  18
ATOM     18  C   UNL     1     -13.092 -17.813   2.131  1.00  0.00     0.000 C 
BRANCH  18  19
ATOM     19  C   UNL     1     -14.374 -18.636   2.346  1.00  0.00     0.000 C 
BRANCH  19  20
ATOM     20  C   UNL     1     -14.337 -20.015   1.662  1.00  0.00     0.000 C 
BRANCH  20  21
ATOM     21  C   UNL     1     -13.002 -20.743   1.877  1.00  0.00     0.000 C 
BRANCH  21  22
ATOM     22  C   UNL     1     -13.206 -22.265   1.881  1.00  0.00    -0.000 C 
BRANCH  22  23
ATOM     23  C   UNL     1     -12.934 -22.900   3.257  1.00  0.00    -0.000 C 
BRANCH  23  24
ATOM     24  C   UNL     1     -14.194 -23.319   4.042  1.00  0.00    -0.000 C 
BRANCH  24  25
ATOM     25  C   UNL     1     -14.420 -22.555   5.359  1.00  0.00    -0.000 C 
BRANCH  25  26
ATOM     26  C   UNL     1     -14.672 -21.054   5.140  1.00  0.00    -0.000 C 
BRANCH  26  27
ATOM     27  C   UNL     1     -13.554 -20.174   5.729  1.00  0.00    -0.000 C 
BRANCH  27  28
ATOM     28  C   UNL     1     -13.987 -18.738   6.080  1.00  0.00    -0.000 C 
BRANCH  28  29
ATOM     29  C   UNL     1     -15.509 -18.597   6.239  1.00  0.00    -0.003 C 
ATOM     30  C   UNL     1     -15.870 -17.289   6.938  1.00  0.00     0.004 C 
ENDBRANCH  28  29
ENDBRANCH  27  28
ENDBRANCH  26  27
ENDBRANCH  25  26
ENDBRANCH  24  25
ENDBRANCH  23  24
ENDBRANCH  22  23
ENDBRANCH  21  22
ENDBRANCH  20  21
ENDBRANCH  19  20
ENDBRANCH  18  19
ENDBRANCH  17  18
ENDBRANCH   1  17
TORSDOF 26
ENDMDL
MODEL 8
REMARK VINA RESULT:    -2.449      4.678     11.084
REMARK INTER + INTRA:          -9.751
REMARK INTER:                  -6.883
REMARK INTRA:                  -2.867
REMARK UNBOUND:                -3.578
REMARK SMILES CCCCCCCCCCCCCCCCCCCCCCCCCCCC(=O)[O-]
REMARK SMILES IDX 15 1 16 2 17 3 18 4 19 5 20 6 21 7 22 8 23 9 24 10 25 11
REMARK SMILES IDX 26 12 27 13 28 14 29 15 30 16 14 17 13 18 12 19 11 20 10 21
REMARK SMILES IDX 9 22 8 23 7 24 6 25 5 26 4 27 3 28 2 29 1 30
REMARK H PARENT
REMARK Flexibility Score: inf
ROOT
ATOM      1  C   UNL     1     -11.609 -19.137   2.203  1.00  0.00     0.000 C 
ENDROOT
BRANCH   1   2
ATOM      2  C   UNL     1     -12.669 -18.151   2.746  1.00  0.00     0.000 C 
BRANCH   2   3
ATOM      3  C   UNL     1     -13.991 -18.084   1.948  1.00  0.00     0.000 C 
BRANCH   3   4
ATOM      4  C   UNL     1     -14.474 -16.654   1.648  1.00  0.00     0.000 C 
BRANCH   4   5
ATOM      5  C   UNL     1     -13.310 -15.666   1.452  1.00  0.00     0.000 C 
BRANCH   5   6
ATOM      6  C   UNL     1     -13.452 -14.377   2.278  1.00  0.00     0.000 C 
BRANCH   6   7
ATOM      7  C   UNL     1     -14.758 -14.274   3.095  1.00  0.00     0.000 C 
BRANCH   7   8
ATOM      8  C   UNL     1     -14.953 -12.971   3.901  1.00  0.00     0.000 C 
BRANCH   8   9
ATOM      9  C   UNL     1     -13.888 -12.677   4.974  1.00  0.00     0.000 C 
BRANCH   9  10
ATOM     10  C   UNL     1     -12.850 -11.634   4.528  1.00  0.00     0.000 C 
BRANCH  10  11
ATOM     11  C   UNL     1     -13.390 -10.671   3.455  1.00  0.00     0.000 C 
BRANCH  11  12
ATOM     12  C   UNL     1     -14.391  -9.613   3.967  1.00  0.00     0.006 C 
BRANCH  12  13
ATOM     13  C   UNL     1     -13.745  -8.389   4.635  1.00  0.00     0.053 C 
BRANCH  13  14
ATOM     14  C   UNL     1     -14.206  -7.102   4.022  1.00  0.00     0.041 C 
ATOM     15  O   UNL     1     -14.132  -6.932   2.777  1.00  0.00    -0.550 OA
ATOM     16  O   UNL     1     -14.752  -6.104   4.821  1.00  0.00    -0.550 OA
ENDBRANCH  13  14
ENDBRANCH  12  13
ENDBRANCH  11  12
ENDBRANCH  10  11
ENDBRANCH   9  10
ENDBRANCH   8   9
ENDBRANCH   7   8
ENDBRANCH   6   7
ENDBRANCH   5   6
ENDBRANCH   4   5
ENDBRANCH   3   4
ENDBRANCH   2   3
ENDBRANCH   1   2
BRANCH   1  17
ATOM     17  C   UNL     1     -11.993 -19.837   0.885  1.00  0.00     0.000 C 
BRANCH  17  18
ATOM     18  C   UNL     1     -11.630 -21.336   0.875  1.00  0.00     0.000 C 
BRANCH  18  19
ATOM     19  C   UNL     1     -12.398 -22.131   1.946  1.00  0.00     0.000 C 
BRANCH  19  20
ATOM     20  C   UNL     1     -13.686 -22.787   1.414  1.00  0.00     0.000 C 
BRANCH  20  21
ATOM     21  C   UNL     1     -13.908 -24.195   1.986  1.00  0.00     0.000 C 
BRANCH  21  22
ATOM     22  C   UNL     1     -15.407 -24.497   2.125  1.00  0.00    -0.000 C 
BRANCH  22  23
ATOM     23  C   UNL     1     -15.961 -24.140   3.517  1.00  0.00    -0.000 C 
BRANCH  23  24
ATOM     24  C   UNL     1     -14.894 -23.804   4.578  1.00  0.00    -0.000 C 
BRANCH  24  25
ATOM     25  C   UNL     1     -15.159 -22.518   5.378  1.00  0.00    -0.000 C 
BRANCH  25  26
ATOM     26  C   UNL     1     -14.996 -21.245   4.530  1.00  0.00    -0.000 C 
BRANCH  26  27
ATOM     27  C   UNL     1     -13.718 -20.461   4.876  1.00  0.00    -0.000 C 
BRANCH  27  28
ATOM     28  C   UNL     1     -13.837 -19.555   6.116  1.00  0.00    -0.000 C 
BRANCH  28  29
ATOM     29  C   UNL     1     -14.589 -18.245   5.825  1.00  0.00    -0.003 C 
ATOM     30  C   UNL     1     -15.397 -17.794   7.039  1.00  0.00     0.004 C 
ENDBRANCH  28  29
ENDBRANCH  27  28
ENDBRANCH  26  27
ENDBRANCH  25  26
ENDBRANCH  24  25
ENDBRANCH  23  24
ENDBRANCH  22  23
ENDBRANCH  21  22
ENDBRANCH  20  21
ENDBRANCH  19  20
ENDBRANCH  18  19
ENDBRANCH  17  18
ENDBRANCH   1  17
TORSDOF 26
ENDMDL
MODEL 9
REMARK VINA RESULT:    -2.008      4.778     10.785
REMARK INTER + INTRA:          -8.640
REMARK INTER:                  -5.086
REMARK INTRA:                  -3.554
REMARK UNBOUND:                -3.578
REMARK SMILES CCCCCCCCCCCCCCCCCCCCCCCCCCCC(=O)[O-]
REMARK SMILES IDX 15 1 16 2 17 3 18 4 19 5 20 6 21 7 22 8 23 9 24 10 25 11
REMARK SMILES IDX 26 12 27 13 28 14 29 15 30 16 14 17 13 18 12 19 11 20 10 21
REMARK SMILES IDX 9 22 8 23 7 24 6 25 5 26 4 27 3 28 2 29 1 30
REMARK H PARENT
REMARK Flexibility Score: inf
ROOT
ATOM      1  C   UNL     1     -14.765 -16.380   4.989  1.00  0.00     0.000 C 
ENDROOT
BRANCH   1   2
ATOM      2  C   UNL     1     -15.471 -15.235   5.751  1.00  0.00     0.000 C 
BRANCH   2   3
ATOM      3  C   UNL     1     -15.330 -13.828   5.127  1.00  0.00     0.000 C 
BRANCH   3   4
ATOM      4  C   UNL     1     -14.091 -13.049   5.603  1.00  0.00     0.000 C 
BRANCH   4   5
ATOM      5  C   UNL     1     -13.773 -11.839   4.707  1.00  0.00     0.000 C 
BRANCH   5   6
ATOM      6  C   UNL     1     -12.483 -12.004   3.888  1.00  0.00     0.000 C 
BRANCH   6   7
ATOM      7  C   UNL     1     -12.695 -12.471   2.433  1.00  0.00     0.000 C 
BRANCH   7   8
ATOM      8  C   UNL     1     -14.163 -12.654   1.985  1.00  0.00     0.000 C 
BRANCH   8   9
ATOM      9  C   UNL     1     -14.677 -11.648   0.938  1.00  0.00     0.000 C 
BRANCH   9  10
ATOM     10  C   UNL     1     -14.113 -10.230   1.131  1.00  0.00     0.000 C 
BRANCH  10  11
ATOM     11  C   UNL     1     -15.176  -9.221   1.599  1.00  0.00     0.000 C 
BRANCH  11  12
ATOM     12  C   UNL     1     -15.108  -8.840   3.094  1.00  0.00     0.006 C 
BRANCH  12  13
ATOM     13  C   UNL     1     -13.817  -8.120   3.514  1.00  0.00     0.053 C 
BRANCH  13  14
ATOM     14  C   UNL     1     -13.838  -6.666   3.150  1.00  0.00     0.041 C 
ATOM     15  O   UNL     1     -13.917  -6.317   1.944  1.00  0.00    -0.550 OA
ATOM     16  O   UNL     1     -13.807  -5.698   4.147  1.00  0.00    -0.550 OA
ENDBRANCH  13  14
ENDBRANCH  12  13
ENDBRANCH  11  12
ENDBRANCH  10  11
ENDBRANCH   9  10
ENDBRANCH   8   9
ENDBRANCH   7   8
ENDBRANCH   6   7
ENDBRANCH   5   6
ENDBRANCH   4   5
ENDBRANCH   3   4
ENDBRANCH   2   3
ENDBRANCH   1   2
BRANCH   1  17
ATOM     17  C   UNL     1     -15.714 -17.374   4.293  1.00  0.00     0.000 C 
BRANCH  17  18
ATOM     18  C   UNL     1     -15.543 -17.393   2.760  1.00  0.00     0.000 C 
BRANCH  18  19
ATOM     19  C   UNL     1     -14.064 -17.453   2.337  1.00  0.00     0.000 C 
BRANCH  19  20
ATOM     20  C   UNL     1     -13.752 -18.612   1.371  1.00  0.00     0.000 C 
BRANCH  20  21
ATOM     21  C   UNL     1     -14.895 -19.634   1.289  1.00  0.00     0.000 C 
BRANCH  21  22
ATOM     22  C   UNL     1     -14.364 -21.013   0.875  1.00  0.00    -0.000 C 
BRANCH  22  23
ATOM     23  C   UNL     1     -13.374 -21.604   1.896  1.00  0.00    -0.000 C 
BRANCH  23  24
ATOM     24  C   UNL     1     -14.015 -22.459   3.008  1.00  0.00    -0.000 C 
BRANCH  24  25
ATOM     25  C   UNL     1     -15.429 -22.021   3.427  1.00  0.00    -0.000 C 
BRANCH  25  26
ATOM     26  C   UNL     1     -15.433 -21.162   4.702  1.00  0.00    -0.000 C 
BRANCH  26  27
ATOM     27  C   UNL     1     -14.094 -21.219   5.459  1.00  0.00    -0.000 C 
BRANCH  27  28
ATOM     28  C   UNL     1     -13.425 -19.850   5.682  1.00  0.00    -0.000 C 
BRANCH  28  29
ATOM     29  C   UNL     1     -12.373 -19.520   4.610  1.00  0.00    -0.003 C 
ATOM     30  C   UNL     1     -11.445 -18.401   5.077  1.00  0.00     0.004 C 
ENDBRANCH  28  29
ENDBRANCH  27  28
ENDBRANCH  26  27
ENDBRANCH  25  26
ENDBRANCH  24  25
ENDBRANCH  23  24
ENDBRANCH  22  23
ENDBRANCH  21  22
ENDBRANCH  20  21
ENDBRANCH  19  20
ENDBRANCH  18  19
ENDBRANCH  17  18
ENDBRANCH   1  17
TORSDOF 26
ENDMDL
