MODEL 1
REMARK VINA RESULT:    -4.858      0.000      0.000
REMARK INTER + INTRA:         -14.234
REMARK INTER:                 -10.537
REMARK INTRA:                  -3.696
REMARK UNBOUND:                -3.696
REMARK SMILES CCCCCCCCCCCCCCCCCCCCCC(=O)[O-]
REMARK SMILES IDX 12 1 11 2 10 3 9 4 8 5 7 6 6 7 5 8 4 9 3 10 2 11 1 12 13 13
REMARK SMILES IDX 14 14 15 15 16 16 17 17 18 18 19 19 20 20 21 21 22 22 23 23
REMARK SMILES IDX 24 24
REMARK H PARENT
REMARK Flexibility Score: inf
ROOT
ATOM      1  C   UNL     1      17.328 -30.808  23.553  1.00  0.00     0.000 C 
ENDROOT
BRANCH   1   2
ATOM      2  C   UNL     1      17.865 -30.173  22.257  1.00  0.00     0.000 C 
BRANCH   2   3
ATOM      3  C   UNL     1      17.754 -31.121  21.043  1.00  0.00     0.000 C 
BRANCH   3   4
ATOM      4  C   UNL     1      18.938 -32.098  20.897  1.00  0.00    -0.000 C 
BRANCH   4   5
ATOM      5  C   UNL     1      18.547 -33.580  20.765  1.00  0.00    -0.000 C 
BRANCH   5   6
ATOM      6  C   UNL     1      18.276 -33.999  19.312  1.00  0.00    -0.000 C 
BRANCH   6   7
ATOM      7  C   UNL     1      16.809 -34.421  19.125  1.00  0.00    -0.000 C 
BRANCH   7   8
ATOM      8  C   UNL     1      16.463 -35.725  19.870  1.00  0.00    -0.000 C 
BRANCH   8   9
ATOM      9  C   UNL     1      17.241 -36.960  19.375  1.00  0.00    -0.000 C 
BRANCH   9  10
ATOM     10  C   UNL     1      18.000 -37.699  20.502  1.00  0.00    -0.000 C 
BRANCH  10  11
ATOM     11  C   UNL     1      18.085 -36.896  21.810  1.00  0.00    -0.003 C 
ATOM     12  C   UNL     1      19.483 -36.908  22.424  1.00  0.00     0.004 C 
ENDBRANCH  10  11
ENDBRANCH   9  10
ENDBRANCH   8   9
ENDBRANCH   7   8
ENDBRANCH   6   7
ENDBRANCH   5   6
ENDBRANCH   4   5
ENDBRANCH   3   4
ENDBRANCH   2   3
ENDBRANCH   1   2
BRANCH   1  13
ATOM     13  C   UNL     1      18.441 -31.397  24.433  1.00  0.00     0.000 C 
BRANCH  13  14
ATOM     14  C   UNL     1      18.217 -32.882  24.759  1.00  0.00     0.000 C 
BRANCH  14  15
ATOM     15  C   UNL     1      16.724 -33.239  24.691  1.00  0.00     0.000 C 
BRANCH  15  16
ATOM     16  C   UNL     1      16.420 -34.358  23.679  1.00  0.00     0.000 C 
BRANCH  16  17
ATOM     17  C   UNL     1      15.321 -34.030  22.646  1.00  0.00     0.000 C 
BRANCH  17  18
ATOM     18  C   UNL     1      14.478 -32.780  22.954  1.00  0.00     0.000 C 
BRANCH  18  19
ATOM     19  C   UNL     1      14.263 -31.886  21.722  1.00  0.00     0.000 C 
BRANCH  19  20
ATOM     20  C   UNL     1      13.895 -30.438  22.094  1.00  0.00     0.006 C 
BRANCH  20  21
ATOM     21  C   UNL     1      13.525 -30.235  23.572  1.00  0.00     0.053 C 
BRANCH  21  22
ATOM     22  C   UNL     1      12.517 -29.142  23.756  1.00  0.00     0.041 C 
ATOM     23  O   UNL     1      11.455 -29.140  23.081  1.00  0.00    -0.550 OA
ATOM     24  O   UNL     1      12.733 -28.145  24.702  1.00  0.00    -0.550 OA
ENDBRANCH  21  22
ENDBRANCH  20  21
ENDBRANCH  19  20
ENDBRANCH  18  19
ENDBRANCH  17  18
ENDBRANCH  16  17
ENDBRANCH  15  16
ENDBRANCH  14  15
ENDBRANCH  13  14
ENDBRANCH   1  13
TORSDOF 20
ENDMDL
MODEL 2
REMARK VINA RESULT:    -4.711      4.111      6.887
REMARK INTER + INTRA:         -13.914
REMARK INTER:                 -11.254
REMARK INTRA:                  -2.660
REMARK UNBOUND:                -3.696
REMARK SMILES CCCCCCCCCCCCCCCCCCCCCC(=O)[O-]
REMARK SMILES IDX 12 1 11 2 10 3 9 4 8 5 7 6 6 7 5 8 4 9 3 10 2 11 1 12 13 13
REMARK SMILES IDX 14 14 15 15 16 16 17 17 18 18 19 19 20 20 21 21 22 22 23 23
REMARK SMILES IDX 24 24
REMARK H PARENT
REMARK Flexibility Score: inf
ROOT
ATOM      1  C   UNL     1      17.004 -30.138  21.663  1.00  0.00     0.000 C 
ENDROOT
BRANCH   1   2
ATOM      2  C   UNL     1      17.550 -31.421  21.010  1.00  0.00     0.000 C 
BRANCH   2   3
ATOM      3  C   UNL     1      18.738 -32.023  21.791  1.00  0.00     0.000 C 
BRANCH   3   4
ATOM      4  C   UNL     1      20.036 -32.145  20.967  1.00  0.00    -0.000 C 
BRANCH   4   5
ATOM      5  C   UNL     1      21.202 -31.267  21.454  1.00  0.00    -0.000 C 
BRANCH   5   6
ATOM      6  C   UNL     1      20.757 -29.855  21.863  1.00  0.00    -0.000 C 
BRANCH   6   7
ATOM      7  C   UNL     1      20.756 -28.906  20.653  1.00  0.00    -0.000 C 
BRANCH   7   8
ATOM      8  C   UNL     1      19.766 -27.736  20.812  1.00  0.00    -0.000 C 
BRANCH   8   9
ATOM      9  C   UNL     1      20.380 -26.348  20.536  1.00  0.00    -0.000 C 
BRANCH   9  10
ATOM     10  C   UNL     1      21.811 -26.187  21.098  1.00  0.00    -0.000 C 
BRANCH  10  11
ATOM     11  C   UNL     1      22.841 -25.770  20.036  1.00  0.00    -0.003 C 
ATOM     12  C   UNL     1      23.654 -26.948  19.503  1.00  0.00     0.004 C 
ENDBRANCH  10  11
ENDBRANCH   9  10
ENDBRANCH   8   9
ENDBRANCH   7   8
ENDBRANCH   6   7
ENDBRANCH   5   6
ENDBRANCH   4   5
ENDBRANCH   3   4
ENDBRANCH   2   3
ENDBRANCH   1   2
BRANCH   1  13
ATOM     13  C   UNL     1      16.875 -30.255  23.190  1.00  0.00     0.000 C 
BRANCH  13  14
ATOM     14  C   UNL     1      15.746 -31.204  23.620  1.00  0.00     0.000 C 
BRANCH  14  15
ATOM     15  C   UNL     1      14.387 -30.486  23.589  1.00  0.00     0.000 C 
BRANCH  15  16
ATOM     16  C   UNL     1      13.252 -31.375  23.049  1.00  0.00     0.000 C 
BRANCH  16  17
ATOM     17  C   UNL     1      12.816 -31.077  21.599  1.00  0.00     0.000 C 
BRANCH  17  18
ATOM     18  C   UNL     1      13.510 -31.920  20.515  1.00  0.00     0.000 C 
BRANCH  18  19
ATOM     19  C   UNL     1      14.330 -33.084  21.099  1.00  0.00     0.000 C 
BRANCH  19  20
ATOM     20  C   UNL     1      14.943 -33.983  20.010  1.00  0.00     0.006 C 
BRANCH  20  21
ATOM     21  C   UNL     1      15.981 -34.994  20.528  1.00  0.00     0.053 C 
BRANCH  21  22
ATOM     22  C   UNL     1      17.005 -35.334  19.489  1.00  0.00     0.041 C 
ATOM     23  O   UNL     1      17.718 -34.428  18.983  1.00  0.00    -0.550 OA
ATOM     24  O   UNL     1      17.198 -36.657  19.108  1.00  0.00    -0.550 OA
ENDBRANCH  21  22
ENDBRANCH  20  21
ENDBRANCH  19  20
ENDBRANCH  18  19
ENDBRANCH  17  18
ENDBRANCH  16  17
ENDBRANCH  15  16
ENDBRANCH  14  15
ENDBRANCH  13  14
ENDBRANCH   1  13
TORSDOF 20
ENDMDL
MODEL 3
REMARK VINA RESULT:    -4.679      3.013      6.420
REMARK INTER + INTRA:         -13.846
REMARK INTER:                 -10.682
REMARK INTRA:                  -3.164
REMARK UNBOUND:                -3.696
REMARK SMILES CCCCCCCCCCCCCCCCCCCCCC(=O)[O-]
REMARK SMILES IDX 12 1 11 2 10 3 9 4 8 5 7 6 6 7 5 8 4 9 3 10 2 11 1 12 13 13
REMARK SMILES IDX 14 14 15 15 16 16 17 17 18 18 19 19 20 20 21 21 22 22 23 23
REMARK SMILES IDX 24 24
REMARK H PARENT
REMARK Flexibility Score: inf
ROOT
ATOM      1  C   UNL     1      16.484 -34.643  23.671  1.00  0.00     0.000 C 
ENDROOT
BRANCH   1   2
ATOM      2  C   UNL     1      17.499 -35.408  22.803  1.00  0.00     0.000 C 
BRANCH   2   3
ATOM      3  C   UNL     1      17.453 -34.980  21.321  1.00  0.00     0.000 C 
BRANCH   3   4
ATOM      4  C   UNL     1      16.089 -35.211  20.640  1.00  0.00    -0.000 C 
BRANCH   4   5
ATOM      5  C   UNL     1      15.648 -34.101  19.671  1.00  0.00    -0.000 C 
BRANCH   5   6
ATOM      6  C   UNL     1      14.287 -33.491  20.039  1.00  0.00    -0.000 C 
BRANCH   6   7
ATOM      7  C   UNL     1      14.360 -32.757  21.388  1.00  0.00    -0.000 C 
BRANCH   7   8
ATOM      8  C   UNL     1      13.742 -31.346  21.335  1.00  0.00    -0.000 C 
BRANCH   8   9
ATOM      9  C   UNL     1      12.761 -31.043  22.486  1.00  0.00    -0.000 C 
BRANCH   9  10
ATOM     10  C   UNL     1      13.347 -30.095  23.557  1.00  0.00    -0.000 C 
BRANCH  10  11
ATOM     11  C   UNL     1      12.369 -28.995  24.001  1.00  0.00    -0.003 C 
ATOM     12  C   UNL     1      13.000 -27.604  23.997  1.00  0.00     0.004 C 
ENDBRANCH  10  11
ENDBRANCH   9  10
ENDBRANCH   8   9
ENDBRANCH   7   8
ENDBRANCH   6   7
ENDBRANCH   5   6
ENDBRANCH   4   5
ENDBRANCH   3   4
ENDBRANCH   2   3
ENDBRANCH   1   2
BRANCH   1  13
ATOM     13  C   UNL     1      17.096 -34.110  24.975  1.00  0.00     0.000 C 
BRANCH  13  14
ATOM     14  C   UNL     1      17.698 -32.704  24.819  1.00  0.00     0.000 C 
BRANCH  14  15
ATOM     15  C   UNL     1      16.820 -31.833  23.907  1.00  0.00     0.000 C 
BRANCH  15  16
ATOM     16  C   UNL     1      17.623 -30.761  23.147  1.00  0.00     0.000 C 
BRANCH  16  17
ATOM     17  C   UNL     1      17.277 -30.619  21.650  1.00  0.00     0.000 C 
BRANCH  17  18
ATOM     18  C   UNL     1      18.178 -31.411  20.686  1.00  0.00     0.000 C 
BRANCH  18  19
ATOM     19  C   UNL     1      19.459 -31.932  21.360  1.00  0.00     0.000 C 
BRANCH  19  20
ATOM     20  C   UNL     1      20.717 -31.161  20.921  1.00  0.00     0.006 C 
BRANCH  20  21
ATOM     21  C   UNL     1      21.040 -29.926  21.778  1.00  0.00     0.053 C 
BRANCH  21  22
ATOM     22  C   UNL     1      20.898 -28.650  21.006  1.00  0.00     0.041 C 
ATOM     23  O   UNL     1      21.906 -27.929  20.785  1.00  0.00    -0.550 OA
ATOM     24  O   UNL     1      19.659 -28.276  20.499  1.00  0.00    -0.550 OA
ENDBRANCH  21  22
ENDBRANCH  20  21
ENDBRANCH  19  20
ENDBRANCH  18  19
ENDBRANCH  17  18
ENDBRANCH  16  17
ENDBRANCH  15  16
ENDBRANCH  14  15
ENDBRANCH  13  14
ENDBRANCH   1  13
TORSDOF 20
ENDMDL
MODEL 4
REMARK VINA RESULT:    -4.677      3.256      6.683
REMARK INTER + INTRA:         -13.843
REMARK INTER:                 -10.403
REMARK INTRA:                  -3.439
REMARK UNBOUND:                -3.696
REMARK SMILES CCCCCCCCCCCCCCCCCCCCCC(=O)[O-]
REMARK SMILES IDX 12 1 11 2 10 3 9 4 8 5 7 6 6 7 5 8 4 9 3 10 2 11 1 12 13 13
REMARK SMILES IDX 14 14 15 15 16 16 17 17 18 18 19 19 20 20 21 21 22 22 23 23
REMARK SMILES IDX 24 24
REMARK H PARENT
REMARK Flexibility Score: inf
ROOT
ATOM      1  C   UNL     1      15.059 -33.753  21.672  1.00  0.00     0.000 C 
ENDROOT
BRANCH   1   2
ATOM      2  C   UNL     1      15.726 -34.085  23.018  1.00  0.00     0.000 C 
BRANCH   2   3
ATOM      3  C   UNL     1      15.306 -33.113  24.143  1.00  0.00     0.000 C 
BRANCH   3   4
ATOM      4  C   UNL     1      13.905 -32.499  23.953  1.00  0.00    -0.000 C 
BRANCH   4   5
ATOM      5  C   UNL     1      13.874 -30.964  23.856  1.00  0.00    -0.000 C 
BRANCH   5   6
ATOM      6  C   UNL     1      13.564 -30.461  22.437  1.00  0.00    -0.000 C 
BRANCH   6   7
ATOM      7  C   UNL     1      14.859 -30.208  21.648  1.00  0.00    -0.000 C 
BRANCH   7   8
ATOM      8  C   UNL     1      15.992 -29.638  22.524  1.00  0.00    -0.000 C 
BRANCH   8   9
ATOM      9  C   UNL     1      17.311 -30.433  22.447  1.00  0.00    -0.000 C 
BRANCH   9  10
ATOM     10  C   UNL     1      17.561 -31.073  21.062  1.00  0.00    -0.000 C 
BRANCH  10  11
ATOM     11  C   UNL     1      18.929 -31.765  20.946  1.00  0.00    -0.003 C 
ATOM     12  C   UNL     1      19.105 -32.903  21.948  1.00  0.00     0.004 C 
ENDBRANCH  10  11
ENDBRANCH   9  10
ENDBRANCH   8   9
ENDBRANCH   7   8
ENDBRANCH   6   7
ENDBRANCH   5   6
ENDBRANCH   4   5
ENDBRANCH   3   4
ENDBRANCH   2   3
ENDBRANCH   1   2
BRANCH   1  13
ATOM     13  C   UNL     1      15.362 -34.794  20.583  1.00  0.00     0.000 C 
BRANCH  13  14
ATOM     14  C   UNL     1      16.421 -34.314  19.579  1.00  0.00     0.000 C 
BRANCH  14  15
ATOM     15  C   UNL     1      17.540 -35.356  19.424  1.00  0.00     0.000 C 
BRANCH  15  16
ATOM     16  C   UNL     1      17.091 -36.778  19.804  1.00  0.00     0.000 C 
BRANCH  16  17
ATOM     17  C   UNL     1      17.954 -37.475  20.878  1.00  0.00     0.000 C 
BRANCH  17  18
ATOM     18  C   UNL     1      18.838 -36.540  21.722  1.00  0.00     0.000 C 
BRANCH  18  19
ATOM     19  C   UNL     1      18.360 -36.422  23.179  1.00  0.00     0.000 C 
BRANCH  19  20
ATOM     20  C   UNL     1      19.188 -37.286  24.148  1.00  0.00     0.006 C 
BRANCH  20  21
ATOM     21  C   UNL     1      19.229 -36.762  25.594  1.00  0.00     0.053 C 
BRANCH  21  22
ATOM     22  C   UNL     1      17.905 -36.898  26.281  1.00  0.00     0.041 C 
ATOM     23  O   UNL     1      17.753 -37.743  27.201  1.00  0.00    -0.550 OA
ATOM     24  O   UNL     1      16.848 -36.064  25.932  1.00  0.00    -0.550 OA
ENDBRANCH  21  22
ENDBRANCH  20  21
ENDBRANCH  19  20
ENDBRANCH  18  19
ENDBRANCH  17  18
ENDBRANCH  16  17
ENDBRANCH  15  16
ENDBRANCH  14  15
ENDBRANCH  13  14
ENDBRANCH   1  13
TORSDOF 20
ENDMDL
MODEL 5
REMARK VINA RESULT:    -4.624      1.208      4.634
REMARK INTER + INTRA:         -13.727
REMARK INTER:                 -10.211
REMARK INTRA:                  -3.517
REMARK UNBOUND:                -3.696
REMARK SMILES CCCCCCCCCCCCCCCCCCCCCC(=O)[O-]
REMARK SMILES IDX 12 1 11 2 10 3 9 4 8 5 7 6 6 7 5 8 4 9 3 10 2 11 1 12 13 13
REMARK SMILES IDX 14 14 15 15 16 16 17 17 18 18 19 19 20 20 21 21 22 22 23 23
REMARK SMILES IDX 24 24
REMARK H PARENT
REMARK Flexibility Score: inf
ROOT
ATOM      1  C   UNL     1      18.490 -35.765  21.974  1.00  0.00     0.000 C 
ENDROOT
BRANCH   1   2
ATOM      2  C   UNL     1      18.909 -36.141  23.407  1.00  0.00     0.000 C 
BRANCH   2   3
ATOM      3  C   UNL     1      18.017 -35.477  24.477  1.00  0.00     0.000 C 
BRANCH   3   4
ATOM      4  C   UNL     1      16.725 -34.848  23.919  1.00  0.00    -0.000 C 
BRANCH   4   5
ATOM      5  C   UNL     1      16.527 -33.359  24.254  1.00  0.00    -0.000 C 
BRANCH   5   6
ATOM      6  C   UNL     1      17.822 -32.674  24.718  1.00  0.00    -0.000 C 
BRANCH   6   7
ATOM      7  C   UNL     1      18.301 -31.644  23.681  1.00  0.00    -0.000 C 
BRANCH   7   8
ATOM      8  C   UNL     1      17.499 -31.703  22.366  1.00  0.00    -0.000 C 
BRANCH   8   9
ATOM      9  C   UNL     1      18.372 -31.730  21.095  1.00  0.00    -0.000 C 
BRANCH   9  10
ATOM     10  C   UNL     1      19.803 -32.257  21.345  1.00  0.00    -0.000 C 
BRANCH  10  11
ATOM     11  C   UNL     1      20.902 -31.278  20.900  1.00  0.00    -0.003 C 
ATOM     12  C   UNL     1      20.557 -29.822  21.203  1.00  0.00     0.004 C 
ENDBRANCH  10  11
ENDBRANCH   9  10
ENDBRANCH   8   9
ENDBRANCH   7   8
ENDBRANCH   6   7
ENDBRANCH   5   6
ENDBRANCH   4   5
ENDBRANCH   3   4
ENDBRANCH   2   3
ENDBRANCH   1   2
BRANCH   1  13
ATOM     13  C   UNL     1      18.006 -36.974  21.158  1.00  0.00     0.000 C 
BRANCH  13  14
ATOM     14  C   UNL     1      17.291 -36.568  19.860  1.00  0.00     0.000 C 
BRANCH  14  15
ATOM     15  C   UNL     1      17.247 -35.038  19.716  1.00  0.00     0.000 C 
BRANCH  15  16
ATOM     16  C   UNL     1      15.820 -34.497  19.516  1.00  0.00     0.000 C 
BRANCH  16  17
ATOM     17  C   UNL     1      15.099 -34.049  20.805  1.00  0.00     0.000 C 
BRANCH  17  18
ATOM     18  C   UNL     1      14.194 -32.813  20.660  1.00  0.00     0.000 C 
BRANCH  18  19
ATOM     19  C   UNL     1      13.915 -32.117  22.002  1.00  0.00     0.000 C 
BRANCH  19  20
ATOM     20  C   UNL     1      14.083 -30.588  21.926  1.00  0.00     0.006 C 
BRANCH  20  21
ATOM     21  C   UNL     1      14.033 -29.873  23.286  1.00  0.00     0.053 C 
BRANCH  21  22
ATOM     22  C   UNL     1      12.682 -29.291  23.569  1.00  0.00     0.041 C 
ATOM     23  O   UNL     1      11.704 -29.573  22.828  1.00  0.00    -0.550 OA
ATOM     24  O   UNL     1      12.494 -28.468  24.673  1.00  0.00    -0.550 OA
ENDBRANCH  21  22
ENDBRANCH  20  21
ENDBRANCH  19  20
ENDBRANCH  18  19
ENDBRANCH  17  18
ENDBRANCH  16  17
ENDBRANCH  15  16
ENDBRANCH  14  15
ENDBRANCH  13  14
ENDBRANCH   1  13
TORSDOF 20
ENDMDL
MODEL 6
REMARK VINA RESULT:    -4.552      3.337      5.846
REMARK INTER + INTRA:         -13.569
REMARK INTER:                 -10.184
REMARK INTRA:                  -3.385
REMARK UNBOUND:                -3.696
REMARK SMILES CCCCCCCCCCCCCCCCCCCCCC(=O)[O-]
REMARK SMILES IDX 12 1 11 2 10 3 9 4 8 5 7 6 6 7 5 8 4 9 3 10 2 11 1 12 13 13
REMARK SMILES IDX 14 14 15 15 16 16 17 17 18 18 19 19 20 20 21 21 22 22 23 23
REMARK SMILES IDX 24 24
REMARK H PARENT
REMARK Flexibility Score: inf
ROOT
ATOM      1  C   UNL     1      13.667 -31.420  23.900  1.00  0.00     0.000 C 
ENDROOT
BRANCH   1   2
ATOM      2  C   UNL     1      14.288 -32.809  24.133  1.00  0.00     0.000 C 
BRANCH   2   3
ATOM      3  C   UNL     1      15.176 -33.266  22.956  1.00  0.00     0.000 C 
BRANCH   3   4
ATOM      4  C   UNL     1      16.079 -34.473  23.281  1.00  0.00    -0.000 C 
BRANCH   4   5
ATOM      5  C   UNL     1      16.449 -34.630  24.765  1.00  0.00    -0.000 C 
BRANCH   5   6
ATOM      6  C   UNL     1      17.711 -33.843  25.153  1.00  0.00    -0.000 C 
BRANCH   6   7
ATOM      7  C   UNL     1      18.955 -34.423  24.460  1.00  0.00    -0.000 C 
BRANCH   7   8
ATOM      8  C   UNL     1      19.545 -35.635  25.206  1.00  0.00    -0.000 C 
BRANCH   8   9
ATOM      9  C   UNL     1      19.224 -36.995  24.554  1.00  0.00    -0.000 C 
BRANCH   9  10
ATOM     10  C   UNL     1      18.577 -38.006  25.527  1.00  0.00    -0.000 C 
BRANCH  10  11
ATOM     11  C   UNL     1      17.990 -37.351  26.788  1.00  0.00    -0.003 C 
ATOM     12  C   UNL     1      16.541 -37.759  27.049  1.00  0.00     0.004 C 
ENDBRANCH  10  11
ENDBRANCH   9  10
ENDBRANCH   8   9
ENDBRANCH   7   8
ENDBRANCH   6   7
ENDBRANCH   5   6
ENDBRANCH   4   5
ENDBRANCH   3   4
ENDBRANCH   2   3
ENDBRANCH   1   2
BRANCH   1  13
ATOM     13  C   UNL     1      13.956 -30.866  22.496  1.00  0.00     0.000 C 
BRANCH  13  14
ATOM     14  C   UNL     1      14.765 -29.560  22.527  1.00  0.00     0.000 C 
BRANCH  14  15
ATOM     15  C   UNL     1      16.222 -29.809  22.105  1.00  0.00     0.000 C 
BRANCH  15  16
ATOM     16  C   UNL     1      17.101 -30.321  23.260  1.00  0.00     0.000 C 
BRANCH  16  17
ATOM     17  C   UNL     1      18.369 -31.088  22.830  1.00  0.00     0.000 C 
BRANCH  17  18
ATOM     18  C   UNL     1      18.492 -31.368  21.322  1.00  0.00     0.000 C 
BRANCH  18  19
ATOM     19  C   UNL     1      18.684 -32.861  21.006  1.00  0.00     0.000 C 
BRANCH  19  20
ATOM     20  C   UNL     1      17.681 -33.381  19.960  1.00  0.00     0.006 C 
BRANCH  20  21
ATOM     21  C   UNL     1      18.028 -34.760  19.375  1.00  0.00     0.053 C 
BRANCH  21  22
ATOM     22  C   UNL     1      16.975 -35.782  19.676  1.00  0.00     0.041 C 
ATOM     23  O   UNL     1      15.789 -35.423  19.896  1.00  0.00    -0.550 OA
ATOM     24  O   UNL     1      17.295 -37.135  19.675  1.00  0.00    -0.550 OA
ENDBRANCH  21  22
ENDBRANCH  20  21
ENDBRANCH  19  20
ENDBRANCH  18  19
ENDBRANCH  17  18
ENDBRANCH  16  17
ENDBRANCH  15  16
ENDBRANCH  14  15
ENDBRANCH  13  14
ENDBRANCH   1  13
TORSDOF 20
ENDMDL
MODEL 7
REMARK VINA RESULT:    -4.550      2.979      6.547
REMARK INTER + INTRA:         -13.566
REMARK INTER:                 -10.031
REMARK INTRA:                  -3.535
REMARK UNBOUND:                -3.696
REMARK SMILES CCCCCCCCCCCCCCCCCCCCCC(=O)[O-]
REMARK SMILES IDX 12 1 11 2 10 3 9 4 8 5 7 6 6 7 5 8 4 9 3 10 2 11 1 12 13 13
REMARK SMILES IDX 14 14 15 15 16 16 17 17 18 18 19 19 20 20 21 21 22 22 23 23
REMARK SMILES IDX 24 24
REMARK H PARENT
REMARK Flexibility Score: inf
ROOT
ATOM      1  C   UNL     1      20.231 -31.340  21.022  1.00  0.00     0.000 C 
ENDROOT
BRANCH   1   2
ATOM      2  C   UNL     1      18.930 -32.157  20.927  1.00  0.00     0.000 C 
BRANCH   2   3
ATOM      3  C   UNL     1      17.668 -31.269  20.987  1.00  0.00     0.000 C 
BRANCH   3   4
ATOM      4  C   UNL     1      17.720 -30.173  22.070  1.00  0.00    -0.000 C 
BRANCH   4   5
ATOM      5  C   UNL     1      16.410 -29.964  22.849  1.00  0.00    -0.000 C 
BRANCH   5   6
ATOM      6  C   UNL     1      15.159 -30.186  21.986  1.00  0.00    -0.000 C 
BRANCH   6   7
ATOM      7  C   UNL     1      14.299 -31.331  22.546  1.00  0.00    -0.000 C 
BRANCH   7   8
ATOM      8  C   UNL     1      13.096 -30.829  23.367  1.00  0.00    -0.000 C 
BRANCH   8   9
ATOM      9  C   UNL     1      12.130 -29.920  22.580  1.00  0.00    -0.000 C 
BRANCH   9  10
ATOM     10  C   UNL     1      11.525 -28.783  23.435  1.00  0.00    -0.000 C 
BRANCH  10  11
ATOM     11  C   UNL     1      12.467 -28.282  24.542  1.00  0.00    -0.003 C 
ATOM     12  C   UNL     1      13.311 -27.086  24.106  1.00  0.00     0.004 C 
ENDBRANCH  10  11
ENDBRANCH   9  10
ENDBRANCH   8   9
ENDBRANCH   7   8
ENDBRANCH   6   7
ENDBRANCH   5   6
ENDBRANCH   4   5
ENDBRANCH   3   4
ENDBRANCH   2   3
ENDBRANCH   1   2
BRANCH   1  13
ATOM     13  C   UNL     1      21.074 -31.703  22.255  1.00  0.00     0.000 C 
BRANCH  13  14
ATOM     14  C   UNL     1      20.949 -33.184  22.645  1.00  0.00     0.000 C 
BRANCH  14  15
ATOM     15  C   UNL     1      20.422 -33.328  24.082  1.00  0.00     0.000 C 
BRANCH  15  16
ATOM     16  C   UNL     1      19.957 -31.991  24.687  1.00  0.00     0.000 C 
BRANCH  16  17
ATOM     17  C   UNL     1      18.502 -31.974  25.204  1.00  0.00     0.000 C 
BRANCH  17  18
ATOM     18  C   UNL     1      17.817 -33.349  25.289  1.00  0.00     0.000 C 
BRANCH  18  19
ATOM     19  C   UNL     1      16.672 -33.509  24.274  1.00  0.00     0.000 C 
BRANCH  19  20
ATOM     20  C   UNL     1      16.962 -34.588  23.215  1.00  0.00     0.006 C 
BRANCH  20  21
ATOM     21  C   UNL     1      16.090 -34.493  21.952  1.00  0.00     0.053 C 
BRANCH  21  22
ATOM     22  C   UNL     1      16.658 -35.283  20.813  1.00  0.00     0.041 C 
ATOM     23  O   UNL     1      17.355 -36.306  21.039  1.00  0.00    -0.550 OA
ATOM     24  O   UNL     1      16.386 -34.911  19.502  1.00  0.00    -0.550 OA
ENDBRANCH  21  22
ENDBRANCH  20  21
ENDBRANCH  19  20
ENDBRANCH  18  19
ENDBRANCH  17  18
ENDBRANCH  16  17
ENDBRANCH  15  16
ENDBRANCH  14  15
ENDBRANCH  13  14
ENDBRANCH   1  13
TORSDOF 20
ENDMDL
MODEL 8
REMARK VINA RESULT:    -4.502      4.004      7.161
REMARK INTER + INTRA:         -13.462
REMARK INTER:                 -10.275
REMARK INTRA:                  -3.187
REMARK UNBOUND:                -3.696
REMARK SMILES CCCCCCCCCCCCCCCCCCCCCC(=O)[O-]
REMARK SMILES IDX 12 1 11 2 10 3 9 4 8 5 7 6 6 7 5 8 4 9 3 10 2 11 1 12 13 13
REMARK SMILES IDX 14 14 15 15 16 16 17 17 18 18 19 19 20 20 21 21 22 22 23 23
REMARK SMILES IDX 24 24
REMARK H PARENT
REMARK Flexibility Score: inf
ROOT
ATOM      1  C   UNL     1      16.195 -34.486  21.409  1.00  0.00     0.000 C 
ENDROOT
BRANCH   1   2
ATOM      2  C   UNL     1      17.104 -35.161  22.452  1.00  0.00     0.000 C 
BRANCH   2   3
ATOM      3  C   UNL     1      16.948 -34.547  23.859  1.00  0.00     0.000 C 
BRANCH   3   4
ATOM      4  C   UNL     1      18.221 -33.858  24.390  1.00  0.00    -0.000 C 
BRANCH   4   5
ATOM      5  C   UNL     1      18.150 -32.323  24.461  1.00  0.00    -0.000 C 
BRANCH   5   6
ATOM      6  C   UNL     1      16.829 -31.760  23.916  1.00  0.00    -0.000 C 
BRANCH   6   7
ATOM      7  C   UNL     1      17.045 -30.387  23.258  1.00  0.00    -0.000 C 
BRANCH   7   8
ATOM      8  C   UNL     1      16.463 -30.309  21.834  1.00  0.00    -0.000 C 
BRANCH   8   9
ATOM      9  C   UNL     1      14.995 -29.841  21.777  1.00  0.00    -0.000 C 
BRANCH   9  10
ATOM     10  C   UNL     1      13.991 -30.994  21.548  1.00  0.00    -0.000 C 
BRANCH  10  11
ATOM     11  C   UNL     1      12.888 -31.066  22.617  1.00  0.00    -0.003 C 
ATOM     12  C   UNL     1      13.154 -30.147  23.807  1.00  0.00     0.004 C 
ENDBRANCH  10  11
ENDBRANCH   9  10
ENDBRANCH   8   9
ENDBRANCH   7   8
ENDBRANCH   6   7
ENDBRANCH   5   6
ENDBRANCH   4   5
ENDBRANCH   3   4
ENDBRANCH   2   3
ENDBRANCH   1   2
BRANCH   1  13
ATOM     13  C   UNL     1      16.986 -33.789  20.291  1.00  0.00     0.000 C 
BRANCH  13  14
ATOM     14  C   UNL     1      18.483 -33.662  20.612  1.00  0.00     0.000 C 
BRANCH  14  15
ATOM     15  C   UNL     1      18.919 -32.188  20.611  1.00  0.00     0.000 C 
BRANCH  15  16
ATOM     16  C   UNL     1      20.235 -31.951  21.373  1.00  0.00     0.000 C 
BRANCH  16  17
ATOM     17  C   UNL     1      21.014 -30.684  20.963  1.00  0.00     0.000 C 
BRANCH  17  18
ATOM     18  C   UNL     1      20.577 -29.385  21.663  1.00  0.00     0.000 C 
BRANCH  18  19
ATOM     19  C   UNL     1      19.878 -28.400  20.710  1.00  0.00     0.000 C 
BRANCH  19  20
ATOM     20  C   UNL     1      20.076 -26.931  21.124  1.00  0.00     0.006 C 
BRANCH  20  21
ATOM     21  C   UNL     1      20.982 -26.120  20.183  1.00  0.00     0.053 C 
BRANCH  21  22
ATOM     22  C   UNL     1      22.432 -26.271  20.526  1.00  0.00     0.041 C 
ATOM     23  O   UNL     1      22.955 -25.535  21.404  1.00  0.00    -0.550 OA
ATOM     24  O   UNL     1      23.198 -27.251  19.905  1.00  0.00    -0.550 OA
ENDBRANCH  21  22
ENDBRANCH  20  21
ENDBRANCH  19  20
ENDBRANCH  18  19
ENDBRANCH  17  18
ENDBRANCH  16  17
ENDBRANCH  15  16
ENDBRANCH  14  15
ENDBRANCH  13  14
ENDBRANCH   1  13
TORSDOF 20
ENDMDL
MODEL 9
REMARK VINA RESULT:    -4.473      3.547      5.744
REMARK INTER + INTRA:         -13.400
REMARK INTER:                  -9.361
REMARK INTRA:                  -4.039
REMARK UNBOUND:                -3.696
REMARK SMILES CCCCCCCCCCCCCCCCCCCCCC(=O)[O-]
REMARK SMILES IDX 12 1 11 2 10 3 9 4 8 5 7 6 6 7 5 8 4 9 3 10 2 11 1 12 13 13
REMARK SMILES IDX 14 14 15 15 16 16 17 17 18 18 19 19 20 20 21 21 22 22 23 23
REMARK SMILES IDX 24 24
REMARK H PARENT
REMARK Flexibility Score: inf
ROOT
ATOM      1  C   UNL     1      17.999 -30.546  21.271  1.00  0.00     0.000 C 
ENDROOT
BRANCH   1   2
ATOM      2  C   UNL     1      16.466 -30.474  21.396  1.00  0.00     0.000 C 
BRANCH   2   3
ATOM      3  C   UNL     1      16.009 -29.903  22.755  1.00  0.00     0.000 C 
BRANCH   3   4
ATOM      4  C   UNL     1      14.484 -29.712  22.878  1.00  0.00    -0.000 C 
BRANCH   4   5
ATOM      5  C   UNL     1      13.789 -30.650  23.880  1.00  0.00    -0.000 C 
BRANCH   5   6
ATOM      6  C   UNL     1      13.605 -32.075  23.338  1.00  0.00    -0.000 C 
BRANCH   6   7
ATOM      7  C   UNL     1      14.590 -33.049  24.006  1.00  0.00    -0.000 C 
BRANCH   7   8
ATOM      8  C   UNL     1      15.529 -33.737  22.995  1.00  0.00    -0.000 C 
BRANCH   8   9
ATOM      9  C   UNL     1      14.997 -33.750  21.548  1.00  0.00    -0.000 C 
BRANCH   9  10
ATOM     10  C   UNL     1      15.799 -34.679  20.608  1.00  0.00    -0.000 C 
BRANCH  10  11
ATOM     11  C   UNL     1      16.882 -35.495  21.332  1.00  0.00    -0.003 C 
ATOM     12  C   UNL     1      17.944 -36.046  20.383  1.00  0.00     0.004 C 
ENDBRANCH  10  11
ENDBRANCH   9  10
ENDBRANCH   8   9
ENDBRANCH   7   8
ENDBRANCH   6   7
ENDBRANCH   5   6
ENDBRANCH   4   5
ENDBRANCH   3   4
ENDBRANCH   2   3
ENDBRANCH   1   2
BRANCH   1  13
ATOM     13  C   UNL     1      18.506 -31.964  20.964  1.00  0.00     0.000 C 
BRANCH  13  14
ATOM     14  C   UNL     1      19.093 -32.666  22.198  1.00  0.00     0.000 C 
BRANCH  14  15
ATOM     15  C   UNL     1      19.992 -31.708  22.995  1.00  0.00     0.000 C 
BRANCH  15  16
ATOM     16  C   UNL     1      19.605 -31.620  24.483  1.00  0.00     0.000 C 
BRANCH  16  17
ATOM     17  C   UNL     1      18.170 -32.082  24.817  1.00  0.00     0.000 C 
BRANCH  17  18
ATOM     18  C   UNL     1      18.070 -33.264  25.798  1.00  0.00     0.000 C 
BRANCH  18  19
ATOM     19  C   UNL     1      18.970 -34.446  25.402  1.00  0.00     0.000 C 
BRANCH  19  20
ATOM     20  C   UNL     1      18.175 -35.635  24.832  1.00  0.00     0.006 C 
BRANCH  20  21
ATOM     21  C   UNL     1      16.933 -36.023  25.652  1.00  0.00     0.053 C 
BRANCH  21  22
ATOM     22  C   UNL     1      17.169 -37.240  26.493  1.00  0.00     0.041 C 
ATOM     23  O   UNL     1      16.207 -37.799  27.081  1.00  0.00    -0.550 OA
ATOM     24  O   UNL     1      18.446 -37.780  26.596  1.00  0.00    -0.550 OA
ENDBRANCH  21  22
ENDBRANCH  20  21
ENDBRANCH  19  20
ENDBRANCH  18  19
ENDBRANCH  17  18
ENDBRANCH  16  17
ENDBRANCH  15  16
ENDBRANCH  14  15
ENDBRANCH  13  14
ENDBRANCH   1  13
TORSDOF 20
ENDMDL
