MODEL 1
REMARK VINA RESULT:    -4.599      0.000      0.000
REMARK INTER + INTRA:          -9.856
REMARK INTER:                  -8.364
REMARK INTRA:                  -1.492
REMARK UNBOUND:                -1.492
REMARK SMILES CCCCCCCCCCCCCCCC(=O)[O-]
REMARK SMILES IDX 9 1 10 2 11 3 12 4 13 5 14 6 15 7 16 8 17 9 18 10 8 11 7 12
REMARK SMILES IDX 6 13 5 14 4 15 3 16 2 17 1 18
REMARK H PARENT
REMARK Flexibility Score: inf
ROOT
ATOM      1  C   UNL     1      -4.634   1.769  30.092  1.00  0.00     0.000 C 
ENDROOT
BRANCH   1   2
ATOM      2  C   UNL     1      -3.216   1.189  30.040  1.00  0.00     0.000 C 
BRANCH   2   3
ATOM      3  C   UNL     1      -2.238   2.183  29.402  1.00  0.00     0.000 C 
BRANCH   3   4
ATOM      4  C   UNL     1      -1.032   1.457  28.794  1.00  0.00     0.000 C 
BRANCH   4   5
ATOM      5  C   UNL     1      -1.251   1.181  27.300  1.00  0.00     0.000 C 
BRANCH   5   6
ATOM      6  C   UNL     1      -1.538  -0.301  26.995  1.00  0.00     0.006 C 
BRANCH   6   7
ATOM      7  C   UNL     1      -1.075  -1.267  28.101  1.00  0.00     0.053 C 
BRANCH   7   8
ATOM      8  C   UNL     1       0.232  -1.924  27.780  1.00  0.00     0.041 C 
ATOM      9  O   UNL     1       0.905  -2.473  28.692  1.00  0.00    -0.550 OA
ATOM     10  O   UNL     1       0.726  -1.901  26.481  1.00  0.00    -0.550 OA
ENDBRANCH   7   8
ENDBRANCH   6   7
ENDBRANCH   5   6
ENDBRANCH   4   5
ENDBRANCH   3   4
ENDBRANCH   2   3
ENDBRANCH   1   2
BRANCH   1  11
ATOM     11  C   UNL     1      -5.637   0.833  29.399  1.00  0.00     0.000 C 
BRANCH  11  12
ATOM     12  C   UNL     1      -4.956  -0.277  28.577  1.00  0.00    -0.000 C 
BRANCH  12  13
ATOM     13  C   UNL     1      -5.472  -1.701  28.859  1.00  0.00    -0.000 C 
BRANCH  13  14
ATOM     14  C   UNL     1      -4.362  -2.659  29.321  1.00  0.00    -0.000 C 
BRANCH  14  15
ATOM     15  C   UNL     1      -4.794  -4.136  29.285  1.00  0.00    -0.000 C 
BRANCH  15  16
ATOM     16  C   UNL     1      -5.902  -4.462  28.269  1.00  0.00    -0.000 C 
BRANCH  16  17
ATOM     17  C   UNL     1      -5.733  -5.844  27.620  1.00  0.00    -0.003 C 
ATOM     18  C   UNL     1      -5.952  -6.960  28.638  1.00  0.00     0.004 C 
ENDBRANCH  16  17
ENDBRANCH  15  16
ENDBRANCH  14  15
ENDBRANCH  13  14
ENDBRANCH  12  13
ENDBRANCH  11  12
ENDBRANCH   1  11
TORSDOF 14
ENDMDL
MODEL 2
REMARK VINA RESULT:    -4.453      1.325      2.112
REMARK INTER + INTRA:          -9.590
REMARK INTER:                  -8.224
REMARK INTRA:                  -1.366
REMARK UNBOUND:                -1.492
REMARK SMILES CCCCCCCCCCCCCCCC(=O)[O-]
REMARK SMILES IDX 9 1 10 2 11 3 12 4 13 5 14 6 15 7 16 8 17 9 18 10 8 11 7 12
REMARK SMILES IDX 6 13 5 14 4 15 3 16 2 17 1 18
REMARK H PARENT
REMARK Flexibility Score: inf
ROOT
ATOM      1  C   UNL     1      -2.488   2.479  29.410  1.00  0.00     0.000 C 
ENDROOT
BRANCH   1   2
ATOM      2  C   UNL     1      -1.070   2.027  29.044  1.00  0.00     0.000 C 
BRANCH   2   3
ATOM      3  C   UNL     1      -0.812   2.187  27.541  1.00  0.00     0.000 C 
BRANCH   3   4
ATOM      4  C   UNL     1       0.424   1.391  27.106  1.00  0.00     0.000 C 
BRANCH   4   5
ATOM      5  C   UNL     1       0.863   0.411  28.204  1.00  0.00     0.000 C 
BRANCH   5   6
ATOM      6  C   UNL     1       1.074  -1.023  27.685  1.00  0.00     0.006 C 
BRANCH   6   7
ATOM      7  C   UNL     1      -0.230  -1.819  27.502  1.00  0.00     0.053 C 
BRANCH   7   8
ATOM      8  C   UNL     1      -0.433  -2.846  28.573  1.00  0.00     0.041 C 
ATOM      9  O   UNL     1      -1.532  -3.453  28.669  1.00  0.00    -0.550 OA
ATOM     10  O   UNL     1       0.577  -3.108  29.491  1.00  0.00    -0.550 OA
ENDBRANCH   7   8
ENDBRANCH   6   7
ENDBRANCH   5   6
ENDBRANCH   4   5
ENDBRANCH   3   4
ENDBRANCH   2   3
ENDBRANCH   1   2
BRANCH   1  11
ATOM     11  C   UNL     1      -3.385   1.274  29.731  1.00  0.00     0.000 C 
BRANCH  11  12
ATOM     12  C   UNL     1      -2.853  -0.046  29.141  1.00  0.00    -0.000 C 
BRANCH  12  13
ATOM     13  C   UNL     1      -3.816  -0.756  28.171  1.00  0.00    -0.000 C 
BRANCH  13  14
ATOM     14  C   UNL     1      -5.147  -1.150  28.832  1.00  0.00    -0.000 C 
BRANCH  14  15
ATOM     15  C   UNL     1      -5.133  -2.583  29.396  1.00  0.00    -0.000 C 
BRANCH  15  16
ATOM     16  C   UNL     1      -5.835  -3.632  28.515  1.00  0.00    -0.000 C 
BRANCH  16  17
ATOM     17  C   UNL     1      -4.961  -4.864  28.239  1.00  0.00    -0.003 C 
ATOM     18  C   UNL     1      -5.798  -6.141  28.230  1.00  0.00     0.004 C 
ENDBRANCH  16  17
ENDBRANCH  15  16
ENDBRANCH  14  15
ENDBRANCH  13  14
ENDBRANCH  12  13
ENDBRANCH  11  12
ENDBRANCH   1  11
TORSDOF 14
ENDMDL
MODEL 3
REMARK VINA RESULT:    -4.430      2.404      5.237
REMARK INTER + INTRA:          -9.548
REMARK INTER:                  -7.690
REMARK INTRA:                  -1.858
REMARK UNBOUND:                -1.492
REMARK SMILES CCCCCCCCCCCCCCCC(=O)[O-]
REMARK SMILES IDX 9 1 10 2 11 3 12 4 13 5 14 6 15 7 16 8 17 9 18 10 8 11 7 12
REMARK SMILES IDX 6 13 5 14 4 15 3 16 2 17 1 18
REMARK H PARENT
REMARK Flexibility Score: inf
ROOT
ATOM      1  C   UNL     1      -5.792  -3.304  28.068  1.00  0.00     0.000 C 
ENDROOT
BRANCH   1   2
ATOM      2  C   UNL     1      -5.533  -2.209  29.109  1.00  0.00     0.000 C 
BRANCH   2   3
ATOM      3  C   UNL     1      -4.993  -0.936  28.446  1.00  0.00     0.000 C 
BRANCH   3   4
ATOM      4  C   UNL     1      -3.612  -0.568  29.002  1.00  0.00     0.000 C 
BRANCH   4   5
ATOM      5  C   UNL     1      -2.564  -0.515  27.881  1.00  0.00     0.000 C 
BRANCH   5   6
ATOM      6  C   UNL     1      -1.329   0.327  28.249  1.00  0.00     0.006 C 
BRANCH   6   7
ATOM      7  C   UNL     1      -0.605   0.938  27.035  1.00  0.00     0.053 C 
BRANCH   7   8
ATOM      8  C   UNL     1      -0.556   2.434  27.087  1.00  0.00     0.041 C 
ATOM      9  O   UNL     1      -0.450   3.101  26.025  1.00  0.00    -0.550 OA
ATOM     10  O   UNL     1      -0.591   3.093  28.310  1.00  0.00    -0.550 OA
ENDBRANCH   7   8
ENDBRANCH   6   7
ENDBRANCH   5   6
ENDBRANCH   4   5
ENDBRANCH   3   4
ENDBRANCH   2   3
ENDBRANCH   1   2
BRANCH   1  11
ATOM     11  C   UNL     1      -5.098  -4.617  28.465  1.00  0.00     0.000 C 
BRANCH  11  12
ATOM     12  C   UNL     1      -3.831  -4.395  29.313  1.00  0.00    -0.000 C 
BRANCH  12  13
ATOM     13  C   UNL     1      -2.537  -4.197  28.503  1.00  0.00    -0.000 C 
BRANCH  13  14
ATOM     14  C   UNL     1      -1.336  -3.806  29.381  1.00  0.00    -0.000 C 
BRANCH  14  15
ATOM     15  C   UNL     1      -0.210  -3.124  28.584  1.00  0.00    -0.000 C 
BRANCH  15  16
ATOM     16  C   UNL     1       0.936  -2.555  29.440  1.00  0.00    -0.000 C 
BRANCH  16  17
ATOM     17  C   UNL     1       2.025  -1.869  28.604  1.00  0.00    -0.003 C 
ATOM     18  C   UNL     1       1.721  -1.975  27.111  1.00  0.00     0.004 C 
ENDBRANCH  16  17
ENDBRANCH  15  16
ENDBRANCH  14  15
ENDBRANCH  13  14
ENDBRANCH  12  13
ENDBRANCH  11  12
ENDBRANCH   1  11
TORSDOF 14
ENDMDL
MODEL 4
REMARK VINA RESULT:    -4.428      2.813      5.848
REMARK INTER + INTRA:          -9.544
REMARK INTER:                  -8.733
REMARK INTRA:                  -0.811
REMARK UNBOUND:                -1.492
REMARK SMILES CCCCCCCCCCCCCCCC(=O)[O-]
REMARK SMILES IDX 9 1 10 2 11 3 12 4 13 5 14 6 15 7 16 8 17 9 18 10 8 11 7 12
REMARK SMILES IDX 6 13 5 14 4 15 3 16 2 17 1 18
REMARK H PARENT
REMARK Flexibility Score: inf
ROOT
ATOM      1  C   UNL     1      -5.747  -5.463  27.861  1.00  0.00     0.000 C 
ENDROOT
BRANCH   1   2
ATOM      2  C   UNL     1      -5.887  -3.982  28.235  1.00  0.00     0.000 C 
BRANCH   2   3
ATOM      3  C   UNL     1      -5.343  -3.718  29.644  1.00  0.00     0.000 C 
BRANCH   3   4
ATOM      4  C   UNL     1      -4.607  -2.373  29.707  1.00  0.00     0.000 C 
BRANCH   4   5
ATOM      5  C   UNL     1      -5.076  -1.436  28.584  1.00  0.00     0.000 C 
BRANCH   5   6
ATOM      6  C   UNL     1      -3.916  -0.884  27.735  1.00  0.00     0.006 C 
BRANCH   6   7
ATOM      7  C   UNL     1      -2.636  -0.594  28.539  1.00  0.00     0.053 C 
BRANCH   7   8
ATOM      8  C   UNL     1      -1.390  -0.829  27.743  1.00  0.00     0.041 C 
ATOM      9  O   UNL     1      -1.352  -0.524  26.522  1.00  0.00    -0.550 OA
ATOM     10  O   UNL     1      -0.280  -1.417  28.338  1.00  0.00    -0.550 OA
ENDBRANCH   7   8
ENDBRANCH   6   7
ENDBRANCH   5   6
ENDBRANCH   4   5
ENDBRANCH   3   4
ENDBRANCH   2   3
ENDBRANCH   1   2
BRANCH   1  11
ATOM     11  C   UNL     1      -5.737  -6.349  29.116  1.00  0.00     0.000 C 
BRANCH  11  12
ATOM     12  C   UNL     1      -6.174  -7.799  28.832  1.00  0.00    -0.000 C 
BRANCH  12  13
ATOM     13  C   UNL     1      -6.096  -8.747  30.042  1.00  0.00    -0.000 C 
BRANCH  13  14
ATOM     14  C   UNL     1      -5.244  -9.997  29.769  1.00  0.00    -0.000 C 
BRANCH  14  15
ATOM     15  C   UNL     1      -5.067 -10.283  28.267  1.00  0.00    -0.000 C 
BRANCH  15  16
ATOM     16  C   UNL     1      -4.084 -11.420  27.935  1.00  0.00    -0.000 C 
BRANCH  16  17
ATOM     17  C   UNL     1      -3.147 -11.762  29.103  1.00  0.00    -0.003 C 
ATOM     18  C   UNL     1      -1.692 -11.805  28.646  1.00  0.00     0.004 C 
ENDBRANCH  16  17
ENDBRANCH  15  16
ENDBRANCH  14  15
ENDBRANCH  13  14
ENDBRANCH  12  13
ENDBRANCH  11  12
ENDBRANCH   1  11
TORSDOF 14
ENDMDL
MODEL 5
REMARK VINA RESULT:    -4.415      2.066      5.117
REMARK INTER + INTRA:          -9.520
REMARK INTER:                  -8.200
REMARK INTRA:                  -1.320
REMARK UNBOUND:                -1.492
REMARK SMILES CCCCCCCCCCCCCCCC(=O)[O-]
REMARK SMILES IDX 9 1 10 2 11 3 12 4 13 5 14 6 15 7 16 8 17 9 18 10 8 11 7 12
REMARK SMILES IDX 6 13 5 14 4 15 3 16 2 17 1 18
REMARK H PARENT
REMARK Flexibility Score: inf
ROOT
ATOM      1  C   UNL     1      -3.258  -4.041  29.367  1.00  0.00     0.000 C 
ENDROOT
BRANCH   1   2
ATOM      2  C   UNL     1      -2.094  -4.303  28.404  1.00  0.00     0.000 C 
BRANCH   2   3
ATOM      3  C   UNL     1      -0.865  -3.471  28.787  1.00  0.00     0.000 C 
BRANCH   3   4
ATOM      4  C   UNL     1      -1.143  -1.971  28.628  1.00  0.00     0.000 C 
BRANCH   4   5
ATOM      5  C   UNL     1      -0.449  -1.413  27.377  1.00  0.00     0.000 C 
BRANCH   5   6
ATOM      6  C   UNL     1      -1.242  -0.279  26.702  1.00  0.00     0.006 C 
BRANCH   6   7
ATOM      7  C   UNL     1      -1.445   0.959  27.594  1.00  0.00     0.053 C 
BRANCH   7   8
ATOM      8  C   UNL     1      -0.321   1.941  27.480  1.00  0.00     0.041 C 
ATOM      9  O   UNL     1       0.176   2.207  26.354  1.00  0.00    -0.550 OA
ATOM     10  O   UNL     1       0.205   2.539  28.620  1.00  0.00    -0.550 OA
ENDBRANCH   7   8
ENDBRANCH   6   7
ENDBRANCH   5   6
ENDBRANCH   4   5
ENDBRANCH   3   4
ENDBRANCH   2   3
ENDBRANCH   1   2
BRANCH   1  11
ATOM     11  C   UNL     1      -4.602  -4.413  28.722  1.00  0.00     0.000 C 
BRANCH  11  12
ATOM     12  C   UNL     1      -5.565  -3.217  28.606  1.00  0.00    -0.000 C 
BRANCH  12  13
ATOM     13  C   UNL     1      -4.894  -1.877  28.250  1.00  0.00    -0.000 C 
BRANCH  13  14
ATOM     14  C   UNL     1      -5.650  -0.663  28.814  1.00  0.00    -0.000 C 
BRANCH  14  15
ATOM     15  C   UNL     1      -4.713   0.384  29.444  1.00  0.00    -0.000 C 
BRANCH  15  16
ATOM     16  C   UNL     1      -5.405   1.680  29.902  1.00  0.00    -0.000 C 
BRANCH  16  17
ATOM     17  C   UNL     1      -6.861   1.783  29.424  1.00  0.00    -0.003 C 
ATOM     18  C   UNL     1      -7.444   3.161  29.727  1.00  0.00     0.004 C 
ENDBRANCH  16  17
ENDBRANCH  15  16
ENDBRANCH  14  15
ENDBRANCH  13  14
ENDBRANCH  12  13
ENDBRANCH  11  12
ENDBRANCH   1  11
TORSDOF 14
ENDMDL
MODEL 6
REMARK VINA RESULT:    -4.390      2.325      6.582
REMARK INTER + INTRA:          -9.475
REMARK INTER:                  -7.298
REMARK INTRA:                  -2.177
REMARK UNBOUND:                -1.492
REMARK SMILES CCCCCCCCCCCCCCCC(=O)[O-]
REMARK SMILES IDX 9 1 10 2 11 3 12 4 13 5 14 6 15 7 16 8 17 9 18 10 8 11 7 12
REMARK SMILES IDX 6 13 5 14 4 15 3 16 2 17 1 18
REMARK H PARENT
REMARK Flexibility Score: inf
ROOT
ATOM      1  C   UNL     1      -0.640  -1.268  26.912  1.00  0.00     0.000 C 
ENDROOT
BRANCH   1   2
ATOM      2  C   UNL     1      -1.838  -0.348  27.176  1.00  0.00     0.000 C 
BRANCH   2   3
ATOM      3  C   UNL     1      -2.111  -0.218  28.679  1.00  0.00     0.000 C 
BRANCH   3   4
ATOM      4  C   UNL     1      -3.614  -0.297  28.975  1.00  0.00     0.000 C 
BRANCH   4   5
ATOM      5  C   UNL     1      -4.335  -1.165  27.934  1.00  0.00     0.000 C 
BRANCH   5   6
ATOM      6  C   UNL     1      -5.366  -2.123  28.557  1.00  0.00     0.006 C 
BRANCH   6   7
ATOM      7  C   UNL     1      -4.766  -3.115  29.569  1.00  0.00     0.053 C 
BRANCH   7   8
ATOM      8  C   UNL     1      -3.948  -4.184  28.911  1.00  0.00     0.041 C 
ATOM      9  O   UNL     1      -4.489  -4.994  28.112  1.00  0.00    -0.550 OA
ATOM     10  O   UNL     1      -2.596  -4.312  29.207  1.00  0.00    -0.550 OA
ENDBRANCH   7   8
ENDBRANCH   6   7
ENDBRANCH   5   6
ENDBRANCH   4   5
ENDBRANCH   3   4
ENDBRANCH   2   3
ENDBRANCH   1   2
BRANCH   1  11
ATOM     11  C   UNL     1      -0.195  -1.976  28.201  1.00  0.00     0.000 C 
BRANCH  11  12
ATOM     12  C   UNL     1       1.331  -2.174  28.282  1.00  0.00    -0.000 C 
BRANCH  12  13
ATOM     13  C   UNL     1       2.111  -0.972  28.847  1.00  0.00    -0.000 C 
BRANCH  13  14
ATOM     14  C   UNL     1       1.337  -0.218  29.940  1.00  0.00    -0.000 C 
BRANCH  14  15
ATOM     15  C   UNL     1       1.263   1.298  29.683  1.00  0.00    -0.000 C 
BRANCH  15  16
ATOM     16  C   UNL     1       1.188   1.699  28.199  1.00  0.00    -0.000 C 
BRANCH  16  17
ATOM     17  C   UNL     1       0.091   2.736  27.913  1.00  0.00    -0.003 C 
ATOM     18  C   UNL     1      -0.141   2.891  26.413  1.00  0.00     0.004 C 
ENDBRANCH  16  17
ENDBRANCH  15  16
ENDBRANCH  14  15
ENDBRANCH  13  14
ENDBRANCH  12  13
ENDBRANCH  11  12
ENDBRANCH   1  11
TORSDOF 14
ENDMDL
MODEL 7
REMARK VINA RESULT:    -4.381      3.805      7.058
REMARK INTER + INTRA:          -9.458
REMARK INTER:                  -8.730
REMARK INTRA:                  -0.728
REMARK UNBOUND:                -1.492
REMARK SMILES CCCCCCCCCCCCCCCC(=O)[O-]
REMARK SMILES IDX 9 1 10 2 11 3 12 4 13 5 14 6 15 7 16 8 17 9 18 10 8 11 7 12
REMARK SMILES IDX 6 13 5 14 4 15 3 16 2 17 1 18
REMARK H PARENT
REMARK Flexibility Score: inf
ROOT
ATOM      1  C   UNL     1      -5.735  -6.384  29.164  1.00  0.00     0.000 C 
ENDROOT
BRANCH   1   2
ATOM      2  C   UNL     1      -5.639  -5.552  27.880  1.00  0.00     0.000 C 
BRANCH   2   3
ATOM      3  C   UNL     1      -6.064  -4.101  28.132  1.00  0.00     0.000 C 
BRANCH   3   4
ATOM      4  C   UNL     1      -5.388  -3.540  29.390  1.00  0.00     0.000 C 
BRANCH   4   5
ATOM      5  C   UNL     1      -4.067  -2.841  29.039  1.00  0.00     0.000 C 
BRANCH   5   6
ATOM      6  C   UNL     1      -4.268  -1.485  28.338  1.00  0.00     0.006 C 
BRANCH   6   7
ATOM      7  C   UNL     1      -5.383  -0.622  28.956  1.00  0.00     0.053 C 
BRANCH   7   8
ATOM      8  C   UNL     1      -4.882   0.700  29.450  1.00  0.00     0.041 C 
ATOM      9  O   UNL     1      -3.644   0.926  29.510  1.00  0.00    -0.550 OA
ATOM     10  O   UNL     1      -5.778   1.672  29.879  1.00  0.00    -0.550 OA
ENDBRANCH   7   8
ENDBRANCH   6   7
ENDBRANCH   5   6
ENDBRANCH   4   5
ENDBRANCH   3   4
ENDBRANCH   2   3
ENDBRANCH   1   2
BRANCH   1  11
ATOM     11  C   UNL     1      -6.113  -7.840  28.850  1.00  0.00     0.000 C 
BRANCH  11  12
ATOM     12  C   UNL     1      -6.172  -8.731  30.105  1.00  0.00    -0.000 C 
BRANCH  12  13
ATOM     13  C   UNL     1      -5.362 -10.037  30.011  1.00  0.00    -0.000 C 
BRANCH  13  14
ATOM     14  C   UNL     1      -4.911 -10.359  28.576  1.00  0.00    -0.000 C 
BRANCH  14  15
ATOM     15  C   UNL     1      -3.787 -11.409  28.524  1.00  0.00    -0.000 C 
BRANCH  15  16
ATOM     16  C   UNL     1      -3.662 -12.157  27.185  1.00  0.00    -0.000 C 
BRANCH  16  17
ATOM     17  C   UNL     1      -4.646 -11.650  26.121  1.00  0.00    -0.003 C 
ATOM     18  C   UNL     1      -3.981 -11.573  24.749  1.00  0.00     0.004 C 
ENDBRANCH  16  17
ENDBRANCH  15  16
ENDBRANCH  14  15
ENDBRANCH  13  14
ENDBRANCH  12  13
ENDBRANCH  11  12
ENDBRANCH   1  11
TORSDOF 14
ENDMDL
MODEL 8
REMARK VINA RESULT:    -4.364      2.437      3.897
REMARK INTER + INTRA:          -9.427
REMARK INTER:                  -7.724
REMARK INTRA:                  -1.703
REMARK UNBOUND:                -1.492
REMARK SMILES CCCCCCCCCCCCCCCC(=O)[O-]
REMARK SMILES IDX 9 1 10 2 11 3 12 4 13 5 14 6 15 7 16 8 17 9 18 10 8 11 7 12
REMARK SMILES IDX 6 13 5 14 4 15 3 16 2 17 1 18
REMARK H PARENT
REMARK Flexibility Score: inf
ROOT
ATOM      1  C   UNL     1      -0.400  -1.534  27.273  1.00  0.00     0.000 C 
ENDROOT
BRANCH   1   2
ATOM      2  C   UNL     1      -0.398  -2.344  28.575  1.00  0.00     0.000 C 
BRANCH   2   3
ATOM      3  C   UNL     1       0.902  -2.125  29.357  1.00  0.00     0.000 C 
BRANCH   3   4
ATOM      4  C   UNL     1       1.570  -0.804  28.956  1.00  0.00     0.000 C 
BRANCH   4   5
ATOM      5  C   UNL     1       1.087   0.350  29.846  1.00  0.00     0.000 C 
BRANCH   5   6
ATOM      6  C   UNL     1       0.678   1.600  29.046  1.00  0.00     0.006 C 
BRANCH   6   7
ATOM      7  C   UNL     1       1.251   1.642  27.618  1.00  0.00     0.053 C 
BRANCH   7   8
ATOM      8  C   UNL     1       0.452   2.519  26.703  1.00  0.00     0.041 C 
ATOM      9  O   UNL     1      -0.800   2.583  26.820  1.00  0.00    -0.550 OA
ATOM     10  O   UNL     1       1.085   3.239  25.696  1.00  0.00    -0.550 OA
ENDBRANCH   7   8
ENDBRANCH   6   7
ENDBRANCH   5   6
ENDBRANCH   4   5
ENDBRANCH   3   4
ENDBRANCH   2   3
ENDBRANCH   1   2
BRANCH   1  11
ATOM     11  C   UNL     1      -1.696  -0.720  27.133  1.00  0.00     0.000 C 
BRANCH  11  12
ATOM     12  C   UNL     1      -2.735  -1.051  28.222  1.00  0.00    -0.000 C 
BRANCH  12  13
ATOM     13  C   UNL     1      -4.202  -0.854  27.799  1.00  0.00    -0.000 C 
BRANCH  13  14
ATOM     14  C   UNL     1      -5.188  -1.007  28.969  1.00  0.00    -0.000 C 
BRANCH  14  15
ATOM     15  C   UNL     1      -5.361  -2.469  29.417  1.00  0.00    -0.000 C 
BRANCH  15  16
ATOM     16  C   UNL     1      -5.688  -3.459  28.285  1.00  0.00    -0.000 C 
BRANCH  16  17
ATOM     17  C   UNL     1      -4.942  -4.795  28.423  1.00  0.00    -0.003 C 
ATOM     18  C   UNL     1      -3.464  -4.569  28.733  1.00  0.00     0.004 C 
ENDBRANCH  16  17
ENDBRANCH  15  16
ENDBRANCH  14  15
ENDBRANCH  13  14
ENDBRANCH  12  13
ENDBRANCH  11  12
ENDBRANCH   1  11
TORSDOF 14
ENDMDL
MODEL 9
REMARK VINA RESULT:    -4.253      2.427      5.636
REMARK INTER + INTRA:          -9.226
REMARK INTER:                  -7.523
REMARK INTRA:                  -1.703
REMARK UNBOUND:                -1.492
REMARK SMILES CCCCCCCCCCCCCCCC(=O)[O-]
REMARK SMILES IDX 9 1 10 2 11 3 12 4 13 5 14 6 15 7 16 8 17 9 18 10 8 11 7 12
REMARK SMILES IDX 6 13 5 14 4 15 3 16 2 17 1 18
REMARK H PARENT
REMARK Flexibility Score: inf
ROOT
ATOM      1  C   UNL     1      -2.616   2.449  29.770  1.00  0.00     0.000 C 
ENDROOT
BRANCH   1   2
ATOM      2  C   UNL     1      -3.406   1.136  29.750  1.00  0.00     0.000 C 
BRANCH   2   3
ATOM      3  C   UNL     1      -4.916   1.402  29.755  1.00  0.00     0.000 C 
BRANCH   3   4
ATOM      4  C   UNL     1      -5.688   0.206  29.185  1.00  0.00     0.000 C 
BRANCH   4   5
ATOM      5  C   UNL     1      -4.728  -0.850  28.619  1.00  0.00     0.000 C 
BRANCH   5   6
ATOM      6  C   UNL     1      -4.840  -2.211  29.331  1.00  0.00     0.006 C 
BRANCH   6   7
ATOM      7  C   UNL     1      -5.712  -3.236  28.583  1.00  0.00     0.053 C 
BRANCH   7   8
ATOM      8  C   UNL     1      -5.022  -4.552  28.396  1.00  0.00     0.041 C 
ATOM      9  O   UNL     1      -3.776  -4.642  28.557  1.00  0.00    -0.550 OA
ATOM     10  O   UNL     1      -5.746  -5.673  28.009  1.00  0.00    -0.550 OA
ENDBRANCH   7   8
ENDBRANCH   6   7
ENDBRANCH   5   6
ENDBRANCH   4   5
ENDBRANCH   3   4
ENDBRANCH   2   3
ENDBRANCH   1   2
BRANCH   1  11
ATOM     11  C   UNL     1      -1.588   2.491  28.628  1.00  0.00     0.000 C 
BRANCH  11  12
ATOM     12  C   UNL     1      -0.197   2.967  29.087  1.00  0.00    -0.000 C 
BRANCH  12  13
ATOM     13  C   UNL     1       0.889   1.876  29.099  1.00  0.00    -0.000 C 
BRANCH  13  14
ATOM     14  C   UNL     1       0.610   0.765  30.124  1.00  0.00    -0.000 C 
BRANCH  14  15
ATOM     15  C   UNL     1       0.916  -0.642  29.580  1.00  0.00    -0.000 C 
BRANCH  15  16
ATOM     16  C   UNL     1       0.572  -0.851  28.095  1.00  0.00    -0.000 C 
BRANCH  16  17
ATOM     17  C   UNL     1      -0.875  -1.317  27.875  1.00  0.00    -0.003 C 
ATOM     18  C   UNL     1      -1.556  -0.498  26.781  1.00  0.00     0.004 C 
ENDBRANCH  16  17
ENDBRANCH  15  16
ENDBRANCH  14  15
ENDBRANCH  13  14
ENDBRANCH  12  13
ENDBRANCH  11  12
ENDBRANCH   1  11
TORSDOF 14
ENDMDL
