MODEL 1
REMARK VINA RESULT:    -5.490      0.000      0.000
REMARK INTER + INTRA:         -10.429
REMARK INTER:                  -9.341
REMARK INTRA:                  -1.088
REMARK UNBOUND:                -1.088
REMARK SMILES CCCCCCCCCCCCCC(=O)[O-]
REMARK SMILES IDX 8 1 9 2 10 3 11 4 12 5 13 6 14 7 15 8 16 9 7 10 6 11 5 12
REMARK SMILES IDX 4 13 3 14 2 15 1 16
REMARK H PARENT
REMARK Flexibility Score: inf
ROOT
ATOM      1  C   UNL     1      -3.361  45.231   6.569  1.00  0.00     0.000 C 
ENDROOT
BRANCH   1   2
ATOM      2  C   UNL     1      -2.430  46.037   7.486  1.00  0.00     0.000 C 
BRANCH   2   3
ATOM      3  C   UNL     1      -1.167  46.529   6.761  1.00  0.00     0.000 C 
BRANCH   3   4
ATOM      4  C   UNL     1      -0.487  47.702   7.491  1.00  0.00     0.000 C 
BRANCH   4   5
ATOM      5  C   UNL     1       0.927  47.351   7.981  1.00  0.00     0.006 C 
BRANCH   5   6
ATOM      6  C   UNL     1       1.140  47.695   9.461  1.00  0.00     0.053 C 
BRANCH   6   7
ATOM      7  C   UNL     1       0.467  46.685  10.335  1.00  0.00     0.041 C 
ATOM      8  O   UNL     1      -0.536  47.011  11.024  1.00  0.00    -0.550 OA
ATOM      9  O   UNL     1       0.977  45.396  10.429  1.00  0.00    -0.550 OA
ENDBRANCH   6   7
ENDBRANCH   5   6
ENDBRANCH   4   5
ENDBRANCH   3   4
ENDBRANCH   2   3
ENDBRANCH   1   2
BRANCH   1  10
ATOM     10  C   UNL     1      -2.832  45.212   5.129  1.00  0.00     0.000 C 
BRANCH  10  11
ATOM     11  C   UNL     1      -3.017  43.827   4.494  1.00  0.00    -0.000 C 
BRANCH  11  12
ATOM     12  C   UNL     1      -2.321  43.699   3.127  1.00  0.00    -0.000 C 
BRANCH  12  13
ATOM     13  C   UNL     1      -2.727  44.758   2.083  1.00  0.00    -0.000 C 
BRANCH  13  14
ATOM     14  C   UNL     1      -1.590  45.684   1.615  1.00  0.00    -0.000 C 
BRANCH  14  15
ATOM     15  C   UNL     1      -0.236  45.330   2.247  1.00  0.00    -0.003 C 
ATOM     16  C   UNL     1       0.167  46.364   3.295  1.00  0.00     0.004 C 
ENDBRANCH  14  15
ENDBRANCH  13  14
ENDBRANCH  12  13
ENDBRANCH  11  12
ENDBRANCH  10  11
ENDBRANCH   1  10
TORSDOF 12
ENDMDL
MODEL 2
REMARK VINA RESULT:    -5.477      7.769     10.777
REMARK INTER + INTRA:         -10.408
REMARK INTER:                  -9.407
REMARK INTRA:                  -1.001
REMARK UNBOUND:                -1.088
REMARK SMILES CCCCCCCCCCCCCC(=O)[O-]
REMARK SMILES IDX 8 1 9 2 10 3 11 4 12 5 13 6 14 7 15 8 16 9 7 10 6 11 5 12
REMARK SMILES IDX 4 13 3 14 2 15 1 16
REMARK H PARENT
REMARK Flexibility Score: inf
ROOT
ATOM      1  C   UNL     1       0.537  44.697  -3.317  1.00  0.00     0.000 C 
ENDROOT
BRANCH   1   2
ATOM      2  C   UNL     1       1.870  44.096  -3.784  1.00  0.00     0.000 C 
BRANCH   2   3
ATOM      3  C   UNL     1       3.004  44.311  -2.768  1.00  0.00     0.000 C 
BRANCH   3   4
ATOM      4  C   UNL     1       3.729  43.002  -2.407  1.00  0.00     0.000 C 
BRANCH   4   5
ATOM      5  C   UNL     1       5.244  43.080  -2.653  1.00  0.00     0.006 C 
BRANCH   5   6
ATOM      6  C   UNL     1       5.687  44.458  -3.164  1.00  0.00     0.053 C 
BRANCH   6   7
ATOM      7  C   UNL     1       6.204  44.355  -4.564  1.00  0.00     0.041 C 
ATOM      8  O   UNL     1       7.441  44.257  -4.778  1.00  0.00    -0.550 OA
ATOM      9  O   UNL     1       5.323  44.418  -5.637  1.00  0.00    -0.550 OA
ENDBRANCH   6   7
ENDBRANCH   5   6
ENDBRANCH   4   5
ENDBRANCH   3   4
ENDBRANCH   2   3
ENDBRANCH   1   2
BRANCH   1  10
ATOM     10  C   UNL     1       0.512  44.860  -1.792  1.00  0.00     0.000 C 
BRANCH  10  11
ATOM     11  C   UNL     1      -0.930  44.970  -1.276  1.00  0.00    -0.000 C 
BRANCH  11  12
ATOM     12  C   UNL     1      -1.021  44.903   0.260  1.00  0.00    -0.000 C 
BRANCH  12  13
ATOM     13  C   UNL     1       0.286  44.510   0.977  1.00  0.00    -0.000 C 
BRANCH  13  14
ATOM     14  C   UNL     1       0.640  45.368   2.205  1.00  0.00    -0.000 C 
BRANCH  14  15
ATOM     15  C   UNL     1       2.148  45.410   2.487  1.00  0.00    -0.003 C 
ATOM     16  C   UNL     1       2.932  44.688   1.395  1.00  0.00     0.004 C 
ENDBRANCH  14  15
ENDBRANCH  13  14
ENDBRANCH  12  13
ENDBRANCH  11  12
ENDBRANCH  10  11
ENDBRANCH   1  10
TORSDOF 12
ENDMDL
MODEL 3
REMARK VINA RESULT:    -5.436      3.868      6.314
REMARK INTER + INTRA:         -10.338
REMARK INTER:                  -9.254
REMARK INTRA:                  -1.084
REMARK UNBOUND:                -1.088
REMARK SMILES CCCCCCCCCCCCCC(=O)[O-]
REMARK SMILES IDX 8 1 9 2 10 3 11 4 12 5 13 6 14 7 15 8 16 9 7 10 6 11 5 12
REMARK SMILES IDX 4 13 3 14 2 15 1 16
REMARK H PARENT
REMARK Flexibility Score: inf
ROOT
ATOM      1  C   UNL     1      -0.986  44.802  -0.645  1.00  0.00     0.000 C 
ENDROOT
BRANCH   1   2
ATOM      2  C   UNL     1      -1.597  46.044   0.019  1.00  0.00     0.000 C 
BRANCH   2   3
ATOM      3  C   UNL     1      -2.372  45.707   1.304  1.00  0.00     0.000 C 
BRANCH   3   4
ATOM      4  C   UNL     1      -2.637  44.198   1.454  1.00  0.00     0.000 C 
BRANCH   4   5
ATOM      5  C   UNL     1      -2.295  43.677   2.859  1.00  0.00     0.006 C 
BRANCH   5   6
ATOM      6  C   UNL     1      -2.243  44.797   3.906  1.00  0.00     0.053 C 
BRANCH   6   7
ATOM      7  C   UNL     1      -3.270  44.566   4.969  1.00  0.00     0.041 C 
ATOM      8  O   UNL     1      -2.945  44.018   6.056  1.00  0.00    -0.550 OA
ATOM      9  O   UNL     1      -4.597  44.909   4.741  1.00  0.00    -0.550 OA
ENDBRANCH   6   7
ENDBRANCH   5   6
ENDBRANCH   4   5
ENDBRANCH   3   4
ENDBRANCH   2   3
ENDBRANCH   1   2
BRANCH   1  10
ATOM     10  C   UNL     1       0.527  44.737  -0.401  1.00  0.00     0.000 C 
BRANCH  10  11
ATOM     11  C   UNL     1       0.834  44.191   1.001  1.00  0.00    -0.000 C 
BRANCH  11  12
ATOM     12  C   UNL     1       2.108  44.800   1.614  1.00  0.00    -0.000 C 
BRANCH  12  13
ATOM     13  C   UNL     1       1.868  45.843   2.723  1.00  0.00    -0.000 C 
BRANCH  13  14
ATOM     14  C   UNL     1       2.744  45.677   3.977  1.00  0.00    -0.000 C 
BRANCH  14  15
ATOM     15  C   UNL     1       3.979  44.800   3.728  1.00  0.00    -0.003 C 
ATOM     16  C   UNL     1       4.865  44.735   4.969  1.00  0.00     0.004 C 
ENDBRANCH  14  15
ENDBRANCH  13  14
ENDBRANCH  12  13
ENDBRANCH  11  12
ENDBRANCH  10  11
ENDBRANCH   1  10
TORSDOF 12
ENDMDL
MODEL 4
REMARK VINA RESULT:    -5.429      3.212      5.396
REMARK INTER + INTRA:         -10.326
REMARK INTER:                  -9.685
REMARK INTRA:                  -0.641
REMARK UNBOUND:                -1.088
REMARK SMILES CCCCCCCCCCCCCC(=O)[O-]
REMARK SMILES IDX 8 1 9 2 10 3 11 4 12 5 13 6 14 7 15 8 16 9 7 10 6 11 5 12
REMARK SMILES IDX 4 13 3 14 2 15 1 16
REMARK H PARENT
REMARK Flexibility Score: inf
ROOT
ATOM      1  C   UNL     1       1.233  44.440   0.628  1.00  0.00     0.000 C 
ENDROOT
BRANCH   1   2
ATOM      2  C   UNL     1       2.518  45.058   1.197  1.00  0.00     0.000 C 
BRANCH   2   3
ATOM      3  C   UNL     1       2.415  45.357   2.702  1.00  0.00     0.000 C 
BRANCH   3   4
ATOM      4  C   UNL     1       3.704  45.974   3.271  1.00  0.00     0.000 C 
BRANCH   4   5
ATOM      5  C   UNL     1       4.397  45.057   4.291  1.00  0.00     0.006 C 
BRANCH   5   6
ATOM      6  C   UNL     1       3.677  45.032   5.646  1.00  0.00     0.053 C 
BRANCH   6   7
ATOM      7  C   UNL     1       4.349  44.074   6.577  1.00  0.00     0.041 C 
ATOM      8  O   UNL     1       5.602  44.089   6.707  1.00  0.00    -0.550 OA
ATOM      9  O   UNL     1       3.598  43.129   7.264  1.00  0.00    -0.550 OA
ENDBRANCH   6   7
ENDBRANCH   5   6
ENDBRANCH   4   5
ENDBRANCH   3   4
ENDBRANCH   2   3
ENDBRANCH   1   2
BRANCH   1  10
ATOM     10  C   UNL     1       0.001  44.921   1.404  1.00  0.00     0.000 C 
BRANCH  10  11
ATOM     11  C   UNL     1      -1.150  43.912   1.288  1.00  0.00    -0.000 C 
BRANCH  11  12
ATOM     12  C   UNL     1      -2.042  43.876   2.542  1.00  0.00    -0.000 C 
BRANCH  12  13
ATOM     13  C   UNL     1      -1.906  45.093   3.478  1.00  0.00    -0.000 C 
BRANCH  13  14
ATOM     14  C   UNL     1      -2.674  44.985   4.807  1.00  0.00    -0.000 C 
BRANCH  14  15
ATOM     15  C   UNL     1      -2.084  45.873   5.911  1.00  0.00    -0.003 C 
ATOM     16  C   UNL     1      -2.992  45.899   7.138  1.00  0.00     0.004 C 
ENDBRANCH  14  15
ENDBRANCH  13  14
ENDBRANCH  12  13
ENDBRANCH  11  12
ENDBRANCH  10  11
ENDBRANCH   1  10
TORSDOF 12
ENDMDL
MODEL 5
REMARK VINA RESULT:    -5.389      2.489      5.014
REMARK INTER + INTRA:         -10.258
REMARK INTER:                  -9.271
REMARK INTRA:                  -0.987
REMARK UNBOUND:                -1.088
REMARK SMILES CCCCCCCCCCCCCC(=O)[O-]
REMARK SMILES IDX 8 1 9 2 10 3 11 4 12 5 13 6 14 7 15 8 16 9 7 10 6 11 5 12
REMARK SMILES IDX 4 13 3 14 2 15 1 16
REMARK H PARENT
REMARK Flexibility Score: inf
ROOT
ATOM      1  C   UNL     1      -1.927  45.787   0.400  1.00  0.00     0.000 C 
ENDROOT
BRANCH   1   2
ATOM      2  C   UNL     1      -2.943  44.916   1.152  1.00  0.00     0.000 C 
BRANCH   2   3
ATOM      3  C   UNL     1      -2.334  44.227   2.384  1.00  0.00     0.000 C 
BRANCH   3   4
ATOM      4  C   UNL     1      -1.674  45.225   3.352  1.00  0.00     0.000 C 
BRANCH   4   5
ATOM      5  C   UNL     1      -2.396  45.296   4.707  1.00  0.00     0.006 C 
BRANCH   5   6
ATOM      6  C   UNL     1      -1.608  46.096   5.753  1.00  0.00     0.053 C 
BRANCH   6   7
ATOM      7  C   UNL     1      -2.311  46.065   7.073  1.00  0.00     0.041 C 
ATOM      8  O   UNL     1      -1.649  45.992   8.143  1.00  0.00    -0.550 OA
ATOM      9  O   UNL     1      -3.700  46.064   7.122  1.00  0.00    -0.550 OA
ENDBRANCH   6   7
ENDBRANCH   5   6
ENDBRANCH   4   5
ENDBRANCH   3   4
ENDBRANCH   2   3
ENDBRANCH   1   2
BRANCH   1  10
ATOM     10  C   UNL     1      -1.602  45.190  -0.975  1.00  0.00     0.000 C 
BRANCH  10  11
ATOM     11  C   UNL     1      -0.116  44.817  -1.075  1.00  0.00    -0.000 C 
BRANCH  11  12
ATOM     12  C   UNL     1       0.610  44.890   0.280  1.00  0.00    -0.000 C 
BRANCH  12  13
ATOM     13  C   UNL     1       2.094  44.473   0.252  1.00  0.00    -0.000 C 
BRANCH  13  14
ATOM     14  C   UNL     1       2.858  44.688   1.570  1.00  0.00    -0.000 C 
BRANCH  14  15
ATOM     15  C   UNL     1       2.017  45.406   2.635  1.00  0.00    -0.003 C 
ATOM     16  C   UNL     1       2.868  46.388   3.436  1.00  0.00     0.004 C 
ENDBRANCH  14  15
ENDBRANCH  13  14
ENDBRANCH  12  13
ENDBRANCH  11  12
ENDBRANCH  10  11
ENDBRANCH   1  10
TORSDOF 12
ENDMDL
MODEL 6
REMARK VINA RESULT:    -5.364      6.852      9.484
REMARK INTER + INTRA:         -10.215
REMARK INTER:                  -9.368
REMARK INTRA:                  -0.847
REMARK UNBOUND:                -1.088
REMARK SMILES CCCCCCCCCCCCCC(=O)[O-]
REMARK SMILES IDX 8 1 9 2 10 3 11 4 12 5 13 6 14 7 15 8 16 9 7 10 6 11 5 12
REMARK SMILES IDX 4 13 3 14 2 15 1 16
REMARK H PARENT
REMARK Flexibility Score: inf
ROOT
ATOM      1  C   UNL     1      -0.842  44.513   0.070  1.00  0.00     0.000 C 
ENDROOT
BRANCH   1   2
ATOM      2  C   UNL     1      -0.820  45.565  -1.049  1.00  0.00     0.000 C 
BRANCH   2   3
ATOM      3  C   UNL     1      -0.955  44.943  -2.448  1.00  0.00     0.000 C 
BRANCH   3   4
ATOM      4  C   UNL     1       0.248  45.260  -3.354  1.00  0.00     0.000 C 
BRANCH   4   5
ATOM      5  C   UNL     1       1.324  44.163  -3.310  1.00  0.00     0.006 C 
BRANCH   5   6
ATOM      6  C   UNL     1       2.377  44.414  -2.223  1.00  0.00     0.053 C 
BRANCH   6   7
ATOM      7  C   UNL     1       3.712  43.897  -2.659  1.00  0.00     0.041 C 
ATOM      8  O   UNL     1       4.048  42.711  -2.400  1.00  0.00    -0.550 OA
ATOM      9  O   UNL     1       4.606  44.740  -3.306  1.00  0.00    -0.550 OA
ENDBRANCH   6   7
ENDBRANCH   5   6
ENDBRANCH   4   5
ENDBRANCH   3   4
ENDBRANCH   2   3
ENDBRANCH   1   2
BRANCH   1  10
ATOM     10  C   UNL     1       0.060  44.933   1.237  1.00  0.00     0.000 C 
BRANCH  10  11
ATOM     11  C   UNL     1       1.415  44.213   1.169  1.00  0.00    -0.000 C 
BRANCH  11  12
ATOM     12  C   UNL     1       2.596  45.126   1.546  1.00  0.00    -0.000 C 
BRANCH  12  13
ATOM     13  C   UNL     1       2.504  45.773   2.943  1.00  0.00    -0.000 C 
BRANCH  13  14
ATOM     14  C   UNL     1       3.844  45.919   3.684  1.00  0.00    -0.000 C 
BRANCH  14  15
ATOM     15  C   UNL     1       4.385  44.581   4.206  1.00  0.00    -0.003 C 
ATOM     16  C   UNL     1       5.619  44.790   5.079  1.00  0.00     0.004 C 
ENDBRANCH  14  15
ENDBRANCH  13  14
ENDBRANCH  12  13
ENDBRANCH  11  12
ENDBRANCH  10  11
ENDBRANCH   1  10
TORSDOF 12
ENDMDL
MODEL 7
REMARK VINA RESULT:    -5.359      3.146      5.873
REMARK INTER + INTRA:         -10.207
REMARK INTER:                  -9.536
REMARK INTRA:                  -0.671
REMARK UNBOUND:                -1.088
REMARK SMILES CCCCCCCCCCCCCC(=O)[O-]
REMARK SMILES IDX 8 1 9 2 10 3 11 4 12 5 13 6 14 7 15 8 16 9 7 10 6 11 5 12
REMARK SMILES IDX 4 13 3 14 2 15 1 16
REMARK H PARENT
REMARK Flexibility Score: inf
ROOT
ATOM      1  C   UNL     1       0.239  44.475   0.804  1.00  0.00     0.000 C 
ENDROOT
BRANCH   1   2
ATOM      2  C   UNL     1      -0.356  45.227   2.003  1.00  0.00     0.000 C 
BRANCH   2   3
ATOM      3  C   UNL     1      -1.881  45.061   2.107  1.00  0.00     0.000 C 
BRANCH   3   4
ATOM      4  C   UNL     1      -2.288  43.934   3.073  1.00  0.00     0.000 C 
BRANCH   4   5
ATOM      5  C   UNL     1      -2.962  44.465   4.347  1.00  0.00     0.006 C 
BRANCH   5   6
ATOM      6  C   UNL     1      -2.134  45.555   5.041  1.00  0.00     0.053 C 
BRANCH   6   7
ATOM      7  C   UNL     1      -2.599  45.747   6.450  1.00  0.00     0.041 C 
ATOM      8  O   UNL     1      -3.830  45.767   6.715  1.00  0.00    -0.550 OA
ATOM      9  O   UNL     1      -1.673  45.956   7.465  1.00  0.00    -0.550 OA
ENDBRANCH   6   7
ENDBRANCH   5   6
ENDBRANCH   4   5
ENDBRANCH   3   4
ENDBRANCH   2   3
ENDBRANCH   1   2
BRANCH   1  10
ATOM     10  C   UNL     1       1.771  44.550   0.815  1.00  0.00     0.000 C 
BRANCH  10  11
ATOM     11  C   UNL     1       2.295  44.891   2.218  1.00  0.00    -0.000 C 
BRANCH  11  12
ATOM     12  C   UNL     1       3.192  46.142   2.232  1.00  0.00    -0.000 C 
BRANCH  12  13
ATOM     13  C   UNL     1       3.921  46.410   3.564  1.00  0.00    -0.000 C 
BRANCH  13  14
ATOM     14  C   UNL     1       3.552  45.457   4.714  1.00  0.00    -0.000 C 
BRANCH  14  15
ATOM     15  C   UNL     1       4.726  44.573   5.155  1.00  0.00    -0.003 C 
ATOM     16  C   UNL     1       4.384  43.799   6.425  1.00  0.00     0.004 C 
ENDBRANCH  14  15
ENDBRANCH  13  14
ENDBRANCH  12  13
ENDBRANCH  11  12
ENDBRANCH  10  11
ENDBRANCH   1  10
TORSDOF 12
ENDMDL
MODEL 8
REMARK VINA RESULT:    -5.350      7.132     10.128
REMARK INTER + INTRA:         -10.192
REMARK INTER:                  -9.357
REMARK INTRA:                  -0.835
REMARK UNBOUND:                -1.088
REMARK SMILES CCCCCCCCCCCCCC(=O)[O-]
REMARK SMILES IDX 8 1 9 2 10 3 11 4 12 5 13 6 14 7 15 8 16 9 7 10 6 11 5 12
REMARK SMILES IDX 4 13 3 14 2 15 1 16
REMARK H PARENT
REMARK Flexibility Score: inf
ROOT
ATOM      1  C   UNL     1      -0.344  44.958  -1.367  1.00  0.00     0.000 C 
ENDROOT
BRANCH   1   2
ATOM      2  C   UNL     1       1.060  44.456  -1.732  1.00  0.00     0.000 C 
BRANCH   2   3
ATOM      3  C   UNL     1       1.431  44.747  -3.195  1.00  0.00     0.000 C 
BRANCH   3   4
ATOM      4  C   UNL     1       2.885  44.364  -3.523  1.00  0.00     0.000 C 
BRANCH   4   5
ATOM      5  C   UNL     1       3.722  44.098  -2.262  1.00  0.00     0.006 C 
BRANCH   5   6
ATOM      6  C   UNL     1       5.098  43.497  -2.584  1.00  0.00     0.053 C 
BRANCH   6   7
ATOM      7  C   UNL     1       5.803  44.327  -3.609  1.00  0.00     0.041 C 
ATOM      8  O   UNL     1       6.188  45.492  -3.327  1.00  0.00    -0.550 OA
ATOM      9  O   UNL     1       5.991  43.832  -4.894  1.00  0.00    -0.550 OA
ENDBRANCH   6   7
ENDBRANCH   5   6
ENDBRANCH   4   5
ENDBRANCH   3   4
ENDBRANCH   2   3
ENDBRANCH   1   2
BRANCH   1  10
ATOM     10  C   UNL     1      -0.562  44.926   0.151  1.00  0.00     0.000 C 
BRANCH  10  11
ATOM     11  C   UNL     1       0.602  44.216   0.858  1.00  0.00    -0.000 C 
BRANCH  11  12
ATOM     12  C   UNL     1       1.276  45.095   1.927  1.00  0.00    -0.000 C 
BRANCH  12  13
ATOM     13  C   UNL     1       2.804  45.239   1.789  1.00  0.00    -0.000 C 
BRANCH  13  14
ATOM     14  C   UNL     1       3.459  46.226   2.772  1.00  0.00    -0.000 C 
BRANCH  14  15
ATOM     15  C   UNL     1       3.398  45.745   4.228  1.00  0.00    -0.003 C 
ATOM     16  C   UNL     1       4.400  44.622   4.478  1.00  0.00     0.004 C 
ENDBRANCH  14  15
ENDBRANCH  13  14
ENDBRANCH  12  13
ENDBRANCH  11  12
ENDBRANCH  10  11
ENDBRANCH   1  10
TORSDOF 12
ENDMDL
MODEL 9
REMARK VINA RESULT:    -5.284      1.484      2.007
REMARK INTER + INTRA:         -10.080
REMARK INTER:                  -9.561
REMARK INTRA:                  -0.518
REMARK UNBOUND:                -1.088
REMARK SMILES CCCCCCCCCCCCCC(=O)[O-]
REMARK SMILES IDX 8 1 9 2 10 3 11 4 12 5 13 6 14 7 15 8 16 9 7 10 6 11 5 12
REMARK SMILES IDX 4 13 3 14 2 15 1 16
REMARK H PARENT
REMARK Flexibility Score: inf
ROOT
ATOM      1  C   UNL     1      -3.556  44.565   4.926  1.00  0.00     0.000 C 
ENDROOT
BRANCH   1   2
ATOM      2  C   UNL     1      -3.054  45.157   6.251  1.00  0.00     0.000 C 
BRANCH   2   3
ATOM      3  C   UNL     1      -1.792  46.017   6.073  1.00  0.00     0.000 C 
BRANCH   3   4
ATOM      4  C   UNL     1      -1.343  46.684   7.386  1.00  0.00     0.000 C 
BRANCH   4   5
ATOM      5  C   UNL     1       0.137  47.097   7.361  1.00  0.00     0.006 C 
BRANCH   5   6
ATOM      6  C   UNL     1       0.526  47.967   8.563  1.00  0.00     0.053 C 
BRANCH   6   7
ATOM      7  C   UNL     1       0.708  47.123   9.784  1.00  0.00     0.041 C 
ATOM      8  O   UNL     1       1.546  46.182   9.785  1.00  0.00    -0.550 OA
ATOM      9  O   UNL     1      -0.084  47.341  10.905  1.00  0.00    -0.550 OA
ENDBRANCH   6   7
ENDBRANCH   5   6
ENDBRANCH   4   5
ENDBRANCH   3   4
ENDBRANCH   2   3
ENDBRANCH   1   2
BRANCH   1  10
ATOM     10  C   UNL     1      -2.535  44.789   3.802  1.00  0.00     0.000 C 
BRANCH  10  11
ATOM     11  C   UNL     1      -2.371  43.523   2.949  1.00  0.00    -0.000 C 
BRANCH  11  12
ATOM     12  C   UNL     1      -1.906  43.827   1.514  1.00  0.00    -0.000 C 
BRANCH  12  13
ATOM     13  C   UNL     1      -0.407  43.585   1.246  1.00  0.00    -0.000 C 
BRANCH  13  14
ATOM     14  C   UNL     1       0.397  44.837   0.854  1.00  0.00    -0.000 C 
BRANCH  14  15
ATOM     15  C   UNL     1       1.836  44.513   0.431  1.00  0.00    -0.003 C 
ATOM     16  C   UNL     1       2.826  44.863   1.538  1.00  0.00     0.004 C 
ENDBRANCH  14  15
ENDBRANCH  13  14
ENDBRANCH  12  13
ENDBRANCH  11  12
ENDBRANCH  10  11
ENDBRANCH   1  10
TORSDOF 12
ENDMDL
