MODEL 1
REMARK VINA RESULT:    -4.712      0.000      0.000
REMARK INTER + INTRA:         -10.281
REMARK INTER:                  -8.845
REMARK INTRA:                  -1.436
REMARK UNBOUND:                -1.436
REMARK SMILES CCCCCCCCC=CCCCCCCCC(=O)[O-]
REMARK SMILES IDX 10 1 9 2 11 3 12 4 13 5 14 6 15 7 16 8 17 9 18 10 19 11
REMARK SMILES IDX 20 12 8 13 7 14 6 15 5 16 4 17 3 18 2 19 1 20
REMARK H PARENT
REMARK Flexibility Score: inf
ROOT
ATOM      1  C   UNL     1      -8.734  16.138 -21.072  1.00  0.00    -0.031 C 
ATOM      2  C   UNL     1      -8.296  16.117 -22.344  1.00  0.00    -0.031 C 
ENDROOT
BRANCH   1   3
ATOM      3  C   UNL     1      -7.911  15.735 -19.874  1.00  0.00     0.027 C 
BRANCH   3   4
ATOM      4  C   UNL     1      -7.517  16.946 -19.015  1.00  0.00     0.004 C 
BRANCH   4   5
ATOM      5  C   UNL     1      -6.953  18.100 -19.861  1.00  0.00     0.000 C 
BRANCH   5   6
ATOM      6  C   UNL     1      -7.877  19.336 -19.851  1.00  0.00     0.000 C 
BRANCH   6   7
ATOM      7  C   UNL     1      -7.245  20.583 -20.492  1.00  0.00     0.000 C 
BRANCH   7   8
ATOM      8  C   UNL     1      -7.367  21.836 -19.610  1.00  0.00     0.006 C 
BRANCH   8   9
ATOM      9  C   UNL     1      -8.814  22.097 -19.171  1.00  0.00     0.053 C 
BRANCH   9  10
ATOM     10  C   UNL     1      -8.875  22.848 -17.876  1.00  0.00     0.041 C 
ATOM     11  O   UNL     1      -9.879  23.556 -17.599  1.00  0.00    -0.550 OA
ATOM     12  O   UNL     1      -7.809  22.789 -16.987  1.00  0.00    -0.550 OA
ENDBRANCH   9  10
ENDBRANCH   8   9
ENDBRANCH   7   8
ENDBRANCH   6   7
ENDBRANCH   5   6
ENDBRANCH   4   5
ENDBRANCH   3   4
ENDBRANCH   1   3
BRANCH   2  13
ATOM     13  C   UNL     1      -6.950  15.593 -22.780  1.00  0.00     0.027 C 
BRANCH  13  14
ATOM     14  C   UNL     1      -7.062  14.221 -23.462  1.00  0.00     0.004 C 
BRANCH  14  15
ATOM     15  C   UNL     1      -7.087  13.069 -22.446  1.00  0.00     0.000 C 
BRANCH  15  16
ATOM     16  C   UNL     1      -7.785  11.834 -23.034  1.00  0.00     0.000 C 
BRANCH  16  17
ATOM     17  C   UNL     1      -9.277  11.760 -22.670  1.00  0.00    -0.000 C 
BRANCH  17  18
ATOM     18  C   UNL     1      -9.718  12.688 -21.520  1.00  0.00    -0.000 C 
BRANCH  18  19
ATOM     19  C   UNL     1     -11.213  13.051 -21.515  1.00  0.00    -0.003 C 
ATOM     20  C   UNL     1     -12.114  11.857 -21.198  1.00  0.00     0.004 C 
ENDBRANCH  18  19
ENDBRANCH  17  18
ENDBRANCH  16  17
ENDBRANCH  15  16
ENDBRANCH  14  15
ENDBRANCH  13  14
ENDBRANCH   2  13
TORSDOF 15
ENDMDL
MODEL 2
REMARK VINA RESULT:    -4.689      3.732      8.618
REMARK INTER + INTRA:         -10.236
REMARK INTER:                  -9.185
REMARK INTRA:                  -1.051
REMARK UNBOUND:                -1.436
REMARK SMILES CCCCCCCCC=CCCCCCCCC(=O)[O-]
REMARK SMILES IDX 10 1 9 2 11 3 12 4 13 5 14 6 15 7 16 8 17 9 18 10 19 11
REMARK SMILES IDX 20 12 8 13 7 14 6 15 5 16 4 17 3 18 2 19 1 20
REMARK H PARENT
REMARK Flexibility Score: inf
ROOT
ATOM      1  C   UNL     1      -7.828  17.110 -19.607  1.00  0.00    -0.031 C 
ATOM      2  C   UNL     1      -8.302  18.369 -19.650  1.00  0.00    -0.031 C 
ENDROOT
BRANCH   1   3
ATOM      3  C   UNL     1      -7.074  16.438 -20.728  1.00  0.00     0.027 C 
BRANCH   3   4
ATOM      4  C   UNL     1      -8.008  16.004 -21.867  1.00  0.00     0.004 C 
BRANCH   4   5
ATOM      5  C   UNL     1      -7.241  15.716 -23.170  1.00  0.00     0.000 C 
BRANCH   5   6
ATOM      6  C   UNL     1      -7.471  14.276 -23.675  1.00  0.00     0.000 C 
BRANCH   6   7
ATOM      7  C   UNL     1      -7.465  13.221 -22.556  1.00  0.00     0.000 C 
BRANCH   7   8
ATOM      8  C   UNL     1      -8.791  12.453 -22.450  1.00  0.00     0.006 C 
BRANCH   8   9
ATOM      9  C   UNL     1      -9.598  12.855 -21.209  1.00  0.00     0.053 C 
BRANCH   9  10
ATOM     10  C   UNL     1     -11.055  13.011 -21.519  1.00  0.00     0.041 C 
ATOM     11  O   UNL     1     -11.721  12.032 -21.948  1.00  0.00    -0.550 OA
ATOM     12  O   UNL     1     -11.673  14.246 -21.360  1.00  0.00    -0.550 OA
ENDBRANCH   9  10
ENDBRANCH   8   9
ENDBRANCH   7   8
ENDBRANCH   6   7
ENDBRANCH   5   6
ENDBRANCH   4   5
ENDBRANCH   3   4
ENDBRANCH   1   3
BRANCH   2  13
ATOM     13  C   UNL     1      -8.242  19.269 -20.859  1.00  0.00     0.027 C 
BRANCH  13  14
ATOM     14  C   UNL     1      -8.922  20.622 -20.602  1.00  0.00     0.004 C 
BRANCH  14  15
ATOM     15  C   UNL     1      -8.166  21.785 -21.261  1.00  0.00     0.000 C 
BRANCH  15  16
ATOM     16  C   UNL     1      -6.875  22.106 -20.493  1.00  0.00     0.000 C 
BRANCH  16  17
ATOM     17  C   UNL     1      -6.953  21.723 -19.005  1.00  0.00    -0.000 C 
BRANCH  17  18
ATOM     18  C   UNL     1      -6.875  22.906 -18.019  1.00  0.00    -0.000 C 
BRANCH  18  19
ATOM     19  C   UNL     1      -8.127  23.110 -17.149  1.00  0.00    -0.003 C 
ATOM     20  C   UNL     1      -9.429  22.986 -17.940  1.00  0.00     0.004 C 
ENDBRANCH  18  19
ENDBRANCH  17  18
ENDBRANCH  16  17
ENDBRANCH  15  16
ENDBRANCH  14  15
ENDBRANCH  13  14
ENDBRANCH   2  13
TORSDOF 15
ENDMDL
MODEL 3
REMARK VINA RESULT:    -4.606      3.176      8.109
REMARK INTER + INTRA:         -10.081
REMARK INTER:                  -9.150
REMARK INTRA:                  -0.931
REMARK UNBOUND:                -1.436
REMARK SMILES CCCCCCCCC=CCCCCCCCC(=O)[O-]
REMARK SMILES IDX 10 1 9 2 11 3 12 4 13 5 14 6 15 7 16 8 17 9 18 10 19 11
REMARK SMILES IDX 20 12 8 13 7 14 6 15 5 16 4 17 3 18 2 19 1 20
REMARK H PARENT
REMARK Flexibility Score: inf
ROOT
ATOM      1  C   UNL     1      -7.843  16.186 -19.181  1.00  0.00    -0.031 C 
ATOM      2  C   UNL     1      -7.812  17.436 -19.677  1.00  0.00    -0.031 C 
ENDROOT
BRANCH   1   3
ATOM      3  C   UNL     1      -6.890  15.083 -19.572  1.00  0.00     0.027 C 
BRANCH   3   4
ATOM      4  C   UNL     1      -6.930  14.799 -21.081  1.00  0.00     0.004 C 
BRANCH   4   5
ATOM      5  C   UNL     1      -7.298  13.337 -21.387  1.00  0.00     0.000 C 
BRANCH   5   6
ATOM      6  C   UNL     1      -8.101  13.202 -22.699  1.00  0.00     0.000 C 
BRANCH   6   7
ATOM      7  C   UNL     1      -9.238  12.170 -22.622  1.00  0.00     0.000 C 
BRANCH   7   8
ATOM      8  C   UNL     1     -10.048  12.268 -21.319  1.00  0.00     0.006 C 
BRANCH   8   9
ATOM      9  C   UNL     1     -11.463  12.812 -21.556  1.00  0.00     0.053 C 
BRANCH   9  10
ATOM     10  C   UNL     1     -11.573  14.258 -21.181  1.00  0.00     0.041 C 
ATOM     11  O   UNL     1     -12.704  14.804 -21.083  1.00  0.00    -0.550 OA
ATOM     12  O   UNL     1     -10.425  15.011 -20.967  1.00  0.00    -0.550 OA
ENDBRANCH   9  10
ENDBRANCH   8   9
ENDBRANCH   7   8
ENDBRANCH   6   7
ENDBRANCH   5   6
ENDBRANCH   4   5
ENDBRANCH   3   4
ENDBRANCH   1   3
BRANCH   2  13
ATOM     13  C   UNL     1      -6.885  17.903 -20.772  1.00  0.00     0.027 C 
BRANCH  13  14
ATOM     14  C   UNL     1      -7.453  19.115 -21.526  1.00  0.00     0.004 C 
BRANCH  14  15
ATOM     15  C   UNL     1      -8.431  19.928 -20.664  1.00  0.00     0.000 C 
BRANCH  15  16
ATOM     16  C   UNL     1      -8.349  21.424 -21.003  1.00  0.00     0.000 C 
BRANCH  16  17
ATOM     17  C   UNL     1      -7.152  22.123 -20.337  1.00  0.00    -0.000 C 
BRANCH  17  18
ATOM     18  C   UNL     1      -6.949  21.793 -18.844  1.00  0.00    -0.000 C 
BRANCH  18  19
ATOM     19  C   UNL     1      -7.477  22.856 -17.866  1.00  0.00    -0.003 C 
ATOM     20  C   UNL     1      -9.001  22.968 -17.875  1.00  0.00     0.004 C 
ENDBRANCH  18  19
ENDBRANCH  17  18
ENDBRANCH  16  17
ENDBRANCH  15  16
ENDBRANCH  14  15
ENDBRANCH  13  14
ENDBRANCH   2  13
TORSDOF 15
ENDMDL
MODEL 4
REMARK VINA RESULT:    -4.461      0.974      1.933
REMARK INTER + INTRA:          -9.809
REMARK INTER:                  -8.685
REMARK INTRA:                  -1.124
REMARK UNBOUND:                -1.436
REMARK SMILES CCCCCCCCC=CCCCCCCCC(=O)[O-]
REMARK SMILES IDX 10 1 9 2 11 3 12 4 13 5 14 6 15 7 16 8 17 9 18 10 19 11
REMARK SMILES IDX 20 12 8 13 7 14 6 15 5 16 4 17 3 18 2 19 1 20
REMARK H PARENT
REMARK Flexibility Score: inf
ROOT
ATOM      1  C   UNL     1      -8.189  17.167 -19.521  1.00  0.00    -0.031 C 
ATOM      2  C   UNL     1      -8.780  16.176 -20.214  1.00  0.00    -0.031 C 
ENDROOT
BRANCH   1   3
ATOM      3  C   UNL     1      -7.217  18.162 -20.105  1.00  0.00     0.027 C 
BRANCH   3   4
ATOM      4  C   UNL     1      -7.869  19.031 -21.192  1.00  0.00     0.004 C 
BRANCH   4   5
ATOM      5  C   UNL     1      -6.899  20.084 -21.754  1.00  0.00     0.000 C 
BRANCH   5   6
ATOM      6  C   UNL     1      -7.503  21.504 -21.730  1.00  0.00     0.000 C 
BRANCH   6   7
ATOM      7  C   UNL     1      -6.875  22.423 -20.669  1.00  0.00     0.000 C 
BRANCH   7   8
ATOM      8  C   UNL     1      -7.063  21.898 -19.237  1.00  0.00     0.006 C 
BRANCH   8   9
ATOM      9  C   UNL     1      -8.523  21.986 -18.774  1.00  0.00     0.053 C 
BRANCH   9  10
ATOM     10  C   UNL     1      -8.683  22.919 -17.612  1.00  0.00     0.041 C 
ATOM     11  O   UNL     1      -7.744  23.071 -16.787  1.00  0.00    -0.550 OA
ATOM     12  O   UNL     1      -9.880  23.599 -17.426  1.00  0.00    -0.550 OA
ENDBRANCH   9  10
ENDBRANCH   8   9
ENDBRANCH   7   8
ENDBRANCH   6   7
ENDBRANCH   5   6
ENDBRANCH   4   5
ENDBRANCH   3   4
ENDBRANCH   1   3
BRANCH   2  13
ATOM     13  C   UNL     1      -8.488  15.844 -21.657  1.00  0.00     0.027 C 
BRANCH  13  14
ATOM     14  C   UNL     1      -7.380  14.788 -21.789  1.00  0.00     0.004 C 
BRANCH  14  15
ATOM     15  C   UNL     1      -7.720  13.722 -22.841  1.00  0.00     0.000 C 
BRANCH  15  16
ATOM     16  C   UNL     1      -8.140  12.405 -22.172  1.00  0.00     0.000 C 
BRANCH  16  17
ATOM     17  C   UNL     1      -9.383  12.557 -21.279  1.00  0.00    -0.000 C 
BRANCH  17  18
ATOM     18  C   UNL     1     -10.700  12.045 -21.896  1.00  0.00    -0.000 C 
BRANCH  18  19
ATOM     19  C   UNL     1     -11.957  12.833 -21.490  1.00  0.00    -0.003 C 
ATOM     20  C   UNL     1     -11.658  14.288 -21.131  1.00  0.00     0.004 C 
ENDBRANCH  18  19
ENDBRANCH  17  18
ENDBRANCH  16  17
ENDBRANCH  15  16
ENDBRANCH  14  15
ENDBRANCH  13  14
ENDBRANCH   2  13
TORSDOF 15
ENDMDL
MODEL 5
REMARK VINA RESULT:    -4.081      3.141      7.333
REMARK INTER + INTRA:          -9.096
REMARK INTER:                  -7.187
REMARK INTRA:                  -1.910
REMARK UNBOUND:                -1.436
REMARK SMILES CCCCCCCCC=CCCCCCCCC(=O)[O-]
REMARK SMILES IDX 10 1 9 2 11 3 12 4 13 5 14 6 15 7 16 8 17 9 18 10 19 11
REMARK SMILES IDX 20 12 8 13 7 14 6 15 5 16 4 17 3 18 2 19 1 20
REMARK H PARENT
REMARK Flexibility Score: inf
ROOT
ATOM      1  C   UNL     1     -10.567  14.652 -21.328  1.00  0.00    -0.031 C 
ATOM      2  C   UNL     1      -9.492  15.321 -20.872  1.00  0.00    -0.031 C 
ENDROOT
BRANCH   1   3
ATOM      3  C   UNL     1     -10.793  13.170 -21.157  1.00  0.00     0.027 C 
BRANCH   3   4
ATOM      4  C   UNL     1     -10.338  12.375 -22.390  1.00  0.00     0.004 C 
BRANCH   4   5
ATOM      5  C   UNL     1      -8.984  11.679 -22.166  1.00  0.00     0.000 C 
BRANCH   5   6
ATOM      6  C   UNL     1      -7.981  11.977 -23.301  1.00  0.00     0.000 C 
BRANCH   6   7
ATOM      7  C   UNL     1      -7.036  13.151 -22.997  1.00  0.00     0.000 C 
BRANCH   7   8
ATOM      8  C   UNL     1      -7.221  14.333 -23.961  1.00  0.00     0.006 C 
BRANCH   8   9
ATOM      9  C   UNL     1      -6.876  15.676 -23.305  1.00  0.00     0.053 C 
BRANCH   9  10
ATOM     10  C   UNL     1      -7.183  16.832 -24.208  1.00  0.00     0.041 C 
ATOM     11  O   UNL     1      -6.876  18.004 -23.865  1.00  0.00    -0.550 OA
ATOM     12  O   UNL     1      -7.834  16.616 -25.416  1.00  0.00    -0.550 OA
ENDBRANCH   9  10
ENDBRANCH   8   9
ENDBRANCH   7   8
ENDBRANCH   6   7
ENDBRANCH   5   6
ENDBRANCH   4   5
ENDBRANCH   3   4
ENDBRANCH   1   3
BRANCH   2  13
ATOM     13  C   UNL     1      -8.299  14.678 -20.209  1.00  0.00     0.027 C 
BRANCH  13  14
ATOM     14  C   UNL     1      -7.343  15.722 -19.612  1.00  0.00     0.004 C 
BRANCH  14  15
ATOM     15  C   UNL     1      -7.918  17.144 -19.688  1.00  0.00     0.000 C 
BRANCH  15  16
ATOM     16  C   UNL     1      -6.909  18.110 -20.328  1.00  0.00     0.000 C 
BRANCH  16  17
ATOM     17  C   UNL     1      -7.254  19.588 -20.077  1.00  0.00    -0.000 C 
BRANCH  17  18
ATOM     18  C   UNL     1      -8.734  19.962 -20.298  1.00  0.00    -0.000 C 
BRANCH  18  19
ATOM     19  C   UNL     1      -9.031  21.471 -20.286  1.00  0.00    -0.003 C 
ATOM     20  C   UNL     1      -8.695  22.134 -18.951  1.00  0.00     0.004 C 
ENDBRANCH  18  19
ENDBRANCH  17  18
ENDBRANCH  16  17
ENDBRANCH  15  16
ENDBRANCH  14  15
ENDBRANCH  13  14
ENDBRANCH   2  13
TORSDOF 15
ENDMDL
MODEL 6
REMARK VINA RESULT:    -3.923      1.301      3.345
REMARK INTER + INTRA:          -8.798
REMARK INTER:                  -7.952
REMARK INTRA:                  -0.846
REMARK UNBOUND:                -1.436
REMARK SMILES CCCCCCCCC=CCCCCCCCC(=O)[O-]
REMARK SMILES IDX 10 1 9 2 11 3 12 4 13 5 14 6 15 7 16 8 17 9 18 10 19 11
REMARK SMILES IDX 20 12 8 13 7 14 6 15 5 16 4 17 3 18 2 19 1 20
REMARK H PARENT
REMARK Flexibility Score: inf
ROOT
ATOM      1  C   UNL     1     -10.813  15.006 -20.863  1.00  0.00    -0.031 C 
ATOM      2  C   UNL     1     -11.610  14.000 -21.267  1.00  0.00    -0.031 C 
ENDROOT
BRANCH   1   3
ATOM      3  C   UNL     1      -9.339  15.110 -21.168  1.00  0.00     0.027 C 
BRANCH   3   4
ATOM      4  C   UNL     1      -8.601  15.983 -20.142  1.00  0.00     0.004 C 
BRANCH   4   5
ATOM      5  C   UNL     1      -7.159  16.299 -20.577  1.00  0.00     0.000 C 
BRANCH   5   6
ATOM      6  C   UNL     1      -6.980  17.781 -20.967  1.00  0.00     0.000 C 
BRANCH   6   7
ATOM      7  C   UNL     1      -8.087  18.700 -20.423  1.00  0.00     0.000 C 
BRANCH   7   8
ATOM      8  C   UNL     1      -8.193  20.028 -21.190  1.00  0.00     0.006 C 
BRANCH   8   9
ATOM      9  C   UNL     1      -9.101  21.038 -20.476  1.00  0.00     0.053 C 
BRANCH   9  10
ATOM     10  C   UNL     1      -8.366  21.787 -19.406  1.00  0.00     0.041 C 
ATOM     11  O   UNL     1      -7.107  21.795 -19.387  1.00  0.00    -0.550 OA
ATOM     12  O   UNL     1      -9.074  22.453 -18.413  1.00  0.00    -0.550 OA
ENDBRANCH   9  10
ENDBRANCH   8   9
ENDBRANCH   7   8
ENDBRANCH   6   7
ENDBRANCH   5   6
ENDBRANCH   4   5
ENDBRANCH   3   4
ENDBRANCH   1   3
BRANCH   2  13
ATOM     13  C   UNL     1     -11.135  12.770 -22.000  1.00  0.00     0.027 C 
BRANCH  13  14
ATOM     14  C   UNL     1      -9.711  12.370 -21.587  1.00  0.00     0.004 C 
BRANCH  14  15
ATOM     15  C   UNL     1      -8.945  11.688 -22.731  1.00  0.00     0.000 C 
BRANCH  15  16
ATOM     16  C   UNL     1      -7.429  11.759 -22.495  1.00  0.00     0.000 C 
BRANCH  16  17
ATOM     17  C   UNL     1      -6.875  13.191 -22.588  1.00  0.00    -0.000 C 
BRANCH  17  18
ATOM     18  C   UNL     1      -7.251  13.956 -23.873  1.00  0.00    -0.000 C 
BRANCH  18  19
ATOM     19  C   UNL     1      -6.875  15.448 -23.873  1.00  0.00    -0.003 C 
ATOM     20  C   UNL     1      -7.615  16.248 -24.945  1.00  0.00     0.004 C 
ENDBRANCH  18  19
ENDBRANCH  17  18
ENDBRANCH  16  17
ENDBRANCH  15  16
ENDBRANCH  14  15
ENDBRANCH  13  14
ENDBRANCH   2  13
TORSDOF 15
ENDMDL
MODEL 7
REMARK VINA RESULT:    -3.917     15.184     17.205
REMARK INTER + INTRA:          -8.788
REMARK INTER:                  -6.856
REMARK INTRA:                  -1.932
REMARK UNBOUND:                -1.436
REMARK SMILES CCCCCCCCC=CCCCCCCCC(=O)[O-]
REMARK SMILES IDX 10 1 9 2 11 3 12 4 13 5 14 6 15 7 16 8 17 9 18 10 19 11
REMARK SMILES IDX 20 12 8 13 7 14 6 15 5 16 4 17 3 18 2 19 1 20
REMARK H PARENT
REMARK Flexibility Score: inf
ROOT
ATOM      1  C   UNL     1     -18.921  30.329 -24.269  1.00  0.00    -0.031 C 
ATOM      2  C   UNL     1     -19.598  30.928 -25.265  1.00  0.00    -0.031 C 
ENDROOT
BRANCH   1   3
ATOM      3  C   UNL     1     -17.943  29.195 -24.456  1.00  0.00     0.027 C 
BRANCH   3   4
ATOM      4  C   UNL     1     -16.495  29.639 -24.200  1.00  0.00     0.004 C 
BRANCH   4   5
ATOM      5  C   UNL     1     -15.613  29.496 -25.452  1.00  0.00     0.000 C 
BRANCH   5   6
ATOM      6  C   UNL     1     -16.405  28.964 -26.665  1.00  0.00     0.000 C 
BRANCH   6   7
ATOM      7  C   UNL     1     -16.380  29.907 -27.879  1.00  0.00     0.000 C 
BRANCH   7   8
ATOM      8  C   UNL     1     -15.243  29.585 -28.863  1.00  0.00     0.006 C 
BRANCH   8   9
ATOM      9  C   UNL     1     -13.930  30.281 -28.480  1.00  0.00     0.053 C 
BRANCH   9  10
ATOM     10  C   UNL     1     -12.951  29.325 -27.872  1.00  0.00     0.041 C 
ATOM     11  O   UNL     1     -12.904  28.129 -28.264  1.00  0.00    -0.550 OA
ATOM     12  O   UNL     1     -12.107  29.747 -26.852  1.00  0.00    -0.550 OA
ENDBRANCH   9  10
ENDBRANCH   8   9
ENDBRANCH   7   8
ENDBRANCH   6   7
ENDBRANCH   5   6
ENDBRANCH   4   5
ENDBRANCH   3   4
ENDBRANCH   1   3
BRANCH   2  13
ATOM     13  C   UNL     1     -19.563  30.495 -26.710  1.00  0.00     0.027 C 
BRANCH  13  14
ATOM     14  C   UNL     1     -20.967  30.194 -27.253  1.00  0.00     0.004 C 
BRANCH  14  15
ATOM     15  C   UNL     1     -20.967  29.984 -28.775  1.00  0.00     0.000 C 
BRANCH  15  16
ATOM     16  C   UNL     1     -20.774  28.501 -29.125  1.00  0.00     0.000 C 
BRANCH  16  17
ATOM     17  C   UNL     1     -19.326  28.022 -28.923  1.00  0.00    -0.000 C 
BRANCH  17  18
ATOM     18  C   UNL     1     -19.134  26.969 -27.813  1.00  0.00    -0.000 C 
BRANCH  18  19
ATOM     19  C   UNL     1     -18.101  25.873 -28.130  1.00  0.00    -0.003 C 
ATOM     20  C   UNL     1     -17.024  26.336 -29.110  1.00  0.00     0.004 C 
ENDBRANCH  18  19
ENDBRANCH  17  18
ENDBRANCH  16  17
ENDBRANCH  15  16
ENDBRANCH  14  15
ENDBRANCH  13  14
ENDBRANCH   2  13
TORSDOF 15
ENDMDL
MODEL 8
REMARK VINA RESULT:    -3.844     15.010     17.962
REMARK INTER + INTRA:          -8.651
REMARK INTER:                  -6.908
REMARK INTRA:                  -1.743
REMARK UNBOUND:                -1.436
REMARK SMILES CCCCCCCCC=CCCCCCCCC(=O)[O-]
REMARK SMILES IDX 10 1 9 2 11 3 12 4 13 5 14 6 15 7 16 8 17 9 18 10 19 11
REMARK SMILES IDX 20 12 8 13 7 14 6 15 5 16 4 17 3 18 2 19 1 20
REMARK H PARENT
REMARK Flexibility Score: inf
ROOT
ATOM      1  C   UNL     1     -17.435  25.906 -28.350  1.00  0.00    -0.031 C 
ATOM      2  C   UNL     1     -18.551  26.641 -28.189  1.00  0.00    -0.031 C 
ENDROOT
BRANCH   1   3
ATOM      3  C   UNL     1     -16.178  26.391 -29.030  1.00  0.00     0.027 C 
BRANCH   3   4
ATOM      4  C   UNL     1     -15.203  27.042 -28.037  1.00  0.00     0.004 C 
BRANCH   4   5
ATOM      5  C   UNL     1     -14.832  28.478 -28.444  1.00  0.00     0.000 C 
BRANCH   5   6
ATOM      6  C   UNL     1     -15.263  29.514 -27.384  1.00  0.00     0.000 C 
BRANCH   6   7
ATOM      7  C   UNL     1     -14.768  29.187 -25.965  1.00  0.00     0.000 C 
BRANCH   7   8
ATOM      8  C   UNL     1     -15.889  29.233 -24.915  1.00  0.00     0.006 C 
BRANCH   8   9
ATOM      9  C   UNL     1     -17.283  29.141 -25.550  1.00  0.00     0.053 C 
BRANCH   9  10
ATOM     10  C   UNL     1     -18.369  29.193 -24.519  1.00  0.00     0.041 C 
ATOM     11  O   UNL     1     -18.855  28.128 -24.055  1.00  0.00    -0.550 OA
ATOM     12  O   UNL     1     -18.863  30.419 -24.091  1.00  0.00    -0.550 OA
ENDBRANCH   9  10
ENDBRANCH   8   9
ENDBRANCH   7   8
ENDBRANCH   6   7
ENDBRANCH   5   6
ENDBRANCH   4   5
ENDBRANCH   3   4
ENDBRANCH   1   3
BRANCH   2  13
ATOM     13  C   UNL     1     -18.755  28.026 -28.751  1.00  0.00     0.027 C 
BRANCH  13  14
ATOM     14  C   UNL     1     -19.928  28.752 -28.075  1.00  0.00     0.004 C 
BRANCH  14  15
ATOM     15  C   UNL     1     -19.752  30.278 -28.093  1.00  0.00     0.000 C 
BRANCH  15  16
ATOM     16  C   UNL     1     -21.115  30.987 -28.092  1.00  0.00     0.000 C 
BRANCH  16  17
ATOM     17  C   UNL     1     -22.295  30.015 -28.253  1.00  0.00    -0.000 C 
BRANCH  17  18
ATOM     18  C   UNL     1     -23.625  30.666 -28.689  1.00  0.00    -0.000 C 
BRANCH  18  19
ATOM     19  C   UNL     1     -24.636  30.900 -27.553  1.00  0.00    -0.003 C 
ATOM     20  C   UNL     1     -25.885  30.028 -27.680  1.00  0.00     0.004 C 
ENDBRANCH  18  19
ENDBRANCH  17  18
ENDBRANCH  16  17
ENDBRANCH  15  16
ENDBRANCH  14  15
ENDBRANCH  13  14
ENDBRANCH   2  13
TORSDOF 15
ENDMDL
MODEL 9
REMARK VINA RESULT:    -3.780     14.269     17.236
REMARK INTER + INTRA:          -8.531
REMARK INTER:                  -6.658
REMARK INTRA:                  -1.872
REMARK UNBOUND:                -1.436
REMARK SMILES CCCCCCCCC=CCCCCCCCC(=O)[O-]
REMARK SMILES IDX 10 1 9 2 11 3 12 4 13 5 14 6 15 7 16 8 17 9 18 10 19 11
REMARK SMILES IDX 20 12 8 13 7 14 6 15 5 16 4 17 3 18 2 19 1 20
REMARK H PARENT
REMARK Flexibility Score: inf
ROOT
ATOM      1  C   UNL     1     -17.943  29.065 -24.186  1.00  0.00    -0.031 C 
ATOM      2  C   UNL     1     -19.109  29.689 -24.436  1.00  0.00    -0.031 C 
ENDROOT
BRANCH   1   3
ATOM      3  C   UNL     1     -16.581  29.693 -24.351  1.00  0.00     0.027 C 
BRANCH   3   4
ATOM      4  C   UNL     1     -15.883  29.219 -25.634  1.00  0.00     0.004 C 
BRANCH   4   5
ATOM      5  C   UNL     1     -14.354  29.377 -25.556  1.00  0.00     0.000 C 
BRANCH   5   6
ATOM      6  C   UNL     1     -13.760  29.941 -26.864  1.00  0.00     0.000 C 
BRANCH   6   7
ATOM      7  C   UNL     1     -14.780  30.047 -28.010  1.00  0.00     0.000 C 
BRANCH   7   8
ATOM      8  C   UNL     1     -14.566  28.986 -29.101  1.00  0.00     0.006 C 
BRANCH   8   9
ATOM      9  C   UNL     1     -13.351  28.094 -28.813  1.00  0.00     0.053 C 
BRANCH   9  10
ATOM     10  C   UNL     1     -13.753  26.677 -28.541  1.00  0.00     0.041 C 
ATOM     11  O   UNL     1     -14.903  26.417 -28.099  1.00  0.00    -0.550 OA
ATOM     12  O   UNL     1     -12.847  25.644 -28.751  1.00  0.00    -0.550 OA
ENDBRANCH   9  10
ENDBRANCH   8   9
ENDBRANCH   7   8
ENDBRANCH   6   7
ENDBRANCH   5   6
ENDBRANCH   4   5
ENDBRANCH   3   4
ENDBRANCH   1   3
BRANCH   2  13
ATOM     13  C   UNL     1     -19.235  31.076 -25.016  1.00  0.00     0.027 C 
BRANCH  13  14
ATOM     14  C   UNL     1     -19.335  31.051 -26.548  1.00  0.00     0.004 C 
BRANCH  14  15
ATOM     15  C   UNL     1     -20.720  30.594 -27.031  1.00  0.00     0.000 C 
BRANCH  15  16
ATOM     16  C   UNL     1     -20.753  30.466 -28.561  1.00  0.00     0.000 C 
BRANCH  16  17
ATOM     17  C   UNL     1     -21.085  29.041 -29.036  1.00  0.00    -0.000 C 
BRANCH  17  18
ATOM     18  C   UNL     1     -20.550  27.910 -28.135  1.00  0.00    -0.000 C 
BRANCH  18  19
ATOM     19  C   UNL     1     -19.342  27.145 -28.703  1.00  0.00    -0.003 C 
ATOM     20  C   UNL     1     -18.188  27.030 -27.707  1.00  0.00     0.004 C 
ENDBRANCH  18  19
ENDBRANCH  17  18
ENDBRANCH  16  17
ENDBRANCH  15  16
ENDBRANCH  14  15
ENDBRANCH  13  14
ENDBRANCH   2  13
TORSDOF 15
ENDMDL
