MODEL 1
REMARK VINA RESULT:    -6.112      0.000      0.000
REMARK INTER + INTRA:         -13.588
REMARK INTER:                 -10.757
REMARK INTRA:                  -2.832
REMARK UNBOUND:                -2.832
REMARK SMILES COc1cc(-c2[o+]c3cc(O)cc(O[C@H]4O[C@@H](CO)[C@@H](O)[C@H](O)[C@@H]4O)c3cc2O[C@@H]2O[C@H](CO)[C@@H](O)[C@H](O)[C@H]2O)ccc1O
REMARK SMILES IDX 6 1 28 2 27 3 26 4 13 5 12 6 10 7 9 8 8 9 7 10 5 11 3 12
REMARK SMILES IDX 43 13 4 14 42 15 41 16 2 17 1 18 44 19 29 21 30 22 39 23
REMARK SMILES IDX 31 24 37 25 32 26 35 27 40 28 38 30 33 32 34 33 36 35 14 37
REMARK SMILES IDX 15 38 24 39 16 40 22 41 17 42 20 43 25 44 23 46 18 48 19 49
REMARK SMILES IDX 21 51 11 53
REMARK H PARENT 44 20 40 29 38 31 34 34 36 36 25 45 23 47 19 50 21 52 11 54
REMARK Flexibility Score: inf
ROOT
ATOM      1  C   UNL     1      14.791   1.397   3.304  1.00  0.00     0.402 A 
ATOM      2  C   UNL     1      13.644   0.621   3.017  1.00  0.00     0.229 A 
ATOM      3  C   UNL     1      13.006   0.812   1.778  1.00  0.00     0.079 A 
ATOM      4  C   UNL     1      13.470   1.791   0.899  1.00  0.00     0.126 A 
ATOM      5  C   UNL     1      12.790   2.089  -0.301  1.00  0.00     0.143 A 
ATOM      6  C   UNL     1      13.297   3.095  -1.144  1.00  0.00     0.094 A 
ATOM      7  C   UNL     1      14.444   3.814  -0.779  1.00  0.00     0.128 A 
ATOM      8  C   UNL     1      15.098   3.530   0.420  1.00  0.00     0.162 A 
ATOM      9  C   UNL     1      14.608   2.538   1.269  1.00  0.00     0.368 A 
ATOM     10  O   UNL     1      15.210   2.311   2.430  1.00  0.00    -0.202 OA
ENDROOT
BRANCH   1  11
ATOM     11  C   UNL     1      15.531   1.264   4.581  1.00  0.00     0.087 A 
ATOM     12  C   UNL     1      17.114   0.008   5.965  1.00  0.00     0.161 A 
ATOM     13  C   UNL     1      17.026   1.007   6.947  1.00  0.00     0.157 A 
ATOM     14  C   UNL     1      16.356   0.141   4.785  1.00  0.00     0.068 A 
ATOM     15  C   UNL     1      16.184   2.107   6.761  1.00  0.00     0.051 A 
ATOM     16  C   UNL     1      15.428   2.226   5.598  1.00  0.00     0.022 A 
BRANCH  12  17
ATOM     17  O   UNL     1      17.941  -1.103   6.198  1.00  0.00    -0.493 OA
ATOM     18  C   UNL     1      19.351  -1.124   5.983  1.00  0.00     0.278 C 
ENDBRANCH  12  17
BRANCH  13  19
ATOM     19  O   UNL     1      17.780   0.929   8.119  1.00  0.00    -0.504 OA
ATOM     20  H   UNL     1      18.687   1.369   8.203  1.00  0.00     0.293 HD
ENDBRANCH  13  19
ENDBRANCH   1  11
BRANCH   2  21
ATOM     21  O   UNL     1      13.163  -0.279   3.990  1.00  0.00    -0.452 OA
BRANCH  21  22
ATOM     22  C   UNL     1      12.151  -0.052   4.976  1.00  0.00     0.339 C 
ATOM     23  C   UNL     1      10.804  -0.674   4.541  1.00  0.00     0.214 C 
ATOM     24  O   UNL     1      12.570  -0.559   6.232  1.00  0.00    -0.332 OA
ATOM     25  C   UNL     1       9.739  -0.399   5.615  1.00  0.00     0.180 C 
ATOM     26  C   UNL     1      11.656  -0.167   7.245  1.00  0.00     0.179 C 
ATOM     27  C   UNL     1      10.265  -0.805   7.005  1.00  0.00     0.177 C 
BRANCH  23  28
ATOM     28  O   UNL     1      10.390  -0.160   3.299  1.00  0.00    -0.384 OA
ATOM     29  H   UNL     1      10.394   0.834   3.364  1.00  0.00     0.211 HD
ENDBRANCH  23  28
BRANCH  25  30
ATOM     30  O   UNL     1       8.540  -1.076   5.311  1.00  0.00    -0.387 OA
ATOM     31  H   UNL     1       8.058  -0.547   4.620  1.00  0.00     0.211 HD
ENDBRANCH  25  30
BRANCH  26  32
ATOM     32  C   UNL     1      12.241  -0.547   8.611  1.00  0.00     0.191 C 
BRANCH  32  33
ATOM     33  O   UNL     1      11.520   0.048   9.657  1.00  0.00    -0.394 OA
ATOM     34  H   UNL     1      11.830  -0.393  10.487  1.00  0.00     0.210 HD
ENDBRANCH  32  33
ENDBRANCH  26  32
BRANCH  27  35
ATOM     35  O   UNL     1       9.355  -0.371   7.978  1.00  0.00    -0.387 OA
ATOM     36  H   UNL     1       8.442  -0.614   7.677  1.00  0.00     0.211 HD
ENDBRANCH  27  35
ENDBRANCH  21  22
ENDBRANCH   2  21
BRANCH   5  37
ATOM     37  O   UNL     1      11.609   1.396  -0.603  1.00  0.00    -0.461 OA
BRANCH  37  38
ATOM     38  C   UNL     1      10.397   1.999  -1.044  1.00  0.00     0.339 C 
ATOM     39  C   UNL     1       9.726   2.742   0.122  1.00  0.00     0.214 C 
ATOM     40  O   UNL     1       9.548   1.053  -1.674  1.00  0.00    -0.332 OA
ATOM     41  C   UNL     1       9.205   1.734   1.147  1.00  0.00     0.180 C 
ATOM     42  C   UNL     1       8.964   0.095  -0.793  1.00  0.00     0.179 C 
ATOM     43  C   UNL     1       8.287   0.714   0.458  1.00  0.00     0.177 C 
BRANCH  39  44
ATOM     44  O   UNL     1       8.661   3.522  -0.375  1.00  0.00    -0.384 OA
ATOM     45  H   UNL     1       8.957   3.927  -1.236  1.00  0.00     0.211 HD
ENDBRANCH  39  44
BRANCH  41  46
ATOM     46  O   UNL     1       8.547   2.389   2.205  1.00  0.00    -0.387 OA
ATOM     47  H   UNL     1       8.976   3.272   2.335  1.00  0.00     0.211 HD
ENDBRANCH  41  46
BRANCH  42  48
ATOM     48  C   UNL     1       9.886  -1.124  -0.523  1.00  0.00     0.191 C 
BRANCH  48  49
ATOM     49  O   UNL     1      10.504  -1.052   0.734  1.00  0.00    -0.394 OA
ATOM     50  H   UNL     1      11.077  -1.867   0.823  1.00  0.00     0.210 HD
ENDBRANCH  48  49
ENDBRANCH  42  48
BRANCH  43  51
ATOM     51  O   UNL     1       7.904  -0.278   1.367  1.00  0.00    -0.387 OA
ATOM     52  H   UNL     1       8.268  -1.139   1.033  1.00  0.00     0.211 HD
ENDBRANCH  43  51
ENDBRANCH  37  38
ENDBRANCH   5  37
BRANCH   7  53
ATOM     53  O   UNL     1      14.947   4.814  -1.605  1.00  0.00    -0.507 OA
ATOM     54  H   UNL     1      15.633   5.475  -1.274  1.00  0.00     0.293 HD
ENDBRANCH   7  53
TORSDOF 18
ENDMDL
MODEL 2
REMARK VINA RESULT:    -3.910      2.055      6.364
REMARK INTER + INTRA:          -9.713
REMARK INTER:                  -8.846
REMARK INTRA:                  -0.867
REMARK UNBOUND:                -2.832
REMARK SMILES COc1cc(-c2[o+]c3cc(O)cc(O[C@H]4O[C@@H](CO)[C@@H](O)[C@H](O)[C@@H]4O)c3cc2O[C@@H]2O[C@H](CO)[C@@H](O)[C@H](O)[C@H]2O)ccc1O
REMARK SMILES IDX 6 1 28 2 27 3 26 4 13 5 12 6 10 7 9 8 8 9 7 10 5 11 3 12
REMARK SMILES IDX 43 13 4 14 42 15 41 16 2 17 1 18 44 19 29 21 30 22 39 23
REMARK SMILES IDX 31 24 37 25 32 26 35 27 40 28 38 30 33 32 34 33 36 35 14 37
REMARK SMILES IDX 15 38 24 39 16 40 22 41 17 42 20 43 25 44 23 46 18 48 19 49
REMARK SMILES IDX 21 51 11 53
REMARK H PARENT 44 20 40 29 38 31 34 34 36 36 25 45 23 47 19 50 21 52 11 54
REMARK Flexibility Score: inf
ROOT
ATOM      1  C   UNL     1      10.608  -0.565   3.402  1.00  0.00     0.402 A 
ATOM      2  C   UNL     1      11.972  -0.445   3.049  1.00  0.00     0.229 A 
ATOM      3  C   UNL     1      12.293  -0.264   1.692  1.00  0.00     0.079 A 
ATOM      4  C   UNL     1      11.282  -0.271   0.730  1.00  0.00     0.126 A 
ATOM      5  C   UNL     1      11.573  -0.206  -0.649  1.00  0.00     0.143 A 
ATOM      6  C   UNL     1      10.514  -0.229  -1.575  1.00  0.00     0.094 A 
ATOM      7  C   UNL     1       9.190  -0.349  -1.133  1.00  0.00     0.128 A 
ATOM      8  C   UNL     1       8.910  -0.436   0.231  1.00  0.00     0.162 A 
ATOM      9  C   UNL     1       9.947  -0.418   1.162  1.00  0.00     0.368 A 
ATOM     10  O   UNL     1       9.673  -0.552   2.454  1.00  0.00    -0.202 OA
ENDROOT
BRANCH   1  11
ATOM     11  C   UNL     1      10.173  -0.755   4.807  1.00  0.00     0.087 A 
ATOM     12  C   UNL     1      10.764  -0.951   7.176  1.00  0.00     0.161 A 
ATOM     13  C   UNL     1       9.399  -1.025   7.495  1.00  0.00     0.157 A 
ATOM     14  C   UNL     1      11.143  -0.823   5.825  1.00  0.00     0.068 A 
ATOM     15  C   UNL     1       8.434  -0.990   6.483  1.00  0.00     0.051 A 
ATOM     16  C   UNL     1       8.817  -0.876   5.150  1.00  0.00     0.022 A 
BRANCH  12  17
ATOM     17  O   UNL     1      11.709  -1.025   8.211  1.00  0.00    -0.493 OA
ATOM     18  C   UNL     1      11.510  -0.519   9.530  1.00  0.00     0.278 C 
ENDBRANCH  12  17
BRANCH  13  19
ATOM     19  O   UNL     1       8.977  -1.125   8.822  1.00  0.00    -0.504 OA
ATOM     20  H   UNL     1       9.382  -1.795   9.464  1.00  0.00     0.293 HD
ENDBRANCH  13  19
ENDBRANCH   1  11
BRANCH   2  21
ATOM     21  O   UNL     1      12.954  -0.550   4.056  1.00  0.00    -0.452 OA
BRANCH  21  22
ATOM     22  C   UNL     1      13.785   0.485   4.588  1.00  0.00     0.339 C 
ATOM     23  C   UNL     1      14.871  -0.099   5.520  1.00  0.00     0.214 C 
ATOM     24  O   UNL     1      14.363   1.239   3.534  1.00  0.00    -0.332 OA
ATOM     25  C   UNL     1      15.734   1.040   6.084  1.00  0.00     0.180 C 
ATOM     26  C   UNL     1      15.030   2.377   4.058  1.00  0.00     0.179 C 
ATOM     27  C   UNL     1      16.227   1.951   4.943  1.00  0.00     0.177 C 
BRANCH  23  28
ATOM     28  O   UNL     1      14.291  -0.838   6.568  1.00  0.00    -0.384 OA
ATOM     29  H   UNL     1      13.394  -0.448   6.754  1.00  0.00     0.211 HD
ENDBRANCH  23  28
BRANCH  25  30
ATOM     30  O   UNL     1      16.819   0.524   6.822  1.00  0.00    -0.387 OA
ATOM     31  H   UNL     1      16.451  -0.094   7.512  1.00  0.00     0.211 HD
ENDBRANCH  25  30
BRANCH  26  32
ATOM     32  C   UNL     1      15.460   3.276   2.893  1.00  0.00     0.191 C 
BRANCH  32  33
ATOM     33  O   UNL     1      15.512   2.560   1.689  1.00  0.00    -0.394 OA
ATOM     34  H   UNL     1      14.678   2.780   1.204  1.00  0.00     0.210 HD
ENDBRANCH  32  33
ENDBRANCH  26  32
BRANCH  27  35
ATOM     35  O   UNL     1      16.848   3.078   5.499  1.00  0.00    -0.387 OA
ATOM     36  H   UNL     1      16.144   3.658   5.889  1.00  0.00     0.211 HD
ENDBRANCH  27  35
ENDBRANCH  21  22
ENDBRANCH   2  21
BRANCH   5  37
ATOM     37  O   UNL     1      12.914  -0.153  -1.059  1.00  0.00    -0.461 OA
BRANCH  37  38
ATOM     38  C   UNL     1      13.355   0.172  -2.373  1.00  0.00     0.339 C 
ATOM     39  C   UNL     1      14.845  -0.173  -2.526  1.00  0.00     0.214 C 
ATOM     40  O   UNL     1      13.050   1.518  -2.703  1.00  0.00    -0.332 OA
ATOM     41  C   UNL     1      15.687   0.783  -1.680  1.00  0.00     0.180 C 
ATOM     42  C   UNL     1      13.822   2.493  -2.005  1.00  0.00     0.179 C 
ATOM     43  C   UNL     1      15.352   2.237  -2.043  1.00  0.00     0.177 C 
BRANCH  39  44
ATOM     44  O   UNL     1      15.209  -0.066  -3.884  1.00  0.00    -0.384 OA
ATOM     45  H   UNL     1      14.946  -0.914  -4.337  1.00  0.00     0.211 HD
ENDBRANCH  39  44
BRANCH  41  46
ATOM     46  O   UNL     1      17.059   0.515  -1.837  1.00  0.00    -0.387 OA
ATOM     47  H   UNL     1      17.153  -0.371  -2.269  1.00  0.00     0.211 HD
ENDBRANCH  41  46
BRANCH  42  48
ATOM     48  C   UNL     1      13.236   2.851  -0.612  1.00  0.00     0.191 C 
BRANCH  48  49
ATOM     49  O   UNL     1      13.679   4.102  -0.157  1.00  0.00    -0.394 OA
ATOM     50  H   UNL     1      12.862   4.634   0.069  1.00  0.00     0.210 HD
ENDBRANCH  48  49
ENDBRANCH  42  48
BRANCH  43  51
ATOM     51  O   UNL     1      16.031   3.114  -1.191  1.00  0.00    -0.387 OA
ATOM     52  H   UNL     1      15.416   3.867  -0.993  1.00  0.00     0.211 HD
ENDBRANCH  43  51
ENDBRANCH  37  38
ENDBRANCH   5  37
BRANCH   7  53
ATOM     53  O   UNL     1       8.138  -0.379  -2.044  1.00  0.00    -0.507 OA
ATOM     54  H   UNL     1       8.301  -0.486  -3.033  1.00  0.00     0.293 HD
ENDBRANCH   7  53
TORSDOF 18
ENDMDL
MODEL 3
REMARK VINA RESULT:    -3.759      2.233      8.881
REMARK INTER + INTRA:          -9.447
REMARK INTER:                  -7.987
REMARK INTRA:                  -1.460
REMARK UNBOUND:                -2.832
REMARK SMILES COc1cc(-c2[o+]c3cc(O)cc(O[C@H]4O[C@@H](CO)[C@@H](O)[C@H](O)[C@@H]4O)c3cc2O[C@@H]2O[C@H](CO)[C@@H](O)[C@H](O)[C@H]2O)ccc1O
REMARK SMILES IDX 6 1 28 2 27 3 26 4 13 5 12 6 10 7 9 8 8 9 7 10 5 11 3 12
REMARK SMILES IDX 43 13 4 14 42 15 41 16 2 17 1 18 44 19 29 21 30 22 39 23
REMARK SMILES IDX 31 24 37 25 32 26 35 27 40 28 38 30 33 32 34 33 36 35 14 37
REMARK SMILES IDX 15 38 24 39 16 40 22 41 17 42 20 43 25 44 23 46 18 48 19 49
REMARK SMILES IDX 21 51 11 53
REMARK H PARENT 44 20 40 29 38 31 34 34 36 36 25 45 23 47 19 50 21 52 11 54
REMARK Flexibility Score: inf
ROOT
ATOM      1  C   UNL     1      10.097   2.109   1.380  1.00  0.00     0.402 A 
ATOM      2  C   UNL     1      11.439   1.662   1.384  1.00  0.00     0.229 A 
ATOM      3  C   UNL     1      11.818   0.709   2.347  1.00  0.00     0.079 A 
ATOM      4  C   UNL     1      10.896   0.280   3.303  1.00  0.00     0.126 A 
ATOM      5  C   UNL     1      11.269  -0.587   4.352  1.00  0.00     0.143 A 
ATOM      6  C   UNL     1      10.301  -0.978   5.295  1.00  0.00     0.094 A 
ATOM      7  C   UNL     1       8.991  -0.486   5.210  1.00  0.00     0.128 A 
ATOM      8  C   UNL     1       8.635   0.390   4.184  1.00  0.00     0.162 A 
ATOM      9  C   UNL     1       9.582   0.790   3.243  1.00  0.00     0.368 A 
ATOM     10  O   UNL     1       9.245   1.662   2.301  1.00  0.00    -0.202 OA
ENDROOT
BRANCH   1  11
ATOM     11  C   UNL     1       9.604   3.107   0.402  1.00  0.00     0.087 A 
ATOM     12  C   UNL     1       9.036   5.433  -0.114  1.00  0.00     0.161 A 
ATOM     13  C   UNL     1       8.759   5.057  -1.438  1.00  0.00     0.157 A 
ATOM     14  C   UNL     1       9.452   4.448   0.803  1.00  0.00     0.068 A 
ATOM     15  C   UNL     1       8.879   3.721  -1.832  1.00  0.00     0.051 A 
ATOM     16  C   UNL     1       9.279   2.750  -0.917  1.00  0.00     0.022 A 
BRANCH  12  17
ATOM     17  O   UNL     1       8.871   6.777   0.259  1.00  0.00    -0.493 OA
ATOM     18  C   UNL     1       8.004   7.231   1.297  1.00  0.00     0.278 C 
ENDBRANCH  12  17
BRANCH  13  19
ATOM     19  O   UNL     1       8.371   6.004  -2.386  1.00  0.00    -0.504 OA
ATOM     20  H   UNL     1       8.982   6.759  -2.672  1.00  0.00     0.293 HD
ENDBRANCH  13  19
ENDBRANCH   1  11
BRANCH   2  21
ATOM     21  O   UNL     1      12.349   2.212   0.459  1.00  0.00    -0.452 OA
BRANCH  21  22
ATOM     22  C   UNL     1      13.595   1.665   0.017  1.00  0.00     0.339 C 
ATOM     23  C   UNL     1      13.403   0.799  -1.249  1.00  0.00     0.214 C 
ATOM     24  O   UNL     1      14.533   2.704  -0.207  1.00  0.00    -0.332 OA
ATOM     25  C   UNL     1      14.757   0.218  -1.686  1.00  0.00     0.180 C 
ATOM     26  C   UNL     1      15.818   2.155  -0.459  1.00  0.00     0.179 C 
ATOM     27  C   UNL     1      15.815   1.334  -1.772  1.00  0.00     0.177 C 
BRANCH  23  28
ATOM     28  O   UNL     1      12.478  -0.235  -1.018  1.00  0.00    -0.384 OA
ATOM     29  H   UNL     1      12.184  -0.172  -0.068  1.00  0.00     0.211 HD
ENDBRANCH  23  28
BRANCH  25  30
ATOM     30  O   UNL     1      14.634  -0.457  -2.918  1.00  0.00    -0.387 OA
ATOM     31  H   UNL     1      15.176   0.036  -3.592  1.00  0.00     0.211 HD
ENDBRANCH  25  30
BRANCH  26  32
ATOM     32  C   UNL     1      16.844   3.295  -0.489  1.00  0.00     0.191 C 
BRANCH  32  33
ATOM     33  O   UNL     1      16.214   4.547  -0.508  1.00  0.00    -0.394 OA
ATOM     34  H   UNL     1      16.618   5.067   0.231  1.00  0.00     0.210 HD
ENDBRANCH  32  33
ENDBRANCH  26  32
BRANCH  27  35
ATOM     35  O   UNL     1      17.072   0.752  -1.986  1.00  0.00    -0.387 OA
ATOM     36  H   UNL     1      17.576   0.784  -1.132  1.00  0.00     0.211 HD
ENDBRANCH  27  35
ENDBRANCH  21  22
ENDBRANCH   2  21
BRANCH   5  37
ATOM     37  O   UNL     1      12.604  -1.008   4.444  1.00  0.00    -0.461 OA
BRANCH  37  38
ATOM     38  C   UNL     1      13.352  -1.098   5.653  1.00  0.00     0.339 C 
ATOM     39  C   UNL     1      12.928   0.023   6.616  1.00  0.00     0.214 C 
ATOM     40  O   UNL     1      14.747  -1.125   5.396  1.00  0.00    -0.332 OA
ATOM     41  C   UNL     1      13.393   1.375   6.073  1.00  0.00     0.180 C 
ATOM     42  C   UNL     1      15.294   0.110   4.936  1.00  0.00     0.179 C 
ATOM     43  C   UNL     1      14.903   1.338   5.799  1.00  0.00     0.177 C 
BRANCH  39  44
ATOM     44  O   UNL     1      13.500  -0.214   7.883  1.00  0.00    -0.384 OA
ATOM     45  H   UNL     1      14.294  -0.802   7.754  1.00  0.00     0.211 HD
ENDBRANCH  39  44
BRANCH  41  46
ATOM     46  O   UNL     1      13.055   2.414   6.960  1.00  0.00    -0.387 OA
ATOM     47  H   UNL     1      13.359   3.269   6.564  1.00  0.00     0.211 HD
ENDBRANCH  41  46
BRANCH  42  48
ATOM     48  C   UNL     1      15.159   0.299   3.401  1.00  0.00     0.191 C 
BRANCH  48  49
ATOM     49  O   UNL     1      15.091   1.652   3.038  1.00  0.00    -0.394 OA
ATOM     50  H   UNL     1      14.832   2.160   3.860  1.00  0.00     0.210 HD
ENDBRANCH  48  49
ENDBRANCH  42  48
BRANCH  43  51
ATOM     51  O   UNL     1      15.311   2.531   5.193  1.00  0.00    -0.387 OA
ATOM     52  H   UNL     1      14.985   2.510   4.255  1.00  0.00     0.211 HD
ENDBRANCH  43  51
ENDBRANCH  37  38
ENDBRANCH   5  37
BRANCH   7  53
ATOM     53  O   UNL     1       8.030  -0.864   6.143  1.00  0.00    -0.507 OA
ATOM     54  H   UNL     1       7.818  -1.834   6.317  1.00  0.00     0.293 HD
ENDBRANCH   7  53
TORSDOF 18
ENDMDL
MODEL 4
REMARK VINA RESULT:    -3.603      1.674      9.220
REMARK INTER + INTRA:          -9.173
REMARK INTER:                  -6.350
REMARK INTRA:                  -2.823
REMARK UNBOUND:                -2.832
REMARK SMILES COc1cc(-c2[o+]c3cc(O)cc(O[C@H]4O[C@@H](CO)[C@@H](O)[C@H](O)[C@@H]4O)c3cc2O[C@@H]2O[C@H](CO)[C@@H](O)[C@H](O)[C@H]2O)ccc1O
REMARK SMILES IDX 6 1 28 2 27 3 26 4 13 5 12 6 10 7 9 8 8 9 7 10 5 11 3 12
REMARK SMILES IDX 43 13 4 14 42 15 41 16 2 17 1 18 44 19 29 21 30 22 39 23
REMARK SMILES IDX 31 24 37 25 32 26 35 27 40 28 38 30 33 32 34 33 36 35 14 37
REMARK SMILES IDX 15 38 24 39 16 40 22 41 17 42 20 43 25 44 23 46 18 48 19 49
REMARK SMILES IDX 21 51 11 53
REMARK H PARENT 44 20 40 29 38 31 34 34 36 36 25 45 23 47 19 50 21 52 11 54
REMARK Flexibility Score: inf
ROOT
ATOM      1  C   UNL     1      12.259  -0.136   2.631  1.00  0.00     0.402 A 
ATOM      2  C   UNL     1      13.651   0.059   2.791  1.00  0.00     0.229 A 
ATOM      3  C   UNL     1      14.199  -0.095   4.077  1.00  0.00     0.079 A 
ATOM      4  C   UNL     1      13.365  -0.367   5.161  1.00  0.00     0.126 A 
ATOM      5  C   UNL     1      13.862  -0.416   6.481  1.00  0.00     0.143 A 
ATOM      6  C   UNL     1      12.973  -0.684   7.539  1.00  0.00     0.094 A 
ATOM      7  C   UNL     1      11.606  -0.866   7.286  1.00  0.00     0.128 A 
ATOM      8  C   UNL     1      11.118  -0.794   5.981  1.00  0.00     0.162 A 
ATOM      9  C   UNL     1      11.984  -0.527   4.922  1.00  0.00     0.368 A 
ATOM     10  O   UNL     1      11.501  -0.411   3.691  1.00  0.00    -0.202 OA
ENDROOT
BRANCH   1  11
ATOM     11  C   UNL     1      11.592   0.000   1.314  1.00  0.00     0.087 A 
ATOM     12  C   UNL     1      10.288   1.368  -0.243  1.00  0.00     0.161 A 
ATOM     13  C   UNL     1      10.387   0.346  -1.201  1.00  0.00     0.157 A 
ATOM     14  C   UNL     1      10.890   1.183   1.017  1.00  0.00     0.068 A 
ATOM     15  C   UNL     1      11.057  -0.843  -0.898  1.00  0.00     0.051 A 
ATOM     16  C   UNL     1      11.638  -1.023   0.354  1.00  0.00     0.022 A 
BRANCH  12  17
ATOM     17  O   UNL     1       9.577   2.535  -0.566  1.00  0.00    -0.493 OA
ATOM     18  C   UNL     1       8.537   3.099   0.232  1.00  0.00     0.278 C 
ENDBRANCH  12  17
BRANCH  13  19
ATOM     19  O   UNL     1       9.829   0.498  -2.471  1.00  0.00    -0.504 OA
ATOM     20  H   UNL     1       8.871   0.240  -2.671  1.00  0.00     0.293 HD
ENDBRANCH  13  19
ENDBRANCH   1  11
BRANCH   2  21
ATOM     21  O   UNL     1      14.424   0.436   1.674  1.00  0.00    -0.452 OA
BRANCH  21  22
ATOM     22  C   UNL     1      14.203   1.527   0.777  1.00  0.00     0.339 C 
ATOM     23  C   UNL     1      15.257   2.639   0.986  1.00  0.00     0.214 C 
ATOM     24  O   UNL     1      14.201   1.066  -0.565  1.00  0.00    -0.332 OA
ATOM     25  C   UNL     1      14.980   3.800   0.017  1.00  0.00     0.180 C 
ATOM     26  C   UNL     1      13.793   2.109  -1.438  1.00  0.00     0.179 C 
ATOM     27  C   UNL     1      14.819   3.269  -1.420  1.00  0.00     0.177 C 
BRANCH  23  28
ATOM     28  O   UNL     1      15.248   3.099   2.315  1.00  0.00    -0.384 OA
ATOM     29  H   UNL     1      14.660   3.902   2.355  1.00  0.00     0.211 HD
ENDBRANCH  23  28
BRANCH  25  30
ATOM     30  O   UNL     1      16.009   4.762   0.087  1.00  0.00    -0.387 OA
ATOM     31  H   UNL     1      16.656   4.465   0.783  1.00  0.00     0.211 HD
ENDBRANCH  25  30
BRANCH  26  32
ATOM     32  C   UNL     1      13.599   1.527  -2.843  1.00  0.00     0.191 C 
BRANCH  32  33
ATOM     33  O   UNL     1      12.365   1.909  -3.387  1.00  0.00    -0.394 OA
ATOM     34  H   UNL     1      12.509   1.986  -4.363  1.00  0.00     0.210 HD
ENDBRANCH  32  33
ENDBRANCH  26  32
BRANCH  27  35
ATOM     35  O   UNL     1      14.383   4.317  -2.244  1.00  0.00    -0.387 OA
ATOM     36  H   UNL     1      15.183   4.778  -2.605  1.00  0.00     0.211 HD
ENDBRANCH  27  35
ENDBRANCH  21  22
ENDBRANCH   2  21
BRANCH   5  37
ATOM     37  O   UNL     1      15.223  -0.163   6.705  1.00  0.00    -0.461 OA
BRANCH  37  38
ATOM     38  C   UNL     1      15.740   0.941   7.441  1.00  0.00     0.339 C 
ATOM     39  C   UNL     1      15.851   2.173   6.528  1.00  0.00     0.214 C 
ATOM     40  O   UNL     1      16.957   0.606   8.090  1.00  0.00    -0.332 OA
ATOM     41  C   UNL     1      16.958   1.953   5.496  1.00  0.00     0.180 C 
ATOM     42  C   UNL     1      18.071   0.433   7.216  1.00  0.00     0.179 C 
ATOM     43  C   UNL     1      18.271   1.593   6.206  1.00  0.00     0.177 C 
BRANCH  39  44
ATOM     44  O   UNL     1      16.139   3.308   7.314  1.00  0.00    -0.384 OA
ATOM     45  H   UNL     1      16.537   2.992   8.171  1.00  0.00     0.211 HD
ENDBRANCH  39  44
BRANCH  41  46
ATOM     46  O   UNL     1      17.110   3.086   4.676  1.00  0.00    -0.387 OA
ATOM     47  H   UNL     1      16.227   3.530   4.596  1.00  0.00     0.211 HD
ENDBRANCH  41  46
BRANCH  42  48
ATOM     48  C   UNL     1      18.159  -0.998   6.621  1.00  0.00     0.191 C 
BRANCH  48  49
ATOM     49  O   UNL     1      17.455  -1.114   5.413  1.00  0.00    -0.394 OA
ATOM     50  H   UNL     1      18.123  -1.003   4.677  1.00  0.00     0.210 HD
ENDBRANCH  48  49
ENDBRANCH  42  48
BRANCH  43  51
ATOM     51  O   UNL     1      19.255   1.276   5.263  1.00  0.00    -0.387 OA
ATOM     52  H   UNL     1      20.098   1.708   5.561  1.00  0.00     0.211 HD
ENDBRANCH  43  51
ENDBRANCH  37  38
ENDBRANCH   5  37
BRANCH   7  53
ATOM     53  O   UNL     1      10.720  -1.125   8.328  1.00  0.00    -0.507 OA
ATOM     54  H   UNL     1      10.018  -0.454   8.600  1.00  0.00     0.293 HD
ENDBRANCH   7  53
TORSDOF 18
ENDMDL
MODEL 5
REMARK VINA RESULT:    -3.506      1.724      9.355
REMARK INTER + INTRA:          -9.002
REMARK INTER:                  -8.424
REMARK INTRA:                  -0.578
REMARK UNBOUND:                -2.832
REMARK SMILES COc1cc(-c2[o+]c3cc(O)cc(O[C@H]4O[C@@H](CO)[C@@H](O)[C@H](O)[C@@H]4O)c3cc2O[C@@H]2O[C@H](CO)[C@@H](O)[C@H](O)[C@H]2O)ccc1O
REMARK SMILES IDX 6 1 28 2 27 3 26 4 13 5 12 6 10 7 9 8 8 9 7 10 5 11 3 12
REMARK SMILES IDX 43 13 4 14 42 15 41 16 2 17 1 18 44 19 29 21 30 22 39 23
REMARK SMILES IDX 31 24 37 25 32 26 35 27 40 28 38 30 33 32 34 33 36 35 14 37
REMARK SMILES IDX 15 38 24 39 16 40 22 41 17 42 20 43 25 44 23 46 18 48 19 49
REMARK SMILES IDX 21 51 11 53
REMARK H PARENT 44 20 40 29 38 31 34 34 36 36 25 45 23 47 19 50 21 52 11 54
REMARK Flexibility Score: inf
ROOT
ATOM      1  C   UNL     1      12.213   0.199   2.755  1.00  0.00     0.402 A 
ATOM      2  C   UNL     1      13.625   0.198   2.847  1.00  0.00     0.229 A 
ATOM      3  C   UNL     1      14.208  -0.064   4.100  1.00  0.00     0.079 A 
ATOM      4  C   UNL     1      13.398  -0.248   5.220  1.00  0.00     0.126 A 
ATOM      5  C   UNL     1      13.945  -0.400   6.512  1.00  0.00     0.143 A 
ATOM      6  C   UNL     1      13.080  -0.572   7.608  1.00  0.00     0.094 A 
ATOM      7  C   UNL     1      11.690  -0.558   7.421  1.00  0.00     0.128 A 
ATOM      8  C   UNL     1      11.155  -0.385   6.145  1.00  0.00     0.162 A 
ATOM      9  C   UNL     1      11.998  -0.211   5.048  1.00  0.00     0.368 A 
ATOM     10  O   UNL     1      11.477   0.003   3.846  1.00  0.00    -0.202 OA
ENDROOT
BRANCH   1  11
ATOM     11  C   UNL     1      11.510   0.461   1.477  1.00  0.00     0.087 A 
ATOM     12  C   UNL     1      10.417   2.057  -0.026  1.00  0.00     0.161 A 
ATOM     13  C   UNL     1      10.248   1.031  -0.969  1.00  0.00     0.157 A 
ATOM     14  C   UNL     1      11.044   1.760   1.201  1.00  0.00     0.068 A 
ATOM     15  C   UNL     1      10.681  -0.268  -0.685  1.00  0.00     0.051 A 
ATOM     16  C   UNL     1      11.289  -0.556   0.534  1.00  0.00     0.022 A 
BRANCH  12  17
ATOM     17  O   UNL     1       9.938   3.342  -0.327  1.00  0.00    -0.493 OA
ATOM     18  C   UNL     1       8.854   3.983   0.343  1.00  0.00     0.278 C 
ENDBRANCH  12  17
BRANCH  13  19
ATOM     19  O   UNL     1       9.657   1.286  -2.208  1.00  0.00    -0.504 OA
ATOM     20  H   UNL     1       8.744   1.716  -2.287  1.00  0.00     0.293 HD
ENDBRANCH  13  19
ENDBRANCH   1  11
BRANCH   2  21
ATOM     21  O   UNL     1      14.388   0.495   1.699  1.00  0.00    -0.452 OA
BRANCH  21  22
ATOM     22  C   UNL     1      14.216   1.579   0.783  1.00  0.00     0.339 C 
ATOM     23  C   UNL     1      15.334   2.633   0.954  1.00  0.00     0.214 C 
ATOM     24  O   UNL     1      14.168   1.092  -0.548  1.00  0.00    -0.332 OA
ATOM     25  C   UNL     1      15.109   3.788  -0.035  1.00  0.00     0.180 C 
ATOM     26  C   UNL     1      13.807   2.138  -1.438  1.00  0.00     0.179 C 
ATOM     27  C   UNL     1      14.896   3.238  -1.458  1.00  0.00     0.177 C 
BRANCH  23  28
ATOM     28  O   UNL     1      15.371   3.119   2.273  1.00  0.00    -0.384 OA
ATOM     29  H   UNL     1      14.929   2.444   2.858  1.00  0.00     0.211 HD
ENDBRANCH  23  28
BRANCH  25  30
ATOM     30  O   UNL     1      16.191   4.691   0.001  1.00  0.00    -0.387 OA
ATOM     31  H   UNL     1      16.491   4.845  -0.936  1.00  0.00     0.211 HD
ENDBRANCH  25  30
BRANCH  26  32
ATOM     32  C   UNL     1      13.559   1.540  -2.828  1.00  0.00     0.191 C 
BRANCH  32  33
ATOM     33  O   UNL     1      12.585   2.266  -3.529  1.00  0.00    -0.394 OA
ATOM     34  H   UNL     1      11.776   1.697  -3.539  1.00  0.00     0.210 HD
ENDBRANCH  32  33
ENDBRANCH  26  32
BRANCH  27  35
ATOM     35  O   UNL     1      14.508   4.292  -2.298  1.00  0.00    -0.387 OA
ATOM     36  H   UNL     1      13.843   3.943  -2.945  1.00  0.00     0.211 HD
ENDBRANCH  27  35
ENDBRANCH  21  22
ENDBRANCH   2  21
BRANCH   5  37
ATOM     37  O   UNL     1      15.337  -0.342   6.671  1.00  0.00    -0.461 OA
BRANCH  37  38
ATOM     38  C   UNL     1      16.280  -0.251   5.606  1.00  0.00     0.339 C 
ATOM     39  C   UNL     1      17.556  -1.026   5.969  1.00  0.00     0.214 C 
ATOM     40  O   UNL     1      16.522   1.100   5.244  1.00  0.00    -0.332 OA
ATOM     41  C   UNL     1      18.300  -0.302   7.092  1.00  0.00     0.180 C 
ATOM     42  C   UNL     1      17.260   1.852   6.206  1.00  0.00     0.179 C 
ATOM     43  C   UNL     1      18.559   1.157   6.693  1.00  0.00     0.177 C 
BRANCH  39  44
ATOM     44  O   UNL     1      18.379  -1.124   4.827  1.00  0.00    -0.384 OA
ATOM     45  H   UNL     1      17.809  -1.418   4.065  1.00  0.00     0.211 HD
ENDBRANCH  39  44
BRANCH  41  46
ATOM     46  O   UNL     1      19.496  -0.970   7.412  1.00  0.00    -0.387 OA
ATOM     47  H   UNL     1      19.265  -1.860   7.778  1.00  0.00     0.211 HD
ENDBRANCH  41  46
BRANCH  42  48
ATOM     48  C   UNL     1      16.365   2.459   7.320  1.00  0.00     0.191 C 
BRANCH  48  49
ATOM     49  O   UNL     1      15.062   2.716   6.870  1.00  0.00    -0.394 OA
ATOM     50  H   UNL     1      15.019   3.691   6.647  1.00  0.00     0.210 HD
ENDBRANCH  48  49
ENDBRANCH  42  48
BRANCH  43  51
ATOM     51  O   UNL     1      19.132   1.854   7.763  1.00  0.00    -0.387 OA
ATOM     52  H   UNL     1      19.616   1.189   8.320  1.00  0.00     0.211 HD
ENDBRANCH  43  51
ENDBRANCH  37  38
ENDBRANCH   5  37
BRANCH   7  53
ATOM     53  O   UNL     1      10.828  -0.721   8.502  1.00  0.00    -0.507 OA
ATOM     54  H   UNL     1      10.282  -1.561   8.618  1.00  0.00     0.293 HD
ENDBRANCH   7  53
TORSDOF 18
ENDMDL
