MODEL 1
REMARK VINA RESULT:     4.733      0.000      0.000
REMARK INTER + INTRA:           5.821
REMARK INTER:                   5.563
REMARK INTRA:                   0.259
REMARK UNBOUND:                 0.259
REMARK SMILES O=c1c(O)c(-c2ccc(O)cc2)oc2cc(O)cc(O)c12
REMARK SMILES IDX 5 1 3 2 2 3 1 4 21 5 19 6 18 7 16 8 15 9 14 10 13 11 6 12
REMARK SMILES IDX 7 13 8 14 9 15 12 16 11 17 10 18 4 20 20 22 17 24
REMARK H PARENT 10 19 4 21 20 23 17 25
REMARK Flexibility Score: inf
ROOT
ATOM      1  C   UNL     1      11.089  13.969  20.209  1.00  0.00     0.180 A 
ATOM      2  C   UNL     1      11.374  15.344  20.269  1.00  0.00     0.208 A 
ATOM      3  C   UNL     1      12.431  15.786  21.082  1.00  0.00     0.238 A 
ATOM      4  O   UNL     1      12.646  17.022  21.174  1.00  0.00    -0.285 OA
ATOM      5  C   UNL     1      13.199  14.846  21.811  1.00  0.00     0.111 A 
ATOM      6  C   UNL     1      14.317  15.177  22.634  1.00  0.00     0.134 A 
ATOM      7  C   UNL     1      14.920  14.182  23.412  1.00  0.00     0.093 A 
ATOM      8  C   UNL     1      14.490  12.857  23.348  1.00  0.00     0.123 A 
ATOM      9  C   UNL     1      13.436  12.511  22.501  1.00  0.00     0.094 A 
ATOM     10  C   UNL     1      12.790  13.488  21.740  1.00  0.00     0.146 A 
ATOM     11  O   UNL     1      11.785  13.119  20.955  1.00  0.00    -0.452 OA
ENDROOT
BRANCH   1  12
ATOM     12  C   UNL     1      10.008  13.425  19.355  1.00  0.00     0.021 A 
ATOM     13  C   UNL     1       9.201  12.356  19.786  1.00  0.00     0.016 A 
ATOM     14  C   UNL     1       8.170  11.876  18.972  1.00  0.00     0.047 A 
ATOM     15  C   UNL     1       7.923  12.463  17.729  1.00  0.00     0.115 A 
ATOM     16  C   UNL     1       9.740  14.024  18.113  1.00  0.00     0.016 A 
ATOM     17  C   UNL     1       8.709  13.542  17.302  1.00  0.00     0.047 A 
BRANCH  15  18
ATOM     18  O   UNL     1       6.893  11.973  16.928  1.00  0.00    -0.508 OA
ATOM     19  H   UNL     1       6.618  12.443  16.073  1.00  0.00     0.293 HD
ENDBRANCH  15  18
ENDBRANCH   1  12
BRANCH   2  20
ATOM     20  O   UNL     1      10.590  16.257  19.558  1.00  0.00    -0.502 OA
ATOM     21  H   UNL     1       9.726  15.992  19.101  1.00  0.00     0.293 HD
ENDBRANCH   2  20
BRANCH   6  22
ATOM     22  O   UNL     1      14.884  16.453  22.702  1.00  0.00    -0.507 OA
ATOM     23  H   UNL     1      14.617  17.166  23.362  1.00  0.00     0.293 HD
ENDBRANCH   6  22
BRANCH   8  24
ATOM     24  O   UNL     1      15.124  11.890  24.125  1.00  0.00    -0.508 OA
ATOM     25  H   UNL     1      15.705  11.171  23.707  1.00  0.00     0.293 HD
ENDBRANCH   8  24
TORSDOF 5
ENDMDL
MODEL 2
REMARK VINA RESULT:     4.742     23.686     26.387
REMARK INTER + INTRA:           5.832
REMARK INTER:                   5.248
REMARK INTRA:                   0.584
REMARK UNBOUND:                 0.259
REMARK SMILES O=c1c(O)c(-c2ccc(O)cc2)oc2cc(O)cc(O)c12
REMARK SMILES IDX 5 1 3 2 2 3 1 4 21 5 19 6 18 7 16 8 15 9 14 10 13 11 6 12
REMARK SMILES IDX 7 13 8 14 9 15 12 16 11 17 10 18 4 20 20 22 17 24
REMARK H PARENT 10 19 4 21 20 23 17 25
REMARK Flexibility Score: inf
ROOT
ATOM      1  C   UNL     1      -1.624  31.904   8.891  1.00  0.00     0.180 A 
ATOM      2  C   UNL     1      -0.355  31.854   8.289  1.00  0.00     0.208 A 
ATOM      3  C   UNL     1      -0.265  31.812   6.888  1.00  0.00     0.238 A 
ATOM      4  O   UNL     1       0.871  31.712   6.358  1.00  0.00    -0.285 OA
ATOM      5  C   UNL     1      -1.446  31.836   6.106  1.00  0.00     0.111 A 
ATOM      6  C   UNL     1      -1.473  31.838   4.679  1.00  0.00     0.134 A 
ATOM      7  C   UNL     1      -2.698  31.731   4.012  1.00  0.00     0.093 A 
ATOM      8  C   UNL     1      -3.902  31.689   4.716  1.00  0.00     0.123 A 
ATOM      9  C   UNL     1      -3.890  31.746   6.110  1.00  0.00     0.094 A 
ATOM     10  C   UNL     1      -2.681  31.816   6.806  1.00  0.00     0.146 A 
ATOM     11  O   UNL     1      -2.714  31.859   8.133  1.00  0.00    -0.452 OA
ENDROOT
BRANCH   1  12
ATOM     12  C   UNL     1      -1.798  31.975  10.360  1.00  0.00     0.021 A 
ATOM     13  C   UNL     1      -3.076  32.044  10.944  1.00  0.00     0.016 A 
ATOM     14  C   UNL     1      -3.215  32.086  12.335  1.00  0.00     0.047 A 
ATOM     15  C   UNL     1      -2.086  32.047  13.157  1.00  0.00     0.115 A 
ATOM     16  C   UNL     1      -0.669  31.915  11.193  1.00  0.00     0.016 A 
ATOM     17  C   UNL     1      -0.811  31.958  12.583  1.00  0.00     0.047 A 
BRANCH  15  18
ATOM     18  O   UNL     1      -2.241  32.091  14.542  1.00  0.00    -0.508 OA
ATOM     19  H   UNL     1      -2.110  31.265  15.115  1.00  0.00     0.293 HD
ENDBRANCH  15  18
ENDBRANCH   1  12
BRANCH   2  20
ATOM     20  O   UNL     1       0.797  31.809   9.080  1.00  0.00    -0.502 OA
ATOM     21  H   UNL     1       1.728  31.893   8.691  1.00  0.00     0.293 HD
ENDBRANCH   2  20
BRANCH   6  22
ATOM     22  O   UNL     1      -0.335  31.969   3.878  1.00  0.00    -0.507 OA
ATOM     23  H   UNL     1      -0.086  32.800   3.365  1.00  0.00     0.293 HD
ENDBRANCH   6  22
BRANCH   8  24
ATOM     24  O   UNL     1      -5.104  31.598   4.018  1.00  0.00    -0.508 OA
ATOM     25  H   UNL     1      -5.687  32.412   3.859  1.00  0.00     0.293 HD
ENDBRANCH   8  24
TORSDOF 5
ENDMDL
