MODEL 1
REMARK VINA RESULT:    -5.024      0.000      0.000
REMARK INTER + INTRA:         -10.810
REMARK INTER:                  -9.135
REMARK INTRA:                  -1.675
REMARK UNBOUND:                -1.675
REMARK SMILES CCCCCCCCCCCCCCCC(=O)[O-]
REMARK SMILES IDX 9 1 10 2 11 3 12 4 13 5 14 6 15 7 16 8 17 9 18 10 8 11 7 12
REMARK SMILES IDX 6 13 5 14 4 15 3 16 2 17 1 18
REMARK H PARENT
REMARK Flexibility Score: inf
ROOT
ATOM      1  C   UNL     1      -3.352  10.414  -8.375  1.00  0.00     0.000 C 
ENDROOT
BRANCH   1   2
ATOM      2  C   UNL     1      -3.105  11.545  -7.369  1.00  0.00     0.000 C 
BRANCH   2   3
ATOM      3  C   UNL     1      -2.106  12.567  -7.924  1.00  0.00     0.000 C 
BRANCH   3   4
ATOM      4  C   UNL     1      -1.178  13.086  -6.819  1.00  0.00     0.000 C 
BRANCH   4   5
ATOM      5  C   UNL     1       0.157  12.328  -6.821  1.00  0.00     0.000 C 
BRANCH   5   6
ATOM      6  C   UNL     1       0.414  11.575  -8.139  1.00  0.00     0.006 C 
BRANCH   6   7
ATOM      7  C   UNL     1       1.001  10.166  -7.959  1.00  0.00     0.053 C 
BRANCH   7   8
ATOM      8  C   UNL     1       2.482  10.143  -8.186  1.00  0.00     0.041 C 
ATOM      9  O   UNL     1       2.954   9.630  -9.234  1.00  0.00    -0.550 OA
ATOM     10  O   UNL     1       3.338  10.717  -7.254  1.00  0.00    -0.550 OA
ENDBRANCH   7   8
ENDBRANCH   6   7
ENDBRANCH   5   6
ENDBRANCH   4   5
ENDBRANCH   3   4
ENDBRANCH   2   3
ENDBRANCH   1   2
BRANCH   1  11
ATOM     11  C   UNL     1      -3.196  10.915  -9.816  1.00  0.00     0.000 C 
BRANCH  11  12
ATOM     12  C   UNL     1      -4.473  10.653 -10.629  1.00  0.00    -0.000 C 
BRANCH  12  13
ATOM     13  C   UNL     1      -5.730  11.225  -9.955  1.00  0.00    -0.000 C 
BRANCH  13  14
ATOM     14  C   UNL     1      -6.944  10.287 -10.072  1.00  0.00    -0.000 C 
BRANCH  14  15
ATOM     15  C   UNL     1      -7.020   9.273  -8.920  1.00  0.00    -0.000 C 
BRANCH  15  16
ATOM     16  C   UNL     1      -6.982   7.815  -9.412  1.00  0.00    -0.000 C 
BRANCH  16  17
ATOM     17  C   UNL     1      -5.549   7.300  -9.613  1.00  0.00    -0.003 C 
ATOM     18  C   UNL     1      -5.226   7.010 -11.077  1.00  0.00     0.004 C 
ENDBRANCH  16  17
ENDBRANCH  15  16
ENDBRANCH  14  15
ENDBRANCH  13  14
ENDBRANCH  12  13
ENDBRANCH  11  12
ENDBRANCH   1  11
TORSDOF 14
ENDMDL
MODEL 2
REMARK VINA RESULT:    -4.898      1.152      2.027
REMARK INTER + INTRA:         -10.582
REMARK INTER:                  -9.044
REMARK INTRA:                  -1.538
REMARK UNBOUND:                -1.675
REMARK SMILES CCCCCCCCCCCCCCCC(=O)[O-]
REMARK SMILES IDX 9 1 10 2 11 3 12 4 13 5 14 6 15 7 16 8 17 9 18 10 8 11 7 12
REMARK SMILES IDX 6 13 5 14 4 15 3 16 2 17 1 18
REMARK H PARENT
REMARK Flexibility Score: inf
ROOT
ATOM      1  C   UNL     1      -3.511  12.184  -6.822  1.00  0.00     0.000 C 
ENDROOT
BRANCH   1   2
ATOM      2  C   UNL     1      -3.151  11.056  -7.797  1.00  0.00     0.000 C 
BRANCH   2   3
ATOM      3  C   UNL     1      -1.908  11.415  -8.620  1.00  0.00     0.000 C 
BRANCH   3   4
ATOM      4  C   UNL     1      -1.106  12.536  -7.947  1.00  0.00     0.000 C 
BRANCH   4   5
ATOM      5  C   UNL     1       0.380  12.164  -7.844  1.00  0.00     0.000 C 
BRANCH   5   6
ATOM      6  C   UNL     1       0.604  10.757  -7.260  1.00  0.00     0.006 C 
BRANCH   6   7
ATOM      7  C   UNL     1       1.401   9.813  -8.174  1.00  0.00     0.053 C 
BRANCH   7   8
ATOM      8  C   UNL     1       2.852  10.183  -8.234  1.00  0.00     0.041 C 
ATOM      9  O   UNL     1       3.404  10.740  -7.250  1.00  0.00    -0.550 OA
ATOM     10  O   UNL     1       3.600   9.882  -9.365  1.00  0.00    -0.550 OA
ENDBRANCH   7   8
ENDBRANCH   6   7
ENDBRANCH   5   6
ENDBRANCH   4   5
ENDBRANCH   3   4
ENDBRANCH   2   3
ENDBRANCH   1   2
BRANCH   1  11
ATOM     11  C   UNL     1      -4.947  12.670  -7.049  1.00  0.00     0.000 C 
BRANCH  11  12
ATOM     12  C   UNL     1      -5.251  12.807  -8.549  1.00  0.00    -0.000 C 
BRANCH  12  13
ATOM     13  C   UNL     1      -6.623  12.227  -8.930  1.00  0.00    -0.000 C 
BRANCH  13  14
ATOM     14  C   UNL     1      -6.515  11.047  -9.910  1.00  0.00    -0.000 C 
BRANCH  14  15
ATOM     15  C   UNL     1      -5.172  11.020 -10.656  1.00  0.00    -0.000 C 
BRANCH  15  16
ATOM     16  C   UNL     1      -4.607   9.596 -10.804  1.00  0.00    -0.000 C 
BRANCH  16  17
ATOM     17  C   UNL     1      -5.407   8.560 -10.000  1.00  0.00    -0.003 C 
ATOM     18  C   UNL     1      -4.669   7.231  -9.849  1.00  0.00     0.004 C 
ENDBRANCH  16  17
ENDBRANCH  15  16
ENDBRANCH  14  15
ENDBRANCH  13  14
ENDBRANCH  12  13
ENDBRANCH  11  12
ENDBRANCH   1  11
TORSDOF 14
ENDMDL
MODEL 3
REMARK VINA RESULT:    -4.814      1.280      2.267
REMARK INTER + INTRA:         -10.428
REMARK INTER:                  -8.338
REMARK INTRA:                  -2.091
REMARK UNBOUND:                -1.675
REMARK SMILES CCCCCCCCCCCCCCCC(=O)[O-]
REMARK SMILES IDX 9 1 10 2 11 3 12 4 13 5 14 6 15 7 16 8 17 9 18 10 8 11 7 12
REMARK SMILES IDX 6 13 5 14 4 15 3 16 2 17 1 18
REMARK H PARENT
REMARK Flexibility Score: inf
ROOT
ATOM      1  C   UNL     1      -3.185  10.739  -6.685  1.00  0.00     0.000 C 
ENDROOT
BRANCH   1   2
ATOM      2  C   UNL     1      -1.953  10.657  -5.775  1.00  0.00     0.000 C 
BRANCH   2   3
ATOM      3  C   UNL     1      -1.630  12.025  -5.162  1.00  0.00     0.000 C 
BRANCH   3   4
ATOM      4  C   UNL     1      -0.822  12.889  -6.138  1.00  0.00     0.000 C 
BRANCH   4   5
ATOM      5  C   UNL     1       0.559  12.271  -6.406  1.00  0.00     0.000 C 
BRANCH   5   6
ATOM      6  C   UNL     1       0.743  11.835  -7.871  1.00  0.00     0.006 C 
BRANCH   6   7
ATOM      7  C   UNL     1       1.094  10.349  -8.049  1.00  0.00     0.053 C 
BRANCH   7   8
ATOM      8  C   UNL     1       2.559  10.144  -8.286  1.00  0.00     0.041 C 
ATOM      9  O   UNL     1       3.403  10.593  -7.467  1.00  0.00    -0.550 OA
ATOM     10  O   UNL     1       2.990   9.429  -9.397  1.00  0.00    -0.550 OA
ENDBRANCH   7   8
ENDBRANCH   6   7
ENDBRANCH   5   6
ENDBRANCH   4   5
ENDBRANCH   3   4
ENDBRANCH   2   3
ENDBRANCH   1   2
BRANCH   1  11
ATOM     11  C   UNL     1      -2.781  10.686  -8.163  1.00  0.00     0.000 C 
BRANCH  11  12
ATOM     12  C   UNL     1      -3.103  12.013  -8.868  1.00  0.00    -0.000 C 
BRANCH  12  13
ATOM     13  C   UNL     1      -4.097  12.877  -8.075  1.00  0.00    -0.000 C 
BRANCH  13  14
ATOM     14  C   UNL     1      -5.448  13.036  -8.794  1.00  0.00    -0.000 C 
BRANCH  14  15
ATOM     15  C   UNL     1      -6.294  11.754  -8.751  1.00  0.00    -0.000 C 
BRANCH  15  16
ATOM     16  C   UNL     1      -6.461  11.110 -10.139  1.00  0.00    -0.000 C 
BRANCH  16  17
ATOM     17  C   UNL     1      -6.154   9.605 -10.130  1.00  0.00    -0.003 C 
ATOM     18  C   UNL     1      -6.024   9.038  -8.717  1.00  0.00     0.004 C 
ENDBRANCH  16  17
ENDBRANCH  15  16
ENDBRANCH  14  15
ENDBRANCH  13  14
ENDBRANCH  12  13
ENDBRANCH  11  12
ENDBRANCH   1  11
TORSDOF 14
ENDMDL
MODEL 4
REMARK VINA RESULT:    -4.736      1.302      2.339
REMARK INTER + INTRA:         -10.286
REMARK INTER:                  -8.295
REMARK INTRA:                  -1.991
REMARK UNBOUND:                -1.675
REMARK SMILES CCCCCCCCCCCCCCCC(=O)[O-]
REMARK SMILES IDX 9 1 10 2 11 3 12 4 13 5 14 6 15 7 16 8 17 9 18 10 8 11 7 12
REMARK SMILES IDX 6 13 5 14 4 15 3 16 2 17 1 18
REMARK H PARENT
REMARK Flexibility Score: inf
ROOT
ATOM      1  C   UNL     1      -3.268  12.342  -8.817  1.00  0.00     0.000 C 
ENDROOT
BRANCH   1   2
ATOM      2  C   UNL     1      -3.099  12.164  -7.304  1.00  0.00     0.000 C 
BRANCH   2   3
ATOM      3  C   UNL     1      -2.581  10.760  -6.968  1.00  0.00     0.000 C 
BRANCH   3   4
ATOM      4  C   UNL     1      -1.186  10.825  -6.335  1.00  0.00     0.000 C 
BRANCH   4   5
ATOM      5  C   UNL     1      -0.457  12.114  -6.741  1.00  0.00     0.000 C 
BRANCH   5   6
ATOM      6  C   UNL     1       0.604  11.881  -7.831  1.00  0.00     0.006 C 
BRANCH   6   7
ATOM      7  C   UNL     1       0.928  10.401  -8.093  1.00  0.00     0.053 C 
BRANCH   7   8
ATOM      8  C   UNL     1       2.403  10.161  -8.202  1.00  0.00     0.041 C 
ATOM      9  O   UNL     1       2.872   9.536  -9.189  1.00  0.00    -0.550 OA
ATOM     10  O   UNL     1       3.262  10.656  -7.230  1.00  0.00    -0.550 OA
ENDBRANCH   7   8
ENDBRANCH   6   7
ENDBRANCH   5   6
ENDBRANCH   4   5
ENDBRANCH   3   4
ENDBRANCH   2   3
ENDBRANCH   1   2
BRANCH   1  11
ATOM     11  C   UNL     1      -2.986  11.031  -9.560  1.00  0.00     0.000 C 
BRANCH  11  12
ATOM     12  C   UNL     1      -4.078  10.744 -10.603  1.00  0.00    -0.000 C 
BRANCH  12  13
ATOM     13  C   UNL     1      -4.752   9.379 -10.392  1.00  0.00    -0.000 C 
BRANCH  13  14
ATOM     14  C   UNL     1      -6.238   9.505 -10.014  1.00  0.00    -0.000 C 
BRANCH  14  15
ATOM     15  C   UNL     1      -6.745  10.953 -10.090  1.00  0.00    -0.000 C 
BRANCH  15  16
ATOM     16  C   UNL     1      -7.085  11.534  -8.705  1.00  0.00    -0.000 C 
BRANCH  16  17
ATOM     17  C   UNL     1      -6.814  10.537  -7.568  1.00  0.00    -0.003 C 
ATOM     18  C   UNL     1      -6.511  11.227  -6.239  1.00  0.00     0.004 C 
ENDBRANCH  16  17
ENDBRANCH  15  16
ENDBRANCH  14  15
ENDBRANCH  13  14
ENDBRANCH  12  13
ENDBRANCH  11  12
ENDBRANCH   1  11
TORSDOF 14
ENDMDL
MODEL 5
REMARK VINA RESULT:    -4.716      1.690      3.210
REMARK INTER + INTRA:         -10.250
REMARK INTER:                  -8.129
REMARK INTRA:                  -2.122
REMARK UNBOUND:                -1.675
REMARK SMILES CCCCCCCCCCCCCCCC(=O)[O-]
REMARK SMILES IDX 9 1 10 2 11 3 12 4 13 5 14 6 15 7 16 8 17 9 18 10 8 11 7 12
REMARK SMILES IDX 6 13 5 14 4 15 3 16 2 17 1 18
REMARK H PARENT
REMARK Flexibility Score: inf
ROOT
ATOM      1  C   UNL     1      -4.488   9.719 -10.214  1.00  0.00     0.000 C 
ENDROOT
BRANCH   1   2
ATOM      2  C   UNL     1      -3.319  10.064  -9.284  1.00  0.00     0.000 C 
BRANCH   2   3
ATOM      3  C   UNL     1      -2.808  11.485  -9.546  1.00  0.00     0.000 C 
BRANCH   3   4
ATOM      4  C   UNL     1      -1.938  11.981  -8.385  1.00  0.00     0.000 C 
BRANCH   4   5
ATOM      5  C   UNL     1      -1.751  10.881  -7.329  1.00  0.00     0.000 C 
BRANCH   5   6
ATOM      6  C   UNL     1      -0.271  10.602  -7.013  1.00  0.00     0.006 C 
BRANCH   6   7
ATOM      7  C   UNL     1       0.718  11.249  -7.996  1.00  0.00     0.053 C 
BRANCH   7   8
ATOM      8  C   UNL     1       2.071  10.609  -7.932  1.00  0.00     0.041 C 
ATOM      9  O   UNL     1       2.856  10.878  -6.986  1.00  0.00    -0.550 OA
ATOM     10  O   UNL     1       2.451   9.690  -8.902  1.00  0.00    -0.550 OA
ENDBRANCH   7   8
ENDBRANCH   6   7
ENDBRANCH   5   6
ENDBRANCH   4   5
ENDBRANCH   3   4
ENDBRANCH   2   3
ENDBRANCH   1   2
BRANCH   1  11
ATOM     11  C   UNL     1      -5.198  10.988 -10.700  1.00  0.00     0.000 C 
BRANCH  11  12
ATOM     12  C   UNL     1      -6.681  10.975 -10.298  1.00  0.00    -0.000 C 
BRANCH  12  13
ATOM     13  C   UNL     1      -6.912  11.505  -8.874  1.00  0.00    -0.000 C 
BRANCH  13  14
ATOM     14  C   UNL     1      -6.387  12.938  -8.683  1.00  0.00    -0.000 C 
BRANCH  14  15
ATOM     15  C   UNL     1      -5.390  13.051  -7.520  1.00  0.00    -0.000 C 
BRANCH  15  16
ATOM     16  C   UNL     1      -5.973  12.537  -6.190  1.00  0.00    -0.000 C 
BRANCH  16  17
ATOM     17  C   UNL     1      -5.042  11.539  -5.487  1.00  0.00    -0.003 C 
ATOM     18  C   UNL     1      -5.120  10.136  -6.085  1.00  0.00     0.004 C 
ENDBRANCH  16  17
ENDBRANCH  15  16
ENDBRANCH  14  15
ENDBRANCH  13  14
ENDBRANCH  12  13
ENDBRANCH  11  12
ENDBRANCH   1  11
TORSDOF 14
ENDMDL
MODEL 6
REMARK VINA RESULT:    -4.684      2.850      7.070
REMARK INTER + INTRA:         -10.193
REMARK INTER:                  -8.811
REMARK INTRA:                  -1.382
REMARK UNBOUND:                -1.675
REMARK SMILES CCCCCCCCCCCCCCCC(=O)[O-]
REMARK SMILES IDX 9 1 10 2 11 3 12 4 13 5 14 6 15 7 16 8 17 9 18 10 8 11 7 12
REMARK SMILES IDX 6 13 5 14 4 15 3 16 2 17 1 18
REMARK H PARENT
REMARK Flexibility Score: inf
ROOT
ATOM      1  C   UNL     1      -3.401  10.348  -8.277  1.00  0.00     0.000 C 
ENDROOT
BRANCH   1   2
ATOM      2  C   UNL     1      -3.120  10.919  -9.672  1.00  0.00     0.000 C 
BRANCH   2   3
ATOM      3  C   UNL     1      -4.318  10.707 -10.605  1.00  0.00     0.000 C 
BRANCH   3   4
ATOM      4  C   UNL     1      -5.638  11.005  -9.884  1.00  0.00     0.000 C 
BRANCH   4   5
ATOM      5  C   UNL     1      -6.651   9.872 -10.101  1.00  0.00     0.000 C 
BRANCH   5   6
ATOM      6  C   UNL     1      -6.468   8.709  -9.109  1.00  0.00     0.006 C 
BRANCH   6   7
ATOM      7  C   UNL     1      -6.509   7.315  -9.755  1.00  0.00     0.053 C 
BRANCH   7   8
ATOM      8  C   UNL     1      -5.261   7.019 -10.529  1.00  0.00     0.041 C 
ATOM      9  O   UNL     1      -5.335   6.542 -11.692  1.00  0.00    -0.550 OA
ATOM     10  O   UNL     1      -4.017   7.299  -9.978  1.00  0.00    -0.550 OA
ENDBRANCH   7   8
ENDBRANCH   6   7
ENDBRANCH   5   6
ENDBRANCH   4   5
ENDBRANCH   3   4
ENDBRANCH   2   3
ENDBRANCH   1   2
BRANCH   1  11
ATOM     11  C   UNL     1      -3.106  11.386  -7.187  1.00  0.00     0.000 C 
BRANCH  11  12
ATOM     12  C   UNL     1      -2.597  12.699  -7.803  1.00  0.00    -0.000 C 
BRANCH  12  13
ATOM     13  C   UNL     1      -1.175  13.056  -7.341  1.00  0.00    -0.000 C 
BRANCH  13  14
ATOM     14  C   UNL     1      -0.411  11.841  -6.786  1.00  0.00    -0.000 C 
BRANCH  14  15
ATOM     15  C   UNL     1       0.428  11.132  -7.860  1.00  0.00    -0.000 C 
BRANCH  15  16
ATOM     16  C   UNL     1       1.940  11.355  -7.672  1.00  0.00    -0.000 C 
BRANCH  16  17
ATOM     17  C   UNL     1       2.742  10.048  -7.754  1.00  0.00    -0.003 C 
ATOM     18  C   UNL     1       3.113   9.673  -9.188  1.00  0.00     0.004 C 
ENDBRANCH  16  17
ENDBRANCH  15  16
ENDBRANCH  14  15
ENDBRANCH  13  14
ENDBRANCH  12  13
ENDBRANCH  11  12
ENDBRANCH   1  11
TORSDOF 14
ENDMDL
MODEL 7
REMARK VINA RESULT:    -4.677      1.329      2.049
REMARK INTER + INTRA:         -10.179
REMARK INTER:                  -8.340
REMARK INTRA:                  -1.839
REMARK UNBOUND:                -1.675
REMARK SMILES CCCCCCCCCCCCCCCC(=O)[O-]
REMARK SMILES IDX 9 1 10 2 11 3 12 4 13 5 14 6 15 7 16 8 17 9 18 10 8 11 7 12
REMARK SMILES IDX 6 13 5 14 4 15 3 16 2 17 1 18
REMARK H PARENT
REMARK Flexibility Score: inf
ROOT
ATOM      1  C   UNL     1      -5.163  13.182  -7.836  1.00  0.00     0.000 C 
ENDROOT
BRANCH   1   2
ATOM      2  C   UNL     1      -4.758  12.284  -6.661  1.00  0.00     0.000 C 
BRANCH   2   3
ATOM      3  C   UNL     1      -3.306  11.812  -6.803  1.00  0.00     0.000 C 
BRANCH   3   4
ATOM      4  C   UNL     1      -2.641  12.438  -8.035  1.00  0.00     0.000 C 
BRANCH   4   5
ATOM      5  C   UNL     1      -1.631  11.469  -8.667  1.00  0.00     0.000 C 
BRANCH   5   6
ATOM      6  C   UNL     1      -0.595  10.945  -7.656  1.00  0.00     0.006 C 
BRANCH   6   7
ATOM      7  C   UNL     1       0.774  11.640  -7.736  1.00  0.00     0.053 C 
BRANCH   7   8
ATOM      8  C   UNL     1       1.889  10.659  -7.932  1.00  0.00     0.041 C 
ATOM      9  O   UNL     1       1.715   9.633  -8.639  1.00  0.00    -0.550 OA
ATOM     10  O   UNL     1       3.132  10.896  -7.357  1.00  0.00    -0.550 OA
ENDBRANCH   7   8
ENDBRANCH   6   7
ENDBRANCH   5   6
ENDBRANCH   4   5
ENDBRANCH   3   4
ENDBRANCH   2   3
ENDBRANCH   1   2
BRANCH   1  11
ATOM     11  C   UNL     1      -6.542  12.790  -8.379  1.00  0.00     0.000 C 
BRANCH  11  12
ATOM     12  C   UNL     1      -6.478  11.447  -9.122  1.00  0.00    -0.000 C 
BRANCH  12  13
ATOM     13  C   UNL     1      -5.427  11.441 -10.244  1.00  0.00    -0.000 C 
BRANCH  13  14
ATOM     14  C   UNL     1      -4.766  10.065 -10.428  1.00  0.00    -0.000 C 
BRANCH  14  15
ATOM     15  C   UNL     1      -4.724   9.251  -9.126  1.00  0.00    -0.000 C 
BRANCH  15  16
ATOM     16  C   UNL     1      -5.383   7.867  -9.274  1.00  0.00    -0.000 C 
BRANCH  16  17
ATOM     17  C   UNL     1      -4.921   7.128 -10.538  1.00  0.00    -0.003 C 
ATOM     18  C   UNL     1      -5.970   6.152 -11.068  1.00  0.00     0.004 C 
ENDBRANCH  16  17
ENDBRANCH  15  16
ENDBRANCH  14  15
ENDBRANCH  13  14
ENDBRANCH  12  13
ENDBRANCH  11  12
ENDBRANCH   1  11
TORSDOF 14
ENDMDL
MODEL 8
REMARK VINA RESULT:    -4.628      3.147      7.008
REMARK INTER + INTRA:         -10.091
REMARK INTER:                  -8.391
REMARK INTRA:                  -1.700
REMARK UNBOUND:                -1.675
REMARK SMILES CCCCCCCCCCCCCCCC(=O)[O-]
REMARK SMILES IDX 9 1 10 2 11 3 12 4 13 5 14 6 15 7 16 8 17 9 18 10 8 11 7 12
REMARK SMILES IDX 6 13 5 14 4 15 3 16 2 17 1 18
REMARK H PARENT
REMARK Flexibility Score: inf
ROOT
ATOM      1  C   UNL     1      -2.913  11.857  -6.082  1.00  0.00     0.000 C 
ENDROOT
BRANCH   1   2
ATOM      2  C   UNL     1      -3.465  10.901  -7.146  1.00  0.00     0.000 C 
BRANCH   2   3
ATOM      3  C   UNL     1      -2.471  10.727  -8.300  1.00  0.00     0.000 C 
BRANCH   3   4
ATOM      4  C   UNL     1      -3.107  11.118  -9.639  1.00  0.00     0.000 C 
BRANCH   4   5
ATOM      5  C   UNL     1      -4.580  11.511  -9.454  1.00  0.00     0.000 C 
BRANCH   5   6
ATOM      6  C   UNL     1      -5.511  10.840 -10.480  1.00  0.00     0.006 C 
BRANCH   6   7
ATOM      7  C   UNL     1      -6.364   9.697  -9.907  1.00  0.00     0.053 C 
BRANCH   7   8
ATOM      8  C   UNL     1      -5.600   8.410  -9.835  1.00  0.00     0.041 C 
ATOM      9  O   UNL     1      -5.038   7.948 -10.862  1.00  0.00    -0.550 OA
ATOM     10  O   UNL     1      -5.484   7.737  -8.625  1.00  0.00    -0.550 OA
ENDBRANCH   7   8
ENDBRANCH   6   7
ENDBRANCH   5   6
ENDBRANCH   4   5
ENDBRANCH   3   4
ENDBRANCH   2   3
ENDBRANCH   1   2
BRANCH   1  11
ATOM     11  C   UNL     1      -2.702  13.261  -6.660  1.00  0.00     0.000 C 
BRANCH  11  12
ATOM     12  C   UNL     1      -1.241  13.708  -6.497  1.00  0.00    -0.000 C 
BRANCH  12  13
ATOM     13  C   UNL     1      -0.438  12.776  -5.575  1.00  0.00    -0.000 C 
BRANCH  13  14
ATOM     14  C   UNL     1       1.078  13.025  -5.657  1.00  0.00    -0.000 C 
BRANCH  14  15
ATOM     15  C   UNL     1       1.843  11.823  -6.231  1.00  0.00    -0.000 C 
BRANCH  15  16
ATOM     16  C   UNL     1       0.904  10.707  -6.724  1.00  0.00    -0.000 C 
BRANCH  16  17
ATOM     17  C   UNL     1       1.197  10.290  -8.173  1.00  0.00    -0.003 C 
ATOM     18  C   UNL     1       2.669   9.956  -8.405  1.00  0.00     0.004 C 
ENDBRANCH  16  17
ENDBRANCH  15  16
ENDBRANCH  14  15
ENDBRANCH  13  14
ENDBRANCH  12  13
ENDBRANCH  11  12
ENDBRANCH   1  11
TORSDOF 14
ENDMDL
MODEL 9
REMARK VINA RESULT:    -4.574      1.503      2.770
REMARK INTER + INTRA:          -9.993
REMARK INTER:                  -7.942
REMARK INTRA:                  -2.051
REMARK UNBOUND:                -1.675
REMARK SMILES CCCCCCCCCCCCCCCC(=O)[O-]
REMARK SMILES IDX 9 1 10 2 11 3 12 4 13 5 14 6 15 7 16 8 17 9 18 10 8 11 7 12
REMARK SMILES IDX 6 13 5 14 4 15 3 16 2 17 1 18
REMARK H PARENT
REMARK Flexibility Score: inf
ROOT
ATOM      1  C   UNL     1      -2.929  10.802  -7.148  1.00  0.00     0.000 C 
ENDROOT
BRANCH   1   2
ATOM      2  C   UNL     1      -2.986  11.541  -5.806  1.00  0.00     0.000 C 
BRANCH   2   3
ATOM      3  C   UNL     1      -2.269  12.894  -5.890  1.00  0.00     0.000 C 
BRANCH   3   4
ATOM      4  C   UNL     1      -0.982  12.888  -5.057  1.00  0.00     0.000 C 
BRANCH   4   5
ATOM      5  C   UNL     1       0.252  13.087  -5.950  1.00  0.00     0.000 C 
BRANCH   5   6
ATOM      6  C   UNL     1       1.155  11.842  -6.006  1.00  0.00     0.006 C 
BRANCH   6   7
ATOM      7  C   UNL     1       0.908  10.937  -7.224  1.00  0.00     0.053 C 
BRANCH   7   8
ATOM      8  C   UNL     1       2.187  10.420  -7.807  1.00  0.00     0.041 C 
ATOM      9  O   UNL     1       3.292  10.739  -7.294  1.00  0.00    -0.550 OA
ATOM     10  O   UNL     1       2.157   9.560  -8.897  1.00  0.00    -0.550 OA
ENDBRANCH   7   8
ENDBRANCH   6   7
ENDBRANCH   5   6
ENDBRANCH   4   5
ENDBRANCH   3   4
ENDBRANCH   2   3
ENDBRANCH   1   2
BRANCH   1  11
ATOM     11  C   UNL     1      -2.598  11.766  -8.294  1.00  0.00     0.000 C 
BRANCH  11  12
ATOM     12  C   UNL     1      -2.899  11.123  -9.656  1.00  0.00    -0.000 C 
BRANCH  12  13
ATOM     13  C   UNL     1      -3.513   9.720  -9.525  1.00  0.00    -0.000 C 
BRANCH  13  14
ATOM     14  C   UNL     1      -4.820   9.569 -10.321  1.00  0.00    -0.000 C 
BRANCH  14  15
ATOM     15  C   UNL     1      -5.450  10.924 -10.683  1.00  0.00    -0.000 C 
BRANCH  15  16
ATOM     16  C   UNL     1      -6.634  11.287  -9.769  1.00  0.00    -0.000 C 
BRANCH  16  17
ATOM     17  C   UNL     1      -6.293  12.419  -8.788  1.00  0.00    -0.003 C 
ATOM     18  C   UNL     1      -6.429  11.994  -7.326  1.00  0.00     0.004 C 
ENDBRANCH  16  17
ENDBRANCH  15  16
ENDBRANCH  14  15
ENDBRANCH  13  14
ENDBRANCH  12  13
ENDBRANCH  11  12
ENDBRANCH   1  11
TORSDOF 14
ENDMDL
