MODEL 1
REMARK VINA RESULT:    -6.282      0.000      0.000
REMARK INTER + INTRA:          -6.466
REMARK INTER:                  -6.466
REMARK INTRA:                   0.000
REMARK UNBOUND:                 0.000
REMARK SMILES O=c1ccc2ccc(O)cc2o1
REMARK SMILES IDX 6 1 7 2 8 3 10 4 11 5 5 6 4 7 3 8 2 9 1 10 12 11 9 12
REMARK H PARENT 9 13
REMARK Flexibility Score: inf
ROOT
ATOM      1  C   UNL     1      29.474  24.757  47.146  1.00  0.00     0.016 A 
ATOM      2  C   UNL     1      28.982  25.093  45.881  1.00  0.00     0.047 A 
ATOM      3  C   UNL     1      27.709  24.671  45.481  1.00  0.00     0.119 A 
ATOM      4  C   UNL     1      26.920  23.904  46.351  1.00  0.00     0.094 A 
ATOM      5  C   UNL     1      27.403  23.561  47.619  1.00  0.00     0.142 A 
ATOM      6  C   UNL     1      28.689  23.991  48.019  1.00  0.00     0.018 A 
ATOM      7  C   UNL     1      29.144  23.632  49.292  1.00  0.00     0.019 A 
ATOM      8  C   UNL     1      28.325  22.870  50.123  1.00  0.00     0.094 A 
ATOM      9  C   UNL     1      27.063  22.480  49.658  1.00  0.00     0.336 A 
ATOM     10  O   UNL     1      26.309  21.791  50.394  1.00  0.00    -0.246 OA
ATOM     11  O   UNL     1      26.653  22.834  48.443  1.00  0.00    -0.423 OA
ENDROOT
BRANCH   3  12
ATOM     12  O   UNL     1      27.236  25.017  44.216  1.00  0.00    -0.508 OA
ATOM     13  H   UNL     1      27.656  24.643  43.374  1.00  0.00     0.293 HD
ENDBRANCH   3  12
TORSDOF 1
ENDMDL
MODEL 2
REMARK VINA RESULT:    -6.184      1.435      4.508
REMARK INTER + INTRA:          -6.365
REMARK INTER:                  -6.365
REMARK INTRA:                   0.000
REMARK UNBOUND:                 0.000
REMARK SMILES O=c1ccc2ccc(O)cc2o1
REMARK SMILES IDX 6 1 7 2 8 3 10 4 11 5 5 6 4 7 3 8 2 9 1 10 12 11 9 12
REMARK H PARENT 9 13
REMARK Flexibility Score: inf
ROOT
ATOM      1  C   UNL     1      28.863  24.364  50.691  1.00  0.00     0.016 A 
ATOM      2  C   UNL     1      28.434  23.545  51.741  1.00  0.00     0.047 A 
ATOM      3  C   UNL     1      27.444  22.580  51.527  1.00  0.00     0.119 A 
ATOM      4  C   UNL     1      26.876  22.430  50.253  1.00  0.00     0.094 A 
ATOM      5  C   UNL     1      27.297  23.244  49.196  1.00  0.00     0.142 A 
ATOM      6  C   UNL     1      28.298  24.218  49.417  1.00  0.00     0.018 A 
ATOM      7  C   UNL     1      28.699  25.016  48.341  1.00  0.00     0.019 A 
ATOM      8  C   UNL     1      28.106  24.832  47.093  1.00  0.00     0.094 A 
ATOM      9  C   UNL     1      27.121  23.848  46.949  1.00  0.00     0.336 A 
ATOM     10  O   UNL     1      26.574  23.666  45.830  1.00  0.00    -0.246 OA
ATOM     11  O   UNL     1      26.758  23.101  47.989  1.00  0.00    -0.423 OA
ENDROOT
BRANCH   3  12
ATOM     12  O   UNL     1      27.031  21.773  52.586  1.00  0.00    -0.508 OA
ATOM     13  H   UNL     1      27.596  20.999  52.913  1.00  0.00     0.293 HD
ENDBRANCH   3  12
TORSDOF 1
ENDMDL
MODEL 3
REMARK VINA RESULT:    -6.179      1.216      4.239
REMARK INTER + INTRA:          -6.360
REMARK INTER:                  -6.360
REMARK INTRA:                   0.000
REMARK UNBOUND:                 0.000
REMARK SMILES O=c1ccc2ccc(O)cc2o1
REMARK SMILES IDX 6 1 7 2 8 3 10 4 11 5 5 6 4 7 3 8 2 9 1 10 12 11 9 12
REMARK H PARENT 9 13
REMARK Flexibility Score: inf
ROOT
ATOM      1  C   UNL     1      29.412  24.474  49.401  1.00  0.00     0.016 A 
ATOM      2  C   UNL     1      28.826  24.066  50.604  1.00  0.00     0.047 A 
ATOM      3  C   UNL     1      27.481  23.679  50.640  1.00  0.00     0.119 A 
ATOM      4  C   UNL     1      26.714  23.701  49.466  1.00  0.00     0.094 A 
ATOM      5  C   UNL     1      27.291  24.109  48.258  1.00  0.00     0.142 A 
ATOM      6  C   UNL     1      28.649  24.498  48.225  1.00  0.00     0.018 A 
ATOM      7  C   UNL     1      29.197  24.900  47.004  1.00  0.00     0.019 A 
ATOM      8  C   UNL     1      28.397  24.906  45.863  1.00  0.00     0.094 A 
ATOM      9  C   UNL     1      27.059  24.507  45.971  1.00  0.00     0.336 A 
ATOM     10  O   UNL     1      26.321  24.506  44.952  1.00  0.00    -0.246 OA
ATOM     11  O   UNL     1      26.562  24.129  47.145  1.00  0.00    -0.423 OA
ENDROOT
BRANCH   3  12
ATOM     12  O   UNL     1      26.916  23.275  51.848  1.00  0.00    -0.508 OA
ATOM     13  H   UNL     1      25.926  23.384  52.032  1.00  0.00     0.293 HD
ENDBRANCH   3  12
TORSDOF 1
ENDMDL
MODEL 4
REMARK VINA RESULT:    -6.131      1.805      4.832
REMARK INTER + INTRA:          -6.310
REMARK INTER:                  -6.310
REMARK INTRA:                   0.000
REMARK UNBOUND:                 0.000
REMARK SMILES O=c1ccc2ccc(O)cc2o1
REMARK SMILES IDX 6 1 7 2 8 3 10 4 11 5 5 6 4 7 3 8 2 9 1 10 12 11 9 12
REMARK H PARENT 9 13
REMARK Flexibility Score: inf
ROOT
ATOM      1  C   UNL     1      26.536  22.771  49.104  1.00  0.00     0.016 A 
ATOM      2  C   UNL     1      26.958  22.028  50.211  1.00  0.00     0.047 A 
ATOM      3  C   UNL     1      28.316  21.961  50.544  1.00  0.00     0.119 A 
ATOM      4  C   UNL     1      29.262  22.643  49.763  1.00  0.00     0.094 A 
ATOM      5  C   UNL     1      28.850  23.388  48.653  1.00  0.00     0.142 A 
ATOM      6  C   UNL     1      27.478  23.453  48.321  1.00  0.00     0.018 A 
ATOM      7  C   UNL     1      27.098  24.206  47.206  1.00  0.00     0.019 A 
ATOM      8  C   UNL     1      28.073  24.866  46.461  1.00  0.00     0.094 A 
ATOM      9  C   UNL     1      29.413  24.757  46.849  1.00  0.00     0.336 A 
ATOM     10  O   UNL     1      30.308  25.346  46.188  1.00  0.00    -0.246 OA
ATOM     11  O   UNL     1      29.749  24.034  47.914  1.00  0.00    -0.423 OA
ENDROOT
BRANCH   3  12
ATOM     12  O   UNL     1      28.716  21.216  51.652  1.00  0.00    -0.508 OA
ATOM     13  H   UNL     1      28.423  20.255  51.776  1.00  0.00     0.293 HD
ENDBRANCH   3  12
TORSDOF 1
ENDMDL
MODEL 5
REMARK VINA RESULT:    -5.748      1.756      2.444
REMARK INTER + INTRA:          -5.916
REMARK INTER:                  -5.916
REMARK INTRA:                   0.000
REMARK UNBOUND:                 0.000
REMARK SMILES O=c1ccc2ccc(O)cc2o1
REMARK SMILES IDX 6 1 7 2 8 3 10 4 11 5 5 6 4 7 3 8 2 9 1 10 12 11 9 12
REMARK H PARENT 9 13
REMARK Flexibility Score: inf
ROOT
ATOM      1  C   UNL     1      27.046  24.196  47.370  1.00  0.00     0.016 A 
ATOM      2  C   UNL     1      28.008  24.829  46.576  1.00  0.00     0.047 A 
ATOM      3  C   UNL     1      29.365  24.747  46.907  1.00  0.00     0.119 A 
ATOM      4  C   UNL     1      29.767  24.027  48.041  1.00  0.00     0.094 A 
ATOM      5  C   UNL     1      28.813  23.389  48.843  1.00  0.00     0.142 A 
ATOM      6  C   UNL     1      27.444  23.474  48.505  1.00  0.00     0.018 A 
ATOM      7  C   UNL     1      26.514  22.828  49.325  1.00  0.00     0.019 A 
ATOM      8  C   UNL     1      26.960  22.123  50.442  1.00  0.00     0.094 A 
ATOM      9  C   UNL     1      28.332  22.082  50.714  1.00  0.00     0.336 A 
ATOM     10  O   UNL     1      28.754  21.451  51.719  1.00  0.00    -0.246 OA
ATOM     11  O   UNL     1      29.196  22.706  49.918  1.00  0.00    -0.423 OA
ENDROOT
BRANCH   3  12
ATOM     12  O   UNL     1      30.308  25.385  46.102  1.00  0.00    -0.508 OA
ATOM     13  H   UNL     1      31.300  25.316  46.294  1.00  0.00     0.293 HD
ENDBRANCH   3  12
TORSDOF 1
ENDMDL
MODEL 6
REMARK VINA RESULT:    -5.683      1.078      1.178
REMARK INTER + INTRA:          -5.850
REMARK INTER:                  -5.850
REMARK INTRA:                   0.000
REMARK UNBOUND:                 0.000
REMARK SMILES O=c1ccc2ccc(O)cc2o1
REMARK SMILES IDX 6 1 7 2 8 3 10 4 11 5 5 6 4 7 3 8 2 9 1 10 12 11 9 12
REMARK H PARENT 9 13
REMARK Flexibility Score: inf
ROOT
ATOM      1  C   UNL     1      29.127  24.925  47.654  1.00  0.00     0.016 A 
ATOM      2  C   UNL     1      28.440  24.868  46.437  1.00  0.00     0.047 A 
ATOM      3  C   UNL     1      27.252  24.137  46.328  1.00  0.00     0.119 A 
ATOM      4  C   UNL     1      26.744  23.456  47.444  1.00  0.00     0.094 A 
ATOM      5  C   UNL     1      27.424  23.506  48.666  1.00  0.00     0.142 A 
ATOM      6  C   UNL     1      28.623  24.245  48.772  1.00  0.00     0.018 A 
ATOM      7  C   UNL     1      29.280  24.277  50.005  1.00  0.00     0.019 A 
ATOM      8  C   UNL     1      28.738  23.584  51.087  1.00  0.00     0.094 A 
ATOM      9  C   UNL     1      27.546  22.872  50.908  1.00  0.00     0.336 A 
ATOM     10  O   UNL     1      27.042  22.241  51.873  1.00  0.00    -0.246 OA
ATOM     11  O   UNL     1      26.941  22.859  49.724  1.00  0.00    -0.423 OA
ENDROOT
BRANCH   3  12
ATOM     12  O   UNL     1      26.581  24.094  45.106  1.00  0.00    -0.508 OA
ATOM     13  H   UNL     1      25.570  24.090  45.058  1.00  0.00     0.293 HD
ENDBRANCH   3  12
TORSDOF 1
ENDMDL
MODEL 7
REMARK VINA RESULT:    -5.534      1.851      4.237
REMARK INTER + INTRA:          -5.695
REMARK INTER:                  -5.695
REMARK INTRA:                   0.000
REMARK UNBOUND:                 0.000
REMARK SMILES O=c1ccc2ccc(O)cc2o1
REMARK SMILES IDX 6 1 7 2 8 3 10 4 11 5 5 6 4 7 3 8 2 9 1 10 12 11 9 12
REMARK H PARENT 9 13
REMARK Flexibility Score: inf
ROOT
ATOM      1  C   UNL     1      29.087  22.280  49.506  1.00  0.00     0.016 A 
ATOM      2  C   UNL     1      27.726  22.253  49.828  1.00  0.00     0.047 A 
ATOM      3  C   UNL     1      26.824  23.085  49.155  1.00  0.00     0.119 A 
ATOM      4  C   UNL     1      27.284  23.951  48.152  1.00  0.00     0.094 A 
ATOM      5  C   UNL     1      28.643  23.986  47.823  1.00  0.00     0.142 A 
ATOM      6  C   UNL     1      29.551  23.144  48.505  1.00  0.00     0.018 A 
ATOM      7  C   UNL     1      30.904  23.201  48.154  1.00  0.00     0.019 A 
ATOM      8  C   UNL     1      31.315  24.077  47.151  1.00  0.00     0.094 A 
ATOM      9  C   UNL     1      30.359  24.881  46.519  1.00  0.00     0.336 A 
ATOM     10  O   UNL     1      30.711  25.679  45.611  1.00  0.00    -0.246 OA
ATOM     11  O   UNL     1      29.078  24.808  46.872  1.00  0.00    -0.423 OA
ENDROOT
BRANCH   3  12
ATOM     12  O   UNL     1      25.471  23.043  49.489  1.00  0.00    -0.508 OA
ATOM     13  H   UNL     1      25.092  23.619  50.230  1.00  0.00     0.293 HD
ENDBRANCH   3  12
TORSDOF 1
ENDMDL
MODEL 8
REMARK VINA RESULT:    -5.394     12.261     13.181
REMARK INTER + INTRA:          -5.552
REMARK INTER:                  -5.552
REMARK INTRA:                   0.000
REMARK UNBOUND:                 0.000
REMARK SMILES O=c1ccc2ccc(O)cc2o1
REMARK SMILES IDX 6 1 7 2 8 3 10 4 11 5 5 6 4 7 3 8 2 9 1 10 12 11 9 12
REMARK H PARENT 9 13
REMARK Flexibility Score: inf
ROOT
ATOM      1  C   UNL     1      17.500  20.694  43.486  1.00  0.00     0.016 A 
ATOM      2  C   UNL     1      17.033  21.938  43.050  1.00  0.00     0.047 A 
ATOM      3  C   UNL     1      15.700  22.307  43.259  1.00  0.00     0.119 A 
ATOM      4  C   UNL     1      14.824  21.426  43.909  1.00  0.00     0.094 A 
ATOM      5  C   UNL     1      15.280  20.179  44.350  1.00  0.00     0.142 A 
ATOM      6  C   UNL     1      16.628  19.810  44.136  1.00  0.00     0.018 A 
ATOM      7  C   UNL     1      17.055  18.558  44.587  1.00  0.00     0.019 A 
ATOM      8  C   UNL     1      16.148  17.715  45.229  1.00  0.00     0.094 A 
ATOM      9  C   UNL     1      14.829  18.148  45.405  1.00  0.00     0.336 A 
ATOM     10  O   UNL     1      13.996  17.401  45.982  1.00  0.00    -0.246 OA
ATOM     11  O   UNL     1      14.448  19.344  44.966  1.00  0.00    -0.423 OA
ENDROOT
BRANCH   3  12
ATOM     12  O   UNL     1      15.254  23.552  42.817  1.00  0.00    -0.508 OA
ATOM     13  H   UNL     1      14.927  23.690  41.869  1.00  0.00     0.293 HD
ENDBRANCH   3  12
TORSDOF 1
ENDMDL
MODEL 9
REMARK VINA RESULT:    -5.291      2.822      4.245
REMARK INTER + INTRA:          -5.446
REMARK INTER:                  -5.446
REMARK INTRA:                   0.000
REMARK UNBOUND:                 0.000
REMARK SMILES O=c1ccc2ccc(O)cc2o1
REMARK SMILES IDX 6 1 7 2 8 3 10 4 11 5 5 6 4 7 3 8 2 9 1 10 12 11 9 12
REMARK H PARENT 9 13
REMARK Flexibility Score: inf
ROOT
ATOM      1  C   UNL     1      26.946  22.185  50.569  1.00  0.00     0.016 A 
ATOM      2  C   UNL     1      26.423  22.966  49.533  1.00  0.00     0.047 A 
ATOM      3  C   UNL     1      27.105  24.105  49.092  1.00  0.00     0.119 A 
ATOM      4  C   UNL     1      28.320  24.469  49.690  1.00  0.00     0.094 A 
ATOM      5  C   UNL     1      28.852  23.695  50.727  1.00  0.00     0.142 A 
ATOM      6  C   UNL     1      28.160  22.546  51.170  1.00  0.00     0.018 A 
ATOM      7  C   UNL     1      28.717  21.792  52.208  1.00  0.00     0.019 A 
ATOM      8  C   UNL     1      29.927  22.193  52.772  1.00  0.00     0.094 A 
ATOM      9  C   UNL     1      30.556  23.343  52.282  1.00  0.00     0.336 A 
ATOM     10  O   UNL     1      31.649  23.721  52.779  1.00  0.00    -0.246 OA
ATOM     11  O   UNL     1      30.005  24.042  51.293  1.00  0.00    -0.423 OA
ENDROOT
BRANCH   3  12
ATOM     12  O   UNL     1      26.567  24.869  48.057  1.00  0.00    -0.508 OA
ATOM     13  H   UNL     1      26.219  24.440  47.208  1.00  0.00     0.293 HD
ENDBRANCH   3  12
TORSDOF 1
ENDMDL
