MODEL 1
REMARK VINA RESULT:    -0.807      0.000      0.000
REMARK INTER + INTRA:          -1.984
REMARK INTER:                  -1.751
REMARK INTRA:                  -0.233
REMARK UNBOUND:                -0.233
REMARK SMILES CCCCCCCCCCCCCCCCCCCCCC(=O)[O-]
REMARK SMILES IDX 12 1 11 2 10 3 9 4 8 5 7 6 6 7 5 8 4 9 3 10 2 11 1 12 13 13
REMARK SMILES IDX 14 14 15 15 16 16 17 17 18 18 19 19 20 20 21 21 22 22 23 23
REMARK SMILES IDX 24 24
REMARK H PARENT
REMARK Flexibility Score: inf
ROOT
ATOM      1  C   UNL     1     -10.801 -18.532  17.472  1.00  0.00     0.000 C 
ENDROOT
BRANCH   1   2
ATOM      2  C   UNL     1     -11.002 -20.025  17.175  1.00  0.00     0.000 C 
BRANCH   2   3
ATOM      3  C   UNL     1     -11.119 -20.330  15.671  1.00  0.00     0.000 C 
BRANCH   3   4
ATOM      4  C   UNL     1     -10.054 -21.294  15.113  1.00  0.00    -0.000 C 
BRANCH   4   5
ATOM      5  C   UNL     1      -8.666 -20.645  14.986  1.00  0.00    -0.000 C 
BRANCH   5   6
ATOM      6  C   UNL     1      -7.521 -21.605  15.355  1.00  0.00    -0.000 C 
BRANCH   6   7
ATOM      7  C   UNL     1      -7.266 -21.781  16.867  1.00  0.00    -0.000 C 
BRANCH   7   8
ATOM      8  C   UNL     1      -6.418 -23.006  17.255  1.00  0.00    -0.000 C 
BRANCH   8   9
ATOM      9  C   UNL     1      -4.911 -22.782  17.036  1.00  0.00    -0.000 C 
BRANCH   9  10
ATOM     10  C   UNL     1      -4.617 -21.928  15.792  1.00  0.00    -0.000 C 
BRANCH  10  11
ATOM     11  C   UNL     1      -3.121 -21.879  15.448  1.00  0.00    -0.003 C 
ATOM     12  C   UNL     1      -2.374 -23.054  16.072  1.00  0.00     0.004 C 
ENDBRANCH  10  11
ENDBRANCH   9  10
ENDBRANCH   8   9
ENDBRANCH   7   8
ENDBRANCH   6   7
ENDBRANCH   5   6
ENDBRANCH   4   5
ENDBRANCH   3   4
ENDBRANCH   2   3
ENDBRANCH   1   2
BRANCH   1  13
ATOM     13  C   UNL     1     -10.907 -18.256  18.979  1.00  0.00     0.000 C 
BRANCH  13  14
ATOM     14  C   UNL     1     -11.125 -19.534  19.808  1.00  0.00     0.000 C 
BRANCH  14  15
ATOM     15  C   UNL     1      -9.854 -20.104  20.470  1.00  0.00     0.000 C 
BRANCH  15  16
ATOM     16  C   UNL     1      -8.832 -20.724  19.497  1.00  0.00     0.000 C 
BRANCH  16  17
ATOM     17  C   UNL     1      -8.924 -22.256  19.342  1.00  0.00     0.000 C 
BRANCH  17  18
ATOM     18  C   UNL     1      -8.605 -23.058  20.616  1.00  0.00     0.000 C 
BRANCH  18  19
ATOM     19  C   UNL     1      -7.609 -22.343  21.541  1.00  0.00     0.000 C 
BRANCH  19  20
ATOM     20  C   UNL     1      -8.292 -21.894  22.841  1.00  0.00     0.006 C 
BRANCH  20  21
ATOM     21  C   UNL     1      -8.744 -23.081  23.701  1.00  0.00     0.053 C 
BRANCH  21  22
ATOM     22  C   UNL     1     -10.214 -23.036  23.985  1.00  0.00     0.041 C 
ATOM     23  O   UNL     1     -10.631 -23.054  25.174  1.00  0.00    -0.550 OA
ATOM     24  O   UNL     1     -11.125 -23.004  22.936  1.00  0.00    -0.550 OA
ENDBRANCH  21  22
ENDBRANCH  20  21
ENDBRANCH  19  20
ENDBRANCH  18  19
ENDBRANCH  17  18
ENDBRANCH  16  17
ENDBRANCH  15  16
ENDBRANCH  14  15
ENDBRANCH  13  14
ENDBRANCH   1  13
TORSDOF 20
ENDMDL
MODEL 2
REMARK VINA RESULT:    -0.387      6.513     10.378
REMARK INTER + INTRA:          -1.073
REMARK INTER:                   0.062
REMARK INTRA:                  -1.136
REMARK UNBOUND:                -0.233
REMARK SMILES CCCCCCCCCCCCCCCCCCCCCC(=O)[O-]
REMARK SMILES IDX 12 1 11 2 10 3 9 4 8 5 7 6 6 7 5 8 4 9 3 10 2 11 1 12 13 13
REMARK SMILES IDX 14 14 15 15 16 16 17 17 18 18 19 19 20 20 21 21 22 22 23 23
REMARK SMILES IDX 24 24
REMARK H PARENT
REMARK Flexibility Score: inf
ROOT
ATOM      1  C   UNL     1      -5.212 -21.510  16.425  1.00  0.00     0.000 C 
ENDROOT
BRANCH   1   2
ATOM      2  C   UNL     1      -5.876 -20.977  15.147  1.00  0.00     0.000 C 
BRANCH   2   3
ATOM      3  C   UNL     1      -7.366 -21.349  15.042  1.00  0.00     0.000 C 
BRANCH   3   4
ATOM      4  C   UNL     1      -8.335 -20.154  14.959  1.00  0.00    -0.000 C 
BRANCH   4   5
ATOM      5  C   UNL     1      -9.764 -20.567  14.570  1.00  0.00    -0.000 C 
BRANCH   5   6
ATOM      6  C   UNL     1     -10.733 -20.568  15.765  1.00  0.00    -0.000 C 
BRANCH   6   7
ATOM      7  C   UNL     1     -10.846 -21.905  16.526  1.00  0.00    -0.000 C 
BRANCH   7   8
ATOM      8  C   UNL     1     -11.097 -21.785  18.039  1.00  0.00    -0.000 C 
BRANCH   8   9
ATOM      9  C   UNL     1     -10.029 -22.508  18.881  1.00  0.00    -0.000 C 
BRANCH   9  10
ATOM     10  C   UNL     1      -8.707 -21.728  18.951  1.00  0.00    -0.000 C 
BRANCH  10  11
ATOM     11  C   UNL     1      -7.504 -22.628  19.270  1.00  0.00    -0.003 C 
ATOM     12  C   UNL     1      -7.461 -22.983  20.753  1.00  0.00     0.004 C 
ENDBRANCH  10  11
ENDBRANCH   9  10
ENDBRANCH   8   9
ENDBRANCH   7   8
ENDBRANCH   6   7
ENDBRANCH   5   6
ENDBRANCH   4   5
ENDBRANCH   3   4
ENDBRANCH   2   3
ENDBRANCH   1   2
BRANCH   1  13
ATOM     13  C   UNL     1      -3.685 -21.555  16.269  1.00  0.00     0.000 C 
BRANCH  13  14
ATOM     14  C   UNL     1      -3.147 -22.981  16.058  1.00  0.00     0.000 C 
BRANCH  14  15
ATOM     15  C   UNL     1      -1.842 -23.070  15.241  1.00  0.00     0.000 C 
BRANCH  15  16
ATOM     16  C   UNL     1      -0.560 -22.703  16.015  1.00  0.00     0.000 C 
BRANCH  16  17
ATOM     17  C   UNL     1       0.758 -23.125  15.334  1.00  0.00     0.000 C 
BRANCH  17  18
ATOM     18  C   UNL     1       1.980 -22.260  15.692  1.00  0.00     0.000 C 
BRANCH  18  19
ATOM     19  C   UNL     1       3.314 -22.931  15.332  1.00  0.00     0.000 C 
BRANCH  19  20
ATOM     20  C   UNL     1       4.333 -22.771  16.469  1.00  0.00     0.006 C 
BRANCH  20  21
ATOM     21  C   UNL     1       5.777 -22.717  15.954  1.00  0.00     0.053 C 
BRANCH  21  22
ATOM     22  C   UNL     1       6.699 -22.076  16.945  1.00  0.00     0.041 C 
ATOM     23  O   UNL     1       6.309 -21.854  18.122  1.00  0.00    -0.550 OA
ATOM     24  O   UNL     1       7.979 -21.696  16.560  1.00  0.00    -0.550 OA
ENDBRANCH  21  22
ENDBRANCH  20  21
ENDBRANCH  19  20
ENDBRANCH  18  19
ENDBRANCH  17  18
ENDBRANCH  16  17
ENDBRANCH  15  16
ENDBRANCH  14  15
ENDBRANCH  13  14
ENDBRANCH   1  13
TORSDOF 20
ENDMDL
MODEL 3
REMARK VINA RESULT:    -0.362      7.236     12.045
REMARK INTER + INTRA:          -1.019
REMARK INTER:                  -0.332
REMARK INTRA:                  -0.687
REMARK UNBOUND:                -0.233
REMARK SMILES CCCCCCCCCCCCCCCCCCCCCC(=O)[O-]
REMARK SMILES IDX 12 1 11 2 10 3 9 4 8 5 7 6 6 7 5 8 4 9 3 10 2 11 1 12 13 13
REMARK SMILES IDX 14 14 15 15 16 16 17 17 18 18 19 19 20 20 21 21 22 22 23 23
REMARK SMILES IDX 24 24
REMARK H PARENT
REMARK Flexibility Score: inf
ROOT
ATOM      1  C   UNL     1       3.463 -23.125  14.968  1.00  0.00     0.000 C 
ENDROOT
BRANCH   1   2
ATOM      2  C   UNL     1       3.823 -22.268  16.191  1.00  0.00     0.000 C 
BRANCH   2   3
ATOM      3  C   UNL     1       5.310 -22.362  16.576  1.00  0.00     0.000 C 
BRANCH   3   4
ATOM      4  C   UNL     1       5.809 -21.266  17.536  1.00  0.00    -0.000 C 
BRANCH   4   5
ATOM      5  C   UNL     1       7.025 -21.705  18.368  1.00  0.00    -0.000 C 
BRANCH   5   6
ATOM      6  C   UNL     1       8.335 -21.707  17.560  1.00  0.00    -0.000 C 
BRANCH   6   7
ATOM      7  C   UNL     1       8.411 -22.748  16.424  1.00  0.00    -0.000 C 
BRANCH   7   8
ATOM      8  C   UNL     1       8.739 -22.183  15.031  1.00  0.00    -0.000 C 
BRANCH   8   9
ATOM      9  C   UNL     1       7.933 -22.859  13.907  1.00  0.00    -0.000 C 
BRANCH   9  10
ATOM     10  C   UNL     1       7.322 -21.843  12.928  1.00  0.00    -0.000 C 
BRANCH  10  11
ATOM     11  C   UNL     1       7.597 -22.198  11.459  1.00  0.00    -0.003 C 
ATOM     12  C   UNL     1       8.957 -21.669  11.011  1.00  0.00     0.004 C 
ENDBRANCH  10  11
ENDBRANCH   9  10
ENDBRANCH   8   9
ENDBRANCH   7   8
ENDBRANCH   6   7
ENDBRANCH   5   6
ENDBRANCH   4   5
ENDBRANCH   3   4
ENDBRANCH   2   3
ENDBRANCH   1   2
BRANCH   1  13
ATOM     13  C   UNL     1       2.015 -22.867  14.529  1.00  0.00     0.000 C 
BRANCH  13  14
ATOM     14  C   UNL     1       1.023 -22.867  15.706  1.00  0.00     0.000 C 
BRANCH  14  15
ATOM     15  C   UNL     1      -0.452 -23.091  15.315  1.00  0.00     0.000 C 
BRANCH  15  16
ATOM     16  C   UNL     1      -1.484 -22.508  16.300  1.00  0.00     0.000 C 
BRANCH  16  17
ATOM     17  C   UNL     1      -2.895 -23.125  16.208  1.00  0.00     0.000 C 
BRANCH  17  18
ATOM     18  C   UNL     1      -3.965 -22.431  17.071  1.00  0.00     0.000 C 
BRANCH  18  19
ATOM     19  C   UNL     1      -5.293 -22.228  16.328  1.00  0.00     0.000 C 
BRANCH  19  20
ATOM     20  C   UNL     1      -6.459 -22.085  17.316  1.00  0.00     0.006 C 
BRANCH  20  21
ATOM     21  C   UNL     1      -7.608 -23.054  17.006  1.00  0.00     0.053 C 
BRANCH  21  22
ATOM     22  C   UNL     1      -8.821 -22.763  17.835  1.00  0.00     0.041 C 
ATOM     23  O   UNL     1      -8.702 -22.476  19.055  1.00  0.00    -0.550 OA
ATOM     24  O   UNL     1     -10.087 -22.839  17.265  1.00  0.00    -0.550 OA
ENDBRANCH  21  22
ENDBRANCH  20  21
ENDBRANCH  19  20
ENDBRANCH  18  19
ENDBRANCH  17  18
ENDBRANCH  16  17
ENDBRANCH  15  16
ENDBRANCH  14  15
ENDBRANCH  13  14
ENDBRANCH   1  13
TORSDOF 20
ENDMDL
MODEL 4
REMARK VINA RESULT:     0.371      6.430     10.983
REMARK INTER + INTRA:           0.572
REMARK INTER:                   1.469
REMARK INTRA:                  -0.897
REMARK UNBOUND:                -0.233
REMARK SMILES CCCCCCCCCCCCCCCCCCCCCC(=O)[O-]
REMARK SMILES IDX 12 1 11 2 10 3 9 4 8 5 7 6 6 7 5 8 4 9 3 10 2 11 1 12 13 13
REMARK SMILES IDX 14 14 15 15 16 16 17 17 18 18 19 19 20 20 21 21 22 22 23 23
REMARK SMILES IDX 24 24
REMARK H PARENT
REMARK Flexibility Score: inf
ROOT
ATOM      1  C   UNL     1      -4.622 -22.328  15.527  1.00  0.00     0.000 C 
ENDROOT
BRANCH   1   2
ATOM      2  C   UNL     1      -5.726 -22.480  16.584  1.00  0.00     0.000 C 
BRANCH   2   3
ATOM      3  C   UNL     1      -7.136 -22.220  16.024  1.00  0.00     0.000 C 
BRANCH   3   4
ATOM      4  C   UNL     1      -8.252 -22.116  17.081  1.00  0.00    -0.000 C 
BRANCH   4   5
ATOM      5  C   UNL     1      -8.002 -23.011  18.306  1.00  0.00    -0.000 C 
BRANCH   5   6
ATOM      6  C   UNL     1      -8.026 -22.231  19.632  1.00  0.00    -0.000 C 
BRANCH   6   7
ATOM      7  C   UNL     1      -8.604 -22.997  20.841  1.00  0.00    -0.000 C 
BRANCH   7   8
ATOM      8  C   UNL     1      -7.782 -22.897  22.139  1.00  0.00    -0.000 C 
BRANCH   8   9
ATOM      9  C   UNL     1      -8.640 -22.521  23.361  1.00  0.00    -0.000 C 
BRANCH   9  10
ATOM     10  C   UNL     1     -10.109 -22.944  23.202  1.00  0.00    -0.000 C 
BRANCH  10  11
ATOM     11  C   UNL     1     -11.079 -21.755  23.266  1.00  0.00    -0.003 C 
ATOM     12  C   UNL     1     -10.368 -20.447  22.927  1.00  0.00     0.004 C 
ENDBRANCH  10  11
ENDBRANCH   9  10
ENDBRANCH   8   9
ENDBRANCH   7   8
ENDBRANCH   6   7
ENDBRANCH   5   6
ENDBRANCH   4   5
ENDBRANCH   3   4
ENDBRANCH   2   3
ENDBRANCH   1   2
BRANCH   1  13
ATOM     13  C   UNL     1      -3.477 -21.452  16.056  1.00  0.00     0.000 C 
BRANCH  13  14
ATOM     14  C   UNL     1      -2.139 -21.721  15.345  1.00  0.00     0.000 C 
BRANCH  14  15
ATOM     15  C   UNL     1      -1.540 -23.120  15.594  1.00  0.00     0.000 C 
BRANCH  15  16
ATOM     16  C   UNL     1      -0.128 -23.125  16.212  1.00  0.00     0.000 C 
BRANCH  16  17
ATOM     17  C   UNL     1       1.029 -22.987  15.200  1.00  0.00     0.000 C 
BRANCH  17  18
ATOM     18  C   UNL     1       2.437 -22.972  15.821  1.00  0.00     0.000 C 
BRANCH  18  19
ATOM     19  C   UNL     1       3.555 -22.994  14.769  1.00  0.00     0.000 C 
BRANCH  19  20
ATOM     20  C   UNL     1       4.938 -23.009  15.437  1.00  0.00     0.006 C 
BRANCH  20  21
ATOM     21  C   UNL     1       4.904 -22.431  16.858  1.00  0.00     0.053 C 
BRANCH  21  22
ATOM     22  C   UNL     1       6.248 -21.926  17.286  1.00  0.00     0.041 C 
ATOM     23  O   UNL     1       7.098 -21.577  16.424  1.00  0.00    -0.550 OA
ATOM     24  O   UNL     1       6.572 -21.870  18.636  1.00  0.00    -0.550 OA
ENDBRANCH  21  22
ENDBRANCH  20  21
ENDBRANCH  19  20
ENDBRANCH  18  19
ENDBRANCH  17  18
ENDBRANCH  16  17
ENDBRANCH  15  16
ENDBRANCH  14  15
ENDBRANCH  13  14
ENDBRANCH   1  13
TORSDOF 20
ENDMDL
MODEL 5
REMARK VINA RESULT:     0.626      6.758     11.065
REMARK INTER + INTRA:           1.125
REMARK INTER:                   1.975
REMARK INTRA:                  -0.850
REMARK UNBOUND:                -0.233
REMARK SMILES CCCCCCCCCCCCCCCCCCCCCC(=O)[O-]
REMARK SMILES IDX 12 1 11 2 10 3 9 4 8 5 7 6 6 7 5 8 4 9 3 10 2 11 1 12 13 13
REMARK SMILES IDX 14 14 15 15 16 16 17 17 18 18 19 19 20 20 21 21 22 22 23 23
REMARK SMILES IDX 24 24
REMARK H PARENT
REMARK Flexibility Score: inf
ROOT
ATOM      1  C   UNL     1      -4.669 -22.503  15.505  1.00  0.00     0.000 C 
ENDROOT
BRANCH   1   2
ATOM      2  C   UNL     1      -5.719 -22.548  16.625  1.00  0.00     0.000 C 
BRANCH   2   3
ATOM      3  C   UNL     1      -7.059 -21.908  16.220  1.00  0.00     0.000 C 
BRANCH   3   4
ATOM      4  C   UNL     1      -8.155 -21.943  17.302  1.00  0.00    -0.000 C 
BRANCH   4   5
ATOM      5  C   UNL     1      -7.949 -23.070  18.328  1.00  0.00    -0.000 C 
BRANCH   5   6
ATOM      6  C   UNL     1      -8.147 -22.602  19.780  1.00  0.00    -0.000 C 
BRANCH   6   7
ATOM      7  C   UNL     1      -9.420 -23.125  20.477  1.00  0.00    -0.000 C 
BRANCH   7   8
ATOM      8  C   UNL     1      -9.948 -22.253  21.630  1.00  0.00    -0.000 C 
BRANCH   8   9
ATOM      9  C   UNL     1     -11.008 -21.234  21.172  1.00  0.00    -0.000 C 
BRANCH   9  10
ATOM     10  C   UNL     1     -10.904 -20.909  19.673  1.00  0.00    -0.000 C 
BRANCH  10  11
ATOM     11  C   UNL     1     -10.428 -19.473  19.410  1.00  0.00    -0.003 C 
ATOM     12  C   UNL     1     -11.125 -18.878  18.190  1.00  0.00     0.004 C 
ENDBRANCH  10  11
ENDBRANCH   9  10
ENDBRANCH   8   9
ENDBRANCH   7   8
ENDBRANCH   6   7
ENDBRANCH   5   6
ENDBRANCH   4   5
ENDBRANCH   3   4
ENDBRANCH   2   3
ENDBRANCH   1   2
BRANCH   1  13
ATOM     13  C   UNL     1      -3.354 -21.894  16.015  1.00  0.00     0.000 C 
BRANCH  13  14
ATOM     14  C   UNL     1      -2.134 -22.319  15.178  1.00  0.00     0.000 C 
BRANCH  14  15
ATOM     15  C   UNL     1      -1.061 -23.114  15.949  1.00  0.00     0.000 C 
BRANCH  15  16
ATOM     16  C   UNL     1       0.368 -22.543  15.856  1.00  0.00     0.000 C 
BRANCH  16  17
ATOM     17  C   UNL     1       1.231 -23.125  14.718  1.00  0.00     0.000 C 
BRANCH  17  18
ATOM     18  C   UNL     1       2.719 -22.734  14.766  1.00  0.00     0.000 C 
BRANCH  18  19
ATOM     19  C   UNL     1       3.349 -22.946  16.151  1.00  0.00     0.000 C 
BRANCH  19  20
ATOM     20  C   UNL     1       4.569 -22.035  16.344  1.00  0.00     0.006 C 
BRANCH  20  21
ATOM     21  C   UNL     1       5.730 -22.756  17.040  1.00  0.00     0.053 C 
BRANCH  21  22
ATOM     22  C   UNL     1       7.038 -22.064  16.805  1.00  0.00     0.041 C 
ATOM     23  O   UNL     1       7.693 -21.601  17.776  1.00  0.00    -0.550 OA
ATOM     24  O   UNL     1       7.518 -21.905  15.510  1.00  0.00    -0.550 OA
ENDBRANCH  21  22
ENDBRANCH  20  21
ENDBRANCH  19  20
ENDBRANCH  18  19
ENDBRANCH  17  18
ENDBRANCH  16  17
ENDBRANCH  15  16
ENDBRANCH  14  15
ENDBRANCH  13  14
ENDBRANCH   1  13
TORSDOF 20
ENDMDL
MODEL 6
REMARK VINA RESULT:     0.660      2.085      5.731
REMARK INTER + INTRA:           1.198
REMARK INTER:                   0.116
REMARK INTRA:                   1.083
REMARK UNBOUND:                -0.233
REMARK SMILES CCCCCCCCCCCCCCCCCCCCCC(=O)[O-]
REMARK SMILES IDX 12 1 11 2 10 3 9 4 8 5 7 6 6 7 5 8 4 9 3 10 2 11 1 12 13 13
REMARK SMILES IDX 14 14 15 15 16 16 17 17 18 18 19 19 20 20 21 21 22 22 23 23
REMARK SMILES IDX 24 24
REMARK H PARENT
REMARK Flexibility Score: inf
ROOT
ATOM      1  C   UNL     1      -8.452 -20.134  15.337  1.00  0.00     0.000 C 
ENDROOT
BRANCH   1   2
ATOM      2  C   UNL     1      -9.870 -20.116  14.749  1.00  0.00     0.000 C 
BRANCH   2   3
ATOM      3  C   UNL     1     -10.889 -20.886  15.608  1.00  0.00     0.000 C 
BRANCH   3   4
ATOM      4  C   UNL     1     -10.491 -22.333  15.957  1.00  0.00    -0.000 C 
BRANCH   4   5
ATOM      5  C   UNL     1     -11.124 -22.830  17.267  1.00  0.00    -0.000 C 
BRANCH   5   6
ATOM      6  C   UNL     1     -10.795 -21.929  18.470  1.00  0.00    -0.000 C 
BRANCH   6   7
ATOM      7  C   UNL     1     -10.918 -20.413  18.216  1.00  0.00    -0.000 C 
BRANCH   7   8
ATOM      8  C   UNL     1     -11.067 -19.542  19.476  1.00  0.00    -0.000 C 
BRANCH   8   9
ATOM      9  C   UNL     1     -10.031 -19.882  20.563  1.00  0.00    -0.000 C 
BRANCH   9  10
ATOM     10  C   UNL     1     -10.647 -20.648  21.745  1.00  0.00    -0.000 C 
BRANCH  10  11
ATOM     11  C   UNL     1      -9.666 -20.825  22.913  1.00  0.00    -0.003 C 
ATOM     12  C   UNL     1      -9.604 -22.282  23.363  1.00  0.00     0.004 C 
ENDBRANCH  10  11
ENDBRANCH   9  10
ENDBRANCH   8   9
ENDBRANCH   7   8
ENDBRANCH   6   7
ENDBRANCH   5   6
ENDBRANCH   4   5
ENDBRANCH   3   4
ENDBRANCH   2   3
ENDBRANCH   1   2
BRANCH   1  13
ATOM     13  C   UNL     1      -7.443 -20.669  14.311  1.00  0.00     0.000 C 
BRANCH  13  14
ATOM     14  C   UNL     1      -6.129 -21.147  14.955  1.00  0.00     0.000 C 
BRANCH  14  15
ATOM     15  C   UNL     1      -6.258 -21.631  16.414  1.00  0.00     0.000 C 
BRANCH  15  16
ATOM     16  C   UNL     1      -5.189 -22.648  16.861  1.00  0.00     0.000 C 
BRANCH  16  17
ATOM     17  C   UNL     1      -4.025 -22.055  17.680  1.00  0.00     0.000 C 
BRANCH  17  18
ATOM     18  C   UNL     1      -3.266 -23.067  18.557  1.00  0.00     0.000 C 
BRANCH  18  19
ATOM     19  C   UNL     1      -3.297 -22.707  20.050  1.00  0.00     0.000 C 
BRANCH  19  20
ATOM     20  C   UNL     1      -4.630 -23.124  20.687  1.00  0.00     0.006 C 
BRANCH  20  21
ATOM     21  C   UNL     1      -5.792 -23.088  19.685  1.00  0.00     0.053 C 
BRANCH  21  22
ATOM     22  C   UNL     1      -7.102 -22.819  20.360  1.00  0.00     0.041 C 
ATOM     23  O   UNL     1      -8.107 -22.483  19.679  1.00  0.00    -0.550 OA
ATOM     24  O   UNL     1      -7.204 -22.909  21.743  1.00  0.00    -0.550 OA
ENDBRANCH  21  22
ENDBRANCH  20  21
ENDBRANCH  19  20
ENDBRANCH  18  19
ENDBRANCH  17  18
ENDBRANCH  16  17
ENDBRANCH  15  16
ENDBRANCH  14  15
ENDBRANCH  13  14
ENDBRANCH   1  13
TORSDOF 20
ENDMDL
MODEL 7
REMARK VINA RESULT:     1.542      6.975     11.221
REMARK INTER + INTRA:           3.112
REMARK INTER:                   0.589
REMARK INTRA:                   2.523
REMARK UNBOUND:                -0.233
REMARK SMILES CCCCCCCCCCCCCCCCCCCCCC(=O)[O-]
REMARK SMILES IDX 12 1 11 2 10 3 9 4 8 5 7 6 6 7 5 8 4 9 3 10 2 11 1 12 13 13
REMARK SMILES IDX 14 14 15 15 16 16 17 17 18 18 19 19 20 20 21 21 22 22 23 23
REMARK SMILES IDX 24 24
REMARK H PARENT
REMARK Flexibility Score: inf
ROOT
ATOM      1  C   UNL     1      -3.043 -21.060  15.259  1.00  0.00     0.000 C 
ENDROOT
BRANCH   1   2
ATOM      2  C   UNL     1      -4.466 -20.519  15.054  1.00  0.00     0.000 C 
BRANCH   2   3
ATOM      3  C   UNL     1      -5.555 -21.475  15.574  1.00  0.00     0.000 C 
BRANCH   3   4
ATOM      4  C   UNL     1      -5.139 -22.353  16.769  1.00  0.00    -0.000 C 
BRANCH   4   5
ATOM      5  C   UNL     1      -6.324 -23.099  17.405  1.00  0.00    -0.000 C 
BRANCH   5   6
ATOM      6  C   UNL     1      -7.682 -22.450  17.084  1.00  0.00    -0.000 C 
BRANCH   6   7
ATOM      7  C   UNL     1      -8.890 -23.030  17.848  1.00  0.00    -0.000 C 
BRANCH   7   8
ATOM      8  C   UNL     1      -9.473 -22.123  18.947  1.00  0.00    -0.000 C 
BRANCH   8   9
ATOM      9  C   UNL     1     -10.777 -21.426  18.518  1.00  0.00    -0.000 C 
BRANCH   9  10
ATOM     10  C   UNL     1     -10.568 -20.463  17.338  1.00  0.00    -0.000 C 
BRANCH  10  11
ATOM     11  C   UNL     1     -10.014 -21.165  16.091  1.00  0.00    -0.003 C 
ATOM     12  C   UNL     1     -10.304 -20.356  14.830  1.00  0.00     0.004 C 
ENDBRANCH  10  11
ENDBRANCH   9  10
ENDBRANCH   8   9
ENDBRANCH   7   8
ENDBRANCH   6   7
ENDBRANCH   5   6
ENDBRANCH   4   5
ENDBRANCH   3   4
ENDBRANCH   2   3
ENDBRANCH   1   2
BRANCH   1  13
ATOM     13  C   UNL     1      -3.071 -22.386  16.034  1.00  0.00     0.000 C 
BRANCH  13  14
ATOM     14  C   UNL     1      -1.709 -23.103  16.042  1.00  0.00     0.000 C 
BRANCH  14  15
ATOM     15  C   UNL     1      -0.634 -22.470  15.136  1.00  0.00     0.000 C 
BRANCH  15  16
ATOM     16  C   UNL     1       0.767 -23.103  15.244  1.00  0.00     0.000 C 
BRANCH  16  17
ATOM     17  C   UNL     1       1.757 -22.345  16.152  1.00  0.00     0.000 C 
BRANCH  17  18
ATOM     18  C   UNL     1       3.139 -23.007  16.302  1.00  0.00     0.000 C 
BRANCH  18  19
ATOM     19  C   UNL     1       3.978 -22.939  15.018  1.00  0.00     0.000 C 
BRANCH  19  20
ATOM     20  C   UNL     1       5.470 -23.125  15.326  1.00  0.00     0.006 C 
BRANCH  20  21
ATOM     21  C   UNL     1       5.906 -22.355  16.579  1.00  0.00     0.053 C 
BRANCH  21  22
ATOM     22  C   UNL     1       7.340 -21.929  16.501  1.00  0.00     0.041 C 
ATOM     23  O   UNL     1       7.993 -21.705  17.555  1.00  0.00    -0.550 OA
ATOM     24  O   UNL     1       7.946 -21.751  15.264  1.00  0.00    -0.550 OA
ENDBRANCH  21  22
ENDBRANCH  20  21
ENDBRANCH  19  20
ENDBRANCH  18  19
ENDBRANCH  17  18
ENDBRANCH  16  17
ENDBRANCH  15  16
ENDBRANCH  14  15
ENDBRANCH  13  14
ENDBRANCH   1  13
TORSDOF 20
ENDMDL
MODEL 8
REMARK VINA RESULT:     1.691      6.822     11.198
REMARK INTER + INTRA:           3.435
REMARK INTER:                   4.173
REMARK INTRA:                  -0.738
REMARK UNBOUND:                -0.233
REMARK SMILES CCCCCCCCCCCCCCCCCCCCCC(=O)[O-]
REMARK SMILES IDX 12 1 11 2 10 3 9 4 8 5 7 6 6 7 5 8 4 9 3 10 2 11 1 12 13 13
REMARK SMILES IDX 14 14 15 15 16 16 17 17 18 18 19 19 20 20 21 21 22 22 23 23
REMARK SMILES IDX 24 24
REMARK H PARENT
REMARK Flexibility Score: inf
ROOT
ATOM      1  C   UNL     1      -4.539 -22.322  15.812  1.00  0.00     0.000 C 
ENDROOT
BRANCH   1   2
ATOM      2  C   UNL     1      -5.601 -21.881  16.830  1.00  0.00     0.000 C 
BRANCH   2   3
ATOM      3  C   UNL     1      -5.969 -22.987  17.836  1.00  0.00     0.000 C 
BRANCH   3   4
ATOM      4  C   UNL     1      -7.462 -23.066  18.206  1.00  0.00    -0.000 C 
BRANCH   4   5
ATOM      5  C   UNL     1      -8.058 -21.701  18.587  1.00  0.00    -0.000 C 
BRANCH   5   6
ATOM      6  C   UNL     1      -9.590 -21.657  18.447  1.00  0.00    -0.000 C 
BRANCH   6   7
ATOM      7  C   UNL     1     -10.332 -20.854  19.535  1.00  0.00    -0.000 C 
BRANCH   7   8
ATOM      8  C   UNL     1     -10.501 -21.572  20.886  1.00  0.00    -0.000 C 
BRANCH   8   9
ATOM      9  C   UNL     1     -10.207 -20.658  22.090  1.00  0.00    -0.000 C 
BRANCH   9  10
ATOM     10  C   UNL     1      -9.909 -21.451  23.372  1.00  0.00    -0.000 C 
BRANCH  10  11
ATOM     11  C   UNL     1      -9.617 -22.933  23.098  1.00  0.00    -0.003 C 
ATOM     12  C   UNL     1      -8.201 -23.125  22.563  1.00  0.00     0.004 C 
ENDBRANCH  10  11
ENDBRANCH   9  10
ENDBRANCH   8   9
ENDBRANCH   7   8
ENDBRANCH   6   7
ENDBRANCH   5   6
ENDBRANCH   4   5
ENDBRANCH   3   4
ENDBRANCH   2   3
ENDBRANCH   1   2
BRANCH   1  13
ATOM     13  C   UNL     1      -3.759 -21.112  15.279  1.00  0.00     0.000 C 
BRANCH  13  14
ATOM     14  C   UNL     1      -2.253 -21.391  15.125  1.00  0.00     0.000 C 
BRANCH  14  15
ATOM     15  C   UNL     1      -1.792 -22.774  15.630  1.00  0.00     0.000 C 
BRANCH  15  16
ATOM     16  C   UNL     1      -0.459 -22.775  16.403  1.00  0.00     0.000 C 
BRANCH  16  17
ATOM     17  C   UNL     1       0.805 -22.897  15.527  1.00  0.00     0.000 C 
BRANCH  17  18
ATOM     18  C   UNL     1       2.057 -22.201  16.091  1.00  0.00     0.000 C 
BRANCH  18  19
ATOM     19  C   UNL     1       3.294 -23.111  16.101  1.00  0.00     0.000 C 
BRANCH  19  20
ATOM     20  C   UNL     1       4.576 -22.296  15.878  1.00  0.00     0.006 C 
BRANCH  20  21
ATOM     21  C   UNL     1       5.641 -23.086  15.106  1.00  0.00     0.053 C 
BRANCH  21  22
ATOM     22  C   UNL     1       6.935 -22.337  15.016  1.00  0.00     0.041 C 
ATOM     23  O   UNL     1       7.936 -22.722  15.676  1.00  0.00    -0.550 OA
ATOM     24  O   UNL     1       7.025 -21.197  14.226  1.00  0.00    -0.550 OA
ENDBRANCH  21  22
ENDBRANCH  20  21
ENDBRANCH  19  20
ENDBRANCH  18  19
ENDBRANCH  17  18
ENDBRANCH  16  17
ENDBRANCH  15  16
ENDBRANCH  14  15
ENDBRANCH  13  14
ENDBRANCH   1  13
TORSDOF 20
ENDMDL
