MODEL 1
REMARK VINA RESULT:    22.879      0.000      0.000
REMARK INTER + INTRA:          51.095
REMARK INTER:                  52.303
REMARK INTRA:                  -1.208
REMARK UNBOUND:                -1.208
REMARK SMILES CCCCCCCCCCCCCCCCCCCCCCCC(=O)[O-]
REMARK SMILES IDX 13 1 14 2 15 3 16 4 17 5 18 6 19 7 20 8 21 9 22 10 23 11
REMARK SMILES IDX 24 12 25 13 26 14 12 15 11 16 10 17 9 18 8 19 7 20 6 21 5 22
REMARK SMILES IDX 4 23 3 24 2 25 1 26
REMARK H PARENT
REMARK Flexibility Score: inf
ROOT
ATOM      1  C   UNL     1      -0.887  18.133  20.793  1.00  0.00     0.000 C 
ENDROOT
BRANCH   1   2
ATOM      2  C   UNL     1      -0.729  19.655  20.673  1.00  0.00     0.000 C 
BRANCH   2   3
ATOM      3  C   UNL     1      -0.647  20.306  22.062  1.00  0.00     0.000 C 
BRANCH   3   4
ATOM      4  C   UNL     1      -0.712  21.839  22.007  1.00  0.00     0.000 C 
BRANCH   4   5
ATOM      5  C   UNL     1      -1.871  22.417  22.841  1.00  0.00     0.000 C 
BRANCH   5   6
ATOM      6  C   UNL     1      -1.801  23.955  22.952  1.00  0.00     0.000 C 
BRANCH   6   7
ATOM      7  C   UNL     1      -3.111  24.666  22.568  1.00  0.00     0.000 C 
BRANCH   7   8
ATOM      8  C   UNL     1      -2.913  25.738  21.482  1.00  0.00     0.000 C 
BRANCH   8   9
ATOM      9  C   UNL     1      -4.034  26.790  21.488  1.00  0.00     0.000 C 
BRANCH   9  10
ATOM     10  C   UNL     1      -4.350  27.315  20.076  1.00  0.00     0.006 C 
BRANCH  10  11
ATOM     11  C   UNL     1      -3.123  27.945  19.402  1.00  0.00     0.053 C 
BRANCH  11  12
ATOM     12  C   UNL     1      -2.919  29.367  19.824  1.00  0.00     0.041 C 
ATOM     13  O   UNL     1      -1.756  29.841  19.912  1.00  0.00    -0.550 OA
ATOM     14  O   UNL     1      -4.016  30.178  20.088  1.00  0.00    -0.550 OA
ENDBRANCH  11  12
ENDBRANCH  10  11
ENDBRANCH   9  10
ENDBRANCH   8   9
ENDBRANCH   7   8
ENDBRANCH   6   7
ENDBRANCH   5   6
ENDBRANCH   4   5
ENDBRANCH   3   4
ENDBRANCH   2   3
ENDBRANCH   1   2
BRANCH   1  15
ATOM     15  C   UNL     1       0.091  17.356  19.898  1.00  0.00     0.000 C 
BRANCH  15  16
ATOM     16  C   UNL     1      -0.026  15.833  20.080  1.00  0.00     0.000 C 
BRANCH  16  17
ATOM     17  C   UNL     1      -0.995  15.182  19.076  1.00  0.00     0.000 C 
BRANCH  17  18
ATOM     18  C   UNL     1      -0.566  13.796  18.549  1.00  0.00    -0.000 C 
BRANCH  18  19
ATOM     19  C   UNL     1      -1.591  12.666  18.765  1.00  0.00    -0.000 C 
BRANCH  19  20
ATOM     20  C   UNL     1      -3.033  13.139  19.043  1.00  0.00    -0.000 C 
BRANCH  20  21
ATOM     21  C   UNL     1      -3.396  13.272  20.533  1.00  0.00    -0.000 C 
BRANCH  21  22
ATOM     22  C   UNL     1      -4.573  14.233  20.775  1.00  0.00    -0.000 C 
BRANCH  22  23
ATOM     23  C   UNL     1      -4.117  15.687  20.979  1.00  0.00    -0.000 C 
BRANCH  23  24
ATOM     24  C   UNL     1      -5.279  16.692  20.894  1.00  0.00    -0.000 C 
BRANCH  24  25
ATOM     25  C   UNL     1      -6.564  16.059  20.336  1.00  0.00    -0.003 C 
ATOM     26  C   UNL     1      -7.660  17.091  20.068  1.00  0.00     0.004 C 
ENDBRANCH  24  25
ENDBRANCH  23  24
ENDBRANCH  22  23
ENDBRANCH  21  22
ENDBRANCH  20  21
ENDBRANCH  19  20
ENDBRANCH  18  19
ENDBRANCH  17  18
ENDBRANCH  16  17
ENDBRANCH  15  16
ENDBRANCH   1  15
TORSDOF 22
ENDMDL
MODEL 2
REMARK VINA RESULT:    23.732      3.654     10.859
REMARK INTER + INTRA:          53.045
REMARK INTER:                  54.371
REMARK INTRA:                  -1.326
REMARK UNBOUND:                -1.208
REMARK SMILES CCCCCCCCCCCCCCCCCCCCCCCC(=O)[O-]
REMARK SMILES IDX 13 1 14 2 15 3 16 4 17 5 18 6 19 7 20 8 21 9 22 10 23 11
REMARK SMILES IDX 24 12 25 13 26 14 12 15 11 16 10 17 9 18 8 19 7 20 6 21 5 22
REMARK SMILES IDX 4 23 3 24 2 25 1 26
REMARK H PARENT
REMARK Flexibility Score: inf
ROOT
ATOM      1  C   UNL     1      -0.903  17.778  20.589  1.00  0.00     0.000 C 
ENDROOT
BRANCH   1   2
ATOM      2  C   UNL     1       0.102  16.764  20.024  1.00  0.00     0.000 C 
BRANCH   2   3
ATOM      3  C   UNL     1      -0.531  15.367  19.925  1.00  0.00     0.000 C 
BRANCH   3   4
ATOM      4  C   UNL     1      -0.721  14.900  18.474  1.00  0.00     0.000 C 
BRANCH   4   5
ATOM      5  C   UNL     1      -0.478  13.390  18.298  1.00  0.00     0.000 C 
BRANCH   5   6
ATOM      6  C   UNL     1      -1.410  12.540  19.187  1.00  0.00     0.000 C 
BRANCH   6   7
ATOM      7  C   UNL     1      -2.901  12.677  18.835  1.00  0.00     0.000 C 
BRANCH   7   8
ATOM      8  C   UNL     1      -3.821  12.541  20.061  1.00  0.00     0.000 C 
BRANCH   8   9
ATOM      9  C   UNL     1      -3.818  13.805  20.937  1.00  0.00     0.000 C 
BRANCH   9  10
ATOM     10  C   UNL     1      -5.053  14.690  20.688  1.00  0.00     0.006 C 
BRANCH  10  11
ATOM     11  C   UNL     1      -4.768  16.174  20.955  1.00  0.00     0.053 C 
BRANCH  11  12
ATOM     12  C   UNL     1      -5.929  17.044  20.583  1.00  0.00     0.041 C 
ATOM     13  O   UNL     1      -7.096  16.572  20.575  1.00  0.00    -0.550 OA
ATOM     14  O   UNL     1      -5.725  18.383  20.277  1.00  0.00    -0.550 OA
ENDBRANCH  11  12
ENDBRANCH  10  11
ENDBRANCH   9  10
ENDBRANCH   8   9
ENDBRANCH   7   8
ENDBRANCH   6   7
ENDBRANCH   5   6
ENDBRANCH   4   5
ENDBRANCH   3   4
ENDBRANCH   2   3
ENDBRANCH   1   2
BRANCH   1  15
ATOM     15  C   UNL     1      -0.403  19.229  20.503  1.00  0.00     0.000 C 
BRANCH  15  16
ATOM     16  C   UNL     1      -1.450  20.243  20.992  1.00  0.00     0.000 C 
BRANCH  16  17
ATOM     17  C   UNL     1      -0.863  21.296  21.951  1.00  0.00     0.000 C 
BRANCH  17  18
ATOM     18  C   UNL     1      -1.902  22.134  22.726  1.00  0.00    -0.000 C 
BRANCH  18  19
ATOM     19  C   UNL     1      -1.543  23.622  22.905  1.00  0.00    -0.000 C 
BRANCH  19  20
ATOM     20  C   UNL     1      -2.745  24.588  22.891  1.00  0.00    -0.000 C 
BRANCH  20  21
ATOM     21  C   UNL     1      -3.003  25.283  21.543  1.00  0.00    -0.000 C 
BRANCH  21  22
ATOM     22  C   UNL     1      -3.443  26.749  21.703  1.00  0.00    -0.000 C 
BRANCH  22  23
ATOM     23  C   UNL     1      -4.361  27.218  20.563  1.00  0.00    -0.000 C 
BRANCH  23  24
ATOM     24  C   UNL     1      -3.609  28.019  19.485  1.00  0.00    -0.000 C 
BRANCH  24  25
ATOM     25  C   UNL     1      -3.443  29.500  19.862  1.00  0.00    -0.003 C 
ATOM     26  C   UNL     1      -1.978  29.916  19.988  1.00  0.00     0.004 C 
ENDBRANCH  24  25
ENDBRANCH  23  24
ENDBRANCH  22  23
ENDBRANCH  21  22
ENDBRANCH  20  21
ENDBRANCH  19  20
ENDBRANCH  18  19
ENDBRANCH  17  18
ENDBRANCH  16  17
ENDBRANCH  15  16
ENDBRANCH   1  15
TORSDOF 22
ENDMDL
MODEL 3
REMARK VINA RESULT:    24.509      4.177     10.380
REMARK INTER + INTRA:          54.823
REMARK INTER:                  55.976
REMARK INTRA:                  -1.154
REMARK UNBOUND:                -1.208
REMARK SMILES CCCCCCCCCCCCCCCCCCCCCCCC(=O)[O-]
REMARK SMILES IDX 13 1 14 2 15 3 16 4 17 5 18 6 19 7 20 8 21 9 22 10 23 11
REMARK SMILES IDX 24 12 25 13 26 14 12 15 11 16 10 17 9 18 8 19 7 20 6 21 5 22
REMARK SMILES IDX 4 23 3 24 2 25 1 26
REMARK H PARENT
REMARK Flexibility Score: inf
ROOT
ATOM      1  C   UNL     1      -0.152  17.008  19.873  1.00  0.00     0.000 C 
ENDROOT
BRANCH   1   2
ATOM      2  C   UNL     1      -0.360  15.520  20.194  1.00  0.00     0.000 C 
BRANCH   2   3
ATOM      3  C   UNL     1      -0.350  14.679  18.908  1.00  0.00     0.000 C 
BRANCH   3   4
ATOM      4  C   UNL     1      -1.711  14.034  18.607  1.00  0.00     0.000 C 
BRANCH   4   5
ATOM      5  C   UNL     1      -2.079  12.925  19.610  1.00  0.00     0.000 C 
BRANCH   5   6
ATOM      6  C   UNL     1      -3.601  12.669  19.664  1.00  0.00     0.000 C 
BRANCH   6   7
ATOM      7  C   UNL     1      -4.339  13.528  20.706  1.00  0.00     0.000 C 
BRANCH   7   8
ATOM      8  C   UNL     1      -3.561  14.796  21.097  1.00  0.00     0.000 C 
BRANCH   8   9
ATOM      9  C   UNL     1      -4.471  16.032  21.198  1.00  0.00     0.000 C 
BRANCH   9  10
ATOM     10  C   UNL     1      -5.330  16.227  19.936  1.00  0.00     0.006 C 
BRANCH  10  11
ATOM     11  C   UNL     1      -6.547  17.127  20.195  1.00  0.00     0.053 C 
BRANCH  11  12
ATOM     12  C   UNL     1      -7.836  16.374  20.075  1.00  0.00     0.041 C 
ATOM     13  O   UNL     1      -7.827  15.126  19.909  1.00  0.00    -0.550 OA
ATOM     14  O   UNL     1      -9.047  17.047  20.181  1.00  0.00    -0.550 OA
ENDBRANCH  11  12
ENDBRANCH  10  11
ENDBRANCH   9  10
ENDBRANCH   8   9
ENDBRANCH   7   8
ENDBRANCH   6   7
ENDBRANCH   5   6
ENDBRANCH   4   5
ENDBRANCH   3   4
ENDBRANCH   2   3
ENDBRANCH   1   2
BRANCH   1  15
ATOM     15  C   UNL     1      -0.856  17.940  20.872  1.00  0.00     0.000 C 
BRANCH  15  16
ATOM     16  C   UNL     1      -0.752  19.421  20.468  1.00  0.00     0.000 C 
BRANCH  16  17
ATOM     17  C   UNL     1      -1.144  20.381  21.607  1.00  0.00     0.000 C 
BRANCH  17  18
ATOM     18  C   UNL     1      -0.046  21.377  22.037  1.00  0.00    -0.000 C 
BRANCH  18  19
ATOM     19  C   UNL     1      -0.545  22.795  22.380  1.00  0.00    -0.000 C 
BRANCH  19  20
ATOM     20  C   UNL     1      -2.070  22.921  22.569  1.00  0.00    -0.000 C 
BRANCH  20  21
ATOM     21  C   UNL     1      -2.572  24.345  22.863  1.00  0.00    -0.000 C 
BRANCH  21  22
ATOM     22  C   UNL     1      -2.812  25.167  21.584  1.00  0.00    -0.000 C 
BRANCH  22  23
ATOM     23  C   UNL     1      -3.494  26.516  21.868  1.00  0.00    -0.000 C 
BRANCH  23  24
ATOM     24  C   UNL     1      -3.992  27.210  20.588  1.00  0.00    -0.000 C 
BRANCH  24  25
ATOM     25  C   UNL     1      -2.992  28.247  20.053  1.00  0.00    -0.003 C 
ATOM     26  C   UNL     1      -3.655  29.580  19.706  1.00  0.00     0.004 C 
ENDBRANCH  24  25
ENDBRANCH  23  24
ENDBRANCH  22  23
ENDBRANCH  21  22
ENDBRANCH  20  21
ENDBRANCH  19  20
ENDBRANCH  18  19
ENDBRANCH  17  18
ENDBRANCH  16  17
ENDBRANCH  15  16
ENDBRANCH   1  15
TORSDOF 22
ENDMDL
MODEL 4
REMARK VINA RESULT:    24.521      0.971      2.138
REMARK INTER + INTRA:          54.850
REMARK INTER:                  56.136
REMARK INTRA:                  -1.286
REMARK UNBOUND:                -1.208
REMARK SMILES CCCCCCCCCCCCCCCCCCCCCCCC(=O)[O-]
REMARK SMILES IDX 13 1 14 2 15 3 16 4 17 5 18 6 19 7 20 8 21 9 22 10 23 11
REMARK SMILES IDX 24 12 25 13 26 14 12 15 11 16 10 17 9 18 8 19 7 20 6 21 5 22
REMARK SMILES IDX 4 23 3 24 2 25 1 26
REMARK H PARENT
REMARK Flexibility Score: inf
ROOT
ATOM      1  C   UNL     1      -0.063  16.236  20.275  1.00  0.00     0.000 C 
ENDROOT
BRANCH   1   2
ATOM      2  C   UNL     1      -0.858  17.342  20.985  1.00  0.00     0.000 C 
BRANCH   2   3
ATOM      3  C   UNL     1      -0.377  18.731  20.540  1.00  0.00     0.000 C 
BRANCH   3   4
ATOM      4  C   UNL     1      -1.366  19.849  20.901  1.00  0.00     0.000 C 
BRANCH   4   5
ATOM      5  C   UNL     1      -0.731  20.948  21.773  1.00  0.00     0.000 C 
BRANCH   5   6
ATOM      6  C   UNL     1      -1.778  21.949  22.305  1.00  0.00     0.000 C 
BRANCH   6   7
ATOM      7  C   UNL     1      -1.263  23.396  22.401  1.00  0.00     0.000 C 
BRANCH   7   8
ATOM      8  C   UNL     1      -2.286  24.355  23.034  1.00  0.00     0.000 C 
BRANCH   8   9
ATOM      9  C   UNL     1      -3.281  24.912  22.002  1.00  0.00     0.000 C 
BRANCH   9  10
ATOM     10  C   UNL     1      -3.059  26.411  21.728  1.00  0.00     0.006 C 
BRANCH  10  11
ATOM     11  C   UNL     1      -4.188  27.022  20.887  1.00  0.00     0.053 C 
BRANCH  11  12
ATOM     12  C   UNL     1      -3.673  28.022  19.899  1.00  0.00     0.041 C 
ATOM     13  O   UNL     1      -4.039  27.971  18.696  1.00  0.00    -0.550 OA
ATOM     14  O   UNL     1      -2.813  29.031  20.315  1.00  0.00    -0.550 OA
ENDBRANCH  11  12
ENDBRANCH  10  11
ENDBRANCH   9  10
ENDBRANCH   8   9
ENDBRANCH   7   8
ENDBRANCH   6   7
ENDBRANCH   5   6
ENDBRANCH   4   5
ENDBRANCH   3   4
ENDBRANCH   2   3
ENDBRANCH   1   2
BRANCH   1  15
ATOM     15  C   UNL     1      -0.839  15.590  19.116  1.00  0.00     0.000 C 
BRANCH  15  16
ATOM     16  C   UNL     1      -0.538  14.088  18.972  1.00  0.00     0.000 C 
BRANCH  16  17
ATOM     17  C   UNL     1      -1.760  13.273  18.509  1.00  0.00     0.000 C 
BRANCH  17  18
ATOM     18  C   UNL     1      -2.353  12.317  19.566  1.00  0.00    -0.000 C 
BRANCH  18  19
ATOM     19  C   UNL     1      -3.835  12.563  19.915  1.00  0.00    -0.000 C 
BRANCH  19  20
ATOM     20  C   UNL     1      -4.094  13.772  20.838  1.00  0.00    -0.000 C 
BRANCH  20  21
ATOM     21  C   UNL     1      -4.035  15.143  20.142  1.00  0.00    -0.000 C 
BRANCH  21  22
ATOM     22  C   UNL     1      -4.100  16.317  21.135  1.00  0.00    -0.000 C 
BRANCH  22  23
ATOM     23  C   UNL     1      -5.529  16.850  21.327  1.00  0.00    -0.000 C 
BRANCH  23  24
ATOM     24  C   UNL     1      -6.234  17.153  19.993  1.00  0.00    -0.000 C 
BRANCH  24  25
ATOM     25  C   UNL     1      -7.764  17.057  20.100  1.00  0.00    -0.003 C 
ATOM     26  C   UNL     1      -8.272  15.619  19.995  1.00  0.00     0.004 C 
ENDBRANCH  24  25
ENDBRANCH  23  24
ENDBRANCH  22  23
ENDBRANCH  21  22
ENDBRANCH  20  21
ENDBRANCH  19  20
ENDBRANCH  18  19
ENDBRANCH  17  18
ENDBRANCH  16  17
ENDBRANCH  15  16
ENDBRANCH   1  15
TORSDOF 22
ENDMDL
MODEL 5
REMARK VINA RESULT:    24.801     12.165     15.412
REMARK INTER + INTRA:          55.491
REMARK INTER:                  57.776
REMARK INTRA:                  -2.286
REMARK UNBOUND:                -1.208
REMARK SMILES CCCCCCCCCCCCCCCCCCCCCCCC(=O)[O-]
REMARK SMILES IDX 13 1 14 2 15 3 16 4 17 5 18 6 19 7 20 8 21 9 22 10 23 11
REMARK SMILES IDX 24 12 25 13 26 14 12 15 11 16 10 17 9 18 8 19 7 20 6 21 5 22
REMARK SMILES IDX 4 23 3 24 2 25 1 26
REMARK H PARENT
REMARK Flexibility Score: inf
ROOT
ATOM      1  C   UNL     1      -5.644  20.660   5.822  1.00  0.00     0.000 C 
ENDROOT
BRANCH   1   2
ATOM      2  C   UNL     1      -6.973  20.555   5.059  1.00  0.00     0.000 C 
BRANCH   2   3
ATOM      3  C   UNL     1      -8.162  20.810   5.997  1.00  0.00     0.000 C 
BRANCH   3   4
ATOM      4  C   UNL     1      -8.757  19.516   6.571  1.00  0.00     0.000 C 
BRANCH   4   5
ATOM      5  C   UNL     1      -8.018  19.028   7.831  1.00  0.00     0.000 C 
BRANCH   5   6
ATOM      6  C   UNL     1      -7.077  17.842   7.533  1.00  0.00     0.000 C 
BRANCH   6   7
ATOM      7  C   UNL     1      -6.006  17.610   8.614  1.00  0.00     0.000 C 
BRANCH   7   8
ATOM      8  C   UNL     1      -5.919  18.764   9.628  1.00  0.00     0.000 C 
BRANCH   8   9
ATOM      9  C   UNL     1      -4.507  18.921  10.215  1.00  0.00     0.000 C 
BRANCH   9  10
ATOM     10  C   UNL     1      -3.554  17.806   9.749  1.00  0.00     0.006 C 
BRANCH  10  11
ATOM     11  C   UNL     1      -2.084  18.248   9.775  1.00  0.00     0.053 C 
BRANCH  11  12
ATOM     12  C   UNL     1      -1.148  17.095   9.585  1.00  0.00     0.041 C 
ATOM     13  O   UNL     1      -0.352  17.080   8.609  1.00  0.00    -0.550 OA
ATOM     14  O   UNL     1      -1.133  16.052  10.502  1.00  0.00    -0.550 OA
ENDBRANCH  11  12
ENDBRANCH  10  11
ENDBRANCH   9  10
ENDBRANCH   8   9
ENDBRANCH   7   8
ENDBRANCH   6   7
ENDBRANCH   5   6
ENDBRANCH   4   5
ENDBRANCH   3   4
ENDBRANCH   2   3
ENDBRANCH   1   2
BRANCH   1  15
ATOM     15  C   UNL     1      -5.594  21.866   6.774  1.00  0.00     0.000 C 
BRANCH  15  16
ATOM     16  C   UNL     1      -4.612  21.655   7.939  1.00  0.00     0.000 C 
BRANCH  16  17
ATOM     17  C   UNL     1      -3.290  22.422   7.755  1.00  0.00     0.000 C 
BRANCH  17  18
ATOM     18  C   UNL     1      -2.040  21.732   8.341  1.00  0.00    -0.000 C 
BRANCH  18  19
ATOM     19  C   UNL     1      -1.793  21.987   9.841  1.00  0.00    -0.000 C 
BRANCH  19  20
ATOM     20  C   UNL     1      -0.933  23.227  10.158  1.00  0.00    -0.000 C 
BRANCH  20  21
ATOM     21  C   UNL     1      -0.620  24.125   8.948  1.00  0.00    -0.000 C 
BRANCH  21  22
ATOM     22  C   UNL     1       0.259  25.334   9.316  1.00  0.00    -0.000 C 
BRANCH  22  23
ATOM     23  C   UNL     1      -0.054  25.888  10.716  1.00  0.00    -0.000 C 
BRANCH  23  24
ATOM     24  C   UNL     1      -0.657  27.304  10.673  1.00  0.00    -0.000 C 
BRANCH  24  25
ATOM     25  C   UNL     1      -1.861  27.459  11.616  1.00  0.00    -0.003 C 
ATOM     26  C   UNL     1      -1.449  27.571  13.083  1.00  0.00     0.004 C 
ENDBRANCH  24  25
ENDBRANCH  23  24
ENDBRANCH  22  23
ENDBRANCH  21  22
ENDBRANCH  20  21
ENDBRANCH  19  20
ENDBRANCH  18  19
ENDBRANCH  17  18
ENDBRANCH  16  17
ENDBRANCH  15  16
ENDBRANCH   1  15
TORSDOF 22
ENDMDL
MODEL 6
REMARK VINA RESULT:    25.465     11.941     15.479
REMARK INTER + INTRA:          57.007
REMARK INTER:                  58.417
REMARK INTRA:                  -1.410
REMARK UNBOUND:                -1.208
REMARK SMILES CCCCCCCCCCCCCCCCCCCCCCCC(=O)[O-]
REMARK SMILES IDX 13 1 14 2 15 3 16 4 17 5 18 6 19 7 20 8 21 9 22 10 23 11
REMARK SMILES IDX 24 12 25 13 26 14 12 15 11 16 10 17 9 18 8 19 7 20 6 21 5 22
REMARK SMILES IDX 4 23 3 24 2 25 1 26
REMARK H PARENT
REMARK Flexibility Score: inf
ROOT
ATOM      1  C   UNL     1      -5.326  19.816  10.478  1.00  0.00     0.000 C 
ENDROOT
BRANCH   1   2
ATOM      2  C   UNL     1      -4.829  18.653   9.608  1.00  0.00     0.000 C 
BRANCH   2   3
ATOM      3  C   UNL     1      -3.619  17.965  10.257  1.00  0.00     0.000 C 
BRANCH   3   4
ATOM      4  C   UNL     1      -2.305  18.727  10.028  1.00  0.00     0.000 C 
BRANCH   4   5
ATOM      5  C   UNL     1      -1.246  17.883   9.295  1.00  0.00     0.000 C 
BRANCH   5   6
ATOM      6  C   UNL     1      -1.068  16.488   9.933  1.00  0.00     0.000 C 
BRANCH   6   7
ATOM      7  C   UNL     1      -1.473  15.325   9.010  1.00  0.00     0.000 C 
BRANCH   7   8
ATOM      8  C   UNL     1      -2.249  15.791   7.766  1.00  0.00     0.000 C 
BRANCH   8   9
ATOM      9  C   UNL     1      -3.628  15.119   7.652  1.00  0.00     0.000 C 
BRANCH   9  10
ATOM     10  C   UNL     1      -4.684  16.056   7.038  1.00  0.00     0.006 C 
BRANCH  10  11
ATOM     11  C   UNL     1      -6.059  15.896   7.702  1.00  0.00     0.053 C 
BRANCH  11  12
ATOM     12  C   UNL     1      -6.522  14.472   7.697  1.00  0.00     0.041 C 
ATOM     13  O   UNL     1      -7.585  14.154   7.103  1.00  0.00    -0.550 OA
ATOM     14  O   UNL     1      -5.761  13.491   8.321  1.00  0.00    -0.550 OA
ENDBRANCH  11  12
ENDBRANCH  10  11
ENDBRANCH   9  10
ENDBRANCH   8   9
ENDBRANCH   7   8
ENDBRANCH   6   7
ENDBRANCH   5   6
ENDBRANCH   4   5
ENDBRANCH   3   4
ENDBRANCH   2   3
ENDBRANCH   1   2
BRANCH   1  15
ATOM     15  C   UNL     1      -5.166  21.185   9.797  1.00  0.00     0.000 C 
BRANCH  15  16
ATOM     16  C   UNL     1      -4.974  21.066   8.275  1.00  0.00     0.000 C 
BRANCH  16  17
ATOM     17  C   UNL     1      -4.522  22.387   7.623  1.00  0.00     0.000 C 
BRANCH  17  18
ATOM     18  C   UNL     1      -2.994  22.591   7.540  1.00  0.00    -0.000 C 
BRANCH  18  19
ATOM     19  C   UNL     1      -2.159  21.675   8.455  1.00  0.00    -0.000 C 
BRANCH  19  20
ATOM     20  C   UNL     1      -1.528  22.374   9.677  1.00  0.00    -0.000 C 
BRANCH  20  21
ATOM     21  C   UNL     1      -0.399  23.365   9.345  1.00  0.00    -0.000 C 
BRANCH  21  22
ATOM     22  C   UNL     1      -0.373  24.576  10.295  1.00  0.00    -0.000 C 
BRANCH  22  23
ATOM     23  C   UNL     1      -0.287  25.915   9.543  1.00  0.00    -0.000 C 
BRANCH  23  24
ATOM     24  C   UNL     1       0.046  27.097  10.470  1.00  0.00    -0.000 C 
BRANCH  24  25
ATOM     25  C   UNL     1      -1.178  27.590  11.258  1.00  0.00    -0.003 C 
ATOM     26  C   UNL     1      -1.445  26.760  12.512  1.00  0.00     0.004 C 
ENDBRANCH  24  25
ENDBRANCH  23  24
ENDBRANCH  22  23
ENDBRANCH  21  22
ENDBRANCH  20  21
ENDBRANCH  19  20
ENDBRANCH  18  19
ENDBRANCH  17  18
ENDBRANCH  16  17
ENDBRANCH  15  16
ENDBRANCH   1  15
TORSDOF 22
ENDMDL
MODEL 7
REMARK VINA RESULT:    25.636     11.712     13.264
REMARK INTER + INTRA:          57.398
REMARK INTER:                  59.672
REMARK INTRA:                  -2.273
REMARK UNBOUND:                -1.208
REMARK SMILES CCCCCCCCCCCCCCCCCCCCCCCC(=O)[O-]
REMARK SMILES IDX 13 1 14 2 15 3 16 4 17 5 18 6 19 7 20 8 21 9 22 10 23 11
REMARK SMILES IDX 24 12 25 13 26 14 12 15 11 16 10 17 9 18 8 19 7 20 6 21 5 22
REMARK SMILES IDX 4 23 3 24 2 25 1 26
REMARK H PARENT
REMARK Flexibility Score: inf
ROOT
ATOM      1  C   UNL     1      -6.892  20.514   5.237  1.00  0.00     0.000 C 
ENDROOT
BRANCH   1   2
ATOM      2  C   UNL     1      -5.571  20.764   5.981  1.00  0.00     0.000 C 
BRANCH   2   3
ATOM      3  C   UNL     1      -5.775  21.762   7.131  1.00  0.00     0.000 C 
BRANCH   3   4
ATOM      4  C   UNL     1      -4.687  22.845   7.180  1.00  0.00     0.000 C 
BRANCH   4   5
ATOM      5  C   UNL     1      -3.265  22.258   7.250  1.00  0.00     0.000 C 
BRANCH   5   6
ATOM      6  C   UNL     1      -2.899  21.781   8.671  1.00  0.00     0.000 C 
BRANCH   6   7
ATOM      7  C   UNL     1      -1.397  21.876   8.992  1.00  0.00     0.000 C 
BRANCH   7   8
ATOM      8  C   UNL     1      -1.094  22.831  10.160  1.00  0.00     0.000 C 
BRANCH   8   9
ATOM      9  C   UNL     1       0.051  23.806   9.837  1.00  0.00     0.000 C 
BRANCH   9  10
ATOM     10  C   UNL     1      -0.457  25.236   9.579  1.00  0.00     0.006 C 
BRANCH  10  11
ATOM     11  C   UNL     1       0.107  26.244  10.590  1.00  0.00     0.053 C 
BRANCH  11  12
ATOM     12  C   UNL     1      -0.889  27.306  10.939  1.00  0.00     0.041 C 
ATOM     13  O   UNL     1      -1.304  28.100  10.054  1.00  0.00    -0.550 OA
ATOM     14  O   UNL     1      -1.384  27.397  12.234  1.00  0.00    -0.550 OA
ENDBRANCH  11  12
ENDBRANCH  10  11
ENDBRANCH   9  10
ENDBRANCH   8   9
ENDBRANCH   7   8
ENDBRANCH   6   7
ENDBRANCH   5   6
ENDBRANCH   4   5
ENDBRANCH   3   4
ENDBRANCH   2   3
ENDBRANCH   1   2
BRANCH   1  15
ATOM     15  C   UNL     1      -8.098  21.181   5.918  1.00  0.00     0.000 C 
BRANCH  15  16
ATOM     16  C   UNL     1      -9.202  20.173   6.278  1.00  0.00     0.000 C 
BRANCH  16  17
ATOM     17  C   UNL     1      -8.647  18.801   6.704  1.00  0.00     0.000 C 
BRANCH  17  18
ATOM     18  C   UNL     1      -8.095  18.731   8.144  1.00  0.00    -0.000 C 
BRANCH  18  19
ATOM     19  C   UNL     1      -6.932  17.741   8.353  1.00  0.00    -0.000 C 
BRANCH  19  20
ATOM     20  C   UNL     1      -5.539  18.391   8.479  1.00  0.00    -0.000 C 
BRANCH  20  21
ATOM     21  C   UNL     1      -5.052  18.605   9.923  1.00  0.00    -0.000 C 
BRANCH  21  22
ATOM     22  C   UNL     1      -3.518  18.577  10.044  1.00  0.00    -0.000 C 
BRANCH  22  23
ATOM     23  C   UNL     1      -3.016  17.423  10.928  1.00  0.00    -0.000 C 
BRANCH  23  24
ATOM     24  C   UNL     1      -1.521  17.123  10.720  1.00  0.00    -0.000 C 
BRANCH  24  25
ATOM     25  C   UNL     1      -1.078  17.322   9.262  1.00  0.00    -0.003 C 
ATOM     26  C   UNL     1      -1.364  16.101   8.388  1.00  0.00     0.004 C 
ENDBRANCH  24  25
ENDBRANCH  23  24
ENDBRANCH  22  23
ENDBRANCH  21  22
ENDBRANCH  20  21
ENDBRANCH  19  20
ENDBRANCH  18  19
ENDBRANCH  17  18
ENDBRANCH  16  17
ENDBRANCH  15  16
ENDBRANCH   1  15
TORSDOF 22
ENDMDL
