MODEL 1
REMARK VINA RESULT:    -1.501      0.000      0.000
REMARK INTER + INTRA:          -5.318
REMARK INTER:                  -2.730
REMARK INTRA:                  -2.589
REMARK UNBOUND:                -2.589
REMARK SMILES CCCCCCCCCCCCCCCC(=O)[O-]
REMARK SMILES IDX 9 1 10 2 11 3 12 4 13 5 14 6 15 7 16 8 17 9 18 10 8 11 7 12
REMARK SMILES IDX 6 13 5 14 4 15 3 16 2 17 1 18
REMARK H PARENT
REMARK Flexibility Score: inf
ROOT
ATOM      1  C   UNL     1      21.615  27.897  15.971  1.00  0.00     0.000 C 
ENDROOT
BRANCH   1   2
ATOM      2  C   UNL     1      21.633  26.580  15.176  1.00  0.00     0.000 C 
BRANCH   2   3
ATOM      3  C   UNL     1      21.021  26.731  13.774  1.00  0.00     0.000 C 
BRANCH   3   4
ATOM      4  C   UNL     1      21.983  26.280  12.660  1.00  0.00     0.000 C 
BRANCH   4   5
ATOM      5  C   UNL     1      23.218  25.549  13.206  1.00  0.00     0.000 C 
BRANCH   5   6
ATOM      6  C   UNL     1      23.192  24.040  12.909  1.00  0.00     0.006 C 
BRANCH   6   7
ATOM      7  C   UNL     1      23.775  23.212  14.061  1.00  0.00     0.053 C 
BRANCH   7   8
ATOM      8  C   UNL     1      25.157  22.723  13.751  1.00  0.00     0.041 C 
ATOM      9  O   UNL     1      26.124  23.041  14.492  1.00  0.00    -0.550 OA
ATOM     10  O   UNL     1      25.371  21.891  12.660  1.00  0.00    -0.550 OA
ENDBRANCH   7   8
ENDBRANCH   6   7
ENDBRANCH   5   6
ENDBRANCH   4   5
ENDBRANCH   3   4
ENDBRANCH   2   3
ENDBRANCH   1   2
BRANCH   1  11
ATOM     11  C   UNL     1      21.618  29.135  15.060  1.00  0.00     0.000 C 
BRANCH  11  12
ATOM     12  C   UNL     1      23.007  29.789  14.960  1.00  0.00    -0.000 C 
BRANCH  12  13
ATOM     13  C   UNL     1      23.776  29.369  13.694  1.00  0.00    -0.000 C 
BRANCH  13  14
ATOM     14  C   UNL     1      25.009  28.480  13.942  1.00  0.00    -0.000 C 
BRANCH  14  15
ATOM     15  C   UNL     1      25.215  28.142  15.428  1.00  0.00    -0.000 C 
BRANCH  15  16
ATOM     16  C   UNL     1      25.853  26.759  15.640  1.00  0.00    -0.000 C 
BRANCH  16  17
ATOM     17  C   UNL     1      24.976  25.792  16.463  1.00  0.00    -0.003 C 
ATOM     18  C   UNL     1      24.618  26.360  17.836  1.00  0.00     0.004 C 
ENDBRANCH  16  17
ENDBRANCH  15  16
ENDBRANCH  14  15
ENDBRANCH  13  14
ENDBRANCH  12  13
ENDBRANCH  11  12
ENDBRANCH   1  11
TORSDOF 14
ENDMDL
MODEL 2
REMARK VINA RESULT:    -1.461      2.917      5.314
REMARK INTER + INTRA:          -5.245
REMARK INTER:                  -2.815
REMARK INTRA:                  -2.430
REMARK UNBOUND:                -2.589
REMARK SMILES CCCCCCCCCCCCCCCC(=O)[O-]
REMARK SMILES IDX 9 1 10 2 11 3 12 4 13 5 14 6 15 7 16 8 17 9 18 10 8 11 7 12
REMARK SMILES IDX 6 13 5 14 4 15 3 16 2 17 1 18
REMARK H PARENT
REMARK Flexibility Score: inf
ROOT
ATOM      1  C   UNL     1      21.241  22.380  15.601  1.00  0.00     0.000 C 
ENDROOT
BRANCH   1   2
ATOM      2  C   UNL     1      22.068  22.936  16.773  1.00  0.00     0.000 C 
BRANCH   2   3
ATOM      3  C   UNL     1      21.875  24.449  16.964  1.00  0.00     0.000 C 
BRANCH   3   4
ATOM      4  C   UNL     1      23.204  25.224  16.906  1.00  0.00     0.000 C 
BRANCH   4   5
ATOM      5  C   UNL     1      23.113  26.491  16.043  1.00  0.00     0.000 C 
BRANCH   5   6
ATOM      6  C   UNL     1      24.330  26.667  15.119  1.00  0.00     0.006 C 
BRANCH   6   7
ATOM      7  C   UNL     1      23.952  27.304  13.776  1.00  0.00     0.053 C 
BRANCH   7   8
ATOM      8  C   UNL     1      24.541  28.674  13.625  1.00  0.00     0.041 C 
ATOM      9  O   UNL     1      24.114  29.629  14.324  1.00  0.00    -0.550 OA
ATOM     10  O   UNL     1      25.583  28.887  12.732  1.00  0.00    -0.550 OA
ENDBRANCH   7   8
ENDBRANCH   6   7
ENDBRANCH   5   6
ENDBRANCH   4   5
ENDBRANCH   3   4
ENDBRANCH   2   3
ENDBRANCH   1   2
BRANCH   1  11
ATOM     11  C   UNL     1      22.099  22.097  14.357  1.00  0.00     0.000 C 
BRANCH  11  12
ATOM     12  C   UNL     1      22.388  23.368  13.540  1.00  0.00    -0.000 C 
BRANCH  12  13
ATOM     13  C   UNL     1      23.887  23.566  13.250  1.00  0.00    -0.000 C 
BRANCH  13  14
ATOM     14  C   UNL     1      24.692  22.269  13.047  1.00  0.00    -0.000 C 
BRANCH  14  15
ATOM     15  C   UNL     1      25.943  22.194  13.938  1.00  0.00    -0.000 C 
BRANCH  15  16
ATOM     16  C   UNL     1      26.021  23.348  14.951  1.00  0.00    -0.000 C 
BRANCH  16  17
ATOM     17  C   UNL     1      25.974  22.885  16.422  1.00  0.00    -0.003 C 
ATOM     18  C   UNL     1      25.517  21.432  16.558  1.00  0.00     0.004 C 
ENDBRANCH  16  17
ENDBRANCH  15  16
ENDBRANCH  14  15
ENDBRANCH  13  14
ENDBRANCH  12  13
ENDBRANCH  11  12
ENDBRANCH   1  11
TORSDOF 14
ENDMDL
MODEL 3
REMARK VINA RESULT:    -1.456      1.373      3.608
REMARK INTER + INTRA:          -5.237
REMARK INTER:                  -2.881
REMARK INTRA:                  -2.356
REMARK UNBOUND:                -2.589
REMARK SMILES CCCCCCCCCCCCCCCC(=O)[O-]
REMARK SMILES IDX 9 1 10 2 11 3 12 4 13 5 14 6 15 7 16 8 17 9 18 10 8 11 7 12
REMARK SMILES IDX 6 13 5 14 4 15 3 16 2 17 1 18
REMARK H PARENT
REMARK Flexibility Score: inf
ROOT
ATOM      1  C   UNL     1      25.038  28.847  12.997  1.00  0.00     0.000 C 
ENDROOT
BRANCH   1   2
ATOM      2  C   UNL     1      24.168  29.323  14.173  1.00  0.00     0.000 C 
BRANCH   2   3
ATOM      3  C   UNL     1      24.527  28.622  15.493  1.00  0.00     0.000 C 
BRANCH   3   4
ATOM      4  C   UNL     1      25.539  27.480  15.297  1.00  0.00     0.000 C 
BRANCH   4   5
ATOM      5  C   UNL     1      25.081  26.165  15.946  1.00  0.00     0.000 C 
BRANCH   5   6
ATOM      6  C   UNL     1      24.418  25.208  14.940  1.00  0.00     0.006 C 
BRANCH   6   7
ATOM      7  C   UNL     1      25.100  23.835  14.912  1.00  0.00     0.053 C 
BRANCH   7   8
ATOM      8  C   UNL     1      24.728  23.054  13.688  1.00  0.00     0.041 C 
ATOM      9  O   UNL     1      25.464  22.115  13.285  1.00  0.00    -0.550 OA
ATOM     10  O   UNL     1      23.551  23.345  13.010  1.00  0.00    -0.550 OA
ENDBRANCH   7   8
ENDBRANCH   6   7
ENDBRANCH   5   6
ENDBRANCH   4   5
ENDBRANCH   3   4
ENDBRANCH   2   3
ENDBRANCH   1   2
BRANCH   1  11
ATOM     11  C   UNL     1      24.213  28.181  11.885  1.00  0.00     0.000 C 
BRANCH  11  12
ATOM     12  C   UNL     1      22.721  28.071  12.245  1.00  0.00    -0.000 C 
BRANCH  12  13
ATOM     13  C   UNL     1      22.231  26.614  12.333  1.00  0.00    -0.000 C 
BRANCH  13  14
ATOM     14  C   UNL     1      21.051  26.376  13.294  1.00  0.00    -0.000 C 
BRANCH  14  15
ATOM     15  C   UNL     1      21.216  27.107  14.637  1.00  0.00    -0.000 C 
BRANCH  15  16
ATOM     16  C   UNL     1      20.511  26.384  15.797  1.00  0.00    -0.000 C 
BRANCH  16  17
ATOM     17  C   UNL     1      21.443  26.062  16.984  1.00  0.00    -0.003 C 
ATOM     18  C   UNL     1      21.857  27.317  17.753  1.00  0.00     0.004 C 
ENDBRANCH  16  17
ENDBRANCH  15  16
ENDBRANCH  14  15
ENDBRANCH  13  14
ENDBRANCH  12  13
ENDBRANCH  11  12
ENDBRANCH   1  11
TORSDOF 14
ENDMDL
MODEL 4
REMARK VINA RESULT:    -1.425      2.545      4.488
REMARK INTER + INTRA:          -5.180
REMARK INTER:                  -2.654
REMARK INTRA:                  -2.526
REMARK UNBOUND:                -2.589
REMARK SMILES CCCCCCCCCCCCCCCC(=O)[O-]
REMARK SMILES IDX 9 1 10 2 11 3 12 4 13 5 14 6 15 7 16 8 17 9 18 10 8 11 7 12
REMARK SMILES IDX 6 13 5 14 4 15 3 16 2 17 1 18
REMARK H PARENT
REMARK Flexibility Score: inf
ROOT
ATOM      1  C   UNL     1      19.901  26.847  17.151  1.00  0.00     0.000 C 
ENDROOT
BRANCH   1   2
ATOM      2  C   UNL     1      20.375  28.275  17.467  1.00  0.00     0.000 C 
BRANCH   2   3
ATOM      3  C   UNL     1      20.281  29.210  16.250  1.00  0.00     0.000 C 
BRANCH   3   4
ATOM      4  C   UNL     1      21.618  29.905  15.936  1.00  0.00     0.000 C 
BRANCH   4   5
ATOM      5  C   UNL     1      22.829  29.121  16.462  1.00  0.00     0.000 C 
BRANCH   5   6
ATOM      6  C   UNL     1      24.047  29.217  15.527  1.00  0.00     0.006 C 
BRANCH   6   7
ATOM      7  C   UNL     1      23.697  29.872  14.185  1.00  0.00     0.053 C 
BRANCH   7   8
ATOM      8  C   UNL     1      24.569  29.368  13.075  1.00  0.00     0.041 C 
ATOM      9  O   UNL     1      24.265  29.594  11.875  1.00  0.00    -0.550 OA
ATOM     10  O   UNL     1      25.735  28.672  13.370  1.00  0.00    -0.550 OA
ENDBRANCH   7   8
ENDBRANCH   6   7
ENDBRANCH   5   6
ENDBRANCH   4   5
ENDBRANCH   3   4
ENDBRANCH   2   3
ENDBRANCH   1   2
BRANCH   1  11
ATOM     11  C   UNL     1      20.037  26.497  15.661  1.00  0.00     0.000 C 
BRANCH  11  12
ATOM     12  C   UNL     1      21.402  25.871  15.326  1.00  0.00    -0.000 C 
BRANCH  12  13
ATOM     13  C   UNL     1      22.029  26.450  14.045  1.00  0.00    -0.000 C 
BRANCH  13  14
ATOM     14  C   UNL     1      23.419  25.892  13.686  1.00  0.00    -0.000 C 
BRANCH  14  15
ATOM     15  C   UNL     1      24.007  24.995  14.787  1.00  0.00    -0.000 C 
BRANCH  15  16
ATOM     16  C   UNL     1      25.090  25.706  15.617  1.00  0.00    -0.000 C 
BRANCH  16  17
ATOM     17  C   UNL     1      25.108  25.284  17.101  1.00  0.00    -0.003 C 
ATOM     18  C   UNL     1      24.020  25.985  17.916  1.00  0.00     0.004 C 
ENDBRANCH  16  17
ENDBRANCH  15  16
ENDBRANCH  14  15
ENDBRANCH  13  14
ENDBRANCH  12  13
ENDBRANCH  11  12
ENDBRANCH   1  11
TORSDOF 14
ENDMDL
MODEL 5
REMARK VINA RESULT:    -1.406     22.650     24.312
REMARK INTER + INTRA:          -5.146
REMARK INTER:                  -2.671
REMARK INTRA:                  -2.475
REMARK UNBOUND:                -2.589
REMARK SMILES CCCCCCCCCCCCCCCC(=O)[O-]
REMARK SMILES IDX 9 1 10 2 11 3 12 4 13 5 14 6 15 7 16 8 17 9 18 10 8 11 7 12
REMARK SMILES IDX 6 13 5 14 4 15 3 16 2 17 1 18
REMARK H PARENT
REMARK Flexibility Score: inf
ROOT
ATOM      1  C   UNL     1       5.875  11.802  24.952  1.00  0.00     0.000 C 
ENDROOT
BRANCH   1   2
ATOM      2  C   UNL     1       6.699  12.350  23.774  1.00  0.00     0.000 C 
BRANCH   2   3
ATOM      3  C   UNL     1       6.979  13.856  23.902  1.00  0.00     0.000 C 
BRANCH   3   4
ATOM      4  C   UNL     1       6.057  14.541  24.927  1.00  0.00     0.000 C 
BRANCH   4   5
ATOM      5  C   UNL     1       6.796  15.579  25.785  1.00  0.00     0.000 C 
BRANCH   5   6
ATOM      6  C   UNL     1       6.096  15.842  27.130  1.00  0.00     0.006 C 
BRANCH   6   7
ATOM      7  C   UNL     1       7.080  16.289  28.218  1.00  0.00     0.053 C 
BRANCH   7   8
ATOM      8  C   UNL     1       6.986  17.762  28.480  1.00  0.00     0.041 C 
ATOM      9  O   UNL     1       7.113  18.584  27.536  1.00  0.00    -0.550 OA
ATOM     10  O   UNL     1       6.728  18.223  29.765  1.00  0.00    -0.550 OA
ENDBRANCH   7   8
ENDBRANCH   6   7
ENDBRANCH   5   6
ENDBRANCH   4   5
ENDBRANCH   3   4
ENDBRANCH   2   3
ENDBRANCH   1   2
BRANCH   1  11
ATOM     11  C   UNL     1       6.384  10.436  25.441  1.00  0.00     0.000 C 
BRANCH  11  12
ATOM     12  C   UNL     1       7.061  10.520  26.820  1.00  0.00    -0.000 C 
BRANCH  12  13
ATOM     13  C   UNL     1       6.840  11.876  27.516  1.00  0.00    -0.000 C 
BRANCH  13  14
ATOM     14  C   UNL     1       8.108  12.728  27.707  1.00  0.00    -0.000 C 
BRANCH  14  15
ATOM     15  C   UNL     1       9.378  12.039  27.182  1.00  0.00    -0.000 C 
BRANCH  15  16
ATOM     16  C   UNL     1       9.814  12.565  25.804  1.00  0.00    -0.000 C 
BRANCH  16  17
ATOM     17  C   UNL     1      10.724  11.590  25.029  1.00  0.00    -0.003 C 
ATOM     18  C   UNL     1       9.932  10.683  24.086  1.00  0.00     0.004 C 
ENDBRANCH  16  17
ENDBRANCH  15  16
ENDBRANCH  14  15
ENDBRANCH  13  14
ENDBRANCH  12  13
ENDBRANCH  11  12
ENDBRANCH   1  11
TORSDOF 14
ENDMDL
MODEL 6
REMARK VINA RESULT:    -1.398      2.597      5.155
REMARK INTER + INTRA:          -5.130
REMARK INTER:                  -2.569
REMARK INTRA:                  -2.561
REMARK UNBOUND:                -2.589
REMARK SMILES CCCCCCCCCCCCCCCC(=O)[O-]
REMARK SMILES IDX 9 1 10 2 11 3 12 4 13 5 14 6 15 7 16 8 17 9 18 10 8 11 7 12
REMARK SMILES IDX 6 13 5 14 4 15 3 16 2 17 1 18
REMARK H PARENT
REMARK Flexibility Score: inf
ROOT
ATOM      1  C   UNL     1      23.281  23.590  14.498  1.00  0.00     0.000 C 
ENDROOT
BRANCH   1   2
ATOM      2  C   UNL     1      24.777  23.950  14.499  1.00  0.00     0.000 C 
BRANCH   2   3
ATOM      3  C   UNL     1      25.274  24.399  15.883  1.00  0.00     0.000 C 
BRANCH   3   4
ATOM      4  C   UNL     1      25.685  25.882  15.908  1.00  0.00     0.000 C 
BRANCH   4   5
ATOM      5  C   UNL     1      24.509  26.816  16.227  1.00  0.00     0.000 C 
BRANCH   5   6
ATOM      6  C   UNL     1      24.673  28.210  15.596  1.00  0.00     0.006 C 
BRANCH   6   7
ATOM      7  C   UNL     1      25.407  28.154  14.251  1.00  0.00     0.053 C 
BRANCH   7   8
ATOM      8  C   UNL     1      24.748  29.022  13.222  1.00  0.00     0.041 C 
ATOM      9  O   UNL     1      23.953  29.932  13.574  1.00  0.00    -0.550 OA
ATOM     10  O   UNL     1      25.037  28.844  11.875  1.00  0.00    -0.550 OA
ENDBRANCH   7   8
ENDBRANCH   6   7
ENDBRANCH   5   6
ENDBRANCH   4   5
ENDBRANCH   3   4
ENDBRANCH   2   3
ENDBRANCH   1   2
BRANCH   1  11
ATOM     11  C   UNL     1      22.525  24.221  13.319  1.00  0.00     0.000 C 
BRANCH  11  12
ATOM     12  C   UNL     1      23.131  25.566  12.883  1.00  0.00    -0.000 C 
BRANCH  12  13
ATOM     13  C   UNL     1      22.073  26.671  12.705  1.00  0.00    -0.000 C 
BRANCH  13  14
ATOM     14  C   UNL     1      21.498  27.243  14.014  1.00  0.00    -0.000 C 
BRANCH  14  15
ATOM     15  C   UNL     1      20.083  26.727  14.323  1.00  0.00    -0.000 C 
BRANCH  15  16
ATOM     16  C   UNL     1      19.836  26.537  15.829  1.00  0.00    -0.000 C 
BRANCH  16  17
ATOM     17  C   UNL     1      20.182  25.123  16.340  1.00  0.00    -0.003 C 
ATOM     18  C   UNL     1      21.427  25.115  17.228  1.00  0.00     0.004 C 
ENDBRANCH  16  17
ENDBRANCH  15  16
ENDBRANCH  14  15
ENDBRANCH  13  14
ENDBRANCH  12  13
ENDBRANCH  11  12
ENDBRANCH   1  11
TORSDOF 14
ENDMDL
MODEL 7
REMARK VINA RESULT:    -1.378      3.503      5.545
REMARK INTER + INTRA:          -5.095
REMARK INTER:                  -2.467
REMARK INTRA:                  -2.628
REMARK UNBOUND:                -2.589
REMARK SMILES CCCCCCCCCCCCCCCC(=O)[O-]
REMARK SMILES IDX 9 1 10 2 11 3 12 4 13 5 14 6 15 7 16 8 17 9 18 10 8 11 7 12
REMARK SMILES IDX 6 13 5 14 4 15 3 16 2 17 1 18
REMARK H PARENT
REMARK Flexibility Score: inf
ROOT
ATOM      1  C   UNL     1      25.161  25.836  15.529  1.00  0.00     0.000 C 
ENDROOT
BRANCH   1   2
ATOM      2  C   UNL     1      24.164  25.801  16.700  1.00  0.00     0.000 C 
BRANCH   2   3
ATOM      3  C   UNL     1      22.809  25.194  16.302  1.00  0.00     0.000 C 
BRANCH   3   4
ATOM      4  C   UNL     1      21.737  26.268  16.043  1.00  0.00     0.000 C 
BRANCH   4   5
ATOM      5  C   UNL     1      21.563  27.228  17.230  1.00  0.00     0.000 C 
BRANCH   5   6
ATOM      6  C   UNL     1      21.048  28.612  16.801  1.00  0.00     0.006 C 
BRANCH   6   7
ATOM      7  C   UNL     1      20.603  28.635  15.333  1.00  0.00     0.053 C 
BRANCH   7   8
ATOM      8  C   UNL     1      19.125  28.840  15.203  1.00  0.00     0.041 C 
ATOM      9  O   UNL     1      18.352  27.850  15.108  1.00  0.00    -0.550 OA
ATOM     10  O   UNL     1      18.597  30.125  15.218  1.00  0.00    -0.550 OA
ENDBRANCH   7   8
ENDBRANCH   6   7
ENDBRANCH   5   6
ENDBRANCH   4   5
ENDBRANCH   3   4
ENDBRANCH   2   3
ENDBRANCH   1   2
BRANCH   1  11
ATOM     11  C   UNL     1      25.738  27.240  15.290  1.00  0.00     0.000 C 
BRANCH  11  12
ATOM     12  C   UNL     1      24.753  28.356  15.679  1.00  0.00    -0.000 C 
BRANCH  12  13
ATOM     13  C   UNL     1      24.246  29.158  14.467  1.00  0.00    -0.000 C 
BRANCH  13  14
ATOM     14  C   UNL     1      25.025  28.929  13.158  1.00  0.00    -0.000 C 
BRANCH  14  15
ATOM     15  C   UNL     1      24.155  28.331  12.040  1.00  0.00    -0.000 C 
BRANCH  15  16
ATOM     16  C   UNL     1      22.668  28.250  12.423  1.00  0.00    -0.000 C 
BRANCH  16  17
ATOM     17  C   UNL     1      22.078  26.828  12.318  1.00  0.00    -0.003 C 
ATOM     18  C   UNL     1      23.125  25.745  12.583  1.00  0.00     0.004 C 
ENDBRANCH  16  17
ENDBRANCH  15  16
ENDBRANCH  14  15
ENDBRANCH  13  14
ENDBRANCH  12  13
ENDBRANCH  11  12
ENDBRANCH   1  11
TORSDOF 14
ENDMDL
MODEL 8
REMARK VINA RESULT:    -1.356     22.643     24.196
REMARK INTER + INTRA:          -5.054
REMARK INTER:                  -2.484
REMARK INTRA:                  -2.570
REMARK UNBOUND:                -2.589
REMARK SMILES CCCCCCCCCCCCCCCC(=O)[O-]
REMARK SMILES IDX 9 1 10 2 11 3 12 4 13 5 14 6 15 7 16 8 17 9 18 10 8 11 7 12
REMARK SMILES IDX 6 13 5 14 4 15 3 16 2 17 1 18
REMARK H PARENT
REMARK Flexibility Score: inf
ROOT
ATOM      1  C   UNL     1       8.667  13.525  23.737  1.00  0.00     0.000 C 
ENDROOT
BRANCH   1   2
ATOM      2  C   UNL     1       8.961  12.017  23.816  1.00  0.00     0.000 C 
BRANCH   2   3
ATOM      3  C   UNL     1       9.992  11.675  24.905  1.00  0.00     0.000 C 
BRANCH   3   4
ATOM      4  C   UNL     1       9.986  10.180  25.272  1.00  0.00     0.000 C 
BRANCH   4   5
ATOM      5  C   UNL     1      10.638   9.905  26.636  1.00  0.00     0.000 C 
BRANCH   5   6
ATOM      6  C   UNL     1      11.115  11.190  27.334  1.00  0.00     0.006 C 
BRANCH   6   7
ATOM      7  C   UNL     1      11.038  11.080  28.862  1.00  0.00     0.053 C 
BRANCH   7   8
ATOM      8  C   UNL     1      11.963  12.048  29.536  1.00  0.00     0.041 C 
ATOM      9  O   UNL     1      13.174  12.110  29.196  1.00  0.00    -0.550 OA
ATOM     10  O   UNL     1      11.480  12.903  30.518  1.00  0.00    -0.550 OA
ENDBRANCH   7   8
ENDBRANCH   6   7
ENDBRANCH   5   6
ENDBRANCH   4   5
ENDBRANCH   3   4
ENDBRANCH   2   3
ENDBRANCH   1   2
BRANCH   1  11
ATOM     11  C   UNL     1       7.301  13.890  24.339  1.00  0.00     0.000 C 
BRANCH  11  12
ATOM     12  C   UNL     1       7.429  14.698  25.642  1.00  0.00    -0.000 C 
BRANCH  12  13
ATOM     13  C   UNL     1       6.852  13.960  26.864  1.00  0.00    -0.000 C 
BRANCH  13  14
ATOM     14  C   UNL     1       7.864  13.105  27.650  1.00  0.00    -0.000 C 
BRANCH  14  15
ATOM     15  C   UNL     1       7.470  11.621  27.719  1.00  0.00    -0.000 C 
BRANCH  15  16
ATOM     16  C   UNL     1       6.329  11.264  26.752  1.00  0.00    -0.000 C 
BRANCH  16  17
ATOM     17  C   UNL     1       6.486   9.876  26.095  1.00  0.00    -0.003 C 
ATOM     18  C   UNL     1       6.048   9.875  24.630  1.00  0.00     0.004 C 
ENDBRANCH  16  17
ENDBRANCH  15  16
ENDBRANCH  14  15
ENDBRANCH  13  14
ENDBRANCH  12  13
ENDBRANCH  11  12
ENDBRANCH   1  11
TORSDOF 14
ENDMDL
MODEL 9
REMARK VINA RESULT:    -1.354      2.605      5.490
REMARK INTER + INTRA:          -5.050
REMARK INTER:                  -2.518
REMARK INTRA:                  -2.532
REMARK UNBOUND:                -2.589
REMARK SMILES CCCCCCCCCCCCCCCC(=O)[O-]
REMARK SMILES IDX 9 1 10 2 11 3 12 4 13 5 14 6 15 7 16 8 17 9 18 10 8 11 7 12
REMARK SMILES IDX 6 13 5 14 4 15 3 16 2 17 1 18
REMARK H PARENT
REMARK Flexibility Score: inf
ROOT
ATOM      1  C   UNL     1      25.161  26.094  15.343  1.00  0.00     0.000 C 
ENDROOT
BRANCH   1   2
ATOM      2  C   UNL     1      25.769  27.357  15.976  1.00  0.00     0.000 C 
BRANCH   2   3
ATOM      3  C   UNL     1      24.851  27.984  17.038  1.00  0.00     0.000 C 
BRANCH   3   4
ATOM      4  C   UNL     1      24.579  29.476  16.774  1.00  0.00     0.000 C 
BRANCH   4   5
ATOM      5  C   UNL     1      23.296  29.708  15.962  1.00  0.00     0.000 C 
BRANCH   5   6
ATOM      6  C   UNL     1      23.582  30.071  14.495  1.00  0.00     0.006 C 
BRANCH   6   7
ATOM      7  C   UNL     1      23.072  29.000  13.523  1.00  0.00     0.053 C 
BRANCH   7   8
ATOM      8  C   UNL     1      24.175  28.452  12.670  1.00  0.00     0.041 C 
ATOM      9  O   UNL     1      23.952  27.501  11.876  1.00  0.00    -0.550 OA
ATOM     10  O   UNL     1      25.445  29.012  12.732  1.00  0.00    -0.550 OA
ENDBRANCH   7   8
ENDBRANCH   6   7
ENDBRANCH   5   6
ENDBRANCH   4   5
ENDBRANCH   3   4
ENDBRANCH   2   3
ENDBRANCH   1   2
BRANCH   1  11
ATOM     11  C   UNL     1      23.625  26.089  15.397  1.00  0.00     0.000 C 
BRANCH  11  12
ATOM     12  C   UNL     1      23.065  24.851  16.119  1.00  0.00    -0.000 C 
BRANCH  12  13
ATOM     13  C   UNL     1      21.761  25.142  16.884  1.00  0.00    -0.000 C 
BRANCH  13  14
ATOM     14  C   UNL     1      21.407  26.634  17.031  1.00  0.00    -0.000 C 
BRANCH  14  15
ATOM     15  C   UNL     1      20.131  27.025  16.267  1.00  0.00    -0.000 C 
BRANCH  15  16
ATOM     16  C   UNL     1      19.821  26.072  15.100  1.00  0.00    -0.000 C 
BRANCH  16  17
ATOM     17  C   UNL     1      20.220  26.634  13.719  1.00  0.00    -0.003 C 
ATOM     18  C   UNL     1      20.941  25.598  12.857  1.00  0.00     0.004 C 
ENDBRANCH  16  17
ENDBRANCH  15  16
ENDBRANCH  14  15
ENDBRANCH  13  14
ENDBRANCH  12  13
ENDBRANCH  11  12
ENDBRANCH   1  11
TORSDOF 14
ENDMDL
