MODEL 1
REMARK VINA RESULT:    -5.602      0.000      0.000
REMARK INTER + INTRA:          -7.044
REMARK INTER:                  -6.749
REMARK INTRA:                  -0.295
REMARK UNBOUND:                -0.295
REMARK SMILES O=c1c(O)c(-c2ccc(O)c(O)c2)oc2cc(O)cc(O)c12
REMARK SMILES IDX 5 1 3 2 2 3 1 4 22 5 20 6 19 7 17 8 16 9 15 10 14 11 6 12
REMARK SMILES IDX 7 13 8 14 9 15 13 16 11 17 10 18 12 20 4 22 21 24 18 26
REMARK H PARENT 10 19 12 21 4 23 21 25 18 27
REMARK Flexibility Score: inf
ROOT
ATOM      1  C   UNL     1      18.521   5.161   9.448  1.00  0.00     0.180 A 
ATOM      2  C   UNL     1      18.713   5.708   8.168  1.00  0.00     0.208 A 
ATOM      3  C   UNL     1      19.741   5.202   7.358  1.00  0.00     0.238 A 
ATOM      4  O   UNL     1      19.874   5.659   6.193  1.00  0.00    -0.285 OA
ATOM      5  C   UNL     1      20.576   4.167   7.844  1.00  0.00     0.111 A 
ATOM      6  C   UNL     1      21.674   3.606   7.124  1.00  0.00     0.134 A 
ATOM      7  C   UNL     1      22.348   2.496   7.649  1.00  0.00     0.093 A 
ATOM      8  C   UNL     1      22.009   1.970   8.894  1.00  0.00     0.123 A 
ATOM      9  C   UNL     1      20.976   2.548   9.634  1.00  0.00     0.094 A 
ATOM     10  C   UNL     1      20.260   3.632   9.120  1.00  0.00     0.146 A 
ATOM     11  O   UNL     1      19.278   4.147   9.850  1.00  0.00    -0.452 OA
ENDROOT
BRANCH   1  12
ATOM     12  C   UNL     1      17.473   5.659  10.370  1.00  0.00     0.025 A 
ATOM     13  C   UNL     1      16.233   5.006  10.488  1.00  0.00     0.016 A 
ATOM     14  C   UNL     1      15.251   5.508  11.346  1.00  0.00     0.051 A 
ATOM     15  C   UNL     1      15.484   6.670  12.086  1.00  0.00     0.157 A 
ATOM     16  C   UNL     1      17.697   6.838  11.099  1.00  0.00     0.062 A 
ATOM     17  C   UNL     1      16.712   7.342  11.961  1.00  0.00     0.158 A 
BRANCH  15  18
ATOM     18  O   UNL     1      14.485   7.145  12.936  1.00  0.00    -0.504 OA
ATOM     19  H   UNL     1      14.623   7.224  13.936  1.00  0.00     0.293 HD
ENDBRANCH  15  18
BRANCH  17  20
ATOM     20  O   UNL     1      16.949   8.505  12.690  1.00  0.00    -0.504 OA
ATOM     21  H   UNL     1      16.220   9.192  12.847  1.00  0.00     0.293 HD
ENDBRANCH  17  20
ENDBRANCH   1  12
BRANCH   2  22
ATOM     22  O   UNL     1      17.864   6.715   7.700  1.00  0.00    -0.502 OA
ATOM     23  H   UNL     1      18.206   7.525   7.197  1.00  0.00     0.293 HD
ENDBRANCH   2  22
BRANCH   6  24
ATOM     24  O   UNL     1      22.155   4.114   5.914  1.00  0.00    -0.507 OA
ATOM     25  H   UNL     1      21.921   3.748   5.004  1.00  0.00     0.293 HD
ENDBRANCH   6  24
BRANCH   8  26
ATOM     26  O   UNL     1      22.712   0.875   9.393  1.00  0.00    -0.508 OA
ATOM     27  H   UNL     1      23.542   0.523   8.931  1.00  0.00     0.293 HD
ENDBRANCH   8  26
TORSDOF 6
ENDMDL
MODEL 2
REMARK VINA RESULT:    -5.574      3.811      7.227
REMARK INTER + INTRA:          -7.009
REMARK INTER:                  -6.765
REMARK INTRA:                  -0.244
REMARK UNBOUND:                -0.295
REMARK SMILES O=c1c(O)c(-c2ccc(O)c(O)c2)oc2cc(O)cc(O)c12
REMARK SMILES IDX 5 1 3 2 2 3 1 4 22 5 20 6 19 7 17 8 16 9 15 10 14 11 6 12
REMARK SMILES IDX 7 13 8 14 9 15 13 16 11 17 10 18 12 20 4 22 21 24 18 26
REMARK H PARENT 10 19 12 21 4 23 21 25 18 27
REMARK Flexibility Score: inf
ROOT
ATOM      1  C   UNL     1      21.550   6.479   5.688  1.00  0.00     0.180 A 
ATOM      2  C   UNL     1      20.258   6.957   5.961  1.00  0.00     0.208 A 
ATOM      3  C   UNL     1      19.471   6.287   6.912  1.00  0.00     0.238 A 
ATOM      4  O   UNL     1      18.335   6.751   7.191  1.00  0.00    -0.285 OA
ATOM      5  C   UNL     1      19.980   5.139   7.564  1.00  0.00     0.111 A 
ATOM      6  C   UNL     1      19.255   4.359   8.515  1.00  0.00     0.134 A 
ATOM      7  C   UNL     1      19.904   3.321   9.196  1.00  0.00     0.093 A 
ATOM      8  C   UNL     1      21.228   2.993   8.913  1.00  0.00     0.123 A 
ATOM      9  C   UNL     1      21.929   3.710   7.942  1.00  0.00     0.094 A 
ATOM     10  C   UNL     1      21.320   4.775   7.273  1.00  0.00     0.146 A 
ATOM     11  O   UNL     1      22.024   5.438   6.364  1.00  0.00    -0.452 OA
ENDROOT
BRANCH   1  12
ATOM     12  C   UNL     1      22.431   7.116   4.681  1.00  0.00     0.025 A 
ATOM     13  C   UNL     1      22.706   6.493   3.451  1.00  0.00     0.016 A 
ATOM     14  C   UNL     1      23.558   7.102   2.527  1.00  0.00     0.051 A 
ATOM     15  C   UNL     1      24.158   8.331   2.819  1.00  0.00     0.157 A 
ATOM     16  C   UNL     1      23.051   8.340   4.981  1.00  0.00     0.062 A 
ATOM     17  C   UNL     1      23.907   8.953   4.054  1.00  0.00     0.158 A 
BRANCH  15  18
ATOM     18  O   UNL     1      25.003   8.915   1.875  1.00  0.00    -0.504 OA
ATOM     19  H   UNL     1      25.117   9.918   1.804  1.00  0.00     0.293 HD
ENDBRANCH  15  18
BRANCH  17  20
ATOM     20  O   UNL     1      24.507  10.174   4.355  1.00  0.00    -0.504 OA
ATOM     21  H   UNL     1      24.258  11.024   3.863  1.00  0.00     0.293 HD
ENDBRANCH  17  20
ENDBRANCH   1  12
BRANCH   2  22
ATOM     22  O   UNL     1      19.783   8.105   5.321  1.00  0.00    -0.502 OA
ATOM     23  H   UNL     1      18.965   8.095   4.724  1.00  0.00     0.293 HD
ENDBRANCH   2  22
BRANCH   6  24
ATOM     24  O   UNL     1      17.899   4.543   8.806  1.00  0.00    -0.507 OA
ATOM     25  H   UNL     1      17.546   5.109   9.562  1.00  0.00     0.293 HD
ENDBRANCH   6  24
BRANCH   8  26
ATOM     26  O   UNL     1      21.838   1.944   9.598  1.00  0.00    -0.508 OA
ATOM     27  H   UNL     1      21.490   1.621  10.492  1.00  0.00     0.293 HD
ENDBRANCH   8  26
TORSDOF 6
ENDMDL
MODEL 3
REMARK VINA RESULT:    -5.384      3.213      5.980
REMARK INTER + INTRA:          -6.780
REMARK INTER:                  -6.632
REMARK INTRA:                  -0.149
REMARK UNBOUND:                -0.295
REMARK SMILES O=c1c(O)c(-c2ccc(O)c(O)c2)oc2cc(O)cc(O)c12
REMARK SMILES IDX 5 1 3 2 2 3 1 4 22 5 20 6 19 7 17 8 16 9 15 10 14 11 6 12
REMARK SMILES IDX 7 13 8 14 9 15 13 16 11 17 10 18 12 20 4 22 21 24 18 26
REMARK H PARENT 10 19 12 21 4 23 21 25 18 27
REMARK Flexibility Score: inf
ROOT
ATOM      1  C   UNL     1      19.177   4.641   7.162  1.00  0.00     0.180 A 
ATOM      2  C   UNL     1      18.956   3.739   6.107  1.00  0.00     0.208 A 
ATOM      3  C   UNL     1      18.477   4.229   4.882  1.00  0.00     0.238 A 
ATOM      4  O   UNL     1      18.332   3.425   3.925  1.00  0.00    -0.285 OA
ATOM      5  C   UNL     1      18.208   5.611   4.733  1.00  0.00     0.111 A 
ATOM      6  C   UNL     1      17.681   6.210   3.549  1.00  0.00     0.134 A 
ATOM      7  C   UNL     1      17.579   7.605   3.469  1.00  0.00     0.093 A 
ATOM      8  C   UNL     1      17.919   8.416   4.550  1.00  0.00     0.123 A 
ATOM      9  C   UNL     1      18.379   7.836   5.734  1.00  0.00     0.094 A 
ATOM     10  C   UNL     1      18.527   6.451   5.831  1.00  0.00     0.146 A 
ATOM     11  O   UNL     1      18.977   5.940   6.971  1.00  0.00    -0.452 OA
ENDROOT
BRANCH   1  12
ATOM     12  C   UNL     1      19.658   4.197   8.491  1.00  0.00     0.025 A 
ATOM     13  C   UNL     1      18.875   4.366   9.647  1.00  0.00     0.016 A 
ATOM     14  C   UNL     1      19.359   3.962  10.893  1.00  0.00     0.051 A 
ATOM     15  C   UNL     1      20.633   3.397  11.009  1.00  0.00     0.157 A 
ATOM     16  C   UNL     1      20.945   3.649   8.613  1.00  0.00     0.062 A 
ATOM     17  C   UNL     1      21.433   3.242   9.864  1.00  0.00     0.158 A 
BRANCH  15  18
ATOM     18  O   UNL     1      21.088   3.001  12.266  1.00  0.00    -0.504 OA
ATOM     19  H   UNL     1      21.735   3.563  12.805  1.00  0.00     0.293 HD
ENDBRANCH  15  18
BRANCH  17  20
ATOM     20  O   UNL     1      22.706   2.686   9.972  1.00  0.00    -0.504 OA
ATOM     21  H   UNL     1      23.168   2.257   9.179  1.00  0.00     0.293 HD
ENDBRANCH  17  20
ENDBRANCH   1  12
BRANCH   2  22
ATOM     22  O   UNL     1      19.249   2.382   6.270  1.00  0.00    -0.502 OA
ATOM     23  H   UNL     1      18.835   1.664   5.688  1.00  0.00     0.293 HD
ENDBRANCH   2  22
BRANCH   6  24
ATOM     24  O   UNL     1      17.223   5.486   2.444  1.00  0.00    -0.507 OA
ATOM     25  H   UNL     1      16.887   5.899   1.587  1.00  0.00     0.293 HD
ENDBRANCH   6  24
BRANCH   8  26
ATOM     26  O   UNL     1      17.790   9.799   4.441  1.00  0.00    -0.508 OA
ATOM     27  H   UNL     1      17.146  10.318   5.024  1.00  0.00     0.293 HD
ENDBRANCH   8  26
TORSDOF 6
ENDMDL
MODEL 4
REMARK VINA RESULT:    -5.383      1.203      2.952
REMARK INTER + INTRA:          -6.780
REMARK INTER:                  -6.448
REMARK INTRA:                  -0.332
REMARK UNBOUND:                -0.295
REMARK SMILES O=c1c(O)c(-c2ccc(O)c(O)c2)oc2cc(O)cc(O)c12
REMARK SMILES IDX 5 1 3 2 2 3 1 4 22 5 20 6 19 7 17 8 16 9 15 10 14 11 6 12
REMARK SMILES IDX 7 13 8 14 9 15 13 16 11 17 10 18 12 20 4 22 21 24 18 26
REMARK H PARENT 10 19 12 21 4 23 21 25 18 27
REMARK Flexibility Score: inf
ROOT
ATOM      1  C   UNL     1      18.594   4.933   9.496  1.00  0.00     0.180 A 
ATOM      2  C   UNL     1      19.520   3.975   9.942  1.00  0.00     0.208 A 
ATOM      3  C   UNL     1      20.507   3.518   9.055  1.00  0.00     0.238 A 
ATOM      4  O   UNL     1      21.366   2.700   9.475  1.00  0.00    -0.285 OA
ATOM      5  C   UNL     1      20.545   4.011   7.729  1.00  0.00     0.111 A 
ATOM      6  C   UNL     1      21.477   3.587   6.733  1.00  0.00     0.134 A 
ATOM      7  C   UNL     1      21.506   4.239   5.493  1.00  0.00     0.093 A 
ATOM      8  C   UNL     1      20.596   5.251   5.190  1.00  0.00     0.123 A 
ATOM      9  C   UNL     1      19.642   5.632   6.134  1.00  0.00     0.094 A 
ATOM     10  C   UNL     1      19.612   5.027   7.393  1.00  0.00     0.146 A 
ATOM     11  O   UNL     1      18.696   5.425   8.267  1.00  0.00    -0.452 OA
ENDROOT
BRANCH   1  12
ATOM     12  C   UNL     1      17.510   5.446  10.366  1.00  0.00     0.025 A 
ATOM     13  C   UNL     1      16.276   4.779  10.467  1.00  0.00     0.016 A 
ATOM     14  C   UNL     1      15.259   5.294  11.274  1.00  0.00     0.051 A 
ATOM     15  C   UNL     1      15.450   6.485  11.980  1.00  0.00     0.157 A 
ATOM     16  C   UNL     1      17.692   6.653  11.059  1.00  0.00     0.062 A 
ATOM     17  C   UNL     1      16.672   7.171  11.871  1.00  0.00     0.158 A 
BRANCH  15  18
ATOM     18  O   UNL     1      14.417   6.973  12.780  1.00  0.00    -0.504 OA
ATOM     19  H   UNL     1      13.706   6.367  13.169  1.00  0.00     0.293 HD
ENDBRANCH  15  18
BRANCH  17  20
ATOM     20  O   UNL     1      16.867   8.363  12.566  1.00  0.00    -0.504 OA
ATOM     21  H   UNL     1      17.240   8.374  13.508  1.00  0.00     0.293 HD
ENDBRANCH  17  20
ENDBRANCH   1  12
BRANCH   2  22
ATOM     22  O   UNL     1      19.478   3.518  11.262  1.00  0.00    -0.502 OA
ATOM     23  H   UNL     1      18.698   3.709  11.879  1.00  0.00     0.293 HD
ENDBRANCH   2  22
BRANCH   6  24
ATOM     24  O   UNL     1      22.368   2.523   6.899  1.00  0.00    -0.507 OA
ATOM     25  H   UNL     1      22.635   2.133   7.790  1.00  0.00     0.293 HD
ENDBRANCH   6  24
BRANCH   8  26
ATOM     26  O   UNL     1      20.644   5.866   3.941  1.00  0.00    -0.508 OA
ATOM     27  H   UNL     1      20.654   6.875   3.847  1.00  0.00     0.293 HD
ENDBRANCH   8  26
TORSDOF 6
ENDMDL
MODEL 5
REMARK VINA RESULT:    -5.295      2.944      4.440
REMARK INTER + INTRA:          -6.673
REMARK INTER:                  -6.421
REMARK INTRA:                  -0.253
REMARK UNBOUND:                -0.295
REMARK SMILES O=c1c(O)c(-c2ccc(O)c(O)c2)oc2cc(O)cc(O)c12
REMARK SMILES IDX 5 1 3 2 2 3 1 4 22 5 20 6 19 7 17 8 16 9 15 10 14 11 6 12
REMARK SMILES IDX 7 13 8 14 9 15 13 16 11 17 10 18 12 20 4 22 21 24 18 26
REMARK H PARENT 10 19 12 21 4 23 21 25 18 27
REMARK Flexibility Score: inf
ROOT
ATOM      1  C   UNL     1      19.400   4.496   8.715  1.00  0.00     0.180 A 
ATOM      2  C   UNL     1      18.545   5.599   8.552  1.00  0.00     0.208 A 
ATOM      3  C   UNL     1      18.768   6.480   7.482  1.00  0.00     0.238 A 
ATOM      4  O   UNL     1      17.968   7.436   7.309  1.00  0.00    -0.285 OA
ATOM      5  C   UNL     1      19.853   6.258   6.600  1.00  0.00     0.111 A 
ATOM      6  C   UNL     1      20.196   7.109   5.507  1.00  0.00     0.134 A 
ATOM      7  C   UNL     1      21.209   6.721   4.621  1.00  0.00     0.093 A 
ATOM      8  C   UNL     1      21.934   5.548   4.826  1.00  0.00     0.123 A 
ATOM      9  C   UNL     1      21.647   4.738   5.925  1.00  0.00     0.094 A 
ATOM     10  C   UNL     1      20.618   5.080   6.806  1.00  0.00     0.146 A 
ATOM     11  O   UNL     1      20.369   4.278   7.833  1.00  0.00    -0.452 OA
ENDROOT
BRANCH   1  12
ATOM     12  C   UNL     1      19.244   3.536   9.833  1.00  0.00     0.025 A 
ATOM     13  C   UNL     1      18.204   2.591   9.845  1.00  0.00     0.016 A 
ATOM     14  C   UNL     1      18.062   1.711  10.921  1.00  0.00     0.051 A 
ATOM     15  C   UNL     1      18.943   1.769  12.004  1.00  0.00     0.157 A 
ATOM     16  C   UNL     1      20.115   3.607  10.932  1.00  0.00     0.062 A 
ATOM     17  C   UNL     1      19.974   2.724  12.013  1.00  0.00     0.158 A 
BRANCH  15  18
ATOM     18  O   UNL     1      18.777   0.877  13.063  1.00  0.00    -0.504 OA
ATOM     19  H   UNL     1      18.380   1.162  13.949  1.00  0.00     0.293 HD
ENDBRANCH  15  18
BRANCH  17  20
ATOM     20  O   UNL     1      20.853   2.793  13.092  1.00  0.00    -0.504 OA
ATOM     21  H   UNL     1      20.612   2.409  13.999  1.00  0.00     0.293 HD
ENDBRANCH  17  20
ENDBRANCH   1  12
BRANCH   2  22
ATOM     22  O   UNL     1      17.468   5.788   9.421  1.00  0.00    -0.502 OA
ATOM     23  H   UNL     1      16.536   5.453   9.213  1.00  0.00     0.293 HD
ENDBRANCH   2  22
BRANCH   6  24
ATOM     24  O   UNL     1      19.597   8.349   5.264  1.00  0.00    -0.507 OA
ATOM     25  H   UNL     1      18.756   8.485   4.725  1.00  0.00     0.293 HD
ENDBRANCH   6  24
BRANCH   8  26
ATOM     26  O   UNL     1      22.946   5.200   3.933  1.00  0.00    -0.508 OA
ATOM     27  H   UNL     1      23.150   4.233   3.713  1.00  0.00     0.293 HD
ENDBRANCH   8  26
TORSDOF 6
ENDMDL
MODEL 6
REMARK VINA RESULT:    -5.194      4.439      7.537
REMARK INTER + INTRA:          -6.552
REMARK INTER:                  -6.398
REMARK INTRA:                  -0.154
REMARK UNBOUND:                -0.295
REMARK SMILES O=c1c(O)c(-c2ccc(O)c(O)c2)oc2cc(O)cc(O)c12
REMARK SMILES IDX 5 1 3 2 2 3 1 4 22 5 20 6 19 7 17 8 16 9 15 10 14 11 6 12
REMARK SMILES IDX 7 13 8 14 9 15 13 16 11 17 10 18 12 20 4 22 21 24 18 26
REMARK H PARENT 10 19 12 21 4 23 21 25 18 27
REMARK Flexibility Score: inf
ROOT
ATOM      1  C   UNL     1      21.198   5.110   5.223  1.00  0.00     0.180 A 
ATOM      2  C   UNL     1      21.435   4.701   6.547  1.00  0.00     0.208 A 
ATOM      3  C   UNL     1      20.538   3.809   7.155  1.00  0.00     0.238 A 
ATOM      4  O   UNL     1      20.784   3.406   8.321  1.00  0.00    -0.285 OA
ATOM      5  C   UNL     1      19.406   3.351   6.439  1.00  0.00     0.111 A 
ATOM      6  C   UNL     1      18.410   2.478   6.971  1.00  0.00     0.134 A 
ATOM      7  C   UNL     1      17.404   1.984   6.130  1.00  0.00     0.093 A 
ATOM      8  C   UNL     1      17.320   2.384   4.797  1.00  0.00     0.123 A 
ATOM      9  C   UNL     1      18.254   3.284   4.282  1.00  0.00     0.094 A 
ATOM     10  C   UNL     1      19.290   3.764   5.086  1.00  0.00     0.146 A 
ATOM     11  O   UNL     1      20.164   4.611   4.556  1.00  0.00    -0.452 OA
ENDROOT
BRANCH   1  12
ATOM     12  C   UNL     1      22.086   6.067   4.522  1.00  0.00     0.025 A 
ATOM     13  C   UNL     1      22.853   5.674   3.411  1.00  0.00     0.016 A 
ATOM     14  C   UNL     1      23.701   6.587   2.780  1.00  0.00     0.051 A 
ATOM     15  C   UNL     1      23.808   7.898   3.254  1.00  0.00     0.157 A 
ATOM     16  C   UNL     1      22.211   7.378   5.009  1.00  0.00     0.062 A 
ATOM     17  C   UNL     1      23.062   8.296   4.377  1.00  0.00     0.158 A 
BRANCH  15  18
ATOM     18  O   UNL     1      24.662   8.788   2.603  1.00  0.00    -0.504 OA
ATOM     19  H   UNL     1      24.332   9.661   2.212  1.00  0.00     0.293 HD
ENDBRANCH  15  18
BRANCH  17  20
ATOM     20  O   UNL     1      23.169   9.599   4.860  1.00  0.00    -0.504 OA
ATOM     21  H   UNL     1      24.057   9.983   5.162  1.00  0.00     0.293 HD
ENDBRANCH  17  20
ENDBRANCH   1  12
BRANCH   2  22
ATOM     22  O   UNL     1      22.570   5.150   7.228  1.00  0.00    -0.502 OA
ATOM     23  H   UNL     1      23.505   4.846   6.985  1.00  0.00     0.293 HD
ENDBRANCH   2  22
BRANCH   6  24
ATOM     24  O   UNL     1      18.347   2.089   8.312  1.00  0.00    -0.507 OA
ATOM     25  H   UNL     1      18.009   1.196   8.636  1.00  0.00     0.293 HD
ENDBRANCH   6  24
BRANCH   8  26
ATOM     26  O   UNL     1      16.296   1.885   3.994  1.00  0.00    -0.508 OA
ATOM     27  H   UNL     1      15.452   2.417   3.819  1.00  0.00     0.293 HD
ENDBRANCH   8  26
TORSDOF 6
ENDMDL
MODEL 7
REMARK VINA RESULT:    -5.017      5.160      8.737
REMARK INTER + INTRA:          -6.339
REMARK INTER:                  -6.626
REMARK INTRA:                   0.287
REMARK UNBOUND:                -0.295
REMARK SMILES O=c1c(O)c(-c2ccc(O)c(O)c2)oc2cc(O)cc(O)c12
REMARK SMILES IDX 5 1 3 2 2 3 1 4 22 5 20 6 19 7 17 8 16 9 15 10 14 11 6 12
REMARK SMILES IDX 7 13 8 14 9 15 13 16 11 17 10 18 12 20 4 22 21 24 18 26
REMARK H PARENT 10 19 12 21 4 23 21 25 18 27
REMARK Flexibility Score: inf
ROOT
ATOM      1  C   UNL     1      22.713   7.144   4.134  1.00  0.00     0.180 A 
ATOM      2  C   UNL     1      22.741   5.802   3.720  1.00  0.00     0.208 A 
ATOM      3  C   UNL     1      21.815   4.901   4.270  1.00  0.00     0.238 A 
ATOM      4  O   UNL     1      21.809   3.712   3.856  1.00  0.00    -0.285 OA
ATOM      5  C   UNL     1      20.884   5.350   5.237  1.00  0.00     0.111 A 
ATOM      6  C   UNL     1      19.927   4.516   5.890  1.00  0.00     0.134 A 
ATOM      7  C   UNL     1      18.969   5.093   6.733  1.00  0.00     0.093 A 
ATOM      8  C   UNL     1      18.975   6.461   6.999  1.00  0.00     0.123 A 
ATOM      9  C   UNL     1      19.943   7.278   6.413  1.00  0.00     0.094 A 
ATOM     10  C   UNL     1      20.889   6.737   5.539  1.00  0.00     0.146 A 
ATOM     11  O   UNL     1      21.786   7.549   4.994  1.00  0.00    -0.452 OA
ENDROOT
BRANCH   1  12
ATOM     12  C   UNL     1      23.674   8.148   3.618  1.00  0.00     0.025 A 
ATOM     13  C   UNL     1      24.229   8.035   2.331  1.00  0.00     0.016 A 
ATOM     14  C   UNL     1      25.151   8.981   1.875  1.00  0.00     0.051 A 
ATOM     15  C   UNL     1      25.543  10.041   2.697  1.00  0.00     0.157 A 
ATOM     16  C   UNL     1      24.085   9.202   4.449  1.00  0.00     0.062 A 
ATOM     17  C   UNL     1      25.010  10.152   3.993  1.00  0.00     0.158 A 
BRANCH  15  18
ATOM     18  O   UNL     1      26.463  10.971   2.213  1.00  0.00    -0.504 OA
ATOM     19  H   UNL     1      27.462  10.821   2.276  1.00  0.00     0.293 HD
ENDBRANCH  15  18
BRANCH  17  20
ATOM     20  O   UNL     1      25.401  11.203   4.821  1.00  0.00    -0.504 OA
ATOM     21  H   UNL     1      24.902  12.085   4.833  1.00  0.00     0.293 HD
ENDBRANCH  17  20
ENDBRANCH   1  12
BRANCH   2  22
ATOM     22  O   UNL     1      23.654   5.384   2.748  1.00  0.00    -0.502 OA
ATOM     23  H   UNL     1      23.664   4.440   2.381  1.00  0.00     0.293 HD
ENDBRANCH   2  22
BRANCH   6  24
ATOM     24  O   UNL     1      19.892   3.123   5.767  1.00  0.00    -0.507 OA
ATOM     25  H   UNL     1      19.068   2.556   5.898  1.00  0.00     0.293 HD
ENDBRANCH   6  24
BRANCH   8  26
ATOM     26  O   UNL     1      18.016   6.999   7.856  1.00  0.00    -0.508 OA
ATOM     27  H   UNL     1      18.110   7.933   8.236  1.00  0.00     0.293 HD
ENDBRANCH   8  26
TORSDOF 6
ENDMDL
MODEL 8
REMARK VINA RESULT:    -4.925      2.864      7.019
REMARK INTER + INTRA:          -6.228
REMARK INTER:                  -6.221
REMARK INTRA:                  -0.007
REMARK UNBOUND:                -0.295
REMARK SMILES O=c1c(O)c(-c2ccc(O)c(O)c2)oc2cc(O)cc(O)c12
REMARK SMILES IDX 5 1 3 2 2 3 1 4 22 5 20 6 19 7 17 8 16 9 15 10 14 11 6 12
REMARK SMILES IDX 7 13 8 14 9 15 13 16 11 17 10 18 12 20 4 22 21 24 18 26
REMARK H PARENT 10 19 12 21 4 23 21 25 18 27
REMARK Flexibility Score: inf
ROOT
ATOM      1  C   UNL     1      20.971   4.824   6.642  1.00  0.00     0.180 A 
ATOM      2  C   UNL     1      21.399   3.548   7.046  1.00  0.00     0.208 A 
ATOM      3  C   UNL     1      20.757   2.926   8.128  1.00  0.00     0.238 A 
ATOM      4  O   UNL     1      21.109   1.761   8.451  1.00  0.00    -0.285 OA
ATOM      5  C   UNL     1      19.708   3.593   8.804  1.00  0.00     0.111 A 
ATOM      6  C   UNL     1      19.014   3.074   9.938  1.00  0.00     0.134 A 
ATOM      7  C   UNL     1      17.905   3.763  10.444  1.00  0.00     0.093 A 
ATOM      8  C   UNL     1      17.505   4.982   9.901  1.00  0.00     0.123 A 
ATOM      9  C   UNL     1      18.212   5.530   8.830  1.00  0.00     0.094 A 
ATOM     10  C   UNL     1      19.301   4.848   8.279  1.00  0.00     0.146 A 
ATOM     11  O   UNL     1      19.940   5.397   7.254  1.00  0.00    -0.452 OA
ENDROOT
BRANCH   1  12
ATOM     12  C   UNL     1      21.614   5.555   5.526  1.00  0.00     0.025 A 
ATOM     13  C   UNL     1      21.796   4.955   4.267  1.00  0.00     0.016 A 
ATOM     14  C   UNL     1      22.427   5.655   3.236  1.00  0.00     0.051 A 
ATOM     15  C   UNL     1      22.897   6.954   3.446  1.00  0.00     0.157 A 
ATOM     16  C   UNL     1      22.106   6.852   5.741  1.00  0.00     0.062 A 
ATOM     17  C   UNL     1      22.739   7.557   4.706  1.00  0.00     0.158 A 
BRANCH  15  18
ATOM     18  O   UNL     1      23.521   7.629   2.397  1.00  0.00    -0.504 OA
ATOM     19  H   UNL     1      23.479   7.294   1.442  1.00  0.00     0.293 HD
ENDBRANCH  15  18
BRANCH  17  20
ATOM     20  O   UNL     1      23.212   8.849   4.926  1.00  0.00    -0.504 OA
ATOM     21  H   UNL     1      22.646   9.664   4.721  1.00  0.00     0.293 HD
ENDBRANCH  17  20
ENDBRANCH   1  12
BRANCH   2  22
ATOM     22  O   UNL     1      22.423   2.898   6.352  1.00  0.00    -0.502 OA
ATOM     23  H   UNL     1      22.287   2.499   5.431  1.00  0.00     0.293 HD
ENDBRANCH   2  22
BRANCH   6  24
ATOM     24  O   UNL     1      19.388   1.909  10.616  1.00  0.00    -0.507 OA
ATOM     25  H   UNL     1      19.708   1.879  11.572  1.00  0.00     0.293 HD
ENDBRANCH   6  24
BRANCH   8  26
ATOM     26  O   UNL     1      16.406   5.649  10.440  1.00  0.00    -0.508 OA
ATOM     27  H   UNL     1      15.693   5.157  10.964  1.00  0.00     0.293 HD
ENDBRANCH   8  26
TORSDOF 6
ENDMDL
MODEL 9
REMARK VINA RESULT:    -4.881      4.099      6.819
REMARK INTER + INTRA:          -6.175
REMARK INTER:                  -5.918
REMARK INTRA:                  -0.257
REMARK UNBOUND:                -0.295
REMARK SMILES O=c1c(O)c(-c2ccc(O)c(O)c2)oc2cc(O)cc(O)c12
REMARK SMILES IDX 5 1 3 2 2 3 1 4 22 5 20 6 19 7 17 8 16 9 15 10 14 11 6 12
REMARK SMILES IDX 7 13 8 14 9 15 13 16 11 17 10 18 12 20 4 22 21 24 18 26
REMARK H PARENT 10 19 12 21 4 23 21 25 18 27
REMARK Flexibility Score: inf
ROOT
ATOM      1  C   UNL     1      20.874   4.172   6.648  1.00  0.00     0.180 A 
ATOM      2  C   UNL     1      21.490   3.789   7.851  1.00  0.00     0.208 A 
ATOM      3  C   UNL     1      20.799   2.938   8.728  1.00  0.00     0.238 A 
ATOM      4  O   UNL     1      21.376   2.555   9.779  1.00  0.00    -0.285 OA
ATOM      5  C   UNL     1      19.496   2.494   8.399  1.00  0.00     0.111 A 
ATOM      6  C   UNL     1      18.688   1.662   9.232  1.00  0.00     0.134 A 
ATOM      7  C   UNL     1      17.467   1.178   8.747  1.00  0.00     0.093 A 
ATOM      8  C   UNL     1      16.994   1.547   7.489  1.00  0.00     0.123 A 
ATOM      9  C   UNL     1      17.748   2.408   6.690  1.00  0.00     0.094 A 
ATOM     10  C   UNL     1      18.987   2.878   7.131  1.00  0.00     0.146 A 
ATOM     11  O   UNL     1      19.678   3.687   6.337  1.00  0.00    -0.452 OA
ENDROOT
BRANCH   1  12
ATOM     12  C   UNL     1      21.529   5.087   5.683  1.00  0.00     0.025 A 
ATOM     13  C   UNL     1      22.110   4.605   4.497  1.00  0.00     0.016 A 
ATOM     14  C   UNL     1      22.743   5.483   3.614  1.00  0.00     0.051 A 
ATOM     15  C   UNL     1      22.819   6.848   3.905  1.00  0.00     0.157 A 
ATOM     16  C   UNL     1      21.625   6.455   5.983  1.00  0.00     0.062 A 
ATOM     17  C   UNL     1      22.260   7.338   5.098  1.00  0.00     0.158 A 
BRANCH  15  18
ATOM     18  O   UNL     1      23.455   7.700   3.003  1.00  0.00    -0.504 OA
ATOM     19  H   UNL     1      23.012   8.539   2.651  1.00  0.00     0.293 HD
ENDBRANCH  15  18
BRANCH  17  20
ATOM     20  O   UNL     1      22.337   8.696   5.398  1.00  0.00    -0.504 OA
ATOM     21  H   UNL     1      23.208   9.129   5.683  1.00  0.00     0.293 HD
ENDBRANCH  17  20
ENDBRANCH   1  12
BRANCH   2  22
ATOM     22  O   UNL     1      22.786   4.221   8.147  1.00  0.00    -0.502 OA
ATOM     23  H   UNL     1      23.020   4.679   9.019  1.00  0.00     0.293 HD
ENDBRANCH   2  22
BRANCH   6  24
ATOM     24  O   UNL     1      19.024   1.308  10.542  1.00  0.00    -0.507 OA
ATOM     25  H   UNL     1      19.950   1.377  10.936  1.00  0.00     0.293 HD
ENDBRANCH   6  24
BRANCH   8  26
ATOM     26  O   UNL     1      15.767   1.059   7.045  1.00  0.00    -0.508 OA
ATOM     27  H   UNL     1      15.000   1.680   6.817  1.00  0.00     0.293 HD
ENDBRANCH   8  26
TORSDOF 6
ENDMDL
