MODEL 1
REMARK VINA RESULT:    -5.798      0.000      0.000
REMARK INTER + INTRA:          -9.570
REMARK INTER:                  -8.340
REMARK INTRA:                  -1.230
REMARK UNBOUND:                -1.230
REMARK SMILES O=c1c(O[C@@H]2O[C@@H](CO)[C@H](O)[C@@H](O)[C@H]2O)c(-c2ccc(O)cc2)oc2cc(O)cc(O)c12
REMARK SMILES IDX 4 1 3 2 16 3 24 4 2 5 25 6 1 7 32 8 26 9 30 10 27 11 29 12
REMARK SMILES IDX 17 13 18 14 19 15 20 16 23 17 22 18 21 19 31 21 28 23 5 25
REMARK SMILES IDX 14 26 6 27 12 28 7 29 10 30 15 31 13 33 8 35 9 36 11 38
REMARK H PARENT 21 20 31 22 28 24 15 32 13 34 9 37 11 39
REMARK Flexibility Score: inf
ROOT
ATOM      1  O   UNL     1      -6.612  24.122  -9.787  1.00  0.00    -0.454 OA
ENDROOT
BRANCH   1   2
ATOM      2  C   UNL     1      -5.456  24.928  -9.716  1.00  0.00     0.214 A 
ATOM      3  C   UNL     1      -4.285  24.359  -9.177  1.00  0.00     0.180 A 
ATOM      4  O   UNL     1      -3.154  25.057  -9.143  1.00  0.00    -0.452 OA
ATOM      5  C   UNL     1      -5.396  26.263 -10.183  1.00  0.00     0.239 A 
ATOM      6  C   UNL     1      -3.054  26.307  -9.575  1.00  0.00     0.146 A 
ATOM      7  O   UNL     1      -6.422  26.821 -10.655  1.00  0.00    -0.285 OA
ATOM      8  C   UNL     1      -4.177  26.973 -10.115  1.00  0.00     0.111 A 
ATOM      9  C   UNL     1      -1.821  26.960  -9.485  1.00  0.00     0.094 A 
ATOM     10  C   UNL     1      -4.035  28.311 -10.563  1.00  0.00     0.134 A 
ATOM     11  C   UNL     1      -1.688  28.282  -9.921  1.00  0.00     0.123 A 
ATOM     12  C   UNL     1      -2.791  28.951 -10.457  1.00  0.00     0.093 A 
BRANCH   3  13
ATOM     13  C   UNL     1      -4.262  22.975  -8.653  1.00  0.00     0.021 A 
ATOM     14  C   UNL     1      -3.959  22.750  -7.301  1.00  0.00     0.016 A 
ATOM     15  C   UNL     1      -3.947  21.451  -6.784  1.00  0.00     0.047 A 
ATOM     16  C   UNL     1      -4.257  20.364  -7.607  1.00  0.00     0.115 A 
ATOM     17  C   UNL     1      -4.595  21.880  -9.471  1.00  0.00     0.016 A 
ATOM     18  C   UNL     1      -4.583  20.581  -8.952  1.00  0.00     0.047 A 
BRANCH  16  19
ATOM     19  O   UNL     1      -4.241  19.075  -7.079  1.00  0.00    -0.508 OA
ATOM     20  H   UNL     1      -5.097  18.598  -6.819  1.00  0.00     0.293 HD
ENDBRANCH  16  19
ENDBRANCH   3  13
BRANCH  10  21
ATOM     21  O   UNL     1      -5.115  29.008 -11.107  1.00  0.00    -0.507 OA
ATOM     22  H   UNL     1      -6.053  28.912 -10.739  1.00  0.00     0.293 HD
ENDBRANCH  10  21
BRANCH  11  23
ATOM     23  O   UNL     1      -0.465  28.944  -9.819  1.00  0.00    -0.508 OA
ATOM     24  H   UNL     1      -0.379  29.824  -9.323  1.00  0.00     0.293 HD
ENDBRANCH  11  23
ENDBRANCH   1   2
BRANCH   1  25
ATOM     25  C   UNL     1      -7.857  24.321  -9.106  1.00  0.00     0.339 C 
ATOM     26  C   UNL     1      -9.030  23.883 -10.007  1.00  0.00     0.214 C 
ATOM     27  O   UNL     1      -7.887  23.637  -7.860  1.00  0.00    -0.332 OA
ATOM     28  C   UNL     1      -8.996  22.357 -10.213  1.00  0.00     0.180 C 
ATOM     29  C   UNL     1      -7.731  22.235  -8.023  1.00  0.00     0.179 C 
ATOM     30  C   UNL     1      -8.898  21.642  -8.855  1.00  0.00     0.177 C 
BRANCH  26  31
ATOM     31  O   UNL     1     -10.250  24.253  -9.414  1.00  0.00    -0.384 OA
ATOM     32  H   UNL     1     -10.271  23.832  -8.516  1.00  0.00     0.211 HD
ENDBRANCH  26  31
BRANCH  28  33
ATOM     33  O   UNL     1     -10.154  21.932 -10.887  1.00  0.00    -0.387 OA
ATOM     34  H   UNL     1     -10.894  22.515 -10.575  1.00  0.00     0.211 HD
ENDBRANCH  28  33
BRANCH  29  35
ATOM     35  C   UNL     1      -7.653  21.590  -6.633  1.00  0.00     0.191 C 
BRANCH  35  36
ATOM     36  O   UNL     1      -8.883  21.005  -6.292  1.00  0.00    -0.394 OA
ATOM     37  H   UNL     1      -9.036  21.220  -5.336  1.00  0.00     0.210 HD
ENDBRANCH  35  36
ENDBRANCH  29  35
BRANCH  30  38
ATOM     38  O   UNL     1      -8.743  20.255  -9.036  1.00  0.00    -0.387 OA
ATOM     39  H   UNL     1      -7.769  20.068  -9.109  1.00  0.00     0.211 HD
ENDBRANCH  30  38
ENDBRANCH   1  25
TORSDOF 11
ENDMDL
MODEL 2
REMARK VINA RESULT:    -5.758      1.173      1.460
REMARK INTER + INTRA:          -9.513
REMARK INTER:                  -8.479
REMARK INTRA:                  -1.034
REMARK UNBOUND:                -1.230
REMARK SMILES O=c1c(O[C@@H]2O[C@@H](CO)[C@H](O)[C@@H](O)[C@H]2O)c(-c2ccc(O)cc2)oc2cc(O)cc(O)c12
REMARK SMILES IDX 4 1 3 2 16 3 24 4 2 5 25 6 1 7 32 8 26 9 30 10 27 11 29 12
REMARK SMILES IDX 17 13 18 14 19 15 20 16 23 17 22 18 21 19 31 21 28 23 5 25
REMARK SMILES IDX 14 26 6 27 12 28 7 29 10 30 15 31 13 33 8 35 9 36 11 38
REMARK H PARENT 21 20 31 22 28 24 15 32 13 34 9 37 11 39
REMARK Flexibility Score: inf
ROOT
ATOM      1  O   UNL     1      -6.672  24.146  -7.824  1.00  0.00    -0.454 OA
ENDROOT
BRANCH   1   2
ATOM      2  C   UNL     1      -5.537  24.755  -8.399  1.00  0.00     0.214 A 
ATOM      3  C   UNL     1      -4.451  23.930  -8.755  1.00  0.00     0.180 A 
ATOM      4  O   UNL     1      -3.384  24.447  -9.354  1.00  0.00    -0.452 OA
ATOM      5  C   UNL     1      -5.438  26.142  -8.667  1.00  0.00     0.239 A 
ATOM      6  C   UNL     1      -3.253  25.738  -9.628  1.00  0.00     0.146 A 
ATOM      7  O   UNL     1      -6.374  26.922  -8.349  1.00  0.00    -0.285 OA
ATOM      8  C   UNL     1      -4.278  26.651  -9.293  1.00  0.00     0.111 A 
ATOM      9  C   UNL     1      -2.084  26.186 -10.250  1.00  0.00     0.094 A 
ATOM     10  C   UNL     1      -4.103  28.025  -9.596  1.00  0.00     0.134 A 
ATOM     11  C   UNL     1      -1.913  27.543 -10.540  1.00  0.00     0.123 A 
ATOM     12  C   UNL     1      -2.919  28.456 -10.215  1.00  0.00     0.093 A 
BRANCH   3  13
ATOM     13  C   UNL     1      -4.465  22.472  -8.498  1.00  0.00     0.021 A 
ATOM     14  C   UNL     1      -5.203  21.627  -9.342  1.00  0.00     0.016 A 
ATOM     15  C   UNL     1      -5.217  20.246  -9.125  1.00  0.00     0.047 A 
ATOM     16  C   UNL     1      -4.477  19.691  -8.075  1.00  0.00     0.115 A 
ATOM     17  C   UNL     1      -3.706  21.907  -7.458  1.00  0.00     0.016 A 
ATOM     18  C   UNL     1      -3.720  20.525  -7.243  1.00  0.00     0.047 A 
BRANCH  16  19
ATOM     19  O   UNL     1      -4.500  18.314  -7.871  1.00  0.00    -0.508 OA
ATOM     20  H   UNL     1      -4.931  17.906  -7.048  1.00  0.00     0.293 HD
ENDBRANCH  16  19
ENDBRANCH   3  13
BRANCH  10  21
ATOM     21  O   UNL     1      -5.090  28.964  -9.288  1.00  0.00    -0.507 OA
ATOM     22  H   UNL     1      -5.536  28.991  -8.379  1.00  0.00     0.293 HD
ENDBRANCH  10  21
BRANCH  11  23
ATOM     23  O   UNL     1      -0.743  27.998 -11.147  1.00  0.00    -0.508 OA
ATOM     24  H   UNL     1       0.163  27.610 -10.907  1.00  0.00     0.293 HD
ENDBRANCH  11  23
ENDBRANCH   1   2
BRANCH   1  25
ATOM     25  C   UNL     1      -8.049  24.448  -8.081  1.00  0.00     0.339 C 
ATOM     26  C   UNL     1      -8.387  24.167  -9.559  1.00  0.00     0.214 C 
ATOM     27  O   UNL     1      -8.914  23.728  -7.213  1.00  0.00    -0.332 OA
ATOM     28  C   UNL     1      -8.315  22.654  -9.839  1.00  0.00     0.180 C 
ATOM     29  C   UNL     1      -8.770  22.324  -7.370  1.00  0.00     0.179 C 
ATOM     30  C   UNL     1      -9.157  21.885  -8.806  1.00  0.00     0.177 C 
BRANCH  26  31
ATOM     31  O   UNL     1      -9.678  24.641  -9.851  1.00  0.00    -0.384 OA
ATOM     32  H   UNL     1      -9.781  25.505  -9.373  1.00  0.00     0.211 HD
ENDBRANCH  26  31
BRANCH  28  33
ATOM     33  O   UNL     1      -8.787  22.375 -11.133  1.00  0.00    -0.387 OA
ATOM     34  H   UNL     1      -8.577  23.171 -11.689  1.00  0.00     0.211 HD
ENDBRANCH  28  33
BRANCH  29  35
ATOM     35  C   UNL     1      -9.643  21.625  -6.319  1.00  0.00     0.191 C 
BRANCH  35  36
ATOM     36  O   UNL     1     -10.877  21.250  -6.875  1.00  0.00    -0.394 OA
ATOM     37  H   UNL     1     -10.664  20.699  -7.672  1.00  0.00     0.210 HD
ENDBRANCH  35  36
ENDBRANCH  29  35
BRANCH  30  38
ATOM     38  O   UNL     1      -9.000  20.497  -8.976  1.00  0.00    -0.387 OA
ATOM     39  H   UNL     1      -8.586  20.137  -8.146  1.00  0.00     0.211 HD
ENDBRANCH  30  38
ENDBRANCH   1  25
TORSDOF 11
ENDMDL
MODEL 3
REMARK VINA RESULT:    -5.753      1.701      2.258
REMARK INTER + INTRA:          -9.506
REMARK INTER:                  -8.355
REMARK INTRA:                  -1.151
REMARK UNBOUND:                -1.230
REMARK SMILES O=c1c(O[C@@H]2O[C@@H](CO)[C@H](O)[C@@H](O)[C@H]2O)c(-c2ccc(O)cc2)oc2cc(O)cc(O)c12
REMARK SMILES IDX 4 1 3 2 16 3 24 4 2 5 25 6 1 7 32 8 26 9 30 10 27 11 29 12
REMARK SMILES IDX 17 13 18 14 19 15 20 16 23 17 22 18 21 19 31 21 28 23 5 25
REMARK SMILES IDX 14 26 6 27 12 28 7 29 10 30 15 31 13 33 8 35 9 36 11 38
REMARK H PARENT 21 20 31 22 28 24 15 32 13 34 9 37 11 39
REMARK Flexibility Score: inf
ROOT
ATOM      1  O   UNL     1      -8.153  24.951  -9.022  1.00  0.00    -0.454 OA
ENDROOT
BRANCH   1   2
ATOM      2  C   UNL     1      -6.920  25.540  -9.371  1.00  0.00     0.214 A 
ATOM      3  C   UNL     1      -5.768  25.126  -8.674  1.00  0.00     0.180 A 
ATOM      4  O   UNL     1      -4.574  25.606  -9.005  1.00  0.00    -0.452 OA
ATOM      5  C   UNL     1      -6.769  26.501 -10.400  1.00  0.00     0.239 A 
ATOM      6  C   UNL     1      -4.387  26.501  -9.966  1.00  0.00     0.146 A 
ATOM      7  O   UNL     1      -7.772  26.917 -11.038  1.00  0.00    -0.285 OA
ATOM      8  C   UNL     1      -5.482  26.996 -10.710  1.00  0.00     0.111 A 
ATOM      9  C   UNL     1      -3.092  26.955 -10.231  1.00  0.00     0.094 A 
ATOM     10  C   UNL     1      -5.248  27.956 -11.727  1.00  0.00     0.134 A 
ATOM     11  C   UNL     1      -2.866  27.907 -11.229  1.00  0.00     0.123 A 
ATOM     12  C   UNL     1      -3.940  28.403 -11.972  1.00  0.00     0.093 A 
BRANCH   3  13
ATOM     13  C   UNL     1      -5.837  24.136  -7.574  1.00  0.00     0.021 A 
ATOM     14  C   UNL     1      -5.069  22.963  -7.649  1.00  0.00     0.016 A 
ATOM     15  C   UNL     1      -5.110  22.024  -6.614  1.00  0.00     0.047 A 
ATOM     16  C   UNL     1      -5.902  22.256  -5.484  1.00  0.00     0.115 A 
ATOM     17  C   UNL     1      -6.613  24.375  -6.427  1.00  0.00     0.016 A 
ATOM     18  C   UNL     1      -6.652  23.435  -5.392  1.00  0.00     0.047 A 
BRANCH  16  19
ATOM     19  O   UNL     1      -5.932  21.312  -4.461  1.00  0.00    -0.508 OA
ATOM     20  H   UNL     1      -6.009  21.586  -3.487  1.00  0.00     0.293 HD
ENDBRANCH  16  19
ENDBRANCH   3  13
BRANCH  10  21
ATOM     21  O   UNL     1      -6.297  28.470 -12.490  1.00  0.00    -0.507 OA
ATOM     22  H   UNL     1      -6.137  29.131 -13.241  1.00  0.00     0.293 HD
ENDBRANCH  10  21
BRANCH  11  23
ATOM     23  O   UNL     1      -1.578  28.375 -11.487  1.00  0.00    -0.508 OA
ATOM     24  H   UNL     1      -1.184  28.352 -12.421  1.00  0.00     0.293 HD
ENDBRANCH  11  23
ENDBRANCH   1   2
BRANCH   1  25
ATOM     25  C   UNL     1      -9.036  24.207  -9.871  1.00  0.00     0.339 C 
ATOM     26  C   UNL     1      -8.222  23.331 -10.844  1.00  0.00     0.214 C 
ATOM     27  O   UNL     1      -9.948  23.420  -9.117  1.00  0.00    -0.332 OA
ATOM     28  C   UNL     1      -7.486  22.223 -10.069  1.00  0.00     0.180 C 
ATOM     29  C   UNL     1      -9.278  22.474  -8.297  1.00  0.00     0.179 C 
ATOM     30  C   UNL     1      -8.472  21.468  -9.161  1.00  0.00     0.177 C 
BRANCH  26  31
ATOM     31  O   UNL     1      -9.080  22.752 -11.795  1.00  0.00    -0.384 OA
ATOM     32  H   UNL     1      -8.979  23.278 -12.631  1.00  0.00     0.211 HD
ENDBRANCH  26  31
BRANCH  28  33
ATOM     33  O   UNL     1      -6.883  21.321 -10.962  1.00  0.00    -0.387 OA
ATOM     34  H   UNL     1      -7.428  21.337 -11.792  1.00  0.00     0.211 HD
ENDBRANCH  28  33
BRANCH  29  35
ATOM     35  C   UNL     1     -10.321  21.754  -7.432  1.00  0.00     0.191 C 
BRANCH  35  36
ATOM     36  O   UNL     1      -9.693  21.022  -6.412  1.00  0.00    -0.394 OA
ATOM     37  H   UNL     1      -9.322  21.691  -5.780  1.00  0.00     0.210 HD
ENDBRANCH  35  36
ENDBRANCH  29  35
BRANCH  30  38
ATOM     38  O   UNL     1      -7.789  20.537  -8.356  1.00  0.00    -0.387 OA
ATOM     39  H   UNL     1      -6.816  20.641  -8.533  1.00  0.00     0.211 HD
ENDBRANCH  30  38
ENDBRANCH   1  25
TORSDOF 11
ENDMDL
MODEL 4
REMARK VINA RESULT:    -5.498      1.170      2.015
REMARK INTER + INTRA:          -9.138
REMARK INTER:                  -8.659
REMARK INTRA:                  -0.479
REMARK UNBOUND:                -1.230
REMARK SMILES O=c1c(O[C@@H]2O[C@@H](CO)[C@H](O)[C@@H](O)[C@H]2O)c(-c2ccc(O)cc2)oc2cc(O)cc(O)c12
REMARK SMILES IDX 4 1 3 2 16 3 24 4 2 5 25 6 1 7 32 8 26 9 30 10 27 11 29 12
REMARK SMILES IDX 17 13 18 14 19 15 20 16 23 17 22 18 21 19 31 21 28 23 5 25
REMARK SMILES IDX 14 26 6 27 12 28 7 29 10 30 15 31 13 33 8 35 9 36 11 38
REMARK H PARENT 21 20 31 22 28 24 15 32 13 34 9 37 11 39
REMARK Flexibility Score: inf
ROOT
ATOM      1  O   UNL     1      -6.570  24.041  -9.348  1.00  0.00    -0.454 OA
ENDROOT
BRANCH   1   2
ATOM      2  C   UNL     1      -5.320  24.687  -9.450  1.00  0.00     0.214 A 
ATOM      3  C   UNL     1      -4.160  23.929  -9.193  1.00  0.00     0.180 A 
ATOM      4  O   UNL     1      -2.957  24.474  -9.334  1.00  0.00    -0.452 OA
ATOM      5  C   UNL     1      -5.162  26.043  -9.823  1.00  0.00     0.239 A 
ATOM      6  C   UNL     1      -2.765  25.738  -9.688  1.00  0.00     0.146 A 
ATOM      7  O   UNL     1      -6.170  26.766 -10.043  1.00  0.00    -0.285 OA
ATOM      8  C   UNL     1      -3.864  26.587  -9.947  1.00  0.00     0.111 A 
ATOM      9  C   UNL     1      -1.458  26.223  -9.796  1.00  0.00     0.094 A 
ATOM     10  C   UNL     1      -3.623  27.934 -10.318  1.00  0.00     0.134 A 
ATOM     11  C   UNL     1      -1.225  27.554 -10.155  1.00  0.00     0.123 A 
ATOM     12  C   UNL     1      -2.303  28.403 -10.415  1.00  0.00     0.093 A 
BRANCH   3  13
ATOM     13  C   UNL     1      -4.234  22.508  -8.784  1.00  0.00     0.021 A 
ATOM     14  C   UNL     1      -4.999  21.607  -9.543  1.00  0.00     0.016 A 
ATOM     15  C   UNL     1      -5.069  20.258  -9.181  1.00  0.00     0.047 A 
ATOM     16  C   UNL     1      -4.360  19.790  -8.069  1.00  0.00     0.115 A 
ATOM     17  C   UNL     1      -3.506  22.027  -7.681  1.00  0.00     0.016 A 
ATOM     18  C   UNL     1      -3.576  20.678  -7.321  1.00  0.00     0.047 A 
BRANCH  16  19
ATOM     19  O   UNL     1      -4.439  18.444  -7.721  1.00  0.00    -0.508 OA
ATOM     20  H   UNL     1      -4.924  17.772  -8.305  1.00  0.00     0.293 HD
ENDBRANCH  16  19
ENDBRANCH   3  13
BRANCH  10  21
ATOM     21  O   UNL     1      -4.677  28.809 -10.588  1.00  0.00    -0.507 OA
ATOM     22  H   UNL     1      -5.415  28.571 -11.239  1.00  0.00     0.293 HD
ENDBRANCH  10  21
BRANCH  11  23
ATOM     23  O   UNL     1       0.076  28.047 -10.250  1.00  0.00    -0.508 OA
ATOM     24  H   UNL     1       0.865  27.538  -9.866  1.00  0.00     0.293 HD
ENDBRANCH  11  23
ENDBRANCH   1   2
BRANCH   1  25
ATOM     25  C   UNL     1      -7.675  24.130 -10.257  1.00  0.00     0.339 C 
ATOM     26  C   UNL     1      -8.170  22.718 -10.630  1.00  0.00     0.214 C 
ATOM     27  O   UNL     1      -8.731  24.916  -9.721  1.00  0.00    -0.332 OA
ATOM     28  C   UNL     1      -8.797  22.036  -9.400  1.00  0.00     0.180 C 
ATOM     29  C   UNL     1      -9.239  24.367  -8.514  1.00  0.00     0.179 C 
ATOM     30  C   UNL     1      -9.847  22.961  -8.760  1.00  0.00     0.177 C 
BRANCH  26  31
ATOM     31  O   UNL     1      -9.122  22.804 -11.660  1.00  0.00    -0.384 OA
ATOM     32  H   UNL     1      -8.721  22.370 -12.458  1.00  0.00     0.211 HD
ENDBRANCH  26  31
BRANCH  28  33
ATOM     33  O   UNL     1      -9.402  20.823  -9.772  1.00  0.00    -0.387 OA
ATOM     34  H   UNL     1      -8.731  20.324 -10.306  1.00  0.00     0.211 HD
ENDBRANCH  28  33
BRANCH  29  35
ATOM     35  C   UNL     1     -10.285  25.334  -7.942  1.00  0.00     0.191 C 
BRANCH  35  36
ATOM     36  O   UNL     1     -11.242  25.656  -8.917  1.00  0.00    -0.394 OA
ATOM     37  H   UNL     1     -11.734  24.817  -9.110  1.00  0.00     0.210 HD
ENDBRANCH  35  36
ENDBRANCH  29  35
BRANCH  30  38
ATOM     38  O   UNL     1     -10.337  22.401  -7.566  1.00  0.00    -0.387 OA
ATOM     39  H   UNL     1      -9.685  22.608  -6.846  1.00  0.00     0.211 HD
ENDBRANCH  30  38
ENDBRANCH   1  25
TORSDOF 11
ENDMDL
MODEL 5
REMARK VINA RESULT:    -5.490      1.670      1.915
REMARK INTER + INTRA:          -9.128
REMARK INTER:                  -7.865
REMARK INTRA:                  -1.263
REMARK UNBOUND:                -1.230
REMARK SMILES O=c1c(O[C@@H]2O[C@@H](CO)[C@H](O)[C@@H](O)[C@H]2O)c(-c2ccc(O)cc2)oc2cc(O)cc(O)c12
REMARK SMILES IDX 4 1 3 2 16 3 24 4 2 5 25 6 1 7 32 8 26 9 30 10 27 11 29 12
REMARK SMILES IDX 17 13 18 14 19 15 20 16 23 17 22 18 21 19 31 21 28 23 5 25
REMARK SMILES IDX 14 26 6 27 12 28 7 29 10 30 15 31 13 33 8 35 9 36 11 38
REMARK H PARENT 21 20 31 22 28 24 15 32 13 34 9 37 11 39
REMARK Flexibility Score: inf
ROOT
ATOM      1  O   UNL     1      -6.309  24.123  -8.836  1.00  0.00    -0.454 OA
ENDROOT
BRANCH   1   2
ATOM      2  C   UNL     1      -5.199  24.803  -8.293  1.00  0.00     0.214 A 
ATOM      3  C   UNL     1      -4.148  24.032  -7.757  1.00  0.00     0.180 A 
ATOM      4  O   UNL     1      -3.054  24.622  -7.288  1.00  0.00    -0.452 OA
ATOM      5  C   UNL     1      -5.066  26.212  -8.282  1.00  0.00     0.239 A 
ATOM      6  C   UNL     1      -2.886  25.938  -7.265  1.00  0.00     0.146 A 
ATOM      7  O   UNL     1      -5.987  26.944  -8.731  1.00  0.00    -0.285 OA
ATOM      8  C   UNL     1      -3.891  26.799  -7.761  1.00  0.00     0.111 A 
ATOM      9  C   UNL     1      -1.703  26.464  -6.738  1.00  0.00     0.094 A 
ATOM     10  C   UNL     1      -3.682  28.201  -7.716  1.00  0.00     0.134 A 
ATOM     11  C   UNL     1      -1.503  27.847  -6.690  1.00  0.00     0.123 A 
ATOM     12  C   UNL     1      -2.489  28.709  -7.177  1.00  0.00     0.093 A 
BRANCH   3  13
ATOM     13  C   UNL     1      -4.210  22.553  -7.716  1.00  0.00     0.021 A 
ATOM     14  C   UNL     1      -3.881  21.813  -8.863  1.00  0.00     0.016 A 
ATOM     15  C   UNL     1      -3.920  20.416  -8.839  1.00  0.00     0.047 A 
ATOM     16  C   UNL     1      -4.268  19.742  -7.664  1.00  0.00     0.115 A 
ATOM     17  C   UNL     1      -4.537  21.870  -6.531  1.00  0.00     0.016 A 
ATOM     18  C   UNL     1      -4.574  20.472  -6.509  1.00  0.00     0.047 A 
BRANCH  16  19
ATOM     19  O   UNL     1      -4.302  18.349  -7.655  1.00  0.00    -0.508 OA
ATOM     20  H   UNL     1      -4.410  17.816  -8.510  1.00  0.00     0.293 HD
ENDBRANCH  16  19
ENDBRANCH   3  13
BRANCH  10  21
ATOM     21  O   UNL     1      -4.643  29.091  -8.197  1.00  0.00    -0.507 OA
ATOM     22  H   UNL     1      -4.406  30.037  -8.470  1.00  0.00     0.293 HD
ENDBRANCH  10  21
BRANCH  11  23
ATOM     23  O   UNL     1      -0.332  28.377  -6.152  1.00  0.00    -0.508 OA
ATOM     24  H   UNL     1       0.050  29.258  -6.479  1.00  0.00     0.293 HD
ENDBRANCH  11  23
ENDBRANCH   1   2
BRANCH   1  25
ATOM     25  C   UNL     1      -7.695  24.345  -8.547  1.00  0.00     0.339 C 
ATOM     26  C   UNL     1      -8.545  24.112  -9.813  1.00  0.00     0.214 C 
ATOM     27  O   UNL     1      -8.143  23.527  -7.474  1.00  0.00    -0.332 OA
ATOM     28  C   UNL     1      -8.514  22.623 -10.203  1.00  0.00     0.180 C 
ATOM     29  C   UNL     1      -8.005  22.145  -7.769  1.00  0.00     0.179 C 
ATOM     30  C   UNL     1      -8.878  21.751  -8.989  1.00  0.00     0.177 C 
BRANCH  26  31
ATOM     31  O   UNL     1      -9.871  24.512  -9.576  1.00  0.00    -0.384 OA
ATOM     32  H   UNL     1     -10.369  23.702  -9.292  1.00  0.00     0.211 HD
ENDBRANCH  26  31
BRANCH  28  33
ATOM     33  O   UNL     1      -9.420  22.375 -11.249  1.00  0.00    -0.387 OA
ATOM     34  H   UNL     1      -9.867  23.239 -11.447  1.00  0.00     0.211 HD
ENDBRANCH  28  33
BRANCH  29  35
ATOM     35  C   UNL     1      -8.394  21.340  -6.521  1.00  0.00     0.191 C 
BRANCH  35  36
ATOM     36  O   UNL     1      -9.748  20.973  -6.576  1.00  0.00    -0.394 OA
ATOM     37  H   UNL     1      -9.816  20.100  -6.110  1.00  0.00     0.210 HD
ENDBRANCH  35  36
ENDBRANCH  29  35
BRANCH  30  38
ATOM     38  O   UNL     1      -8.733  20.386  -9.300  1.00  0.00    -0.387 OA
ATOM     39  H   UNL     1      -7.820  20.256  -9.670  1.00  0.00     0.211 HD
ENDBRANCH  30  38
ENDBRANCH   1  25
TORSDOF 11
ENDMDL
MODEL 6
REMARK VINA RESULT:    -5.459      2.553      5.017
REMARK INTER + INTRA:          -9.082
REMARK INTER:                  -8.608
REMARK INTRA:                  -0.475
REMARK UNBOUND:                -1.230
REMARK SMILES O=c1c(O[C@@H]2O[C@@H](CO)[C@H](O)[C@@H](O)[C@H]2O)c(-c2ccc(O)cc2)oc2cc(O)cc(O)c12
REMARK SMILES IDX 4 1 3 2 16 3 24 4 2 5 25 6 1 7 32 8 26 9 30 10 27 11 29 12
REMARK SMILES IDX 17 13 18 14 19 15 20 16 23 17 22 18 21 19 31 21 28 23 5 25
REMARK SMILES IDX 14 26 6 27 12 28 7 29 10 30 15 31 13 33 8 35 9 36 11 38
REMARK H PARENT 21 20 31 22 28 24 15 32 13 34 9 37 11 39
REMARK Flexibility Score: inf
ROOT
ATOM      1  O   UNL     1      -4.727  21.718  -9.609  1.00  0.00    -0.454 OA
ENDROOT
BRANCH   1   2
ATOM      2  C   UNL     1      -5.371  22.972  -9.629  1.00  0.00     0.214 A 
ATOM      3  C   UNL     1      -4.682  24.079  -9.092  1.00  0.00     0.180 A 
ATOM      4  O   UNL     1      -5.220  25.292  -9.140  1.00  0.00    -0.452 OA
ATOM      5  C   UNL     1      -6.655  23.190 -10.182  1.00  0.00     0.239 A 
ATOM      6  C   UNL     1      -6.417  25.541  -9.656  1.00  0.00     0.146 A 
ATOM      7  O   UNL     1      -7.318  22.229 -10.656  1.00  0.00    -0.285 OA
ATOM      8  C   UNL     1      -7.196  24.495 -10.201  1.00  0.00     0.111 A 
ATOM      9  C   UNL     1      -6.902  26.852  -9.648  1.00  0.00     0.094 A 
ATOM     10  C   UNL     1      -8.473  24.796 -10.739  1.00  0.00     0.134 A 
ATOM     11  C   UNL     1      -8.165  27.142 -10.173  1.00  0.00     0.123 A 
ATOM     12  C   UNL     1      -8.944  26.118 -10.716  1.00  0.00     0.093 A 
BRANCH   3  13
ATOM     13  C   UNL     1      -3.341  23.938  -8.480  1.00  0.00     0.021 A 
ATOM     14  C   UNL     1      -2.239  23.624  -9.292  1.00  0.00     0.016 A 
ATOM     15  C   UNL     1      -0.962  23.502  -8.735  1.00  0.00     0.047 A 
ATOM     16  C   UNL     1      -0.768  23.712  -7.366  1.00  0.00     0.115 A 
ATOM     17  C   UNL     1      -3.137  24.170  -7.109  1.00  0.00     0.016 A 
ATOM     18  C   UNL     1      -1.859  24.048  -6.554  1.00  0.00     0.047 A 
BRANCH  16  19
ATOM     19  O   UNL     1       0.509  23.587  -6.825  1.00  0.00    -0.508 OA
ATOM     20  H   UNL     1       1.091  22.779  -7.019  1.00  0.00     0.293 HD
ENDBRANCH  16  19
ENDBRANCH   3  13
BRANCH  10  21
ATOM     21  O   UNL     1      -9.276  23.797 -11.292  1.00  0.00    -0.507 OA
ATOM     22  H   UNL     1     -10.030  23.367 -10.769  1.00  0.00     0.293 HD
ENDBRANCH  10  21
BRANCH  11  23
ATOM     23  O   UNL     1      -8.659  28.445 -10.154  1.00  0.00    -0.508 OA
ATOM     24  H   UNL     1      -9.651  28.637 -10.246  1.00  0.00     0.293 HD
ENDBRANCH  11  23
ENDBRANCH   1   2
BRANCH   1  25
ATOM     25  C   UNL     1      -5.211  20.497  -9.036  1.00  0.00     0.339 C 
ATOM     26  C   UNL     1      -4.057  19.737  -8.352  1.00  0.00     0.214 C 
ATOM     27  O   UNL     1      -6.277  20.733  -8.126  1.00  0.00    -0.332 OA
ATOM     28  C   UNL     1      -3.567  20.519  -7.119  1.00  0.00     0.180 C 
ATOM     29  C   UNL     1      -5.874  21.559  -7.043  1.00  0.00     0.179 C 
ATOM     30  C   UNL     1      -4.757  20.876  -6.212  1.00  0.00     0.177 C 
BRANCH  26  31
ATOM     31  O   UNL     1      -4.493  18.460  -7.959  1.00  0.00    -0.384 OA
ATOM     32  H   UNL     1      -4.275  17.841  -8.705  1.00  0.00     0.211 HD
ENDBRANCH  26  31
BRANCH  28  33
ATOM     33  O   UNL     1      -2.636  19.754  -6.395  1.00  0.00    -0.387 OA
ATOM     34  H   UNL     1      -3.017  19.630  -5.487  1.00  0.00     0.211 HD
ENDBRANCH  28  33
BRANCH  29  35
ATOM     35  C   UNL     1      -7.106  21.863  -6.179  1.00  0.00     0.191 C 
BRANCH  35  36
ATOM     36  O   UNL     1      -8.084  20.870  -6.350  1.00  0.00    -0.394 OA
ATOM     37  H   UNL     1      -8.923  21.241  -5.973  1.00  0.00     0.210 HD
ENDBRANCH  35  36
ENDBRANCH  29  35
BRANCH  30  38
ATOM     38  O   UNL     1      -4.339  21.695  -5.148  1.00  0.00    -0.387 OA
ATOM     39  H   UNL     1      -3.614  21.216  -4.665  1.00  0.00     0.211 HD
ENDBRANCH  30  38
ENDBRANCH   1  25
TORSDOF 11
ENDMDL
MODEL 7
REMARK VINA RESULT:    -5.245      1.996      4.637
REMARK INTER + INTRA:          -8.774
REMARK INTER:                  -7.736
REMARK INTRA:                  -1.039
REMARK UNBOUND:                -1.230
REMARK SMILES O=c1c(O[C@@H]2O[C@@H](CO)[C@H](O)[C@@H](O)[C@H]2O)c(-c2ccc(O)cc2)oc2cc(O)cc(O)c12
REMARK SMILES IDX 4 1 3 2 16 3 24 4 2 5 25 6 1 7 32 8 26 9 30 10 27 11 29 12
REMARK SMILES IDX 17 13 18 14 19 15 20 16 23 17 22 18 21 19 31 21 28 23 5 25
REMARK SMILES IDX 14 26 6 27 12 28 7 29 10 30 15 31 13 33 8 35 9 36 11 38
REMARK H PARENT 21 20 31 22 28 24 15 32 13 34 9 37 11 39
REMARK Flexibility Score: inf
ROOT
ATOM      1  O   UNL     1      -7.004  24.076 -10.043  1.00  0.00    -0.454 OA
ENDROOT
BRANCH   1   2
ATOM      2  C   UNL     1      -5.754  24.709  -9.885  1.00  0.00     0.214 A 
ATOM      3  C   UNL     1      -5.712  26.116  -9.947  1.00  0.00     0.180 A 
ATOM      4  O   UNL     1      -4.569  26.763  -9.745  1.00  0.00    -0.452 OA
ATOM      5  C   UNL     1      -4.545  24.015  -9.638  1.00  0.00     0.239 A 
ATOM      6  C   UNL     1      -3.416  26.153  -9.505  1.00  0.00     0.146 A 
ATOM      7  O   UNL     1      -4.528  22.757  -9.594  1.00  0.00    -0.285 OA
ATOM      8  C   UNL     1      -3.349  24.742  -9.443  1.00  0.00     0.111 A 
ATOM      9  C   UNL     1      -2.264  26.923  -9.318  1.00  0.00     0.094 A 
ATOM     10  C   UNL     1      -2.100  24.122  -9.190  1.00  0.00     0.134 A 
ATOM     11  C   UNL     1      -1.033  26.307  -9.075  1.00  0.00     0.123 A 
ATOM     12  C   UNL     1      -0.954  24.913  -9.011  1.00  0.00     0.093 A 
BRANCH   3  13
ATOM     13  C   UNL     1      -6.926  26.920 -10.214  1.00  0.00     0.021 A 
ATOM     14  C   UNL     1      -7.514  26.884 -11.489  1.00  0.00     0.016 A 
ATOM     15  C   UNL     1      -8.670  27.624 -11.756  1.00  0.00     0.047 A 
ATOM     16  C   UNL     1      -9.262  28.393 -10.749  1.00  0.00     0.115 A 
ATOM     17  C   UNL     1      -7.538  27.677  -9.199  1.00  0.00     0.016 A 
ATOM     18  C   UNL     1      -8.695  28.416  -9.469  1.00  0.00     0.047 A 
BRANCH  16  19
ATOM     19  O   UNL     1     -10.413  29.125 -11.030  1.00  0.00    -0.508 OA
ATOM     20  H   UNL     1     -10.406  29.889 -11.696  1.00  0.00     0.293 HD
ENDBRANCH  16  19
ENDBRANCH   3  13
BRANCH  10  21
ATOM     21  O   UNL     1      -1.985  22.733  -9.116  1.00  0.00    -0.507 OA
ATOM     22  H   UNL     1      -2.748  22.119  -9.374  1.00  0.00     0.293 HD
ENDBRANCH  10  21
BRANCH  11  23
ATOM     23  O   UNL     1       0.121  27.069  -8.904  1.00  0.00    -0.508 OA
ATOM     24  H   UNL     1       0.136  28.062  -9.110  1.00  0.00     0.293 HD
ENDBRANCH  11  23
ENDBRANCH   1   2
BRANCH   1  25
ATOM     25  C   UNL     1      -8.109  24.087  -9.130  1.00  0.00     0.339 C 
ATOM     26  C   UNL     1      -9.381  23.567  -9.830  1.00  0.00     0.214 C 
ATOM     27  O   UNL     1      -7.827  23.333  -7.958  1.00  0.00    -0.332 OA
ATOM     28  C   UNL     1      -9.228  22.071 -10.160  1.00  0.00     0.180 C 
ATOM     29  C   UNL     1      -7.560  21.971  -8.257  1.00  0.00     0.179 C 
ATOM     30  C   UNL     1      -8.797  21.294  -8.904  1.00  0.00     0.177 C 
BRANCH  26  31
ATOM     31  O   UNL     1     -10.496  23.757  -8.996  1.00  0.00    -0.384 OA
ATOM     32  H   UNL     1     -11.026  24.498  -9.390  1.00  0.00     0.211 HD
ENDBRANCH  26  31
BRANCH  28  33
ATOM     33  O   UNL     1     -10.443  21.551 -10.640  1.00  0.00    -0.387 OA
ATOM     34  H   UNL     1     -10.215  20.752 -11.183  1.00  0.00     0.211 HD
ENDBRANCH  28  33
BRANCH  29  35
ATOM     35  C   UNL     1      -7.149  21.260  -6.961  1.00  0.00     0.191 C 
BRANCH  35  36
ATOM     36  O   UNL     1      -8.284  20.852  -6.243  1.00  0.00    -0.394 OA
ATOM     37  H   UNL     1      -7.950  20.466  -5.392  1.00  0.00     0.210 HD
ENDBRANCH  35  36
ENDBRANCH  29  35
BRANCH  30  38
ATOM     38  O   UNL     1      -8.535  19.948  -9.220  1.00  0.00    -0.387 OA
ATOM     39  H   UNL     1      -7.895  19.936  -9.980  1.00  0.00     0.211 HD
ENDBRANCH  30  38
ENDBRANCH   1  25
TORSDOF 11
ENDMDL
MODEL 8
REMARK VINA RESULT:    -5.223      1.645      2.360
REMARK INTER + INTRA:          -8.743
REMARK INTER:                  -7.199
REMARK INTRA:                  -1.544
REMARK UNBOUND:                -1.230
REMARK SMILES O=c1c(O[C@@H]2O[C@@H](CO)[C@H](O)[C@@H](O)[C@H]2O)c(-c2ccc(O)cc2)oc2cc(O)cc(O)c12
REMARK SMILES IDX 4 1 3 2 16 3 24 4 2 5 25 6 1 7 32 8 26 9 30 10 27 11 29 12
REMARK SMILES IDX 17 13 18 14 19 15 20 16 23 17 22 18 21 19 31 21 28 23 5 25
REMARK SMILES IDX 14 26 6 27 12 28 7 29 10 30 15 31 13 33 8 35 9 36 11 38
REMARK H PARENT 21 20 31 22 28 24 15 32 13 34 9 37 11 39
REMARK Flexibility Score: inf
ROOT
ATOM      1  O   UNL     1      -6.665  25.142  -8.956  1.00  0.00    -0.454 OA
ENDROOT
BRANCH   1   2
ATOM      2  C   UNL     1      -5.276  25.331  -9.114  1.00  0.00     0.214 A 
ATOM      3  C   UNL     1      -4.477  24.196  -9.357  1.00  0.00     0.180 A 
ATOM      4  O   UNL     1      -3.172  24.327  -9.572  1.00  0.00    -0.452 OA
ATOM      5  C   UNL     1      -4.643  26.596  -9.072  1.00  0.00     0.239 A 
ATOM      6  C   UNL     1      -2.542  25.494  -9.549  1.00  0.00     0.146 A 
ATOM      7  O   UNL     1      -5.312  27.638  -8.839  1.00  0.00    -0.285 OA
ATOM      8  C   UNL     1      -3.251  26.689  -9.293  1.00  0.00     0.111 A 
ATOM      9  C   UNL     1      -1.162  25.525  -9.775  1.00  0.00     0.094 A 
ATOM     10  C   UNL     1      -2.544  27.918  -9.271  1.00  0.00     0.134 A 
ATOM     11  C   UNL     1      -0.469  26.739  -9.745  1.00  0.00     0.123 A 
ATOM     12  C   UNL     1      -1.159  27.928  -9.494  1.00  0.00     0.093 A 
BRANCH   3  13
ATOM     13  C   UNL     1      -5.054  22.833  -9.402  1.00  0.00     0.021 A 
ATOM     14  C   UNL     1      -5.852  22.455 -10.494  1.00  0.00     0.016 A 
ATOM     15  C   UNL     1      -6.394  21.168 -10.562  1.00  0.00     0.047 A 
ATOM     16  C   UNL     1      -6.128  20.238  -9.551  1.00  0.00     0.115 A 
ATOM     17  C   UNL     1      -4.772  21.887  -8.400  1.00  0.00     0.016 A 
ATOM     18  C   UNL     1      -5.314  20.600  -8.471  1.00  0.00     0.047 A 
BRANCH  16  19
ATOM     19  O   UNL     1      -6.674  18.959  -9.633  1.00  0.00    -0.508 OA
ATOM     20  H   UNL     1      -7.226  18.569  -8.877  1.00  0.00     0.293 HD
ENDBRANCH  16  19
ENDBRANCH   3  13
BRANCH  10  21
ATOM     21  O   UNL     1      -3.202  29.125  -9.027  1.00  0.00    -0.507 OA
ATOM     22  H   UNL     1      -3.943  29.200  -8.339  1.00  0.00     0.293 HD
ENDBRANCH  10  21
BRANCH  11  23
ATOM     23  O   UNL     1       0.909  26.775  -9.955  1.00  0.00    -0.508 OA
ATOM     24  H   UNL     1       1.432  25.938 -10.188  1.00  0.00     0.293 HD
ENDBRANCH  11  23
ENDBRANCH   1   2
BRANCH   1  25
ATOM     25  C   UNL     1      -7.432  25.271  -7.752  1.00  0.00     0.339 C 
ATOM     26  C   UNL     1      -8.727  26.061  -8.030  1.00  0.00     0.214 C 
ATOM     27  O   UNL     1      -7.721  24.004  -7.177  1.00  0.00    -0.332 OA
ATOM     28  C   UNL     1      -9.660  25.241  -8.940  1.00  0.00     0.180 C 
ATOM     29  C   UNL     1      -8.477  23.185  -8.055  1.00  0.00     0.179 C 
ATOM     30  C   UNL     1      -9.855  23.829  -8.363  1.00  0.00     0.177 C 
BRANCH  26  31
ATOM     31  O   UNL     1      -9.379  26.349  -6.819  1.00  0.00    -0.384 OA
ATOM     32  H   UNL     1      -9.940  27.152  -6.980  1.00  0.00     0.211 HD
ENDBRANCH  26  31
BRANCH  28  33
ATOM     33  O   UNL     1     -10.908  25.878  -9.057  1.00  0.00    -0.387 OA
ATOM     34  H   UNL     1     -11.147  25.857 -10.021  1.00  0.00     0.211 HD
ENDBRANCH  28  33
BRANCH  29  35
ATOM     35  C   UNL     1      -8.640  21.801  -7.411  1.00  0.00     0.191 C 
BRANCH  35  36
ATOM     36  O   UNL     1      -9.064  20.862  -8.364  1.00  0.00    -0.394 OA
ATOM     37  H   UNL     1      -8.381  20.142  -8.365  1.00  0.00     0.210 HD
ENDBRANCH  35  36
ENDBRANCH  29  35
BRANCH  30  38
ATOM     38  O   UNL     1     -10.605  23.032  -9.247  1.00  0.00    -0.387 OA
ATOM     39  H   UNL     1     -11.032  22.310  -8.714  1.00  0.00     0.211 HD
ENDBRANCH  30  38
ENDBRANCH   1  25
TORSDOF 11
ENDMDL
MODEL 9
REMARK VINA RESULT:    -5.155      2.774      5.576
REMARK INTER + INTRA:          -8.646
REMARK INTER:                  -7.622
REMARK INTRA:                  -1.023
REMARK UNBOUND:                -1.230
REMARK SMILES O=c1c(O[C@@H]2O[C@@H](CO)[C@H](O)[C@@H](O)[C@H]2O)c(-c2ccc(O)cc2)oc2cc(O)cc(O)c12
REMARK SMILES IDX 4 1 3 2 16 3 24 4 2 5 25 6 1 7 32 8 26 9 30 10 27 11 29 12
REMARK SMILES IDX 17 13 18 14 19 15 20 16 23 17 22 18 21 19 31 21 28 23 5 25
REMARK SMILES IDX 14 26 6 27 12 28 7 29 10 30 15 31 13 33 8 35 9 36 11 38
REMARK H PARENT 21 20 31 22 28 24 15 32 13 34 9 37 11 39
REMARK Flexibility Score: inf
ROOT
ATOM      1  O   UNL     1      -6.550  21.970  -8.829  1.00  0.00    -0.454 OA
ENDROOT
BRANCH   1   2
ATOM      2  C   UNL     1      -5.456  22.447  -8.077  1.00  0.00     0.214 A 
ATOM      3  C   UNL     1      -5.315  23.841  -7.924  1.00  0.00     0.180 A 
ATOM      4  O   UNL     1      -4.336  24.338  -7.175  1.00  0.00    -0.452 OA
ATOM      5  C   UNL     1      -4.509  21.606  -7.444  1.00  0.00     0.239 A 
ATOM      6  C   UNL     1      -3.433  23.586  -6.560  1.00  0.00     0.146 A 
ATOM      7  O   UNL     1      -4.582  20.355  -7.568  1.00  0.00    -0.285 OA
ATOM      8  C   UNL     1      -3.476  22.178  -6.668  1.00  0.00     0.111 A 
ATOM      9  C   UNL     1      -2.433  24.206  -5.805  1.00  0.00     0.094 A 
ATOM     10  C   UNL     1      -2.492  21.405  -6.001  1.00  0.00     0.134 A 
ATOM     11  C   UNL     1      -1.461  23.440  -5.155  1.00  0.00     0.123 A 
ATOM     12  C   UNL     1      -1.493  22.047  -5.254  1.00  0.00     0.093 A 
BRANCH   3  13
ATOM     13  C   UNL     1      -6.252  24.792  -8.564  1.00  0.00     0.021 A 
ATOM     14  C   UNL     1      -6.875  25.781  -7.785  1.00  0.00     0.016 A 
ATOM     15  C   UNL     1      -7.751  26.698  -8.373  1.00  0.00     0.047 A 
ATOM     16  C   UNL     1      -7.998  26.651  -9.749  1.00  0.00     0.115 A 
ATOM     17  C   UNL     1      -6.486  24.764  -9.950  1.00  0.00     0.016 A 
ATOM     18  C   UNL     1      -7.362  25.683 -10.537  1.00  0.00     0.047 A 
BRANCH  16  19
ATOM     19  O   UNL     1      -8.873  27.571 -10.322  1.00  0.00    -0.508 OA
ATOM     20  H   UNL     1      -9.661  27.947  -9.806  1.00  0.00     0.293 HD
ENDBRANCH  16  19
ENDBRANCH   3  13
BRANCH  10  21
ATOM     21  O   UNL     1      -2.496  20.011  -6.076  1.00  0.00    -0.507 OA
ATOM     22  H   UNL     1      -1.738  19.497  -6.509  1.00  0.00     0.293 HD
ENDBRANCH  10  21
BRANCH  11  23
ATOM     23  O   UNL     1      -0.452  24.054  -4.413  1.00  0.00    -0.508 OA
ATOM     24  H   UNL     1       0.522  23.799  -4.531  1.00  0.00     0.293 HD
ENDBRANCH  11  23
ENDBRANCH   1   2
BRANCH   1  25
ATOM     25  C   UNL     1      -7.635  21.153  -8.370  1.00  0.00     0.339 C 
ATOM     26  C   UNL     1      -8.294  21.794  -7.133  1.00  0.00     0.214 C 
ATOM     27  O   UNL     1      -8.590  20.926  -9.398  1.00  0.00    -0.332 OA
ATOM     28  C   UNL     1      -9.001  23.104  -7.529  1.00  0.00     0.180 C 
ATOM     29  C   UNL     1      -9.163  22.139  -9.865  1.00  0.00     0.179 C 
ATOM     30  C   UNL     1      -9.934  22.860  -8.728  1.00  0.00     0.177 C 
BRANCH  26  31
ATOM     31  O   UNL     1      -9.228  20.904  -6.575  1.00  0.00    -0.384 OA
ATOM     32  H   UNL     1      -8.738  20.358  -5.906  1.00  0.00     0.211 HD
ENDBRANCH  26  31
BRANCH  28  33
ATOM     33  O   UNL     1      -9.746  23.602  -6.447  1.00  0.00    -0.387 OA
ATOM     34  H   UNL     1     -10.699  23.404  -6.644  1.00  0.00     0.211 HD
ENDBRANCH  28  33
BRANCH  29  35
ATOM     35  C   UNL     1     -10.086  21.817 -11.048  1.00  0.00     0.191 C 
BRANCH  35  36
ATOM     36  O   UNL     1      -9.619  22.435 -12.219  1.00  0.00    -0.394 OA
ATOM     37  H   UNL     1      -9.732  21.770 -12.946  1.00  0.00     0.210 HD
ENDBRANCH  35  36
ENDBRANCH  29  35
BRANCH  30  38
ATOM     38  O   UNL     1     -10.490  24.072  -9.177  1.00  0.00    -0.387 OA
ATOM     39  H   UNL     1     -11.244  24.300  -8.570  1.00  0.00     0.211 HD
ENDBRANCH  30  38
ENDBRANCH   1  25
TORSDOF 11
ENDMDL
