MODEL 1
REMARK VINA RESULT:    -7.016      0.000      0.000
REMARK INTER + INTRA:          -8.767
REMARK INTER:                  -8.452
REMARK INTRA:                  -0.315
REMARK UNBOUND:                -0.315
REMARK SMILES Oc1cc(O)c2cc(O)c(-c3ccc(O)c(O)c3)[o+]c2c1
REMARK SMILES IDX 10 1 19 2 20 3 21 4 2 5 3 6 4 7 6 8 7 9 8 10 11 11 12 12
REMARK SMILES IDX 13 13 14 14 18 15 16 16 15 17 17 19 9 21 1 23 5 25
REMARK H PARENT 15 18 17 20 9 22 1 24 5 26
REMARK Flexibility Score: inf
ROOT
ATOM      1  C   UNL     1      22.563  16.719   3.919  1.00  0.00     0.402 A 
ATOM      2  O   UNL     1      23.491  15.763   3.907  1.00  0.00    -0.202 OA
ATOM      3  C   UNL     1      23.245  14.517   3.512  1.00  0.00     0.368 A 
ATOM      4  C   UNL     1      24.274  13.570   3.534  1.00  0.00     0.162 A 
ATOM      5  C   UNL     1      24.027  12.253   3.123  1.00  0.00     0.128 A 
ATOM      6  C   UNL     1      22.749  11.885   2.691  1.00  0.00     0.093 A 
ATOM      7  C   UNL     1      21.708  12.825   2.663  1.00  0.00     0.136 A 
ATOM      8  C   UNL     1      21.956  14.147   3.075  1.00  0.00     0.125 A 
ATOM      9  C   UNL     1      20.958  15.129   3.061  1.00  0.00     0.078 A 
ATOM     10  C   UNL     1      21.257  16.431   3.474  1.00  0.00     0.223 A 
ENDROOT
BRANCH   1  11
ATOM     11  C   UNL     1      22.954  18.068   4.389  1.00  0.00     0.087 A 
ATOM     12  C   UNL     1      23.761  18.877   3.574  1.00  0.00     0.022 A 
ATOM     13  C   UNL     1      24.159  20.144   4.005  1.00  0.00     0.051 A 
ATOM     14  C   UNL     1      23.769  20.616   5.265  1.00  0.00     0.157 A 
ATOM     15  C   UNL     1      22.582  18.537   5.662  1.00  0.00     0.068 A 
ATOM     16  C   UNL     1      22.980  19.805   6.099  1.00  0.00     0.158 A 
BRANCH  14  17
ATOM     17  O   UNL     1      24.165  21.883   5.693  1.00  0.00    -0.504 OA
ATOM     18  H   UNL     1      25.143  22.141   5.750  1.00  0.00     0.293 HD
ENDBRANCH  14  17
BRANCH  16  19
ATOM     19  O   UNL     1      22.588  20.240   7.364  1.00  0.00    -0.504 OA
ATOM     20  H   UNL     1      23.195  20.167   8.172  1.00  0.00     0.293 HD
ENDBRANCH  16  19
ENDBRANCH   1  11
BRANCH  10  21
ATOM     21  O   UNL     1      20.281  17.425   3.414  1.00  0.00    -0.500 OA
ATOM     22  H   UNL     1      19.656  17.604   4.192  1.00  0.00     0.294 HD
ENDBRANCH  10  21
BRANCH   5  23
ATOM     23  O   UNL     1      25.046  11.304   3.142  1.00  0.00    -0.507 OA
ATOM     24  H   UNL     1      24.860  10.331   3.354  1.00  0.00     0.293 HD
ENDBRANCH   5  23
BRANCH   7  25
ATOM     25  O   UNL     1      20.438  12.445   2.227  1.00  0.00    -0.507 OA
ATOM     26  H   UNL     1      19.867  11.797   2.757  1.00  0.00     0.293 HD
ENDBRANCH   7  25
TORSDOF 6
ENDMDL
MODEL 2
REMARK VINA RESULT:    -6.881      1.215      2.715
REMARK INTER + INTRA:          -8.604
REMARK INTER:                  -8.414
REMARK INTRA:                  -0.190
REMARK UNBOUND:                -0.315
REMARK SMILES Oc1cc(O)c2cc(O)c(-c3ccc(O)c(O)c3)[o+]c2c1
REMARK SMILES IDX 10 1 19 2 20 3 21 4 2 5 3 6 4 7 6 8 7 9 8 10 11 11 12 12
REMARK SMILES IDX 13 13 14 14 18 15 16 16 15 17 17 19 9 21 1 23 5 25
REMARK H PARENT 15 18 17 20 9 22 1 24 5 26
REMARK Flexibility Score: inf
ROOT
ATOM      1  C   UNL     1      22.929  16.334   4.073  1.00  0.00     0.402 A 
ATOM      2  O   UNL     1      21.658  15.936   4.012  1.00  0.00    -0.202 OA
ATOM      3  C   UNL     1      21.298  14.708   3.652  1.00  0.00     0.368 A 
ATOM      4  C   UNL     1      19.941  14.371   3.609  1.00  0.00     0.162 A 
ATOM      5  C   UNL     1      19.549  13.081   3.227  1.00  0.00     0.128 A 
ATOM      6  C   UNL     1      20.516  12.128   2.889  1.00  0.00     0.093 A 
ATOM      7  C   UNL     1      21.880  12.452   2.929  1.00  0.00     0.136 A 
ATOM      8  C   UNL     1      22.275  13.748   3.312  1.00  0.00     0.125 A 
ATOM      9  C   UNL     1      23.621  14.126   3.377  1.00  0.00     0.078 A 
ATOM     10  C   UNL     1      23.961  15.423   3.770  1.00  0.00     0.223 A 
ENDROOT
BRANCH   1  11
ATOM     11  C   UNL     1      23.205  17.731   4.480  1.00  0.00     0.087 A 
ATOM     12  C   UNL     1      23.841  18.599   3.579  1.00  0.00     0.022 A 
ATOM     13  C   UNL     1      24.130  19.915   3.948  1.00  0.00     0.051 A 
ATOM     14  C   UNL     1      23.801  20.378   5.229  1.00  0.00     0.157 A 
ATOM     15  C   UNL     1      22.895  18.193   5.772  1.00  0.00     0.068 A 
ATOM     16  C   UNL     1      23.185  19.510   6.147  1.00  0.00     0.158 A 
BRANCH  14  17
ATOM     17  O   UNL     1      24.088  21.693   5.594  1.00  0.00    -0.504 OA
ATOM     18  H   UNL     1      23.923  22.467   4.962  1.00  0.00     0.293 HD
ENDBRANCH  14  17
BRANCH  16  19
ATOM     19  O   UNL     1      22.859  19.936   7.433  1.00  0.00    -0.504 OA
ATOM     20  H   UNL     1      22.542  20.879   7.625  1.00  0.00     0.293 HD
ENDBRANCH  16  19
ENDBRANCH   1  11
BRANCH  10  21
ATOM     21  O   UNL     1      25.301  15.790   3.887  1.00  0.00    -0.500 OA
ATOM     22  H   UNL     1      26.028  15.324   3.356  1.00  0.00     0.294 HD
ENDBRANCH  10  21
BRANCH   5  23
ATOM     23  O   UNL     1      18.200  12.736   3.181  1.00  0.00    -0.507 OA
ATOM     24  H   UNL     1      17.529  13.133   3.828  1.00  0.00     0.293 HD
ENDBRANCH   5  23
BRANCH   7  25
ATOM     25  O   UNL     1      22.834  11.493   2.591  1.00  0.00    -0.507 OA
ATOM     26  H   UNL     1      23.490  11.133   3.275  1.00  0.00     0.293 HD
ENDBRANCH   7  25
TORSDOF 6
ENDMDL
MODEL 3
REMARK VINA RESULT:    -5.704      3.091      5.772
REMARK INTER + INTRA:          -7.186
REMARK INTER:                  -7.184
REMARK INTRA:                  -0.002
REMARK UNBOUND:                -0.315
REMARK SMILES Oc1cc(O)c2cc(O)c(-c3ccc(O)c(O)c3)[o+]c2c1
REMARK SMILES IDX 10 1 19 2 20 3 21 4 2 5 3 6 4 7 6 8 7 9 8 10 11 11 12 12
REMARK SMILES IDX 13 13 14 14 18 15 16 16 15 17 17 19 9 21 1 23 5 25
REMARK H PARENT 15 18 17 20 9 22 1 24 5 26
REMARK Flexibility Score: inf
ROOT
ATOM      1  C   UNL     1      23.147  19.361   7.350  1.00  0.00     0.402 A 
ATOM      2  O   UNL     1      22.352  18.553   6.649  1.00  0.00    -0.202 OA
ATOM      3  C   UNL     1      22.555  18.269   5.366  1.00  0.00     0.368 A 
ATOM      4  C   UNL     1      21.671  17.414   4.699  1.00  0.00     0.162 A 
ATOM      5  C   UNL     1      21.872  17.110   3.346  1.00  0.00     0.128 A 
ATOM      6  C   UNL     1      22.959  17.662   2.660  1.00  0.00     0.093 A 
ATOM      7  C   UNL     1      23.854  18.520   3.317  1.00  0.00     0.136 A 
ATOM      8  C   UNL     1      23.653  18.826   4.675  1.00  0.00     0.125 A 
ATOM      9  C   UNL     1      24.517  19.669   5.383  1.00  0.00     0.078 A 
ATOM     10  C   UNL     1      24.277  19.936   6.734  1.00  0.00     0.223 A 
ENDROOT
BRANCH   1  11
ATOM     11  C   UNL     1      22.813  19.609   8.771  1.00  0.00     0.087 A 
ATOM     12  C   UNL     1      23.800  19.432   9.754  1.00  0.00     0.022 A 
ATOM     13  C   UNL     1      23.503  19.641  11.102  1.00  0.00     0.051 A 
ATOM     14  C   UNL     1      22.210  20.015  11.491  1.00  0.00     0.157 A 
ATOM     15  C   UNL     1      21.511  19.965   9.167  1.00  0.00     0.068 A 
ATOM     16  C   UNL     1      21.208  20.173  10.517  1.00  0.00     0.158 A 
BRANCH  14  17
ATOM     17  O   UNL     1      21.916  20.225  12.837  1.00  0.00    -0.504 OA
ATOM     18  H   UNL     1      22.612  20.087  13.560  1.00  0.00     0.293 HD
ENDBRANCH  14  17
BRANCH  16  19
ATOM     19  O   UNL     1      19.908  20.529  10.874  1.00  0.00    -0.504 OA
ATOM     20  H   UNL     1      19.690  20.941  11.773  1.00  0.00     0.293 HD
ENDBRANCH  16  19
ENDBRANCH   1  11
BRANCH  10  21
ATOM     21  O   UNL     1      25.162  20.734   7.457  1.00  0.00    -0.500 OA
ATOM     22  H   UNL     1      24.839  21.367   8.180  1.00  0.00     0.294 HD
ENDBRANCH  10  21
BRANCH   5  23
ATOM     23  O   UNL     1      20.996  16.260   2.675  1.00  0.00    -0.507 OA
ATOM     24  H   UNL     1      21.291  15.348   2.346  1.00  0.00     0.293 HD
ENDBRANCH   5  23
BRANCH   7  25
ATOM     25  O   UNL     1      24.935  19.062   2.622  1.00  0.00    -0.507 OA
ATOM     26  H   UNL     1      25.191  20.039   2.716  1.00  0.00     0.293 HD
ENDBRANCH   7  25
TORSDOF 6
ENDMDL
MODEL 4
REMARK VINA RESULT:    -5.258      3.634      8.166
REMARK INTER + INTRA:          -6.649
REMARK INTER:                  -6.758
REMARK INTRA:                   0.109
REMARK UNBOUND:                -0.315
REMARK SMILES Oc1cc(O)c2cc(O)c(-c3ccc(O)c(O)c3)[o+]c2c1
REMARK SMILES IDX 10 1 19 2 20 3 21 4 2 5 3 6 4 7 6 8 7 9 8 10 11 11 12 12
REMARK SMILES IDX 13 13 14 14 18 15 16 16 15 17 17 19 9 21 1 23 5 25
REMARK H PARENT 15 18 17 20 9 22 1 24 5 26
REMARK Flexibility Score: inf
ROOT
ATOM      1  C   UNL     1      23.540  19.401   7.684  1.00  0.00     0.402 A 
ATOM      2  O   UNL     1      22.473  19.233   8.464  1.00  0.00    -0.202 OA
ATOM      3  C   UNL     1      22.446  19.586   9.746  1.00  0.00     0.368 A 
ATOM      4  C   UNL     1      21.287  19.371  10.498  1.00  0.00     0.162 A 
ATOM      5  C   UNL     1      21.248  19.736  11.851  1.00  0.00     0.128 A 
ATOM      6  C   UNL     1      22.371  20.317  12.449  1.00  0.00     0.093 A 
ATOM      7  C   UNL     1      23.539  20.540  11.707  1.00  0.00     0.136 A 
ATOM      8  C   UNL     1      23.579  20.173  10.349  1.00  0.00     0.125 A 
ATOM      9  C   UNL     1      24.715  20.378   9.556  1.00  0.00     0.078 A 
ATOM     10  C   UNL     1      24.702  20.003   8.210  1.00  0.00     0.223 A 
ENDROOT
BRANCH   1  11
ATOM     11  C   UNL     1      23.452  18.959   6.274  1.00  0.00     0.087 A 
ATOM     12  C   UNL     1      23.962  19.783   5.258  1.00  0.00     0.022 A 
ATOM     13  C   UNL     1      23.872  19.396   3.920  1.00  0.00     0.051 A 
ATOM     14  C   UNL     1      23.258  18.185   3.574  1.00  0.00     0.157 A 
ATOM     15  C   UNL     1      22.818  17.754   5.921  1.00  0.00     0.068 A 
ATOM     16  C   UNL     1      22.723  17.363   4.581  1.00  0.00     0.158 A 
BRANCH  14  17
ATOM     17  O   UNL     1      23.171  17.799   2.237  1.00  0.00    -0.504 OA
ATOM     18  H   UNL     1      23.992  17.750   1.645  1.00  0.00     0.293 HD
ENDBRANCH  14  17
BRANCH  16  19
ATOM     19  O   UNL     1      22.092  16.160   4.269  1.00  0.00    -0.504 OA
ATOM     20  H   UNL     1      21.106  16.008   4.440  1.00  0.00     0.293 HD
ENDBRANCH  16  19
ENDBRANCH   1  11
BRANCH  10  21
ATOM     21  O   UNL     1      25.811  20.251   7.404  1.00  0.00    -0.500 OA
ATOM     22  H   UNL     1      25.857  19.923   6.446  1.00  0.00     0.294 HD
ENDBRANCH  10  21
BRANCH   5  23
ATOM     23  O   UNL     1      20.098  19.525  12.607  1.00  0.00    -0.507 OA
ATOM     24  H   UNL     1      19.857  20.129  13.385  1.00  0.00     0.293 HD
ENDBRANCH   5  23
BRANCH   7  25
ATOM     25  O   UNL     1      24.652  21.122  12.315  1.00  0.00    -0.507 OA
ATOM     26  H   UNL     1      24.743  22.128  12.403  1.00  0.00     0.293 HD
ENDBRANCH   7  25
TORSDOF 6
ENDMDL
MODEL 5
REMARK VINA RESULT:    -4.951      5.520      8.985
REMARK INTER + INTRA:          -6.279
REMARK INTER:                  -6.592
REMARK INTRA:                   0.313
REMARK UNBOUND:                -0.315
REMARK SMILES Oc1cc(O)c2cc(O)c(-c3ccc(O)c(O)c3)[o+]c2c1
REMARK SMILES IDX 10 1 19 2 20 3 21 4 2 5 3 6 4 7 6 8 7 9 8 10 11 11 12 12
REMARK SMILES IDX 13 13 14 14 18 15 16 16 15 17 17 19 9 21 1 23 5 25
REMARK H PARENT 15 18 17 20 9 22 1 24 5 26
REMARK Flexibility Score: inf
ROOT
ATOM      1  C   UNL     1      22.033  19.763   9.807  1.00  0.00     0.402 A 
ATOM      2  O   UNL     1      20.716  19.558   9.820  1.00  0.00    -0.202 OA
ATOM      3  C   UNL     1      20.002  19.488  10.939  1.00  0.00     0.368 A 
ATOM      4  C   UNL     1      18.624  19.265  10.867  1.00  0.00     0.162 A 
ATOM      5  C   UNL     1      17.861  19.186  12.040  1.00  0.00     0.128 A 
ATOM      6  C   UNL     1      18.480  19.331  13.286  1.00  0.00     0.093 A 
ATOM      7  C   UNL     1      19.861  19.555  13.374  1.00  0.00     0.136 A 
ATOM      8  C   UNL     1      20.628  19.635  12.196  1.00  0.00     0.125 A 
ATOM      9  C   UNL     1      22.009  19.865  12.222  1.00  0.00     0.078 A 
ATOM     10  C   UNL     1      22.724  19.942  11.023  1.00  0.00     0.223 A 
ENDROOT
BRANCH   1  11
ATOM     11  C   UNL     1      22.721  19.812   8.497  1.00  0.00     0.087 A 
ATOM     12  C   UNL     1      21.965  19.978   7.326  1.00  0.00     0.022 A 
ATOM     13  C   UNL     1      22.590  20.008   6.078  1.00  0.00     0.051 A 
ATOM     14  C   UNL     1      23.979  19.856   5.979  1.00  0.00     0.157 A 
ATOM     15  C   UNL     1      24.113  19.639   8.393  1.00  0.00     0.068 A 
ATOM     16  C   UNL     1      24.743  19.665   7.143  1.00  0.00     0.158 A 
BRANCH  14  17
ATOM     17  O   UNL     1      24.601  19.888   4.732  1.00  0.00    -0.504 OA
ATOM     18  H   UNL     1      25.575  19.630   4.618  1.00  0.00     0.293 HD
ENDBRANCH  14  17
BRANCH  16  19
ATOM     19  O   UNL     1      26.125  19.496   7.077  1.00  0.00    -0.504 OA
ATOM     20  H   UNL     1      26.559  18.582   7.126  1.00  0.00     0.293 HD
ENDBRANCH  16  19
ENDBRANCH   1  11
BRANCH  10  21
ATOM     21  O   UNL     1      24.089  20.222  11.040  1.00  0.00    -0.500 OA
ATOM     22  H   UNL     1      24.437  21.172  11.099  1.00  0.00     0.294 HD
ENDBRANCH  10  21
BRANCH   5  23
ATOM     23  O   UNL     1      16.487  18.964  11.977  1.00  0.00    -0.507 OA
ATOM     24  H   UNL     1      15.879  19.558  11.425  1.00  0.00     0.293 HD
ENDBRANCH   5  23
BRANCH   7  25
ATOM     25  O   UNL     1      20.466  19.700  14.622  1.00  0.00    -0.507 OA
ATOM     26  H   UNL     1      21.127  20.446  14.809  1.00  0.00     0.293 HD
ENDBRANCH   7  25
TORSDOF 6
ENDMDL
MODEL 6
REMARK VINA RESULT:    -4.853      1.772      7.345
REMARK INTER + INTRA:          -6.161
REMARK INTER:                  -6.493
REMARK INTRA:                   0.332
REMARK UNBOUND:                -0.315
REMARK SMILES Oc1cc(O)c2cc(O)c(-c3ccc(O)c(O)c3)[o+]c2c1
REMARK SMILES IDX 10 1 19 2 20 3 21 4 2 5 3 6 4 7 6 8 7 9 8 10 11 11 12 12
REMARK SMILES IDX 13 13 14 14 18 15 16 16 15 17 17 19 9 21 1 23 5 25
REMARK H PARENT 15 18 17 20 9 22 1 24 5 26
REMARK Flexibility Score: inf
ROOT
ATOM      1  C   UNL     1      22.025  16.305   4.423  1.00  0.00     0.402 A 
ATOM      2  O   UNL     1      21.339  17.394   4.772  1.00  0.00    -0.202 OA
ATOM      3  C   UNL     1      21.914  18.490   5.258  1.00  0.00     0.368 A 
ATOM      4  C   UNL     1      21.122  19.589   5.605  1.00  0.00     0.162 A 
ATOM      5  C   UNL     1      21.715  20.749   6.122  1.00  0.00     0.128 A 
ATOM      6  C   UNL     1      23.103  20.807   6.291  1.00  0.00     0.093 A 
ATOM      7  C   UNL     1      23.909  19.712   5.946  1.00  0.00     0.136 A 
ATOM      8  C   UNL     1      23.314  18.548   5.428  1.00  0.00     0.125 A 
ATOM      9  C   UNL     1      24.069  17.428   5.060  1.00  0.00     0.078 A 
ATOM     10  C   UNL     1      23.430  16.297   4.542  1.00  0.00     0.223 A 
ENDROOT
BRANCH   1  11
ATOM     11  C   UNL     1      21.272  15.142   3.902  1.00  0.00     0.087 A 
ATOM     12  C   UNL     1      19.915  14.994   4.228  1.00  0.00     0.022 A 
ATOM     13  C   UNL     1      19.191  13.895   3.764  1.00  0.00     0.051 A 
ATOM     14  C   UNL     1      19.815  12.917   2.978  1.00  0.00     0.157 A 
ATOM     15  C   UNL     1      21.901  14.148   3.130  1.00  0.00     0.068 A 
ATOM     16  C   UNL     1      21.180  13.043   2.665  1.00  0.00     0.158 A 
BRANCH  14  17
ATOM     17  O   UNL     1      19.089  11.821   2.514  1.00  0.00    -0.504 OA
ATOM     18  H   UNL     1      18.291  11.459   3.023  1.00  0.00     0.293 HD
ENDBRANCH  14  17
BRANCH  16  19
ATOM     19  O   UNL     1      21.834  12.080   1.899  1.00  0.00    -0.504 OA
ATOM     20  H   UNL     1      21.993  11.138   2.237  1.00  0.00     0.293 HD
ENDBRANCH  16  19
ENDBRANCH   1  11
BRANCH  10  21
ATOM     21  O   UNL     1      24.180  15.199   4.126  1.00  0.00    -0.500 OA
ATOM     22  H   UNL     1      24.568  15.143   3.191  1.00  0.00     0.294 HD
ENDBRANCH  10  21
BRANCH   5  23
ATOM     23  O   UNL     1      20.934  21.848   6.470  1.00  0.00    -0.507 OA
ATOM     24  H   UNL     1      20.318  22.293   5.801  1.00  0.00     0.293 HD
ENDBRANCH   5  23
BRANCH   7  25
ATOM     25  O   UNL     1      25.292  19.784   6.118  1.00  0.00    -0.507 OA
ATOM     26  H   UNL     1      25.839  18.967   6.365  1.00  0.00     0.293 HD
ENDBRANCH   7  25
TORSDOF 6
ENDMDL
MODEL 7
REMARK VINA RESULT:    -4.710      5.381      8.640
REMARK INTER + INTRA:          -5.989
REMARK INTER:                  -6.455
REMARK INTRA:                   0.467
REMARK UNBOUND:                -0.315
REMARK SMILES Oc1cc(O)c2cc(O)c(-c3ccc(O)c(O)c3)[o+]c2c1
REMARK SMILES IDX 10 1 19 2 20 3 21 4 2 5 3 6 4 7 6 8 7 9 8 10 11 11 12 12
REMARK SMILES IDX 13 13 14 14 18 15 16 16 15 17 17 19 9 21 1 23 5 25
REMARK H PARENT 15 18 17 20 9 22 1 24 5 26
REMARK Flexibility Score: inf
ROOT
ATOM      1  C   UNL     1      21.342  19.673  10.275  1.00  0.00     0.402 A 
ATOM      2  O   UNL     1      21.369  19.594   8.945  1.00  0.00    -0.202 OA
ATOM      3  C   UNL     1      22.484  19.716   8.232  1.00  0.00     0.368 A 
ATOM      4  C   UNL     1      22.427  19.625   6.837  1.00  0.00     0.162 A 
ATOM      5  C   UNL     1      23.595  19.755   6.074  1.00  0.00     0.128 A 
ATOM      6  C   UNL     1      24.822  19.976   6.709  1.00  0.00     0.093 A 
ATOM      7  C   UNL     1      24.895  20.068   8.107  1.00  0.00     0.136 A 
ATOM      8  C   UNL     1      23.722  19.937   8.873  1.00  0.00     0.125 A 
ATOM      9  C   UNL     1      23.735  20.013  10.271  1.00  0.00     0.078 A 
ATOM     10  C   UNL     1      22.543  19.870  10.987  1.00  0.00     0.223 A 
ENDROOT
BRANCH   1  11
ATOM     11  C   UNL     1      20.036  19.531  10.958  1.00  0.00     0.087 A 
ATOM     12  C   UNL     1      19.998  19.400  12.355  1.00  0.00     0.022 A 
ATOM     13  C   UNL     1      18.779  19.245  13.019  1.00  0.00     0.051 A 
ATOM     14  C   UNL     1      17.581  19.202  12.294  1.00  0.00     0.157 A 
ATOM     15  C   UNL     1      18.833  19.466  10.233  1.00  0.00     0.068 A 
ATOM     16  C   UNL     1      17.609  19.308  10.893  1.00  0.00     0.158 A 
BRANCH  14  17
ATOM     17  O   UNL     1      16.365  19.049  12.960  1.00  0.00    -0.504 OA
ATOM     18  H   UNL     1      15.786  19.846  13.197  1.00  0.00     0.293 HD
ENDBRANCH  14  17
BRANCH  16  19
ATOM     19  O   UNL     1      16.436  19.254  10.143  1.00  0.00    -0.504 OA
ATOM     20  H   UNL     1      15.648  19.862  10.330  1.00  0.00     0.293 HD
ENDBRANCH  16  19
ENDBRANCH   1  11
BRANCH  10  21
ATOM     21  O   UNL     1      22.557  19.893  12.381  1.00  0.00    -0.500 OA
ATOM     22  H   UNL     1      21.724  20.102  12.918  1.00  0.00     0.294 HD
ENDBRANCH  10  21
BRANCH   5  23
ATOM     23  O   UNL     1      23.547  19.667   4.685  1.00  0.00    -0.507 OA
ATOM     24  H   UNL     1      23.175  18.848   4.219  1.00  0.00     0.293 HD
ENDBRANCH   5  23
BRANCH   7  25
ATOM     25  O   UNL     1      26.125  20.286   8.727  1.00  0.00    -0.507 OA
ATOM     26  H   UNL     1      26.458  21.221   8.931  1.00  0.00     0.293 HD
ENDBRANCH   7  25
TORSDOF 6
ENDMDL
MODEL 8
REMARK VINA RESULT:    -4.028      2.994      4.744
REMARK INTER + INTRA:          -5.167
REMARK INTER:                  -4.945
REMARK INTRA:                  -0.222
REMARK UNBOUND:                -0.315
REMARK SMILES Oc1cc(O)c2cc(O)c(-c3ccc(O)c(O)c3)[o+]c2c1
REMARK SMILES IDX 10 1 19 2 20 3 21 4 2 5 3 6 4 7 6 8 7 9 8 10 11 11 12 12
REMARK SMILES IDX 13 13 14 14 18 15 16 16 15 17 17 19 9 21 1 23 5 25
REMARK H PARENT 15 18 17 20 9 22 1 24 5 26
REMARK Flexibility Score: inf
ROOT
ATOM      1  C   UNL     1      23.356  19.340   6.903  1.00  0.00     0.402 A 
ATOM      2  O   UNL     1      24.163  18.478   6.285  1.00  0.00    -0.202 OA
ATOM      3  C   UNL     1      23.902  17.970   5.085  1.00  0.00     0.368 A 
ATOM      4  C   UNL     1      24.800  17.066   4.507  1.00  0.00     0.162 A 
ATOM      5  C   UNL     1      24.534  16.521   3.243  1.00  0.00     0.128 A 
ATOM      6  C   UNL     1      23.370  16.882   2.558  1.00  0.00     0.093 A 
ATOM      7  C   UNL     1      22.461  17.788   3.125  1.00  0.00     0.136 A 
ATOM      8  C   UNL     1      22.727  18.335   4.394  1.00  0.00     0.125 A 
ATOM      9  C   UNL     1      21.861  19.249   5.006  1.00  0.00     0.078 A 
ATOM     10  C   UNL     1      22.174  19.769   6.265  1.00  0.00     0.223 A 
ENDROOT
BRANCH   1  11
ATOM     11  C   UNL     1      23.749  19.830   8.243  1.00  0.00     0.087 A 
ATOM     12  C   UNL     1      24.946  20.549   8.393  1.00  0.00     0.022 A 
ATOM     13  C   UNL     1      25.347  21.003   9.650  1.00  0.00     0.051 A 
ATOM     14  C   UNL     1      24.566  20.733  10.782  1.00  0.00     0.157 A 
ATOM     15  C   UNL     1      22.978  19.542   9.384  1.00  0.00     0.068 A 
ATOM     16  C   UNL     1      23.378  19.994  10.647  1.00  0.00     0.158 A 
BRANCH  14  17
ATOM     17  O   UNL     1      24.967  21.190  12.037  1.00  0.00    -0.504 OA
ATOM     18  H   UNL     1      24.938  20.591  12.853  1.00  0.00     0.293 HD
ENDBRANCH  14  17
BRANCH  16  19
ATOM     19  O   UNL     1      22.587  19.695  11.755  1.00  0.00    -0.504 OA
ATOM     20  H   UNL     1      21.946  20.369  12.158  1.00  0.00     0.293 HD
ENDBRANCH  16  19
ENDBRANCH   1  11
BRANCH  10  21
ATOM     21  O   UNL     1      21.342  20.718   6.856  1.00  0.00    -0.500 OA
ATOM     22  H   UNL     1      21.211  21.638   6.450  1.00  0.00     0.294 HD
ENDBRANCH  10  21
BRANCH   5  23
ATOM     23  O   UNL     1      25.423  15.620   2.661  1.00  0.00    -0.507 OA
ATOM     24  H   UNL     1      25.234  15.198   1.759  1.00  0.00     0.293 HD
ENDBRANCH   5  23
BRANCH   7  25
ATOM     25  O   UNL     1      21.304  18.141   2.431  1.00  0.00    -0.507 OA
ATOM     26  H   UNL     1      20.385  18.047   2.849  1.00  0.00     0.293 HD
ENDBRANCH   7  25
TORSDOF 6
ENDMDL
