MODEL 1
REMARK VINA RESULT:    -6.250      0.000      0.000
REMARK INTER + INTRA:         -20.236
REMARK INTER:                 -16.481
REMARK INTRA:                  -3.755
REMARK UNBOUND:                -3.755
REMARK SMILES CCCCCCCCCCCCCCCCCCCCCCCCCCCCCC(=O)[O-]
REMARK SMILES IDX 16 1 17 2 18 3 19 4 20 5 21 6 22 7 23 8 24 9 25 10 26 11
REMARK SMILES IDX 27 12 28 13 29 14 30 15 31 16 32 17 15 18 14 19 13 20 12 21
REMARK SMILES IDX 11 22 10 23 9 24 8 25 7 26 6 27 5 28 4 29 3 30 2 31 1 32
REMARK H PARENT
REMARK Flexibility Score: inf
ROOT
ATOM      1  C   UNL     1     -17.746   0.575 -18.075  1.00  0.00     0.000 C 
ENDROOT
BRANCH   1   2
ATOM      2  C   UNL     1     -17.452   1.029 -16.636  1.00  0.00     0.000 C 
BRANCH   2   3
ATOM      3  C   UNL     1     -17.120  -0.140 -15.690  1.00  0.00     0.000 C 
BRANCH   3   4
ATOM      4  C   UNL     1     -17.729  -0.042 -14.280  1.00  0.00     0.000 C 
BRANCH   4   5
ATOM      5  C   UNL     1     -18.632  -1.237 -13.931  1.00  0.00     0.000 C 
BRANCH   5   6
ATOM      6  C   UNL     1     -19.294  -1.867 -15.171  1.00  0.00     0.000 C 
BRANCH   6   7
ATOM      7  C   UNL     1     -20.763  -1.461 -15.410  1.00  0.00     0.000 C 
BRANCH   7   8
ATOM      8  C   UNL     1     -20.967  -0.024 -15.931  1.00  0.00     0.000 C 
BRANCH   8   9
ATOM      9  C   UNL     1     -22.438   0.426 -16.036  1.00  0.00     0.000 C 
BRANCH   9  10
ATOM     10  C   UNL     1     -22.655   1.953 -16.023  1.00  0.00     0.000 C 
BRANCH  10  11
ATOM     11  C   UNL     1     -24.088   2.407 -16.351  1.00  0.00     0.000 C 
BRANCH  11  12
ATOM     12  C   UNL     1     -25.014   2.390 -15.126  1.00  0.00     0.000 C 
BRANCH  12  13
ATOM     13  C   UNL     1     -26.201   1.439 -15.350  1.00  0.00     0.006 C 
BRANCH  13  14
ATOM     14  C   UNL     1     -27.477   1.927 -14.653  1.00  0.00     0.053 C 
BRANCH  14  15
ATOM     15  C   UNL     1     -27.835   1.080 -13.469  1.00  0.00     0.041 C 
ATOM     16  O   UNL     1     -28.136   1.623 -12.373  1.00  0.00    -0.550 OA
ATOM     17  O   UNL     1     -27.860  -0.306 -13.580  1.00  0.00    -0.550 OA
ENDBRANCH  14  15
ENDBRANCH  13  14
ENDBRANCH  12  13
ENDBRANCH  11  12
ENDBRANCH  10  11
ENDBRANCH   9  10
ENDBRANCH   8   9
ENDBRANCH   7   8
ENDBRANCH   6   7
ENDBRANCH   5   6
ENDBRANCH   4   5
ENDBRANCH   3   4
ENDBRANCH   2   3
ENDBRANCH   1   2
BRANCH   1  18
ATOM     18  C   UNL     1     -17.740  -0.956 -18.224  1.00  0.00     0.000 C 
BRANCH  18  19
ATOM     19  C   UNL     1     -16.606  -1.459 -19.130  1.00  0.00     0.000 C 
BRANCH  19  20
ATOM     20  C   UNL     1     -15.273  -1.499 -18.372  1.00  0.00     0.000 C 
BRANCH  20  21
ATOM     21  C   UNL     1     -14.187  -0.727 -19.134  1.00  0.00     0.000 C 
BRANCH  21  22
ATOM     22  C   UNL     1     -14.770   0.259 -20.159  1.00  0.00     0.000 C 
BRANCH  22  23
ATOM     23  C   UNL     1     -14.567   1.726 -19.750  1.00  0.00     0.000 C 
BRANCH  23  24
ATOM     24  C   UNL     1     -13.676   1.828 -18.502  1.00  0.00    -0.000 C 
BRANCH  24  25
ATOM     25  C   UNL     1     -13.141   3.250 -18.266  1.00  0.00    -0.000 C 
BRANCH  25  26
ATOM     26  C   UNL     1     -13.310   3.712 -16.810  1.00  0.00    -0.000 C 
BRANCH  26  27
ATOM     27  C   UNL     1     -14.540   3.054 -16.165  1.00  0.00    -0.000 C 
BRANCH  27  28
ATOM     28  C   UNL     1     -14.206   2.333 -14.850  1.00  0.00    -0.000 C 
BRANCH  28  29
ATOM     29  C   UNL     1     -15.138   2.737 -13.697  1.00  0.00    -0.000 C 
BRANCH  29  30
ATOM     30  C   UNL     1     -15.104   1.691 -12.572  1.00  0.00    -0.000 C 
BRANCH  30  31
ATOM     31  C   UNL     1     -15.967   2.093 -11.366  1.00  0.00    -0.003 C 
ATOM     32  C   UNL     1     -16.931   0.988 -10.936  1.00  0.00     0.004 C 
ENDBRANCH  30  31
ENDBRANCH  29  30
ENDBRANCH  28  29
ENDBRANCH  27  28
ENDBRANCH  26  27
ENDBRANCH  25  26
ENDBRANCH  24  25
ENDBRANCH  23  24
ENDBRANCH  22  23
ENDBRANCH  21  22
ENDBRANCH  20  21
ENDBRANCH  19  20
ENDBRANCH  18  19
ENDBRANCH   1  18
TORSDOF 28
ENDMDL
MODEL 2
REMARK VINA RESULT:    -6.124      4.658      7.184
REMARK INTER + INTRA:         -19.904
REMARK INTER:                 -17.227
REMARK INTRA:                  -2.677
REMARK UNBOUND:                -3.755
REMARK SMILES CCCCCCCCCCCCCCCCCCCCCCCCCCCCCC(=O)[O-]
REMARK SMILES IDX 16 1 17 2 18 3 19 4 20 5 21 6 22 7 23 8 24 9 25 10 26 11
REMARK SMILES IDX 27 12 28 13 29 14 30 15 31 16 32 17 15 18 14 19 13 20 12 21
REMARK SMILES IDX 11 22 10 23 9 24 8 25 7 26 6 27 5 28 4 29 3 30 2 31 1 32
REMARK H PARENT
REMARK Flexibility Score: inf
ROOT
ATOM      1  C   UNL     1     -16.882   1.085 -12.419  1.00  0.00     0.000 C 
ENDROOT
BRANCH   1   2
ATOM      2  C   UNL     1     -17.847   0.648 -11.303  1.00  0.00     0.000 C 
BRANCH   2   3
ATOM      3  C   UNL     1     -17.449   1.188  -9.917  1.00  0.00     0.000 C 
BRANCH   3   4
ATOM      4  C   UNL     1     -18.112   0.482  -8.719  1.00  0.00     0.000 C 
BRANCH   4   5
ATOM      5  C   UNL     1     -18.274   1.400  -7.496  1.00  0.00     0.000 C 
BRANCH   5   6
ATOM      6  C   UNL     1     -19.238   0.824  -6.441  1.00  0.00     0.000 C 
BRANCH   6   7
ATOM      7  C   UNL     1     -20.387  -0.039  -7.002  1.00  0.00     0.000 C 
BRANCH   7   8
ATOM      8  C   UNL     1     -21.531  -0.329  -6.009  1.00  0.00     0.000 C 
BRANCH   8   9
ATOM      9  C   UNL     1     -22.020  -1.790  -5.990  1.00  0.00     0.000 C 
BRANCH   9  10
ATOM     10  C   UNL     1     -23.272  -2.048  -5.126  1.00  0.00     0.000 C 
BRANCH  10  11
ATOM     11  C   UNL     1     -24.438  -1.073  -5.369  1.00  0.00     0.000 C 
BRANCH  11  12
ATOM     12  C   UNL     1     -25.612  -1.723  -6.116  1.00  0.00     0.000 C 
BRANCH  12  13
ATOM     13  C   UNL     1     -26.850  -0.813  -6.086  1.00  0.00     0.006 C 
BRANCH  13  14
ATOM     14  C   UNL     1     -27.892  -1.213  -7.138  1.00  0.00     0.053 C 
BRANCH  14  15
ATOM     15  C   UNL     1     -29.252  -1.417  -6.539  1.00  0.00     0.041 C 
ATOM     16  O   UNL     1     -29.370  -1.663  -5.310  1.00  0.00    -0.550 OA
ATOM     17  O   UNL     1     -30.389  -1.310  -7.332  1.00  0.00    -0.550 OA
ENDBRANCH  14  15
ENDBRANCH  13  14
ENDBRANCH  12  13
ENDBRANCH  11  12
ENDBRANCH  10  11
ENDBRANCH   9  10
ENDBRANCH   8   9
ENDBRANCH   7   8
ENDBRANCH   6   7
ENDBRANCH   5   6
ENDBRANCH   4   5
ENDBRANCH   3   4
ENDBRANCH   2   3
ENDBRANCH   1   2
BRANCH   1  18
ATOM     18  C   UNL     1     -15.698   1.910 -11.886  1.00  0.00     0.000 C 
BRANCH  18  19
ATOM     19  C   UNL     1     -15.251   3.006 -12.867  1.00  0.00     0.000 C 
BRANCH  19  20
ATOM     20  C   UNL     1     -15.476   2.569 -14.319  1.00  0.00     0.000 C 
BRANCH  20  21
ATOM     21  C   UNL     1     -14.198   1.958 -14.911  1.00  0.00     0.000 C 
BRANCH  21  22
ATOM     22  C   UNL     1     -13.661   2.756 -16.110  1.00  0.00     0.000 C 
BRANCH  22  23
ATOM     23  C   UNL     1     -14.775   3.205 -17.068  1.00  0.00     0.000 C 
BRANCH  23  24
ATOM     24  C   UNL     1     -15.315   2.014 -17.875  1.00  0.00    -0.000 C 
BRANCH  24  25
ATOM     25  C   UNL     1     -14.220   1.296 -18.681  1.00  0.00    -0.000 C 
BRANCH  25  26
ATOM     26  C   UNL     1     -14.788   0.238 -19.640  1.00  0.00    -0.000 C 
BRANCH  26  27
ATOM     27  C   UNL     1     -16.291   0.028 -19.397  1.00  0.00    -0.000 C 
BRANCH  27  28
ATOM     28  C   UNL     1     -16.660  -1.451 -19.202  1.00  0.00    -0.000 C 
BRANCH  28  29
ATOM     29  C   UNL     1     -17.400  -1.709 -17.881  1.00  0.00    -0.000 C 
BRANCH  29  30
ATOM     30  C   UNL     1     -16.407  -1.859 -16.718  1.00  0.00    -0.000 C 
BRANCH  30  31
ATOM     31  C   UNL     1     -16.642  -0.825 -15.605  1.00  0.00    -0.003 C 
ATOM     32  C   UNL     1     -17.803   0.120 -15.913  1.00  0.00     0.004 C 
ENDBRANCH  30  31
ENDBRANCH  29  30
ENDBRANCH  28  29
ENDBRANCH  27  28
ENDBRANCH  26  27
ENDBRANCH  25  26
ENDBRANCH  24  25
ENDBRANCH  23  24
ENDBRANCH  22  23
ENDBRANCH  21  22
ENDBRANCH  20  21
ENDBRANCH  19  20
ENDBRANCH  18  19
ENDBRANCH   1  18
TORSDOF 28
ENDMDL
MODEL 3
REMARK VINA RESULT:    -6.025      1.320      2.260
REMARK INTER + INTRA:         -19.642
REMARK INTER:                 -15.969
REMARK INTRA:                  -3.673
REMARK UNBOUND:                -3.755
REMARK SMILES CCCCCCCCCCCCCCCCCCCCCCCCCCCCCC(=O)[O-]
REMARK SMILES IDX 16 1 17 2 18 3 19 4 20 5 21 6 22 7 23 8 24 9 25 10 26 11
REMARK SMILES IDX 27 12 28 13 29 14 30 15 31 16 32 17 15 18 14 19 13 20 12 21
REMARK SMILES IDX 11 22 10 23 9 24 8 25 7 26 6 27 5 28 4 29 3 30 2 31 1 32
REMARK H PARENT
REMARK Flexibility Score: inf
ROOT
ATOM      1  C   UNL     1     -16.702  -1.014 -15.689  1.00  0.00     0.000 C 
ENDROOT
BRANCH   1   2
ATOM      2  C   UNL     1     -17.926  -0.653 -14.830  1.00  0.00     0.000 C 
BRANCH   2   3
ATOM      3  C   UNL     1     -19.025  -1.731 -14.865  1.00  0.00     0.000 C 
BRANCH   3   4
ATOM      4  C   UNL     1     -20.361  -1.292 -15.493  1.00  0.00     0.000 C 
BRANCH   4   5
ATOM      5  C   UNL     1     -20.382   0.197 -15.879  1.00  0.00     0.000 C 
BRANCH   5   6
ATOM      6  C   UNL     1     -21.809   0.774 -15.951  1.00  0.00     0.000 C 
BRANCH   6   7
ATOM      7  C   UNL     1     -22.944  -0.269 -15.891  1.00  0.00     0.000 C 
BRANCH   7   8
ATOM      8  C   UNL     1     -24.311   0.222 -16.409  1.00  0.00     0.000 C 
BRANCH   8   9
ATOM      9  C   UNL     1     -24.307   1.644 -17.005  1.00  0.00     0.000 C 
BRANCH   9  10
ATOM     10  C   UNL     1     -24.828   2.748 -16.063  1.00  0.00     0.000 C 
BRANCH  10  11
ATOM     11  C   UNL     1     -25.187   2.273 -14.644  1.00  0.00     0.000 C 
BRANCH  11  12
ATOM     12  C   UNL     1     -26.603   2.686 -14.218  1.00  0.00     0.000 C 
BRANCH  12  13
ATOM     13  C   UNL     1     -27.618   1.578 -14.546  1.00  0.00     0.006 C 
BRANCH  13  14
ATOM     14  C   UNL     1     -27.388   0.312 -13.710  1.00  0.00     0.053 C 
BRANCH  14  15
ATOM     15  C   UNL     1     -27.588  -0.939 -14.512  1.00  0.00     0.041 C 
ATOM     16  O   UNL     1     -27.847  -2.026 -13.931  1.00  0.00    -0.550 OA
ATOM     17  O   UNL     1     -27.515  -0.901 -15.900  1.00  0.00    -0.550 OA
ENDBRANCH  14  15
ENDBRANCH  13  14
ENDBRANCH  12  13
ENDBRANCH  11  12
ENDBRANCH  10  11
ENDBRANCH   9  10
ENDBRANCH   8   9
ENDBRANCH   7   8
ENDBRANCH   6   7
ENDBRANCH   5   6
ENDBRANCH   4   5
ENDBRANCH   3   4
ENDBRANCH   2   3
ENDBRANCH   1   2
BRANCH   1  18
ATOM     18  C   UNL     1     -16.959  -2.219 -16.608  1.00  0.00     0.000 C 
BRANCH  18  19
ATOM     19  C   UNL     1     -16.737  -1.890 -18.092  1.00  0.00     0.000 C 
BRANCH  19  20
ATOM     20  C   UNL     1     -17.797  -0.907 -18.603  1.00  0.00     0.000 C 
BRANCH  20  21
ATOM     21  C   UNL     1     -17.140   0.339 -19.213  1.00  0.00     0.000 C 
BRANCH  21  22
ATOM     22  C   UNL     1     -15.839   0.015 -19.964  1.00  0.00     0.000 C 
BRANCH  22  23
ATOM     23  C   UNL     1     -14.845   1.186 -19.957  1.00  0.00     0.000 C 
BRANCH  23  24
ATOM     24  C   UNL     1     -13.763   0.979 -18.885  1.00  0.00    -0.000 C 
BRANCH  24  25
ATOM     25  C   UNL     1     -13.793   2.060 -17.792  1.00  0.00    -0.000 C 
BRANCH  25  26
ATOM     26  C   UNL     1     -14.649   1.655 -16.582  1.00  0.00    -0.000 C 
BRANCH  26  27
ATOM     27  C   UNL     1     -15.183   2.895 -15.849  1.00  0.00    -0.000 C 
BRANCH  27  28
ATOM     28  C   UNL     1     -15.574   2.601 -14.392  1.00  0.00    -0.000 C 
BRANCH  28  29
ATOM     29  C   UNL     1     -14.595   1.643 -13.697  1.00  0.00    -0.000 C 
BRANCH  29  30
ATOM     30  C   UNL     1     -15.114   1.243 -12.307  1.00  0.00    -0.000 C 
BRANCH  30  31
ATOM     31  C   UNL     1     -16.320   2.084 -11.863  1.00  0.00    -0.003 C 
ATOM     32  C   UNL     1     -17.270   1.315 -10.944  1.00  0.00     0.004 C 
ENDBRANCH  30  31
ENDBRANCH  29  30
ENDBRANCH  28  29
ENDBRANCH  27  28
ENDBRANCH  26  27
ENDBRANCH  25  26
ENDBRANCH  24  25
ENDBRANCH  23  24
ENDBRANCH  22  23
ENDBRANCH  21  22
ENDBRANCH  20  21
ENDBRANCH  19  20
ENDBRANCH  18  19
ENDBRANCH   1  18
TORSDOF 28
ENDMDL
MODEL 4
REMARK VINA RESULT:    -6.022      3.269      3.724
REMARK INTER + INTRA:         -19.635
REMARK INTER:                 -15.858
REMARK INTRA:                  -3.776
REMARK UNBOUND:                -3.755
REMARK SMILES CCCCCCCCCCCCCCCCCCCCCCCCCCCCCC(=O)[O-]
REMARK SMILES IDX 16 1 17 2 18 3 19 4 20 5 21 6 22 7 23 8 24 9 25 10 26 11
REMARK SMILES IDX 27 12 28 13 29 14 30 15 31 16 32 17 15 18 14 19 13 20 12 21
REMARK SMILES IDX 11 22 10 23 9 24 8 25 7 26 6 27 5 28 4 29 3 30 2 31 1 32
REMARK H PARENT
REMARK Flexibility Score: inf
ROOT
ATOM      1  C   UNL     1     -17.931   0.381 -17.974  1.00  0.00     0.000 C 
ENDROOT
BRANCH   1   2
ATOM      2  C   UNL     1     -17.321   1.036 -16.723  1.00  0.00     0.000 C 
BRANCH   2   3
ATOM      3  C   UNL     1     -17.149   0.053 -15.551  1.00  0.00     0.000 C 
BRANCH   3   4
ATOM      4  C   UNL     1     -18.326  -0.004 -14.560  1.00  0.00     0.000 C 
BRANCH   4   5
ATOM      5  C   UNL     1     -18.721  -1.441 -14.178  1.00  0.00     0.000 C 
BRANCH   5   6
ATOM      6  C   UNL     1     -19.837  -2.011 -15.073  1.00  0.00     0.000 C 
BRANCH   6   7
ATOM      7  C   UNL     1     -20.830  -0.970 -15.631  1.00  0.00     0.000 C 
BRANCH   7   8
ATOM      8  C   UNL     1     -22.229  -1.519 -15.973  1.00  0.00     0.000 C 
BRANCH   8   9
ATOM      9  C   UNL     1     -23.368  -0.482 -15.906  1.00  0.00     0.000 C 
BRANCH   9  10
ATOM     10  C   UNL     1     -24.662  -0.887 -16.643  1.00  0.00     0.000 C 
BRANCH  10  11
ATOM     11  C   UNL     1     -25.160  -2.311 -16.343  1.00  0.00     0.000 C 
BRANCH  11  12
ATOM     12  C   UNL     1     -25.093  -3.236 -17.566  1.00  0.00     0.000 C 
BRANCH  12  13
ATOM     13  C   UNL     1     -26.404  -4.020 -17.732  1.00  0.00     0.006 C 
BRANCH  13  14
ATOM     14  C   UNL     1     -26.218  -5.298 -18.562  1.00  0.00     0.053 C 
BRANCH  14  15
ATOM     15  C   UNL     1     -27.120  -6.405 -18.107  1.00  0.00     0.041 C 
ATOM     16  O   UNL     1     -26.675  -7.578 -17.997  1.00  0.00    -0.550 OA
ATOM     17  O   UNL     1     -28.445  -6.138 -17.779  1.00  0.00    -0.550 OA
ENDBRANCH  14  15
ENDBRANCH  13  14
ENDBRANCH  12  13
ENDBRANCH  11  12
ENDBRANCH  10  11
ENDBRANCH   9  10
ENDBRANCH   8   9
ENDBRANCH   7   8
ENDBRANCH   6   7
ENDBRANCH   5   6
ENDBRANCH   4   5
ENDBRANCH   3   4
ENDBRANCH   2   3
ENDBRANCH   1   2
BRANCH   1  18
ATOM     18  C   UNL     1     -17.779  -1.149 -17.973  1.00  0.00     0.000 C 
BRANCH  18  19
ATOM     19  C   UNL     1     -16.636  -1.631 -18.881  1.00  0.00     0.000 C 
BRANCH  19  20
ATOM     20  C   UNL     1     -15.338  -1.808 -18.084  1.00  0.00     0.000 C 
BRANCH  20  21
ATOM     21  C   UNL     1     -14.257  -0.835 -18.575  1.00  0.00     0.000 C 
BRANCH  21  22
ATOM     22  C   UNL     1     -14.729   0.028 -19.756  1.00  0.00     0.000 C 
BRANCH  22  23
ATOM     23  C   UNL     1     -14.523   1.530 -19.510  1.00  0.00     0.000 C 
BRANCH  23  24
ATOM     24  C   UNL     1     -13.775   1.771 -18.190  1.00  0.00    -0.000 C 
BRANCH  24  25
ATOM     25  C   UNL     1     -14.225   3.056 -17.476  1.00  0.00    -0.000 C 
BRANCH  25  26
ATOM     26  C   UNL     1     -13.304   3.438 -16.307  1.00  0.00    -0.000 C 
BRANCH  26  27
ATOM     27  C   UNL     1     -13.450   2.442 -15.145  1.00  0.00    -0.000 C 
BRANCH  27  28
ATOM     28  C   UNL     1     -14.821   2.529 -14.457  1.00  0.00    -0.000 C 
BRANCH  28  29
ATOM     29  C   UNL     1     -14.884   1.716 -13.155  1.00  0.00    -0.000 C 
BRANCH  29  30
ATOM     30  C   UNL     1     -15.551   2.528 -12.034  1.00  0.00    -0.000 C 
BRANCH  30  31
ATOM     31  C   UNL     1     -16.978   2.049 -11.727  1.00  0.00    -0.003 C 
ATOM     32  C   UNL     1     -17.019   0.614 -11.203  1.00  0.00     0.004 C 
ENDBRANCH  30  31
ENDBRANCH  29  30
ENDBRANCH  28  29
ENDBRANCH  27  28
ENDBRANCH  26  27
ENDBRANCH  25  26
ENDBRANCH  24  25
ENDBRANCH  23  24
ENDBRANCH  22  23
ENDBRANCH  21  22
ENDBRANCH  20  21
ENDBRANCH  19  20
ENDBRANCH  18  19
ENDBRANCH   1  18
TORSDOF 28
ENDMDL
MODEL 5
REMARK VINA RESULT:    -6.001      2.059      5.036
REMARK INTER + INTRA:         -19.579
REMARK INTER:                 -15.587
REMARK INTRA:                  -3.993
REMARK UNBOUND:                -3.755
REMARK SMILES CCCCCCCCCCCCCCCCCCCCCCCCCCCCCC(=O)[O-]
REMARK SMILES IDX 16 1 17 2 18 3 19 4 20 5 21 6 22 7 23 8 24 9 25 10 26 11
REMARK SMILES IDX 27 12 28 13 29 14 30 15 31 16 32 17 15 18 14 19 13 20 12 21
REMARK SMILES IDX 11 22 10 23 9 24 8 25 7 26 6 27 5 28 4 29 3 30 2 31 1 32
REMARK H PARENT
REMARK Flexibility Score: inf
ROOT
ATOM      1  C   UNL     1     -17.642  -0.612 -12.657  1.00  0.00     0.000 C 
ENDROOT
BRANCH   1   2
ATOM      2  C   UNL     1     -18.640  -1.170 -13.687  1.00  0.00     0.000 C 
BRANCH   2   3
ATOM      3  C   UNL     1     -18.143  -1.040 -15.139  1.00  0.00     0.000 C 
BRANCH   3   4
ATOM      4  C   UNL     1     -19.222  -0.676 -16.175  1.00  0.00     0.000 C 
BRANCH   4   5
ATOM      5  C   UNL     1     -20.407   0.092 -15.566  1.00  0.00     0.000 C 
BRANCH   5   6
ATOM      6  C   UNL     1     -21.770  -0.523 -15.934  1.00  0.00     0.000 C 
BRANCH   6   7
ATOM      7  C   UNL     1     -21.890  -2.043 -15.704  1.00  0.00     0.000 C 
BRANCH   7   8
ATOM      8  C   UNL     1     -23.297  -2.630 -15.931  1.00  0.00     0.000 C 
BRANCH   8   9
ATOM      9  C   UNL     1     -24.386  -1.593 -16.271  1.00  0.00     0.000 C 
BRANCH   9  10
ATOM     10  C   UNL     1     -25.558  -1.526 -15.270  1.00  0.00     0.000 C 
BRANCH  10  11
ATOM     11  C   UNL     1     -26.018  -0.104 -14.905  1.00  0.00     0.000 C 
BRANCH  11  12
ATOM     12  C   UNL     1     -24.857   0.810 -14.491  1.00  0.00     0.000 C 
BRANCH  12  13
ATOM     13  C   UNL     1     -25.031   2.218 -15.084  1.00  0.00     0.006 C 
BRANCH  13  14
ATOM     14  C   UNL     1     -24.432   2.334 -16.492  1.00  0.00     0.053 C 
BRANCH  14  15
ATOM     15  C   UNL     1     -25.322   3.099 -17.425  1.00  0.00     0.041 C 
ATOM     16  O   UNL     1     -25.932   4.123 -17.018  1.00  0.00    -0.550 OA
ATOM     17  O   UNL     1     -25.459   2.697 -18.749  1.00  0.00    -0.550 OA
ENDBRANCH  14  15
ENDBRANCH  13  14
ENDBRANCH  12  13
ENDBRANCH  11  12
ENDBRANCH  10  11
ENDBRANCH   9  10
ENDBRANCH   8   9
ENDBRANCH   7   8
ENDBRANCH   6   7
ENDBRANCH   5   6
ENDBRANCH   4   5
ENDBRANCH   3   4
ENDBRANCH   2   3
ENDBRANCH   1   2
BRANCH   1  18
ATOM     18  C   UNL     1     -18.093   0.736 -12.069  1.00  0.00     0.000 C 
BRANCH  18  19
ATOM     19  C   UNL     1     -17.011   1.393 -11.197  1.00  0.00     0.000 C 
BRANCH  19  20
ATOM     20  C   UNL     1     -15.662   1.423 -11.925  1.00  0.00     0.000 C 
BRANCH  20  21
ATOM     21  C   UNL     1     -15.386   2.815 -12.510  1.00  0.00     0.000 C 
BRANCH  21  22
ATOM     22  C   UNL     1     -15.049   2.770 -14.009  1.00  0.00     0.000 C 
BRANCH  22  23
ATOM     23  C   UNL     1     -15.428   1.432 -14.661  1.00  0.00     0.000 C 
BRANCH  23  24
ATOM     24  C   UNL     1     -15.699   1.612 -16.162  1.00  0.00    -0.000 C 
BRANCH  24  25
ATOM     25  C   UNL     1     -15.456   3.052 -16.642  1.00  0.00    -0.000 C 
BRANCH  25  26
ATOM     26  C   UNL     1     -14.357   3.142 -17.712  1.00  0.00    -0.000 C 
BRANCH  26  27
ATOM     27  C   UNL     1     -14.104   1.770 -18.356  1.00  0.00    -0.000 C 
BRANCH  27  28
ATOM     28  C   UNL     1     -14.714   1.653 -19.762  1.00  0.00    -0.000 C 
BRANCH  28  29
ATOM     29  C   UNL     1     -15.248   0.244 -20.062  1.00  0.00    -0.000 C 
BRANCH  29  30
ATOM     30  C   UNL     1     -16.647   0.049 -19.457  1.00  0.00    -0.000 C 
BRANCH  30  31
ATOM     31  C   UNL     1     -16.831  -1.342 -18.830  1.00  0.00    -0.003 C 
ATOM     32  C   UNL     1     -15.655  -1.748 -17.943  1.00  0.00     0.004 C 
ENDBRANCH  30  31
ENDBRANCH  29  30
ENDBRANCH  28  29
ENDBRANCH  27  28
ENDBRANCH  26  27
ENDBRANCH  25  26
ENDBRANCH  24  25
ENDBRANCH  23  24
ENDBRANCH  22  23
ENDBRANCH  21  22
ENDBRANCH  20  21
ENDBRANCH  19  20
ENDBRANCH  18  19
ENDBRANCH   1  18
TORSDOF 28
ENDMDL
MODEL 6
REMARK VINA RESULT:    -5.984      2.336      5.369
REMARK INTER + INTRA:         -19.533
REMARK INTER:                 -15.430
REMARK INTRA:                  -4.103
REMARK UNBOUND:                -3.755
REMARK SMILES CCCCCCCCCCCCCCCCCCCCCCCCCCCCCC(=O)[O-]
REMARK SMILES IDX 16 1 17 2 18 3 19 4 20 5 21 6 22 7 23 8 24 9 25 10 26 11
REMARK SMILES IDX 27 12 28 13 29 14 30 15 31 16 32 17 15 18 14 19 13 20 12 21
REMARK SMILES IDX 11 22 10 23 9 24 8 25 7 26 6 27 5 28 4 29 3 30 2 31 1 32
REMARK H PARENT
REMARK Flexibility Score: inf
ROOT
ATOM      1  C   UNL     1     -17.440  -0.254 -12.325  1.00  0.00     0.000 C 
ENDROOT
BRANCH   1   2
ATOM      2  C   UNL     1     -18.509  -0.156 -13.428  1.00  0.00     0.000 C 
BRANCH   2   3
ATOM      3  C   UNL     1     -18.841  -1.517 -14.067  1.00  0.00     0.000 C 
BRANCH   3   4
ATOM      4  C   UNL     1     -19.804  -1.464 -15.268  1.00  0.00     0.000 C 
BRANCH   4   5
ATOM      5  C   UNL     1     -20.168  -0.029 -15.684  1.00  0.00     0.000 C 
BRANCH   5   6
ATOM      6  C   UNL     1     -21.682   0.168 -15.886  1.00  0.00     0.000 C 
BRANCH   6   7
ATOM      7  C   UNL     1     -22.116   1.600 -16.260  1.00  0.00     0.000 C 
BRANCH   7   8
ATOM      8  C   UNL     1     -23.640   1.825 -16.323  1.00  0.00     0.000 C 
BRANCH   8   9
ATOM      9  C   UNL     1     -24.468   0.942 -15.368  1.00  0.00     0.000 C 
BRANCH   9  10
ATOM     10  C   UNL     1     -25.941   0.739 -15.780  1.00  0.00     0.000 C 
BRANCH  10  11
ATOM     11  C   UNL     1     -26.198   0.755 -17.297  1.00  0.00     0.000 C 
BRANCH  11  12
ATOM     12  C   UNL     1     -27.369   1.665 -17.694  1.00  0.00     0.000 C 
BRANCH  12  13
ATOM     13  C   UNL     1     -27.107   2.333 -19.053  1.00  0.00     0.006 C 
BRANCH  13  14
ATOM     14  C   UNL     1     -25.714   2.969 -19.131  1.00  0.00     0.053 C 
BRANCH  14  15
ATOM     15  C   UNL     1     -25.652   4.287 -18.420  1.00  0.00     0.041 C 
ATOM     16  O   UNL     1     -24.542   4.849 -18.226  1.00  0.00    -0.550 OA
ATOM     17  O   UNL     1     -26.821   4.908 -17.994  1.00  0.00    -0.550 OA
ENDBRANCH  14  15
ENDBRANCH  13  14
ENDBRANCH  12  13
ENDBRANCH  11  12
ENDBRANCH  10  11
ENDBRANCH   9  10
ENDBRANCH   8   9
ENDBRANCH   7   8
ENDBRANCH   6   7
ENDBRANCH   5   6
ENDBRANCH   4   5
ENDBRANCH   3   4
ENDBRANCH   2   3
ENDBRANCH   1   2
BRANCH   1  18
ATOM     18  C   UNL     1     -17.670   0.756 -11.189  1.00  0.00     0.000 C 
BRANCH  18  19
ATOM     19  C   UNL     1     -16.627   1.885 -11.180  1.00  0.00     0.000 C 
BRANCH  19  20
ATOM     20  C   UNL     1     -15.495   1.596 -12.173  1.00  0.00     0.000 C 
BRANCH  20  21
ATOM     21  C   UNL     1     -15.177   2.838 -13.017  1.00  0.00     0.000 C 
BRANCH  21  22
ATOM     22  C   UNL     1     -15.574   2.670 -14.492  1.00  0.00     0.000 C 
BRANCH  22  23
ATOM     23  C   UNL     1     -15.437   1.219 -14.980  1.00  0.00     0.000 C 
BRANCH  23  24
ATOM     24  C   UNL     1     -16.442   0.923 -16.104  1.00  0.00    -0.000 C 
BRANCH  24  25
ATOM     25  C   UNL     1     -16.349  -0.522 -16.620  1.00  0.00    -0.000 C 
BRANCH  25  26
ATOM     26  C   UNL     1     -17.137  -0.737 -17.922  1.00  0.00    -0.000 C 
BRANCH  26  27
ATOM     27  C   UNL     1     -16.999   0.476 -18.854  1.00  0.00    -0.000 C 
BRANCH  27  28
ATOM     28  C   UNL     1     -15.742   0.410 -19.735  1.00  0.00    -0.000 C 
BRANCH  28  29
ATOM     29  C   UNL     1     -14.847   1.649 -19.586  1.00  0.00    -0.000 C 
BRANCH  29  30
ATOM     30  C   UNL     1     -13.738   1.402 -18.551  1.00  0.00    -0.000 C 
BRANCH  30  31
ATOM     31  C   UNL     1     -13.339   2.680 -17.797  1.00  0.00    -0.003 C 
ATOM     32  C   UNL     1     -14.438   3.743 -17.816  1.00  0.00     0.004 C 
ENDBRANCH  30  31
ENDBRANCH  29  30
ENDBRANCH  28  29
ENDBRANCH  27  28
ENDBRANCH  26  27
ENDBRANCH  25  26
ENDBRANCH  24  25
ENDBRANCH  23  24
ENDBRANCH  22  23
ENDBRANCH  21  22
ENDBRANCH  20  21
ENDBRANCH  19  20
ENDBRANCH  18  19
ENDBRANCH   1  18
TORSDOF 28
ENDMDL
MODEL 7
REMARK VINA RESULT:    -5.974      1.956      2.510
REMARK INTER + INTRA:         -19.507
REMARK INTER:                 -15.756
REMARK INTRA:                  -3.751
REMARK UNBOUND:                -3.755
REMARK SMILES CCCCCCCCCCCCCCCCCCCCCCCCCCCCCC(=O)[O-]
REMARK SMILES IDX 16 1 17 2 18 3 19 4 20 5 21 6 22 7 23 8 24 9 25 10 26 11
REMARK SMILES IDX 27 12 28 13 29 14 30 15 31 16 32 17 15 18 14 19 13 20 12 21
REMARK SMILES IDX 11 22 10 23 9 24 8 25 7 26 6 27 5 28 4 29 3 30 2 31 1 32
REMARK H PARENT
REMARK Flexibility Score: inf
ROOT
ATOM      1  C   UNL     1     -17.957  -0.659 -18.549  1.00  0.00     0.000 C 
ENDROOT
BRANCH   1   2
ATOM      2  C   UNL     1     -17.622   0.472 -17.562  1.00  0.00     0.000 C 
BRANCH   2   3
ATOM      3  C   UNL     1     -18.563   0.508 -16.343  1.00  0.00     0.000 C 
BRANCH   3   4
ATOM      4  C   UNL     1     -17.931   0.070 -15.009  1.00  0.00     0.000 C 
BRANCH   4   5
ATOM      5  C   UNL     1     -18.609  -1.170 -14.402  1.00  0.00     0.000 C 
BRANCH   5   6
ATOM      6  C   UNL     1     -19.310  -2.044 -15.459  1.00  0.00     0.000 C 
BRANCH   6   7
ATOM      7  C   UNL     1     -20.791  -2.363 -15.172  1.00  0.00     0.000 C 
BRANCH   7   8
ATOM      8  C   UNL     1     -21.807  -1.471 -15.914  1.00  0.00     0.000 C 
BRANCH   8   9
ATOM      9  C   UNL     1     -23.287  -1.803 -15.636  1.00  0.00     0.000 C 
BRANCH   9  10
ATOM     10  C   UNL     1     -24.009  -2.561 -16.769  1.00  0.00     0.000 C 
BRANCH  10  11
ATOM     11  C   UNL     1     -25.246  -1.847 -17.340  1.00  0.00     0.000 C 
BRANCH  11  12
ATOM     12  C   UNL     1     -26.091  -1.159 -16.258  1.00  0.00     0.000 C 
BRANCH  12  13
ATOM     13  C   UNL     1     -26.420   0.288 -16.659  1.00  0.00     0.006 C 
BRANCH  13  14
ATOM     14  C   UNL     1     -25.321   0.917 -17.524  1.00  0.00     0.053 C 
BRANCH  14  15
ATOM     15  C   UNL     1     -24.490   1.901 -16.757  1.00  0.00     0.041 C 
ATOM     16  O   UNL     1     -24.047   1.601 -15.617  1.00  0.00    -0.550 OA
ATOM     17  O   UNL     1     -24.184   3.140 -17.310  1.00  0.00    -0.550 OA
ENDBRANCH  14  15
ENDBRANCH  13  14
ENDBRANCH  12  13
ENDBRANCH  11  12
ENDBRANCH  10  11
ENDBRANCH   9  10
ENDBRANCH   8   9
ENDBRANCH   7   8
ENDBRANCH   6   7
ENDBRANCH   5   6
ENDBRANCH   4   5
ENDBRANCH   3   4
ENDBRANCH   2   3
ENDBRANCH   1   2
BRANCH   1  18
ATOM     18  C   UNL     1     -16.756  -1.580 -18.822  1.00  0.00     0.000 C 
BRANCH  18  19
ATOM     19  C   UNL     1     -15.570  -1.300 -17.885  1.00  0.00     0.000 C 
BRANCH  19  20
ATOM     20  C   UNL     1     -14.320  -0.911 -18.683  1.00  0.00     0.000 C 
BRANCH  20  21
ATOM     21  C   UNL     1     -14.703  -0.197 -19.987  1.00  0.00     0.000 C 
BRANCH  21  22
ATOM     22  C   UNL     1     -14.682   1.333 -19.852  1.00  0.00     0.000 C 
BRANCH  22  23
ATOM     23  C   UNL     1     -13.630   1.824 -18.845  1.00  0.00     0.000 C 
BRANCH  23  24
ATOM     24  C   UNL     1     -13.889   3.287 -18.454  1.00  0.00    -0.000 C 
BRANCH  24  25
ATOM     25  C   UNL     1     -13.158   3.696 -17.164  1.00  0.00    -0.000 C 
BRANCH  25  26
ATOM     26  C   UNL     1     -13.528   2.807 -15.967  1.00  0.00    -0.000 C 
BRANCH  26  27
ATOM     27  C   UNL     1     -15.049   2.777 -15.753  1.00  0.00    -0.000 C 
BRANCH  27  28
ATOM     28  C   UNL     1     -15.438   2.612 -14.275  1.00  0.00    -0.000 C 
BRANCH  28  29
ATOM     29  C   UNL     1     -14.830   1.354 -13.639  1.00  0.00    -0.000 C 
BRANCH  29  30
ATOM     30  C   UNL     1     -15.153   1.288 -12.138  1.00  0.00    -0.000 C 
BRANCH  30  31
ATOM     31  C   UNL     1     -16.286   2.245 -11.736  1.00  0.00    -0.003 C 
ATOM     32  C   UNL     1     -17.448   1.527 -11.050  1.00  0.00     0.004 C 
ENDBRANCH  30  31
ENDBRANCH  29  30
ENDBRANCH  28  29
ENDBRANCH  27  28
ENDBRANCH  26  27
ENDBRANCH  25  26
ENDBRANCH  24  25
ENDBRANCH  23  24
ENDBRANCH  22  23
ENDBRANCH  21  22
ENDBRANCH  20  21
ENDBRANCH  19  20
ENDBRANCH  18  19
ENDBRANCH   1  18
TORSDOF 28
ENDMDL
MODEL 8
REMARK VINA RESULT:    -5.930      2.217      5.251
REMARK INTER + INTRA:         -19.392
REMARK INTER:                 -15.533
REMARK INTRA:                  -3.859
REMARK UNBOUND:                -3.755
REMARK SMILES CCCCCCCCCCCCCCCCCCCCCCCCCCCCCC(=O)[O-]
REMARK SMILES IDX 16 1 17 2 18 3 19 4 20 5 21 6 22 7 23 8 24 9 25 10 26 11
REMARK SMILES IDX 27 12 28 13 29 14 30 15 31 16 32 17 15 18 14 19 13 20 12 21
REMARK SMILES IDX 11 22 10 23 9 24 8 25 7 26 6 27 5 28 4 29 3 30 2 31 1 32
REMARK H PARENT
REMARK Flexibility Score: inf
ROOT
ATOM      1  C   UNL     1     -17.410  -0.242 -12.824  1.00  0.00     0.000 C 
ENDROOT
BRANCH   1   2
ATOM      2  C   UNL     1     -18.487  -0.084 -13.910  1.00  0.00     0.000 C 
BRANCH   2   3
ATOM      3  C   UNL     1     -18.881  -1.420 -14.567  1.00  0.00     0.000 C 
BRANCH   3   4
ATOM      4  C   UNL     1     -20.123  -1.369 -15.475  1.00  0.00     0.000 C 
BRANCH   4   5
ATOM      5  C   UNL     1     -20.508   0.062 -15.886  1.00  0.00     0.000 C 
BRANCH   5   6
ATOM      6  C   UNL     1     -22.031   0.290 -15.897  1.00  0.00     0.000 C 
BRANCH   6   7
ATOM      7  C   UNL     1     -22.479   1.735 -16.201  1.00  0.00     0.000 C 
BRANCH   7   8
ATOM      8  C   UNL     1     -23.827   2.146 -15.578  1.00  0.00     0.000 C 
BRANCH   8   9
ATOM      9  C   UNL     1     -24.765   2.930 -16.518  1.00  0.00     0.000 C 
BRANCH   9  10
ATOM     10  C   UNL     1     -25.268   2.141 -17.745  1.00  0.00     0.000 C 
BRANCH  10  11
ATOM     11  C   UNL     1     -26.210   0.969 -17.419  1.00  0.00     0.000 C 
BRANCH  11  12
ATOM     12  C   UNL     1     -25.558  -0.402 -17.647  1.00  0.00     0.000 C 
BRANCH  12  13
ATOM     13  C   UNL     1     -26.167  -1.460 -16.714  1.00  0.00     0.006 C 
BRANCH  13  14
ATOM     14  C   UNL     1     -25.228  -1.827 -15.557  1.00  0.00     0.053 C 
BRANCH  14  15
ATOM     15  C   UNL     1     -24.144  -2.770 -15.985  1.00  0.00     0.041 C 
ATOM     16  O   UNL     1     -24.195  -3.318 -17.117  1.00  0.00    -0.550 OA
ATOM     17  O   UNL     1     -23.066  -3.024 -15.145  1.00  0.00    -0.550 OA
ENDBRANCH  14  15
ENDBRANCH  13  14
ENDBRANCH  12  13
ENDBRANCH  11  12
ENDBRANCH  10  11
ENDBRANCH   9  10
ENDBRANCH   8   9
ENDBRANCH   7   8
ENDBRANCH   6   7
ENDBRANCH   5   6
ENDBRANCH   4   5
ENDBRANCH   3   4
ENDBRANCH   2   3
ENDBRANCH   1   2
BRANCH   1  18
ATOM     18  C   UNL     1     -17.793   0.454 -11.507  1.00  0.00     0.000 C 
BRANCH  18  19
ATOM     19  C   UNL     1     -17.079   1.803 -11.321  1.00  0.00     0.000 C 
BRANCH  19  20
ATOM     20  C   UNL     1     -15.614   1.715 -11.765  1.00  0.00     0.000 C 
BRANCH  20  21
ATOM     21  C   UNL     1     -15.193   2.984 -12.520  1.00  0.00     0.000 C 
BRANCH  21  22
ATOM     22  C   UNL     1     -15.525   2.917 -14.019  1.00  0.00     0.000 C 
BRANCH  22  23
ATOM     23  C   UNL     1     -15.069   1.602 -14.668  1.00  0.00     0.000 C 
BRANCH  23  24
ATOM     24  C   UNL     1     -15.762   1.391 -16.023  1.00  0.00    -0.000 C 
BRANCH  24  25
ATOM     25  C   UNL     1     -15.679   2.628 -16.933  1.00  0.00    -0.000 C 
BRANCH  25  26
ATOM     26  C   UNL     1     -14.456   2.598 -17.863  1.00  0.00    -0.000 C 
BRANCH  26  27
ATOM     27  C   UNL     1     -14.171   1.169 -18.350  1.00  0.00    -0.000 C 
BRANCH  27  28
ATOM     28  C   UNL     1     -14.706   0.906 -19.767  1.00  0.00    -0.000 C 
BRANCH  28  29
ATOM     29  C   UNL     1     -15.679  -0.281 -19.823  1.00  0.00    -0.000 C 
BRANCH  29  30
ATOM     30  C   UNL     1     -17.053   0.110 -19.258  1.00  0.00    -0.000 C 
BRANCH  30  31
ATOM     31  C   UNL     1     -17.734  -1.046 -18.508  1.00  0.00    -0.003 C 
ATOM     32  C   UNL     1     -16.749  -1.873 -17.681  1.00  0.00     0.004 C 
ENDBRANCH  30  31
ENDBRANCH  29  30
ENDBRANCH  28  29
ENDBRANCH  27  28
ENDBRANCH  26  27
ENDBRANCH  25  26
ENDBRANCH  24  25
ENDBRANCH  23  24
ENDBRANCH  22  23
ENDBRANCH  21  22
ENDBRANCH  20  21
ENDBRANCH  19  20
ENDBRANCH  18  19
ENDBRANCH   1  18
TORSDOF 28
ENDMDL
MODEL 9
REMARK VINA RESULT:    -5.911      1.331      4.625
REMARK INTER + INTRA:         -19.343
REMARK INTER:                 -16.124
REMARK INTRA:                  -3.219
REMARK UNBOUND:                -3.755
REMARK SMILES CCCCCCCCCCCCCCCCCCCCCCCCCCCCCC(=O)[O-]
REMARK SMILES IDX 16 1 17 2 18 3 19 4 20 5 21 6 22 7 23 8 24 9 25 10 26 11
REMARK SMILES IDX 27 12 28 13 29 14 30 15 31 16 32 17 15 18 14 19 13 20 12 21
REMARK SMILES IDX 11 22 10 23 9 24 8 25 7 26 6 27 5 28 4 29 3 30 2 31 1 32
REMARK H PARENT
REMARK Flexibility Score: inf
ROOT
ATOM      1  C   UNL     1     -18.431   0.036 -12.936  1.00  0.00     0.000 C 
ENDROOT
BRANCH   1   2
ATOM      2  C   UNL     1     -17.549  -0.805 -13.874  1.00  0.00     0.000 C 
BRANCH   2   3
ATOM      3  C   UNL     1     -18.134  -0.940 -15.292  1.00  0.00     0.000 C 
BRANCH   3   4
ATOM      4  C   UNL     1     -18.701   0.357 -15.898  1.00  0.00     0.000 C 
BRANCH   4   5
ATOM      5  C   UNL     1     -20.236   0.357 -15.990  1.00  0.00     0.000 C 
BRANCH   5   6
ATOM      6  C   UNL     1     -20.847  -1.041 -15.777  1.00  0.00     0.000 C 
BRANCH   6   7
ATOM      7  C   UNL     1     -22.383  -1.112 -15.887  1.00  0.00     0.000 C 
BRANCH   7   8
ATOM      8  C   UNL     1     -23.101   0.252 -15.916  1.00  0.00     0.000 C 
BRANCH   8   9
ATOM      9  C   UNL     1     -24.476   0.278 -15.222  1.00  0.00     0.000 C 
BRANCH   9  10
ATOM     10  C   UNL     1     -25.657   0.687 -16.127  1.00  0.00     0.000 C 
BRANCH  10  11
ATOM     11  C   UNL     1     -27.040   0.625 -15.456  1.00  0.00     0.000 C 
BRANCH  11  12
ATOM     12  C   UNL     1     -27.478   1.973 -14.866  1.00  0.00     0.000 C 
BRANCH  12  13
ATOM     13  C   UNL     1     -27.352   1.966 -13.334  1.00  0.00     0.006 C 
BRANCH  13  14
ATOM     14  C   UNL     1     -28.184   0.852 -12.687  1.00  0.00     0.053 C 
BRANCH  14  15
ATOM     15  C   UNL     1     -28.707   1.246 -11.338  1.00  0.00     0.041 C 
ATOM     16  O   UNL     1     -29.117   0.365 -10.537  1.00  0.00    -0.550 OA
ATOM     17  O   UNL     1     -28.719   2.583 -10.955  1.00  0.00    -0.550 OA
ENDBRANCH  14  15
ENDBRANCH  13  14
ENDBRANCH  12  13
ENDBRANCH  11  12
ENDBRANCH  10  11
ENDBRANCH   9  10
ENDBRANCH   8   9
ENDBRANCH   7   8
ENDBRANCH   6   7
ENDBRANCH   5   6
ENDBRANCH   4   5
ENDBRANCH   3   4
ENDBRANCH   2   3
ENDBRANCH   1   2
BRANCH   1  18
ATOM     18  C   UNL     1     -17.705   0.433 -11.640  1.00  0.00     0.000 C 
BRANCH  18  19
ATOM     19  C   UNL     1     -17.014   1.802 -11.743  1.00  0.00     0.000 C 
BRANCH  19  20
ATOM     20  C   UNL     1     -15.496   1.666 -11.575  1.00  0.00     0.000 C 
BRANCH  20  21
ATOM     21  C   UNL     1     -14.829   1.290 -12.906  1.00  0.00     0.000 C 
BRANCH  21  22
ATOM     22  C   UNL     1     -14.954   2.397 -13.964  1.00  0.00     0.000 C 
BRANCH  22  23
ATOM     23  C   UNL     1     -15.234   1.844 -15.369  1.00  0.00     0.000 C 
BRANCH  23  24
ATOM     24  C   UNL     1     -15.201   2.968 -16.416  1.00  0.00    -0.000 C 
BRANCH  24  25
ATOM     25  C   UNL     1     -13.777   3.300 -16.889  1.00  0.00    -0.000 C 
BRANCH  25  26
ATOM     26  C   UNL     1     -13.650   3.315 -18.421  1.00  0.00    -0.000 C 
BRANCH  26  27
ATOM     27  C   UNL     1     -13.759   1.893 -18.994  1.00  0.00    -0.000 C 
BRANCH  27  28
ATOM     28  C   UNL     1     -14.678   1.817 -20.224  1.00  0.00    -0.000 C 
BRANCH  28  29
ATOM     29  C   UNL     1     -15.530   0.539 -20.249  1.00  0.00    -0.000 C 
BRANCH  29  30
ATOM     30  C   UNL     1     -16.310   0.375 -18.935  1.00  0.00    -0.000 C 
BRANCH  30  31
ATOM     31  C   UNL     1     -16.278  -1.066 -18.405  1.00  0.00    -0.003 C 
ATOM     32  C   UNL     1     -17.493  -1.884 -18.843  1.00  0.00     0.004 C 
ENDBRANCH  30  31
ENDBRANCH  29  30
ENDBRANCH  28  29
ENDBRANCH  27  28
ENDBRANCH  26  27
ENDBRANCH  25  26
ENDBRANCH  24  25
ENDBRANCH  23  24
ENDBRANCH  22  23
ENDBRANCH  21  22
ENDBRANCH  20  21
ENDBRANCH  19  20
ENDBRANCH  18  19
ENDBRANCH   1  18
TORSDOF 28
ENDMDL
