MODEL 1
REMARK VINA RESULT:    -4.086      0.000      0.000
REMARK INTER + INTRA:          -9.370
REMARK INTER:                  -7.909
REMARK INTRA:                  -1.462
REMARK UNBOUND:                -1.462
REMARK SMILES CCCCCCCCCCCCCCCCCC(=O)[O-]
REMARK SMILES IDX 10 1 11 2 12 3 13 4 14 5 15 6 16 7 17 8 18 9 19 10 20 11
REMARK SMILES IDX 9 12 8 13 7 14 6 15 5 16 4 17 3 18 2 19 1 20
REMARK H PARENT
REMARK Flexibility Score: inf
ROOT
ATOM      1  C   UNL     1      -4.318  35.501  21.719  1.00  0.00     0.000 C 
ENDROOT
BRANCH   1   2
ATOM      2  C   UNL     1      -5.733  35.167  22.209  1.00  0.00     0.000 C 
BRANCH   2   3
ATOM      3  C   UNL     1      -5.693  34.116  23.329  1.00  0.00     0.000 C 
BRANCH   3   4
ATOM      4  C   UNL     1      -5.916  34.727  24.721  1.00  0.00     0.000 C 
BRANCH   4   5
ATOM      5  C   UNL     1      -6.125  36.251  24.669  1.00  0.00     0.000 C 
BRANCH   5   6
ATOM      6  C   UNL     1      -4.937  37.031  25.257  1.00  0.00     0.000 C 
BRANCH   6   7
ATOM      7  C   UNL     1      -4.596  38.289  24.441  1.00  0.00     0.006 C 
BRANCH   7   8
ATOM      8  C   UNL     1      -5.681  38.621  23.407  1.00  0.00     0.053 C 
BRANCH   8   9
ATOM      9  C   UNL     1      -5.140  39.433  22.270  1.00  0.00     0.041 C 
ATOM     10  O   UNL     1      -3.935  39.310  21.924  1.00  0.00    -0.550 OA
ATOM     11  O   UNL     1      -5.955  40.345  21.615  1.00  0.00    -0.550 OA
ENDBRANCH   8   9
ENDBRANCH   7   8
ENDBRANCH   6   7
ENDBRANCH   5   6
ENDBRANCH   4   5
ENDBRANCH   3   4
ENDBRANCH   2   3
ENDBRANCH   1   2
BRANCH   1  12
ATOM     12  C   UNL     1      -4.358  36.554  20.600  1.00  0.00     0.000 C 
BRANCH  12  13
ATOM     13  C   UNL     1      -5.111  36.064  19.353  1.00  0.00    -0.000 C 
BRANCH  13  14
ATOM     14  C   UNL     1      -4.205  35.962  18.116  1.00  0.00    -0.000 C 
BRANCH  14  15
ATOM     15  C   UNL     1      -3.366  37.234  17.944  1.00  0.00    -0.000 C 
BRANCH  15  16
ATOM     16  C   UNL     1      -1.983  36.908  17.366  1.00  0.00    -0.000 C 
BRANCH  16  17
ATOM     17  C   UNL     1      -2.078  35.805  16.302  1.00  0.00    -0.000 C 
BRANCH  17  18
ATOM     18  C   UNL     1      -2.074  36.355  14.864  1.00  0.00    -0.000 C 
BRANCH  18  19
ATOM     19  C   UNL     1      -3.469  36.554  14.245  1.00  0.00    -0.003 C 
ATOM     20  C   UNL     1      -3.960  38.000  14.329  1.00  0.00     0.004 C 
ENDBRANCH  18  19
ENDBRANCH  17  18
ENDBRANCH  16  17
ENDBRANCH  15  16
ENDBRANCH  14  15
ENDBRANCH  13  14
ENDBRANCH  12  13
ENDBRANCH   1  12
TORSDOF 16
ENDMDL
MODEL 2
REMARK VINA RESULT:    -3.548      0.985      1.369
REMARK INTER + INTRA:          -8.329
REMARK INTER:                  -7.795
REMARK INTRA:                  -0.535
REMARK UNBOUND:                -1.462
REMARK SMILES CCCCCCCCCCCCCCCCCC(=O)[O-]
REMARK SMILES IDX 10 1 11 2 12 3 13 4 14 5 15 6 16 7 17 8 18 9 19 10 20 11
REMARK SMILES IDX 9 12 8 13 7 14 6 15 5 16 4 17 3 18 2 19 1 20
REMARK H PARENT
REMARK Flexibility Score: inf
ROOT
ATOM      1  C   UNL     1      -4.541  34.994  21.367  1.00  0.00     0.000 C 
ENDROOT
BRANCH   1   2
ATOM      2  C   UNL     1      -4.862  34.767  22.850  1.00  0.00     0.000 C 
BRANCH   2   3
ATOM      3  C   UNL     1      -6.095  35.579  23.277  1.00  0.00     0.000 C 
BRANCH   3   4
ATOM      4  C   UNL     1      -6.125  35.858  24.787  1.00  0.00     0.000 C 
BRANCH   4   5
ATOM      5  C   UNL     1      -5.121  36.947  25.207  1.00  0.00     0.000 C 
BRANCH   5   6
ATOM      6  C   UNL     1      -4.601  37.763  24.012  1.00  0.00     0.000 C 
BRANCH   6   7
ATOM      7  C   UNL     1      -5.031  39.239  24.074  1.00  0.00     0.006 C 
BRANCH   7   8
ATOM      8  C   UNL     1      -5.041  39.898  22.687  1.00  0.00     0.053 C 
BRANCH   8   9
ATOM      9  C   UNL     1      -4.930  38.886  21.588  1.00  0.00     0.041 C 
ATOM     10  O   UNL     1      -5.951  38.554  20.929  1.00  0.00    -0.550 OA
ATOM     11  O   UNL     1      -3.708  38.287  21.312  1.00  0.00    -0.550 OA
ENDBRANCH   8   9
ENDBRANCH   7   8
ENDBRANCH   6   7
ENDBRANCH   5   6
ENDBRANCH   4   5
ENDBRANCH   3   4
ENDBRANCH   2   3
ENDBRANCH   1   2
BRANCH   1  12
ATOM     12  C   UNL     1      -5.797  35.420  20.591  1.00  0.00     0.000 C 
BRANCH  12  13
ATOM     13  C   UNL     1      -5.767  34.968  19.123  1.00  0.00    -0.000 C 
BRANCH  13  14
ATOM     14  C   UNL     1      -4.434  35.290  18.430  1.00  0.00    -0.000 C 
BRANCH  14  15
ATOM     15  C   UNL     1      -4.150  36.797  18.461  1.00  0.00    -0.000 C 
BRANCH  15  16
ATOM     16  C   UNL     1      -2.959  37.152  17.563  1.00  0.00    -0.000 C 
BRANCH  16  17
ATOM     17  C   UNL     1      -2.579  35.969  16.661  1.00  0.00    -0.000 C 
BRANCH  17  18
ATOM     18  C   UNL     1      -2.027  36.409  15.293  1.00  0.00    -0.000 C 
BRANCH  18  19
ATOM     19  C   UNL     1      -3.087  36.574  14.190  1.00  0.00    -0.003 C 
ATOM     20  C   UNL     1      -3.936  37.834  14.361  1.00  0.00     0.004 C 
ENDBRANCH  18  19
ENDBRANCH  17  18
ENDBRANCH  16  17
ENDBRANCH  15  16
ENDBRANCH  14  15
ENDBRANCH  13  14
ENDBRANCH  12  13
ENDBRANCH   1  12
TORSDOF 16
ENDMDL
MODEL 3
REMARK VINA RESULT:    -3.514      1.845      6.459
REMARK INTER + INTRA:          -8.263
REMARK INTER:                  -6.276
REMARK INTRA:                  -1.987
REMARK UNBOUND:                -1.462
REMARK SMILES CCCCCCCCCCCCCCCCCC(=O)[O-]
REMARK SMILES IDX 10 1 11 2 12 3 13 4 14 5 15 6 16 7 17 8 18 9 19 10 20 11
REMARK SMILES IDX 9 12 8 13 7 14 6 15 5 16 4 17 3 18 2 19 1 20
REMARK H PARENT
REMARK Flexibility Score: inf
ROOT
ATOM      1  C   UNL     1      -4.375  35.055  22.654  1.00  0.00     0.000 C 
ENDROOT
BRANCH   1   2
ATOM      2  C   UNL     1      -4.244  35.265  21.140  1.00  0.00     0.000 C 
BRANCH   2   3
ATOM      3  C   UNL     1      -5.625  35.434  20.487  1.00  0.00     0.000 C 
BRANCH   3   4
ATOM      4  C   UNL     1      -5.533  35.782  18.993  1.00  0.00     0.000 C 
BRANCH   4   5
ATOM      5  C   UNL     1      -5.001  34.611  18.146  1.00  0.00     0.000 C 
BRANCH   5   6
ATOM      6  C   UNL     1      -3.677  34.947  17.440  1.00  0.00     0.000 C 
BRANCH   6   7
ATOM      7  C   UNL     1      -3.613  36.410  16.971  1.00  0.00     0.006 C 
BRANCH   7   8
ATOM      8  C   UNL     1      -2.186  36.974  17.025  1.00  0.00     0.053 C 
BRANCH   8   9
ATOM      9  C   UNL     1      -1.826  37.449  18.400  1.00  0.00     0.041 C 
ATOM     10  O   UNL     1      -2.731  37.719  19.233  1.00  0.00    -0.550 OA
ATOM     11  O   UNL     1      -0.493  37.622  18.750  1.00  0.00    -0.550 OA
ENDBRANCH   8   9
ENDBRANCH   7   8
ENDBRANCH   6   7
ENDBRANCH   5   6
ENDBRANCH   4   5
ENDBRANCH   3   4
ENDBRANCH   2   3
ENDBRANCH   1   2
BRANCH   1  12
ATOM     12  C   UNL     1      -5.851  34.979  23.073  1.00  0.00     0.000 C 
BRANCH  12  13
ATOM     13  C   UNL     1      -6.049  35.178  24.584  1.00  0.00    -0.000 C 
BRANCH  13  14
ATOM     14  C   UNL     1      -6.125  36.660  24.982  1.00  0.00    -0.000 C 
BRANCH  14  15
ATOM     15  C   UNL     1      -4.763  37.166  25.474  1.00  0.00    -0.000 C 
BRANCH  15  16
ATOM     16  C   UNL     1      -4.196  38.230  24.527  1.00  0.00    -0.000 C 
BRANCH  16  17
ATOM     17  C   UNL     1      -5.306  39.161  24.017  1.00  0.00    -0.000 C 
BRANCH  17  18
ATOM     18  C   UNL     1      -5.007  39.745  22.624  1.00  0.00    -0.000 C 
BRANCH  18  19
ATOM     19  C   UNL     1      -5.027  38.721  21.475  1.00  0.00    -0.003 C 
ATOM     20  C   UNL     1      -5.950  39.129  20.327  1.00  0.00     0.004 C 
ENDBRANCH  18  19
ENDBRANCH  17  18
ENDBRANCH  16  17
ENDBRANCH  15  16
ENDBRANCH  14  15
ENDBRANCH  13  14
ENDBRANCH  12  13
ENDBRANCH   1  12
TORSDOF 16
ENDMDL
MODEL 4
REMARK VINA RESULT:    -3.369      2.653      6.554
REMARK INTER + INTRA:          -7.983
REMARK INTER:                  -6.645
REMARK INTRA:                  -1.339
REMARK UNBOUND:                -1.462
REMARK SMILES CCCCCCCCCCCCCCCCCC(=O)[O-]
REMARK SMILES IDX 10 1 11 2 12 3 13 4 14 5 15 6 16 7 17 8 18 9 19 10 20 11
REMARK SMILES IDX 9 12 8 13 7 14 6 15 5 16 4 17 3 18 2 19 1 20
REMARK H PARENT
REMARK Flexibility Score: inf
ROOT
ATOM      1  C   UNL     1      -4.622  35.239  22.454  1.00  0.00     0.000 C 
ENDROOT
BRANCH   1   2
ATOM      2  C   UNL     1      -4.619  34.998  20.939  1.00  0.00     0.000 C 
BRANCH   2   3
ATOM      3  C   UNL     1      -6.028  35.176  20.352  1.00  0.00     0.000 C 
BRANCH   3   4
ATOM      4  C   UNL     1      -6.107  34.767  18.873  1.00  0.00     0.000 C 
BRANCH   4   5
ATOM      5  C   UNL     1      -4.728  34.422  18.281  1.00  0.00     0.000 C 
BRANCH   5   6
ATOM      6  C   UNL     1      -4.276  35.428  17.210  1.00  0.00     0.000 C 
BRANCH   6   7
ATOM      7  C   UNL     1      -3.297  36.478  17.761  1.00  0.00     0.006 C 
BRANCH   7   8
ATOM      8  C   UNL     1      -2.177  36.806  16.764  1.00  0.00     0.053 C 
BRANCH   8   9
ATOM      9  C   UNL     1      -2.707  37.014  15.378  1.00  0.00     0.041 C 
ATOM     10  O   UNL     1      -2.314  36.278  14.434  1.00  0.00    -0.550 OA
ATOM     11  O   UNL     1      -3.609  38.038  15.123  1.00  0.00    -0.550 OA
ENDBRANCH   8   9
ENDBRANCH   7   8
ENDBRANCH   6   7
ENDBRANCH   5   6
ENDBRANCH   4   5
ENDBRANCH   3   4
ENDBRANCH   2   3
ENDBRANCH   1   2
BRANCH   1  12
ATOM     12  C   UNL     1      -6.055  35.393  22.984  1.00  0.00     0.000 C 
BRANCH  12  13
ATOM     13  C   UNL     1      -6.115  35.470  24.517  1.00  0.00    -0.000 C 
BRANCH  13  14
ATOM     14  C   UNL     1      -5.979  36.907  25.045  1.00  0.00    -0.000 C 
BRANCH  14  15
ATOM     15  C   UNL     1      -4.735  37.590  24.461  1.00  0.00    -0.000 C 
BRANCH  15  16
ATOM     16  C   UNL     1      -4.980  39.087  24.243  1.00  0.00    -0.000 C 
BRANCH  16  17
ATOM     17  C   UNL     1      -4.764  39.471  22.772  1.00  0.00    -0.000 C 
BRANCH  17  18
ATOM     18  C   UNL     1      -5.761  38.787  21.820  1.00  0.00    -0.000 C 
BRANCH  18  19
ATOM     19  C   UNL     1      -5.212  38.489  20.413  1.00  0.00    -0.003 C 
ATOM     20  C   UNL     1      -3.738  38.083  20.421  1.00  0.00     0.004 C 
ENDBRANCH  18  19
ENDBRANCH  17  18
ENDBRANCH  16  17
ENDBRANCH  15  16
ENDBRANCH  14  15
ENDBRANCH  13  14
ENDBRANCH  12  13
ENDBRANCH   1  12
TORSDOF 16
ENDMDL
MODEL 5
REMARK VINA RESULT:    -3.187      1.825      7.050
REMARK INTER + INTRA:          -7.630
REMARK INTER:                  -6.095
REMARK INTRA:                  -1.535
REMARK UNBOUND:                -1.462
REMARK SMILES CCCCCCCCCCCCCCCCCC(=O)[O-]
REMARK SMILES IDX 10 1 11 2 12 3 13 4 14 5 15 6 16 7 17 8 18 9 19 10 20 11
REMARK SMILES IDX 9 12 8 13 7 14 6 15 5 16 4 17 3 18 2 19 1 20
REMARK H PARENT
REMARK Flexibility Score: inf
ROOT
ATOM      1  C   UNL     1      -5.388  36.984  19.873  1.00  0.00     0.000 C 
ENDROOT
BRANCH   1   2
ATOM      2  C   UNL     1      -4.780  35.575  19.885  1.00  0.00     0.000 C 
BRANCH   2   3
ATOM      3  C   UNL     1      -5.345  34.722  18.739  1.00  0.00     0.000 C 
BRANCH   3   4
ATOM      4  C   UNL     1      -4.299  34.423  17.654  1.00  0.00     0.000 C 
BRANCH   4   5
ATOM      5  C   UNL     1      -3.982  35.653  16.785  1.00  0.00     0.000 C 
BRANCH   5   6
ATOM      6  C   UNL     1      -2.640  35.525  16.045  1.00  0.00     0.000 C 
BRANCH   6   7
ATOM      7  C   UNL     1      -1.635  36.616  16.452  1.00  0.00     0.006 C 
BRANCH   7   8
ATOM      8  C   UNL     1      -2.259  37.656  17.393  1.00  0.00     0.053 C 
BRANCH   8   9
ATOM      9  C   UNL     1      -1.537  37.727  18.704  1.00  0.00     0.041 C 
ATOM     10  O   UNL     1      -0.306  37.468  18.763  1.00  0.00    -0.550 OA
ATOM     11  O   UNL     1      -2.229  38.049  19.864  1.00  0.00    -0.550 OA
ENDBRANCH   8   9
ENDBRANCH   7   8
ENDBRANCH   6   7
ENDBRANCH   5   6
ENDBRANCH   4   5
ENDBRANCH   3   4
ENDBRANCH   2   3
ENDBRANCH   1   2
BRANCH   1  12
ATOM     12  C   UNL     1      -5.197  37.677  21.230  1.00  0.00     0.000 C 
BRANCH  12  13
ATOM     13  C   UNL     1      -5.783  39.097  21.258  1.00  0.00    -0.000 C 
BRANCH  13  14
ATOM     14  C   UNL     1      -5.367  39.886  22.509  1.00  0.00    -0.000 C 
BRANCH  14  15
ATOM     15  C   UNL     1      -4.463  39.041  23.415  1.00  0.00    -0.000 C 
BRANCH  15  16
ATOM     16  C   UNL     1      -5.234  38.523  24.635  1.00  0.00    -0.000 C 
BRANCH  16  17
ATOM     17  C   UNL     1      -4.716  37.144  25.068  1.00  0.00    -0.000 C 
BRANCH  17  18
ATOM     18  C   UNL     1      -5.800  36.052  25.013  1.00  0.00    -0.000 C 
BRANCH  18  19
ATOM     19  C   UNL     1      -6.123  35.532  23.601  1.00  0.00    -0.003 C 
ATOM     20  C   UNL     1      -5.356  34.260  23.241  1.00  0.00     0.004 C 
ENDBRANCH  18  19
ENDBRANCH  17  18
ENDBRANCH  16  17
ENDBRANCH  15  16
ENDBRANCH  14  15
ENDBRANCH  13  14
ENDBRANCH  12  13
ENDBRANCH   1  12
TORSDOF 16
ENDMDL
MODEL 6
REMARK VINA RESULT:    -3.100      1.056      1.955
REMARK INTER + INTRA:          -7.461
REMARK INTER:                  -5.897
REMARK INTRA:                  -1.564
REMARK UNBOUND:                -1.462
REMARK SMILES CCCCCCCCCCCCCCCCCC(=O)[O-]
REMARK SMILES IDX 10 1 11 2 12 3 13 4 14 5 15 6 16 7 17 8 18 9 19 10 20 11
REMARK SMILES IDX 9 12 8 13 7 14 6 15 5 16 4 17 3 18 2 19 1 20
REMARK H PARENT
REMARK Flexibility Score: inf
ROOT
ATOM      1  C   UNL     1      -4.098  35.570  21.322  1.00  0.00     0.000 C 
ENDROOT
BRANCH   1   2
ATOM      2  C   UNL     1      -4.313  34.942  22.705  1.00  0.00     0.000 C 
BRANCH   2   3
ATOM      3  C   UNL     1      -5.803  34.931  23.078  1.00  0.00     0.000 C 
BRANCH   3   4
ATOM      4  C   UNL     1      -6.032  34.968  24.597  1.00  0.00     0.000 C 
BRANCH   4   5
ATOM      5  C   UNL     1      -6.121  36.404  25.145  1.00  0.00     0.000 C 
BRANCH   5   6
ATOM      6  C   UNL     1      -4.742  37.001  25.467  1.00  0.00     0.000 C 
BRANCH   6   7
ATOM      7  C   UNL     1      -4.360  38.149  24.518  1.00  0.00     0.006 C 
BRANCH   7   8
ATOM      8  C   UNL     1      -5.425  38.387  23.438  1.00  0.00     0.053 C 
BRANCH   8   9
ATOM      9  C   UNL     1      -4.903  39.230  22.315  1.00  0.00     0.041 C 
ATOM     10  O   UNL     1      -3.936  38.826  21.618  1.00  0.00    -0.550 OA
ATOM     11  O   UNL     1      -5.464  40.474  22.059  1.00  0.00    -0.550 OA
ENDBRANCH   8   9
ENDBRANCH   7   8
ENDBRANCH   6   7
ENDBRANCH   5   6
ENDBRANCH   4   5
ENDBRANCH   3   4
ENDBRANCH   2   3
ENDBRANCH   1   2
BRANCH   1  12
ATOM     12  C   UNL     1      -5.440  35.830  20.621  1.00  0.00     0.000 C 
BRANCH  12  13
ATOM     13  C   UNL     1      -5.483  35.262  19.195  1.00  0.00    -0.000 C 
BRANCH  13  14
ATOM     14  C   UNL     1      -4.490  35.955  18.250  1.00  0.00    -0.000 C 
BRANCH  14  15
ATOM     15  C   UNL     1      -4.042  35.004  17.132  1.00  0.00    -0.000 C 
BRANCH  15  16
ATOM     16  C   UNL     1      -3.483  35.784  15.936  1.00  0.00    -0.000 C 
BRANCH  16  17
ATOM     17  C   UNL     1      -1.982  36.055  16.110  1.00  0.00    -0.000 C 
BRANCH  17  18
ATOM     18  C   UNL     1      -1.691  37.398  16.805  1.00  0.00    -0.000 C 
BRANCH  18  19
ATOM     19  C   UNL     1      -0.917  37.286  18.131  1.00  0.00    -0.003 C 
ATOM     20  C   UNL     1      -1.527  38.127  19.252  1.00  0.00     0.004 C 
ENDBRANCH  18  19
ENDBRANCH  17  18
ENDBRANCH  16  17
ENDBRANCH  15  16
ENDBRANCH  14  15
ENDBRANCH  13  14
ENDBRANCH  12  13
ENDBRANCH   1  12
TORSDOF 16
ENDMDL
MODEL 7
REMARK VINA RESULT:    -1.962      2.845      6.890
REMARK INTER + INTRA:          -5.259
REMARK INTER:                  -3.453
REMARK INTRA:                  -1.806
REMARK UNBOUND:                -1.462
REMARK SMILES CCCCCCCCCCCCCCCCCC(=O)[O-]
REMARK SMILES IDX 10 1 11 2 12 3 13 4 14 5 15 6 16 7 17 8 18 9 19 10 20 11
REMARK SMILES IDX 9 12 8 13 7 14 6 15 5 16 4 17 3 18 2 19 1 20
REMARK H PARENT
REMARK Flexibility Score: inf
ROOT
ATOM      1  C   UNL     1      -5.072  35.482  21.862  1.00  0.00     0.000 C 
ENDROOT
BRANCH   1   2
ATOM      2  C   UNL     1      -5.725  35.408  20.476  1.00  0.00     0.000 C 
BRANCH   2   3
ATOM      3  C   UNL     1      -4.713  35.753  19.372  1.00  0.00     0.000 C 
BRANCH   3   4
ATOM      4  C   UNL     1      -3.512  36.552  19.900  1.00  0.00     0.000 C 
BRANCH   4   5
ATOM      5  C   UNL     1      -2.924  37.503  18.841  1.00  0.00     0.000 C 
BRANCH   5   6
ATOM      6  C   UNL     1      -1.796  36.852  18.024  1.00  0.00     0.000 C 
BRANCH   6   7
ATOM      7  C   UNL     1      -1.851  37.232  16.535  1.00  0.00     0.006 C 
BRANCH   7   8
ATOM      8  C   UNL     1      -3.284  37.508  16.060  1.00  0.00     0.053 C 
BRANCH   8   9
ATOM      9  C   UNL     1      -3.496  37.078  14.641  1.00  0.00     0.041 C 
ATOM     10  O   UNL     1      -2.751  36.200  14.129  1.00  0.00    -0.550 OA
ATOM     11  O   UNL     1      -4.492  37.667  13.875  1.00  0.00    -0.550 OA
ENDBRANCH   8   9
ENDBRANCH   7   8
ENDBRANCH   6   7
ENDBRANCH   5   6
ENDBRANCH   4   5
ENDBRANCH   3   4
ENDBRANCH   2   3
ENDBRANCH   1   2
BRANCH   1  12
ATOM     12  C   UNL     1      -6.012  34.930  22.943  1.00  0.00     0.000 C 
BRANCH  12  13
ATOM     13  C   UNL     1      -5.586  35.334  24.363  1.00  0.00    -0.000 C 
BRANCH  13  14
ATOM     14  C   UNL     1      -5.931  36.794  24.693  1.00  0.00    -0.000 C 
BRANCH  14  15
ATOM     15  C   UNL     1      -4.787  37.469  25.460  1.00  0.00    -0.000 C 
BRANCH  15  16
ATOM     16  C   UNL     1      -4.018  38.442  24.560  1.00  0.00    -0.000 C 
BRANCH  16  17
ATOM     17  C   UNL     1      -4.980  39.278  23.704  1.00  0.00    -0.000 C 
BRANCH  17  18
ATOM     18  C   UNL     1      -4.934  38.906  22.211  1.00  0.00    -0.000 C 
BRANCH  18  19
ATOM     19  C   UNL     1      -6.105  39.450  21.372  1.00  0.00    -0.003 C 
ATOM     20  C   UNL     1      -5.908  39.247  19.870  1.00  0.00     0.004 C 
ENDBRANCH  18  19
ENDBRANCH  17  18
ENDBRANCH  16  17
ENDBRANCH  15  16
ENDBRANCH  14  15
ENDBRANCH  13  14
ENDBRANCH  12  13
ENDBRANCH   1  12
TORSDOF 16
ENDMDL
