MODEL 1
REMARK VINA RESULT:    -4.521      0.000      0.000
REMARK INTER + INTRA:         -12.964
REMARK INTER:                 -11.393
REMARK INTRA:                  -1.571
REMARK UNBOUND:                -1.571
REMARK SMILES CCCCCCCCCCCCCCCCCCCCCCCCCCCC(=O)[O-]
REMARK SMILES IDX 15 1 16 2 17 3 18 4 19 5 20 6 21 7 22 8 23 9 24 10 25 11
REMARK SMILES IDX 26 12 27 13 28 14 29 15 30 16 14 17 13 18 12 19 11 20 10 21
REMARK SMILES IDX 9 22 8 23 7 24 6 25 5 26 4 27 3 28 2 29 1 30
REMARK H PARENT
REMARK Flexibility Score: inf
ROOT
ATOM      1  C   UNL     1      65.867  45.473  57.759  1.00  0.00     0.000 C 
ENDROOT
BRANCH   1   2
ATOM      2  C   UNL     1      65.299  46.625  58.616  1.00  0.00     0.000 C 
BRANCH   2   3
ATOM      3  C   UNL     1      65.683  48.010  58.064  1.00  0.00     0.000 C 
BRANCH   3   4
ATOM      4  C   UNL     1      67.199  48.150  57.827  1.00  0.00     0.000 C 
BRANCH   4   5
ATOM      5  C   UNL     1      67.780  49.508  58.264  1.00  0.00     0.000 C 
BRANCH   5   6
ATOM      6  C   UNL     1      67.685  50.572  57.154  1.00  0.00     0.000 C 
BRANCH   6   7
ATOM      7  C   UNL     1      68.558  50.221  55.930  1.00  0.00     0.000 C 
BRANCH   7   8
ATOM      8  C   UNL     1      70.056  50.085  56.257  1.00  0.00     0.000 C 
BRANCH   8   9
ATOM      9  C   UNL     1      70.938  51.021  55.418  1.00  0.00     0.000 C 
BRANCH   9  10
ATOM     10  C   UNL     1      70.103  52.127  54.753  1.00  0.00     0.000 C 
BRANCH  10  11
ATOM     11  C   UNL     1      70.629  52.483  53.348  1.00  0.00     0.000 C 
BRANCH  11  12
ATOM     12  C   UNL     1      70.443  51.361  52.307  1.00  0.00     0.006 C 
BRANCH  12  13
ATOM     13  C   UNL     1      69.034  50.733  52.298  1.00  0.00     0.053 C 
BRANCH  13  14
ATOM     14  C   UNL     1      68.525  50.470  50.911  1.00  0.00     0.041 C 
ATOM     15  O   UNL     1      67.969  49.375  50.635  1.00  0.00    -0.550 OA
ATOM     16  O   UNL     1      68.606  51.459  49.938  1.00  0.00    -0.550 OA
ENDBRANCH  13  14
ENDBRANCH  12  13
ENDBRANCH  11  12
ENDBRANCH  10  11
ENDBRANCH   9  10
ENDBRANCH   8   9
ENDBRANCH   7   8
ENDBRANCH   6   7
ENDBRANCH   5   6
ENDBRANCH   4   5
ENDBRANCH   3   4
ENDBRANCH   2   3
ENDBRANCH   1   2
BRANCH   1  17
ATOM     17  C   UNL     1      65.140  44.132  57.962  1.00  0.00     0.000 C 
BRANCH  17  18
ATOM     18  C   UNL     1      65.564  43.068  56.937  1.00  0.00     0.000 C 
BRANCH  18  19
ATOM     19  C   UNL     1      66.529  42.020  57.519  1.00  0.00     0.000 C 
BRANCH  19  20
ATOM     20  C   UNL     1      66.074  41.349  58.834  1.00  0.00     0.000 C 
BRANCH  20  21
ATOM     21  C   UNL     1      65.317  40.013  58.684  1.00  0.00     0.000 C 
BRANCH  21  22
ATOM     22  C   UNL     1      63.802  40.162  58.416  1.00  0.00    -0.000 C 
BRANCH  22  23
ATOM     23  C   UNL     1      63.109  38.848  58.017  1.00  0.00    -0.000 C 
BRANCH  23  24
ATOM     24  C   UNL     1      63.665  38.260  56.710  1.00  0.00    -0.000 C 
BRANCH  24  25
ATOM     25  C   UNL     1      62.569  37.915  55.685  1.00  0.00    -0.000 C 
BRANCH  25  26
ATOM     26  C   UNL     1      61.251  37.381  56.278  1.00  0.00    -0.000 C 
BRANCH  26  27
ATOM     27  C   UNL     1      60.413  36.588  55.262  1.00  0.00    -0.000 C 
BRANCH  27  28
ATOM     28  C   UNL     1      59.008  37.180  55.053  1.00  0.00    -0.000 C 
BRANCH  28  29
ATOM     29  C   UNL     1      58.125  36.424  54.042  1.00  0.00    -0.003 C 
ATOM     30  C   UNL     1      57.199  37.346  53.248  1.00  0.00     0.004 C 
ENDBRANCH  28  29
ENDBRANCH  27  28
ENDBRANCH  26  27
ENDBRANCH  25  26
ENDBRANCH  24  25
ENDBRANCH  23  24
ENDBRANCH  22  23
ENDBRANCH  21  22
ENDBRANCH  20  21
ENDBRANCH  19  20
ENDBRANCH  18  19
ENDBRANCH  17  18
ENDBRANCH   1  17
TORSDOF 26
ENDMDL
MODEL 2
REMARK VINA RESULT:    -4.152      7.569     14.277
REMARK INTER + INTRA:         -12.034
REMARK INTER:                  -9.114
REMARK INTRA:                  -2.920
REMARK UNBOUND:                -1.571
REMARK SMILES CCCCCCCCCCCCCCCCCCCCCCCCCCCC(=O)[O-]
REMARK SMILES IDX 15 1 16 2 17 3 18 4 19 5 20 6 21 7 22 8 23 9 24 10 25 11
REMARK SMILES IDX 26 12 27 13 28 14 29 15 30 16 14 17 13 18 12 19 11 20 10 21
REMARK SMILES IDX 9 22 8 23 7 24 6 25 5 26 4 27 3 28 2 29 1 30
REMARK H PARENT
REMARK Flexibility Score: inf
ROOT
ATOM      1  C   UNL     1      69.508  51.468  51.932  1.00  0.00     0.000 C 
ENDROOT
BRANCH   1   2
ATOM      2  C   UNL     1      71.010  51.723  51.686  1.00  0.00     0.000 C 
BRANCH   2   3
ATOM      3  C   UNL     1      71.356  53.224  51.679  1.00  0.00     0.000 C 
BRANCH   3   4
ATOM      4  C   UNL     1      70.287  54.077  52.386  1.00  0.00     0.000 C 
BRANCH   4   5
ATOM      5  C   UNL     1      70.596  54.372  53.867  1.00  0.00     0.000 C 
BRANCH   5   6
ATOM      6  C   UNL     1      69.373  54.154  54.777  1.00  0.00     0.000 C 
BRANCH   6   7
ATOM      7  C   UNL     1      69.641  53.105  55.877  1.00  0.00     0.000 C 
BRANCH   7   8
ATOM      8  C   UNL     1      71.027  52.443  55.777  1.00  0.00     0.000 C 
BRANCH   8   9
ATOM      9  C   UNL     1      70.957  50.981  55.314  1.00  0.00     0.000 C 
BRANCH   9  10
ATOM     10  C   UNL     1      69.519  50.443  55.377  1.00  0.00     0.000 C 
BRANCH  10  11
ATOM     11  C   UNL     1      69.320  49.461  56.550  1.00  0.00     0.000 C 
BRANCH  11  12
ATOM     12  C   UNL     1      67.925  49.540  57.202  1.00  0.00     0.006 C 
BRANCH  12  13
ATOM     13  C   UNL     1      67.304  48.169  57.537  1.00  0.00     0.053 C 
BRANCH  13  14
ATOM     14  C   UNL     1      65.923  48.282  58.113  1.00  0.00     0.041 C 
ATOM     15  O   UNL     1      65.223  47.252  58.294  1.00  0.00    -0.550 OA
ATOM     16  O   UNL     1      65.433  49.520  58.512  1.00  0.00    -0.550 OA
ENDBRANCH  13  14
ENDBRANCH  12  13
ENDBRANCH  11  12
ENDBRANCH  10  11
ENDBRANCH   9  10
ENDBRANCH   8   9
ENDBRANCH   7   8
ENDBRANCH   6   7
ENDBRANCH   5   6
ENDBRANCH   4   5
ENDBRANCH   3   4
ENDBRANCH   2   3
ENDBRANCH   1   2
BRANCH   1  17
ATOM     17  C   UNL     1      68.778  50.848  50.727  1.00  0.00     0.000 C 
BRANCH  17  18
ATOM     18  C   UNL     1      68.796  51.759  49.490  1.00  0.00     0.000 C 
BRANCH  18  19
ATOM     19  C   UNL     1      68.027  53.076  49.698  1.00  0.00     0.000 C 
BRANCH  19  20
ATOM     20  C   UNL     1      68.574  54.299  48.930  1.00  0.00     0.000 C 
BRANCH  20  21
ATOM     21  C   UNL     1      69.572  53.992  47.794  1.00  0.00     0.000 C 
BRANCH  21  22
ATOM     22  C   UNL     1      69.109  54.451  46.392  1.00  0.00    -0.000 C 
BRANCH  22  23
ATOM     23  C   UNL     1      67.580  54.509  46.231  1.00  0.00    -0.000 C 
BRANCH  23  24
ATOM     24  C   UNL     1      67.142  54.511  44.758  1.00  0.00    -0.000 C 
BRANCH  24  25
ATOM     25  C   UNL     1      68.007  53.602  43.866  1.00  0.00    -0.000 C 
BRANCH  25  26
ATOM     26  C   UNL     1      68.819  54.322  42.773  1.00  0.00    -0.000 C 
BRANCH  26  27
ATOM     27  C   UNL     1      70.001  53.487  42.253  1.00  0.00    -0.000 C 
BRANCH  27  28
ATOM     28  C   UNL     1      69.561  52.345  41.320  1.00  0.00    -0.000 C 
BRANCH  28  29
ATOM     29  C   UNL     1      70.690  51.720  40.478  1.00  0.00    -0.003 C 
ATOM     30  C   UNL     1      70.827  50.211  40.683  1.00  0.00     0.004 C 
ENDBRANCH  28  29
ENDBRANCH  27  28
ENDBRANCH  26  27
ENDBRANCH  25  26
ENDBRANCH  24  25
ENDBRANCH  23  24
ENDBRANCH  22  23
ENDBRANCH  21  22
ENDBRANCH  20  21
ENDBRANCH  19  20
ENDBRANCH  18  19
ENDBRANCH  17  18
ENDBRANCH   1  17
TORSDOF 26
ENDMDL
MODEL 3
REMARK VINA RESULT:    -4.147      8.338     12.069
REMARK INTER + INTRA:         -12.021
REMARK INTER:                  -8.814
REMARK INTRA:                  -3.207
REMARK UNBOUND:                -1.571
REMARK SMILES CCCCCCCCCCCCCCCCCCCCCCCCCCCC(=O)[O-]
REMARK SMILES IDX 15 1 16 2 17 3 18 4 19 5 20 6 21 7 22 8 23 9 24 10 25 11
REMARK SMILES IDX 26 12 27 13 28 14 29 15 30 16 14 17 13 18 12 19 11 20 10 21
REMARK SMILES IDX 9 22 8 23 7 24 6 25 5 26 4 27 3 28 2 29 1 30
REMARK H PARENT
REMARK Flexibility Score: inf
ROOT
ATOM      1  C   UNL     1      70.982  51.491  51.687  1.00  0.00     0.000 C 
ENDROOT
BRANCH   1   2
ATOM      2  C   UNL     1      69.503  51.158  51.978  1.00  0.00     0.000 C 
BRANCH   2   3
ATOM      3  C   UNL     1      68.733  50.753  50.707  1.00  0.00     0.000 C 
BRANCH   3   4
ATOM      4  C   UNL     1      68.929  51.757  49.556  1.00  0.00     0.000 C 
BRANCH   4   5
ATOM      5  C   UNL     1      67.959  52.955  49.596  1.00  0.00     0.000 C 
BRANCH   5   6
ATOM      6  C   UNL     1      68.612  54.255  49.092  1.00  0.00     0.000 C 
BRANCH   6   7
ATOM      7  C   UNL     1      70.030  54.020  48.531  1.00  0.00     0.000 C 
BRANCH   7   8
ATOM      8  C   UNL     1      70.226  54.552  47.100  1.00  0.00     0.000 C 
BRANCH   8   9
ATOM      9  C   UNL     1      68.959  54.437  46.242  1.00  0.00     0.000 C 
BRANCH   9  10
ATOM     10  C   UNL     1      69.274  53.849  44.858  1.00  0.00     0.000 C 
BRANCH  10  11
ATOM     11  C   UNL     1      67.998  53.397  44.117  1.00  0.00     0.000 C 
BRANCH  11  12
ATOM     12  C   UNL     1      68.258  52.378  42.989  1.00  0.00     0.006 C 
BRANCH  12  13
ATOM     13  C   UNL     1      69.584  52.594  42.233  1.00  0.00     0.053 C 
BRANCH  13  14
ATOM     14  C   UNL     1      69.766  51.634  41.095  1.00  0.00     0.041 C 
ATOM     15  O   UNL     1      70.575  50.674  41.195  1.00  0.00    -0.550 OA
ATOM     16  O   UNL     1      68.994  51.758  39.947  1.00  0.00    -0.550 OA
ENDBRANCH  13  14
ENDBRANCH  12  13
ENDBRANCH  11  12
ENDBRANCH  10  11
ENDBRANCH   9  10
ENDBRANCH   8   9
ENDBRANCH   7   8
ENDBRANCH   6   7
ENDBRANCH   5   6
ENDBRANCH   4   5
ENDBRANCH   3   4
ENDBRANCH   2   3
ENDBRANCH   1   2
BRANCH   1  17
ATOM     17  C   UNL     1      71.374  52.937  52.042  1.00  0.00     0.000 C 
BRANCH  17  18
ATOM     18  C   UNL     1      70.167  53.792  52.461  1.00  0.00     0.000 C 
BRANCH  18  19
ATOM     19  C   UNL     1      70.251  54.284  53.916  1.00  0.00     0.000 C 
BRANCH  19  20
ATOM     20  C   UNL     1      69.785  53.277  54.991  1.00  0.00     0.000 C 
BRANCH  20  21
ATOM     21  C   UNL     1      70.901  52.484  55.704  1.00  0.00     0.000 C 
BRANCH  21  22
ATOM     22  C   UNL     1      70.893  50.966  55.416  1.00  0.00    -0.000 C 
BRANCH  22  23
ATOM     23  C   UNL     1      71.804  50.151  56.349  1.00  0.00    -0.000 C 
BRANCH  23  24
ATOM     24  C   UNL     1      71.059  49.005  57.051  1.00  0.00    -0.000 C 
BRANCH  24  25
ATOM     25  C   UNL     1      69.542  49.018  56.788  1.00  0.00    -0.000 C 
BRANCH  25  26
ATOM     26  C   UNL     1      68.650  48.911  58.040  1.00  0.00    -0.000 C 
BRANCH  26  27
ATOM     27  C   UNL     1      67.154  49.070  57.726  1.00  0.00    -0.000 C 
BRANCH  27  28
ATOM     28  C   UNL     1      66.548  50.349  58.331  1.00  0.00    -0.000 C 
BRANCH  28  29
ATOM     29  C   UNL     1      66.796  51.635  57.520  1.00  0.00    -0.003 C 
ATOM     30  C   UNL     1      67.916  52.501  58.096  1.00  0.00     0.004 C 
ENDBRANCH  28  29
ENDBRANCH  27  28
ENDBRANCH  26  27
ENDBRANCH  25  26
ENDBRANCH  24  25
ENDBRANCH  23  24
ENDBRANCH  22  23
ENDBRANCH  21  22
ENDBRANCH  20  21
ENDBRANCH  19  20
ENDBRANCH  18  19
ENDBRANCH  17  18
ENDBRANCH   1  17
TORSDOF 26
ENDMDL
MODEL 4
REMARK VINA RESULT:    -4.134      4.686     13.974
REMARK INTER + INTRA:         -11.988
REMARK INTER:                 -10.613
REMARK INTRA:                  -1.375
REMARK UNBOUND:                -1.571
REMARK SMILES CCCCCCCCCCCCCCCCCCCCCCCCCCCC(=O)[O-]
REMARK SMILES IDX 15 1 16 2 17 3 18 4 19 5 20 6 21 7 22 8 23 9 24 10 25 11
REMARK SMILES IDX 26 12 27 13 28 14 29 15 30 16 14 17 13 18 12 19 11 20 10 21
REMARK SMILES IDX 9 22 8 23 7 24 6 25 5 26 4 27 3 28 2 29 1 30
REMARK H PARENT
REMARK Flexibility Score: inf
ROOT
ATOM      1  C   UNL     1      65.749  44.788  56.889  1.00  0.00     0.000 C 
ENDROOT
BRANCH   1   2
ATOM      2  C   UNL     1      66.096  43.284  56.877  1.00  0.00     0.000 C 
BRANCH   2   3
ATOM      3  C   UNL     1      65.226  42.473  57.855  1.00  0.00     0.000 C 
BRANCH   3   4
ATOM      4  C   UNL     1      66.058  41.518  58.731  1.00  0.00     0.000 C 
BRANCH   4   5
ATOM      5  C   UNL     1      65.427  40.126  58.918  1.00  0.00     0.000 C 
BRANCH   5   6
ATOM      6  C   UNL     1      63.937  40.099  58.528  1.00  0.00     0.000 C 
BRANCH   6   7
ATOM      7  C   UNL     1      63.229  38.815  59.008  1.00  0.00     0.000 C 
BRANCH   7   8
ATOM      8  C   UNL     1      62.401  38.119  57.914  1.00  0.00     0.000 C 
BRANCH   8   9
ATOM      9  C   UNL     1      63.047  38.214  56.525  1.00  0.00     0.000 C 
BRANCH   9  10
ATOM     10  C   UNL     1      62.063  37.797  55.421  1.00  0.00     0.000 C 
BRANCH  10  11
ATOM     11  C   UNL     1      60.959  36.861  55.953  1.00  0.00     0.000 C 
BRANCH  11  12
ATOM     12  C   UNL     1      59.704  36.802  55.059  1.00  0.00     0.006 C 
BRANCH  12  13
ATOM     13  C   UNL     1      59.625  35.552  54.160  1.00  0.00     0.053 C 
BRANCH  13  14
ATOM     14  C   UNL     1      58.348  35.481  53.375  1.00  0.00     0.041 C 
ATOM     15  O   UNL     1      58.319  35.851  52.173  1.00  0.00    -0.550 OA
ATOM     16  O   UNL     1      57.204  34.944  53.952  1.00  0.00    -0.550 OA
ENDBRANCH  13  14
ENDBRANCH  12  13
ENDBRANCH  11  12
ENDBRANCH  10  11
ENDBRANCH   9  10
ENDBRANCH   8   9
ENDBRANCH   7   8
ENDBRANCH   6   7
ENDBRANCH   5   6
ENDBRANCH   4   5
ENDBRANCH   3   4
ENDBRANCH   2   3
ENDBRANCH   1   2
BRANCH   1  17
ATOM     17  C   UNL     1      65.305  45.311  58.267  1.00  0.00     0.000 C 
BRANCH  17  18
ATOM     18  C   UNL     1      65.375  46.843  58.369  1.00  0.00     0.000 C 
BRANCH  18  19
ATOM     19  C   UNL     1      66.389  47.467  57.394  1.00  0.00     0.000 C 
BRANCH  19  20
ATOM     20  C   UNL     1      67.326  48.536  57.998  1.00  0.00     0.000 C 
BRANCH  20  21
ATOM     21  C   UNL     1      68.146  49.365  56.988  1.00  0.00     0.000 C 
BRANCH  21  22
ATOM     22  C   UNL     1      69.676  49.289  57.188  1.00  0.00    -0.000 C 
BRANCH  22  23
ATOM     23  C   UNL     1      70.481  50.059  56.127  1.00  0.00    -0.000 C 
BRANCH  23  24
ATOM     24  C   UNL     1      69.778  51.347  55.671  1.00  0.00    -0.000 C 
BRANCH  24  25
ATOM     25  C   UNL     1      69.478  51.372  54.161  1.00  0.00    -0.000 C 
BRANCH  25  26
ATOM     26  C   UNL     1      70.524  52.089  53.287  1.00  0.00    -0.000 C 
BRANCH  26  27
ATOM     27  C   UNL     1      70.555  51.571  51.840  1.00  0.00    -0.000 C 
BRANCH  27  28
ATOM     28  C   UNL     1      69.249  50.869  51.428  1.00  0.00    -0.000 C 
BRANCH  28  29
ATOM     29  C   UNL     1      68.612  51.389  50.125  1.00  0.00    -0.003 C 
ATOM     30  C   UNL     1      69.471  52.434  49.413  1.00  0.00     0.004 C 
ENDBRANCH  28  29
ENDBRANCH  27  28
ENDBRANCH  26  27
ENDBRANCH  25  26
ENDBRANCH  24  25
ENDBRANCH  23  24
ENDBRANCH  22  23
ENDBRANCH  21  22
ENDBRANCH  20  21
ENDBRANCH  19  20
ENDBRANCH  18  19
ENDBRANCH  17  18
ENDBRANCH   1  17
TORSDOF 26
ENDMDL
MODEL 5
REMARK VINA RESULT:    -4.133      8.502     12.573
REMARK INTER + INTRA:         -11.987
REMARK INTER:                  -8.894
REMARK INTRA:                  -3.093
REMARK UNBOUND:                -1.571
REMARK SMILES CCCCCCCCCCCCCCCCCCCCCCCCCCCC(=O)[O-]
REMARK SMILES IDX 15 1 16 2 17 3 18 4 19 5 20 6 21 7 22 8 23 9 24 10 25 11
REMARK SMILES IDX 26 12 27 13 28 14 29 15 30 16 14 17 13 18 12 19 11 20 10 21
REMARK SMILES IDX 9 22 8 23 7 24 6 25 5 26 4 27 3 28 2 29 1 30
REMARK H PARENT
REMARK Flexibility Score: inf
ROOT
ATOM      1  C   UNL     1      69.507  51.065  52.142  1.00  0.00     0.000 C 
ENDROOT
BRANCH   1   2
ATOM      2  C   UNL     1      68.697  50.662  50.892  1.00  0.00     0.000 C 
BRANCH   2   3
ATOM      3  C   UNL     1      68.956  51.601  49.698  1.00  0.00     0.000 C 
BRANCH   3   4
ATOM      4  C   UNL     1      68.022  52.826  49.701  1.00  0.00     0.000 C 
BRANCH   4   5
ATOM      5  C   UNL     1      68.743  54.166  49.455  1.00  0.00     0.000 C 
BRANCH   5   6
ATOM      6  C   UNL     1      69.935  54.023  48.490  1.00  0.00     0.000 C 
BRANCH   6   7
ATOM      7  C   UNL     1      69.745  54.847  47.200  1.00  0.00     0.000 C 
BRANCH   7   8
ATOM      8  C   UNL     1      69.535  53.987  45.941  1.00  0.00     0.000 C 
BRANCH   8   9
ATOM      9  C   UNL     1      68.403  54.507  45.044  1.00  0.00     0.000 C 
BRANCH   9  10
ATOM     10  C   UNL     1      68.507  53.933  43.623  1.00  0.00     0.000 C 
BRANCH  10  11
ATOM     11  C   UNL     1      68.061  52.457  43.560  1.00  0.00     0.000 C 
BRANCH  11  12
ATOM     12  C   UNL     1      68.461  51.737  42.257  1.00  0.00     0.006 C 
BRANCH  12  13
ATOM     13  C   UNL     1      69.408  52.548  41.350  1.00  0.00     0.053 C 
BRANCH  13  14
ATOM     14  C   UNL     1      70.484  51.705  40.734  1.00  0.00     0.041 C 
ATOM     15  O   UNL     1      70.749  50.567  41.203  1.00  0.00    -0.550 OA
ATOM     16  O   UNL     1      71.153  52.148  39.598  1.00  0.00    -0.550 OA
ENDBRANCH  13  14
ENDBRANCH  12  13
ENDBRANCH  11  12
ENDBRANCH  10  11
ENDBRANCH   9  10
ENDBRANCH   8   9
ENDBRANCH   7   8
ENDBRANCH   6   7
ENDBRANCH   5   6
ENDBRANCH   4   5
ENDBRANCH   3   4
ENDBRANCH   2   3
ENDBRANCH   1   2
BRANCH   1  17
ATOM     17  C   UNL     1      70.954  51.489  51.834  1.00  0.00     0.000 C 
BRANCH  17  18
ATOM     18  C   UNL     1      71.210  52.977  52.125  1.00  0.00     0.000 C 
BRANCH  18  19
ATOM     19  C   UNL     1      70.058  53.650  52.891  1.00  0.00     0.000 C 
BRANCH  19  20
ATOM     20  C   UNL     1      70.262  53.792  54.415  1.00  0.00     0.000 C 
BRANCH  20  21
ATOM     21  C   UNL     1      69.332  52.940  55.304  1.00  0.00     0.000 C 
BRANCH  21  22
ATOM     22  C   UNL     1      70.067  51.947  56.233  1.00  0.00    -0.000 C 
BRANCH  22  23
ATOM     23  C   UNL     1      71.293  51.281  55.585  1.00  0.00    -0.000 C 
BRANCH  23  24
ATOM     24  C   UNL     1      72.442  51.062  56.581  1.00  0.00    -0.000 C 
BRANCH  24  25
ATOM     25  C   UNL     1      72.871  49.588  56.698  1.00  0.00    -0.000 C 
BRANCH  25  26
ATOM     26  C   UNL     1      71.795  48.623  57.233  1.00  0.00    -0.000 C 
BRANCH  26  27
ATOM     27  C   UNL     1      71.186  49.083  58.568  1.00  0.00    -0.000 C 
BRANCH  27  28
ATOM     28  C   UNL     1      69.771  48.525  58.804  1.00  0.00    -0.000 C 
BRANCH  28  29
ATOM     29  C   UNL     1      68.623  49.498  58.473  1.00  0.00    -0.003 C 
ATOM     30  C   UNL     1      67.793  49.057  57.268  1.00  0.00     0.004 C 
ENDBRANCH  28  29
ENDBRANCH  27  28
ENDBRANCH  26  27
ENDBRANCH  25  26
ENDBRANCH  24  25
ENDBRANCH  23  24
ENDBRANCH  22  23
ENDBRANCH  21  22
ENDBRANCH  20  21
ENDBRANCH  19  20
ENDBRANCH  18  19
ENDBRANCH  17  18
ENDBRANCH   1  17
TORSDOF 26
ENDMDL
MODEL 6
REMARK VINA RESULT:    -4.121      5.808     14.341
REMARK INTER + INTRA:         -11.955
REMARK INTER:                  -9.969
REMARK INTRA:                  -1.986
REMARK UNBOUND:                -1.571
REMARK SMILES CCCCCCCCCCCCCCCCCCCCCCCCCCCC(=O)[O-]
REMARK SMILES IDX 15 1 16 2 17 3 18 4 19 5 20 6 21 7 22 8 23 9 24 10 25 11
REMARK SMILES IDX 26 12 27 13 28 14 29 15 30 16 14 17 13 18 12 19 11 20 10 21
REMARK SMILES IDX 9 22 8 23 7 24 6 25 5 26 4 27 3 28 2 29 1 30
REMARK H PARENT
REMARK Flexibility Score: inf
ROOT
ATOM      1  C   UNL     1      69.462  50.999  52.177  1.00  0.00     0.000 C 
ENDROOT
BRANCH   1   2
ATOM      2  C   UNL     1      70.743  51.846  52.027  1.00  0.00     0.000 C 
BRANCH   2   3
ATOM      3  C   UNL     1      70.678  53.155  52.837  1.00  0.00     0.000 C 
BRANCH   3   4
ATOM      4  C   UNL     1      70.003  52.965  54.209  1.00  0.00     0.000 C 
BRANCH   4   5
ATOM      5  C   UNL     1      70.948  52.437  55.306  1.00  0.00     0.000 C 
BRANCH   5   6
ATOM      6  C   UNL     1      70.192  51.697  56.425  1.00  0.00     0.000 C 
BRANCH   6   7
ATOM      7  C   UNL     1      68.690  51.535  56.110  1.00  0.00     0.000 C 
BRANCH   7   8
ATOM      8  C   UNL     1      68.296  50.106  55.695  1.00  0.00     0.000 C 
BRANCH   8   9
ATOM      9  C   UNL     1      68.856  49.033  56.639  1.00  0.00     0.000 C 
BRANCH   9  10
ATOM     10  C   UNL     1      68.199  49.112  58.026  1.00  0.00     0.000 C 
BRANCH  10  11
ATOM     11  C   UNL     1      66.737  48.619  58.003  1.00  0.00     0.000 C 
BRANCH  11  12
ATOM     12  C   UNL     1      66.569  47.143  58.412  1.00  0.00     0.006 C 
BRANCH  12  13
ATOM     13  C   UNL     1      65.362  46.439  57.759  1.00  0.00     0.053 C 
BRANCH  13  14
ATOM     14  C   UNL     1      65.769  45.389  56.768  1.00  0.00     0.041 C 
ATOM     15  O   UNL     1      65.733  44.170  57.081  1.00  0.00    -0.550 OA
ATOM     16  O   UNL     1      66.125  45.751  55.474  1.00  0.00    -0.550 OA
ENDBRANCH  13  14
ENDBRANCH  12  13
ENDBRANCH  11  12
ENDBRANCH  10  11
ENDBRANCH   9  10
ENDBRANCH   8   9
ENDBRANCH   7   8
ENDBRANCH   6   7
ENDBRANCH   5   6
ENDBRANCH   4   5
ENDBRANCH   3   4
ENDBRANCH   2   3
ENDBRANCH   1   2
BRANCH   1  17
ATOM     17  C   UNL     1      68.743  50.719  50.845  1.00  0.00     0.000 C 
BRANCH  17  18
ATOM     18  C   UNL     1      69.081  51.755  49.761  1.00  0.00     0.000 C 
BRANCH  18  19
ATOM     19  C   UNL     1      68.084  52.927  49.715  1.00  0.00     0.000 C 
BRANCH  19  20
ATOM     20  C   UNL     1      68.480  54.106  48.798  1.00  0.00     0.000 C 
BRANCH  20  21
ATOM     21  C   UNL     1      69.871  54.010  48.137  1.00  0.00     0.000 C 
BRANCH  21  22
ATOM     22  C   UNL     1      69.960  54.653  46.735  1.00  0.00    -0.000 C 
BRANCH  22  23
ATOM     23  C   UNL     1      69.017  54.018  45.699  1.00  0.00    -0.000 C 
BRANCH  23  24
ATOM     24  C   UNL     1      69.674  53.863  44.318  1.00  0.00    -0.000 C 
BRANCH  24  25
ATOM     25  C   UNL     1      68.664  53.566  43.195  1.00  0.00    -0.000 C 
BRANCH  25  26
ATOM     26  C   UNL     1      69.131  52.553  42.133  1.00  0.00    -0.000 C 
BRANCH  26  27
ATOM     27  C   UNL     1      69.931  53.204  40.993  1.00  0.00    -0.000 C 
BRANCH  27  28
ATOM     28  C   UNL     1      70.661  52.175  40.111  1.00  0.00    -0.000 C 
BRANCH  28  29
ATOM     29  C   UNL     1      69.935  50.826  39.944  1.00  0.00    -0.003 C 
ATOM     30  C   UNL     1      70.882  49.627  39.976  1.00  0.00     0.004 C 
ENDBRANCH  28  29
ENDBRANCH  27  28
ENDBRANCH  26  27
ENDBRANCH  25  26
ENDBRANCH  24  25
ENDBRANCH  23  24
ENDBRANCH  22  23
ENDBRANCH  21  22
ENDBRANCH  20  21
ENDBRANCH  19  20
ENDBRANCH  18  19
ENDBRANCH  17  18
ENDBRANCH   1  17
TORSDOF 26
ENDMDL
MODEL 7
REMARK VINA RESULT:    -4.097      5.284     12.803
REMARK INTER + INTRA:         -11.894
REMARK INTER:                  -8.022
REMARK INTRA:                  -3.872
REMARK UNBOUND:                -1.571
REMARK SMILES CCCCCCCCCCCCCCCCCCCCCCCCCCCC(=O)[O-]
REMARK SMILES IDX 15 1 16 2 17 3 18 4 19 5 20 6 21 7 22 8 23 9 24 10 25 11
REMARK SMILES IDX 26 12 27 13 28 14 29 15 30 16 14 17 13 18 12 19 11 20 10 21
REMARK SMILES IDX 9 22 8 23 7 24 6 25 5 26 4 27 3 28 2 29 1 30
REMARK H PARENT
REMARK Flexibility Score: inf
ROOT
ATOM      1  C   UNL     1      71.093  51.371  52.378  1.00  0.00     0.000 C 
ENDROOT
BRANCH   1   2
ATOM      2  C   UNL     1      71.015  51.379  53.919  1.00  0.00     0.000 C 
BRANCH   2   3
ATOM      3  C   UNL     1      69.610  51.020  54.437  1.00  0.00     0.000 C 
BRANCH   3   4
ATOM      4  C   UNL     1      69.653  50.257  55.775  1.00  0.00     0.000 C 
BRANCH   4   5
ATOM      5  C   UNL     1      68.919  50.969  56.927  1.00  0.00     0.000 C 
BRANCH   5   6
ATOM      6  C   UNL     1      67.530  51.485  56.509  1.00  0.00     0.000 C 
BRANCH   6   7
ATOM      7  C   UNL     1      66.567  51.614  57.708  1.00  0.00     0.000 C 
BRANCH   7   8
ATOM      8  C   UNL     1      66.702  50.476  58.735  1.00  0.00     0.000 C 
BRANCH   8   9
ATOM      9  C   UNL     1      65.917  49.217  58.338  1.00  0.00     0.000 C 
BRANCH   9  10
ATOM     10  C   UNL     1      66.861  48.048  58.019  1.00  0.00     0.000 C 
BRANCH  10  11
ATOM     11  C   UNL     1      66.156  46.938  57.213  1.00  0.00     0.000 C 
BRANCH  11  12
ATOM     12  C   UNL     1      65.231  46.041  58.059  1.00  0.00     0.006 C 
BRANCH  12  13
ATOM     13  C   UNL     1      65.895  44.746  58.568  1.00  0.00     0.053 C 
BRANCH  13  14
ATOM     14  C   UNL     1      65.516  43.542  57.757  1.00  0.00     0.041 C 
ATOM     15  O   UNL     1      65.755  43.506  56.522  1.00  0.00    -0.550 OA
ATOM     16  O   UNL     1      64.959  42.431  58.378  1.00  0.00    -0.550 OA
ENDBRANCH  13  14
ENDBRANCH  12  13
ENDBRANCH  11  12
ENDBRANCH  10  11
ENDBRANCH   9  10
ENDBRANCH   8   9
ENDBRANCH   7   8
ENDBRANCH   6   7
ENDBRANCH   5   6
ENDBRANCH   4   5
ENDBRANCH   3   4
ENDBRANCH   2   3
ENDBRANCH   1   2
BRANCH   1  17
ATOM     17  C   UNL     1      71.231  52.772  51.756  1.00  0.00     0.000 C 
BRANCH  17  18
ATOM     18  C   UNL     1      69.883  53.498  51.629  1.00  0.00     0.000 C 
BRANCH  18  19
ATOM     19  C   UNL     1      69.899  54.912  52.236  1.00  0.00     0.000 C 
BRANCH  19  20
ATOM     20  C   UNL     1      70.274  54.992  53.733  1.00  0.00     0.000 C 
BRANCH  20  21
ATOM     21  C   UNL     1      69.166  54.593  54.730  1.00  0.00     0.000 C 
BRANCH  21  22
ATOM     22  C   UNL     1      69.603  54.607  56.212  1.00  0.00    -0.000 C 
BRANCH  22  23
ATOM     23  C   UNL     1      71.029  54.081  56.446  1.00  0.00    -0.000 C 
BRANCH  23  24
ATOM     24  C   UNL     1      71.453  54.157  57.921  1.00  0.00    -0.000 C 
BRANCH  24  25
ATOM     25  C   UNL     1      72.548  53.140  58.290  1.00  0.00    -0.000 C 
BRANCH  25  26
ATOM     26  C   UNL     1      72.345  51.715  57.740  1.00  0.00    -0.000 C 
BRANCH  26  27
ATOM     27  C   UNL     1      73.631  51.106  57.158  1.00  0.00    -0.000 C 
BRANCH  27  28
ATOM     28  C   UNL     1      73.744  49.592  57.411  1.00  0.00    -0.000 C 
BRANCH  28  29
ATOM     29  C   UNL     1      72.496  48.941  58.038  1.00  0.00    -0.003 C 
ATOM     30  C   UNL     1      72.241  47.522  57.530  1.00  0.00     0.004 C 
ENDBRANCH  28  29
ENDBRANCH  27  28
ENDBRANCH  26  27
ENDBRANCH  25  26
ENDBRANCH  24  25
ENDBRANCH  23  24
ENDBRANCH  22  23
ENDBRANCH  21  22
ENDBRANCH  20  21
ENDBRANCH  19  20
ENDBRANCH  18  19
ENDBRANCH  17  18
ENDBRANCH   1  17
TORSDOF 26
ENDMDL
MODEL 8
REMARK VINA RESULT:    -4.096      9.022     13.180
REMARK INTER + INTRA:         -11.892
REMARK INTER:                  -8.769
REMARK INTRA:                  -3.123
REMARK UNBOUND:                -1.571
REMARK SMILES CCCCCCCCCCCCCCCCCCCCCCCCCCCC(=O)[O-]
REMARK SMILES IDX 15 1 16 2 17 3 18 4 19 5 20 6 21 7 22 8 23 9 24 10 25 11
REMARK SMILES IDX 26 12 27 13 28 14 29 15 30 16 14 17 13 18 12 19 11 20 10 21
REMARK SMILES IDX 9 22 8 23 7 24 6 25 5 26 4 27 3 28 2 29 1 30
REMARK H PARENT
REMARK Flexibility Score: inf
ROOT
ATOM      1  C   UNL     1      71.083  51.405  53.849  1.00  0.00     0.000 C 
ENDROOT
BRANCH   1   2
ATOM      2  C   UNL     1      70.224  52.586  54.348  1.00  0.00     0.000 C 
BRANCH   2   3
ATOM      3  C   UNL     1      70.664  53.085  55.737  1.00  0.00     0.000 C 
BRANCH   3   4
ATOM      4  C   UNL     1      69.682  54.113  56.331  1.00  0.00     0.000 C 
BRANCH   4   5
ATOM      5  C   UNL     1      68.685  53.515  57.342  1.00  0.00     0.000 C 
BRANCH   5   6
ATOM      6  C   UNL     1      67.423  52.955  56.661  1.00  0.00     0.000 C 
BRANCH   6   7
ATOM      7  C   UNL     1      67.176  51.473  57.014  1.00  0.00     0.000 C 
BRANCH   7   8
ATOM      8  C   UNL     1      68.153  50.502  56.328  1.00  0.00     0.000 C 
BRANCH   8   9
ATOM      9  C   UNL     1      68.739  49.463  57.296  1.00  0.00     0.000 C 
BRANCH   9  10
ATOM     10  C   UNL     1      69.480  50.140  58.460  1.00  0.00     0.000 C 
BRANCH  10  11
ATOM     11  C   UNL     1      70.984  49.796  58.468  1.00  0.00     0.000 C 
BRANCH  11  12
ATOM     12  C   UNL     1      71.430  48.915  57.284  1.00  0.00     0.006 C 
BRANCH  12  13
ATOM     13  C   UNL     1      72.491  49.567  56.374  1.00  0.00     0.053 C 
BRANCH  13  14
ATOM     14  C   UNL     1      73.621  50.180  57.147  1.00  0.00     0.041 C 
ATOM     15  O   UNL     1      74.503  49.452  57.671  1.00  0.00    -0.550 OA
ATOM     16  O   UNL     1      73.737  51.563  57.234  1.00  0.00    -0.550 OA
ENDBRANCH  13  14
ENDBRANCH  12  13
ENDBRANCH  11  12
ENDBRANCH  10  11
ENDBRANCH   9  10
ENDBRANCH   8   9
ENDBRANCH   7   8
ENDBRANCH   6   7
ENDBRANCH   5   6
ENDBRANCH   4   5
ENDBRANCH   3   4
ENDBRANCH   2   3
ENDBRANCH   1   2
BRANCH   1  17
ATOM     17  C   UNL     1      71.386  51.452  52.340  1.00  0.00     0.000 C 
BRANCH  17  18
ATOM     18  C   UNL     1      71.304  52.875  51.764  1.00  0.00     0.000 C 
BRANCH  18  19
ATOM     19  C   UNL     1      70.711  52.918  50.344  1.00  0.00     0.000 C 
BRANCH  19  20
ATOM     20  C   UNL     1      69.697  51.802  50.009  1.00  0.00     0.000 C 
BRANCH  20  21
ATOM     21  C   UNL     1      68.256  52.266  49.711  1.00  0.00     0.000 C 
BRANCH  21  22
ATOM     22  C   UNL     1      68.068  53.799  49.685  1.00  0.00    -0.000 C 
BRANCH  22  23
ATOM     23  C   UNL     1      67.758  54.365  48.289  1.00  0.00    -0.000 C 
BRANCH  23  24
ATOM     24  C   UNL     1      68.999  54.418  47.383  1.00  0.00    -0.000 C 
BRANCH  24  25
ATOM     25  C   UNL     1      68.693  54.930  45.964  1.00  0.00    -0.000 C 
BRANCH  25  26
ATOM     26  C   UNL     1      68.646  53.852  44.865  1.00  0.00    -0.000 C 
BRANCH  26  27
ATOM     27  C   UNL     1      67.293  53.793  44.137  1.00  0.00    -0.000 C 
BRANCH  27  28
ATOM     28  C   UNL     1      66.234  54.713  44.771  1.00  0.00    -0.000 C 
BRANCH  28  29
ATOM     29  C   UNL     1      65.071  53.983  45.470  1.00  0.00    -0.003 C 
ATOM     30  C   UNL     1      63.701  54.353  44.900  1.00  0.00     0.004 C 
ENDBRANCH  28  29
ENDBRANCH  27  28
ENDBRANCH  26  27
ENDBRANCH  25  26
ENDBRANCH  24  25
ENDBRANCH  23  24
ENDBRANCH  22  23
ENDBRANCH  21  22
ENDBRANCH  20  21
ENDBRANCH  19  20
ENDBRANCH  18  19
ENDBRANCH  17  18
ENDBRANCH   1  17
TORSDOF 26
ENDMDL
MODEL 9
REMARK VINA RESULT:    -4.064      9.832     13.466
REMARK INTER + INTRA:         -11.811
REMARK INTER:                  -8.736
REMARK INTRA:                  -3.075
REMARK UNBOUND:                -1.571
REMARK SMILES CCCCCCCCCCCCCCCCCCCCCCCCCCCC(=O)[O-]
REMARK SMILES IDX 15 1 16 2 17 3 18 4 19 5 20 6 21 7 22 8 23 9 24 10 25 11
REMARK SMILES IDX 26 12 27 13 28 14 29 15 30 16 14 17 13 18 12 19 11 20 10 21
REMARK SMILES IDX 9 22 8 23 7 24 6 25 5 26 4 27 3 28 2 29 1 30
REMARK H PARENT
REMARK Flexibility Score: inf
ROOT
ATOM      1  C   UNL     1      69.530  51.322  51.779  1.00  0.00     0.000 C 
ENDROOT
BRANCH   1   2
ATOM      2  C   UNL     1      68.713  50.949  50.524  1.00  0.00     0.000 C 
BRANCH   2   3
ATOM      3  C   UNL     1      68.924  51.947  49.369  1.00  0.00     0.000 C 
BRANCH   3   4
ATOM      4  C   UNL     1      67.904  53.101  49.395  1.00  0.00     0.000 C 
BRANCH   4   5
ATOM      5  C   UNL     1      68.507  54.480  49.067  1.00  0.00     0.000 C 
BRANCH   5   6
ATOM      6  C   UNL     1      69.931  54.376  48.491  1.00  0.00     0.000 C 
BRANCH   6   7
ATOM      7  C   UNL     1      70.014  54.887  47.037  1.00  0.00     0.000 C 
BRANCH   7   8
ATOM      8  C   UNL     1      69.631  53.829  45.987  1.00  0.00     0.000 C 
BRANCH   8   9
ATOM      9  C   UNL     1      68.402  54.228  45.158  1.00  0.00     0.000 C 
BRANCH   9  10
ATOM     10  C   UNL     1      68.780  54.500  43.694  1.00  0.00     0.000 C 
BRANCH  10  11
ATOM     11  C   UNL     1      69.923  53.584  43.210  1.00  0.00     0.000 C 
BRANCH  11  12
ATOM     12  C   UNL     1      69.790  53.140  41.740  1.00  0.00     0.006 C 
BRANCH  12  13
ATOM     13  C   UNL     1      69.714  51.613  41.544  1.00  0.00     0.053 C 
BRANCH  13  14
ATOM     14  C   UNL     1      70.557  51.132  40.400  1.00  0.00     0.041 C 
ATOM     15  O   UNL     1      70.987  51.945  39.541  1.00  0.00    -0.550 OA
ATOM     16  O   UNL     1      70.924  49.794  40.317  1.00  0.00    -0.550 OA
ENDBRANCH  13  14
ENDBRANCH  12  13
ENDBRANCH  11  12
ENDBRANCH  10  11
ENDBRANCH   9  10
ENDBRANCH   8   9
ENDBRANCH   7   8
ENDBRANCH   6   7
ENDBRANCH   5   6
ENDBRANCH   4   5
ENDBRANCH   3   4
ENDBRANCH   2   3
ENDBRANCH   1   2
BRANCH   1  17
ATOM     17  C   UNL     1      70.978  51.743  51.474  1.00  0.00     0.000 C 
BRANCH  17  18
ATOM     18  C   UNL     1      71.245  53.222  51.797  1.00  0.00     0.000 C 
BRANCH  18  19
ATOM     19  C   UNL     1      70.016  53.946  52.374  1.00  0.00     0.000 C 
BRANCH  19  20
ATOM     20  C   UNL     1      70.299  54.918  53.540  1.00  0.00     0.000 C 
BRANCH  20  21
ATOM     21  C   UNL     1      69.425  54.736  54.799  1.00  0.00     0.000 C 
BRANCH  21  22
ATOM     22  C   UNL     1      70.189  54.221  56.040  1.00  0.00    -0.000 C 
BRANCH  22  23
ATOM     23  C   UNL     1      69.696  52.857  56.552  1.00  0.00    -0.000 C 
BRANCH  23  24
ATOM     24  C   UNL     1      69.697  51.779  55.456  1.00  0.00    -0.000 C 
BRANCH  24  25
ATOM     25  C   UNL     1      71.109  51.281  55.097  1.00  0.00    -0.000 C 
BRANCH  25  26
ATOM     26  C   UNL     1      72.093  51.166  56.278  1.00  0.00    -0.000 C 
BRANCH  26  27
ATOM     27  C   UNL     1      73.034  49.956  56.159  1.00  0.00    -0.000 C 
BRANCH  27  28
ATOM     28  C   UNL     1      73.850  49.705  57.440  1.00  0.00    -0.000 C 
BRANCH  28  29
ATOM     29  C   UNL     1      73.351  48.538  58.314  1.00  0.00    -0.003 C 
ATOM     30  C   UNL     1      72.260  47.707  57.637  1.00  0.00     0.004 C 
ENDBRANCH  28  29
ENDBRANCH  27  28
ENDBRANCH  26  27
ENDBRANCH  25  26
ENDBRANCH  24  25
ENDBRANCH  23  24
ENDBRANCH  22  23
ENDBRANCH  21  22
ENDBRANCH  20  21
ENDBRANCH  19  20
ENDBRANCH  18  19
ENDBRANCH  17  18
ENDBRANCH   1  17
TORSDOF 26
ENDMDL
