MODEL 1
REMARK VINA RESULT:    -4.625      0.000      0.000
REMARK INTER + INTRA:          -5.729
REMARK INTER:                  -5.437
REMARK INTRA:                  -0.292
REMARK UNBOUND:                -0.292
REMARK SMILES O=c1c(O)c(-c2ccc(O)cc2)oc2cc(O)cc(O)c12
REMARK SMILES IDX 5 1 3 2 2 3 1 4 21 5 19 6 18 7 16 8 15 9 14 10 13 11 6 12
REMARK SMILES IDX 7 13 8 14 9 15 12 16 11 17 10 18 4 20 20 22 17 24
REMARK H PARENT 10 19 4 21 20 23 17 25
REMARK Flexibility Score: inf
ROOT
ATOM      1  C   UNL     1      -4.286  -7.805   8.725  1.00  0.00     0.180 A 
ATOM      2  C   UNL     1      -3.773  -8.932   8.051  1.00  0.00     0.208 A 
ATOM      3  C   UNL     1      -2.383  -9.079   7.937  1.00  0.00     0.238 A 
ATOM      4  O   UNL     1      -1.912 -10.089   7.346  1.00  0.00    -0.285 OA
ATOM      5  C   UNL     1      -1.531  -8.094   8.477  1.00  0.00     0.111 A 
ATOM      6  C   UNL     1      -0.119  -8.165   8.401  1.00  0.00     0.134 A 
ATOM      7  C   UNL     1       0.661  -7.139   8.956  1.00  0.00     0.093 A 
ATOM      8  C   UNL     1       0.059  -6.046   9.582  1.00  0.00     0.123 A 
ATOM      9  C   UNL     1      -1.336  -5.970   9.660  1.00  0.00     0.094 A 
ATOM     10  C   UNL     1      -2.130  -6.983   9.116  1.00  0.00     0.146 A 
ATOM     11  O   UNL     1      -3.452  -6.889   9.208  1.00  0.00    -0.452 OA
ENDROOT
BRANCH   1  12
ATOM     12  C   UNL     1      -5.740  -7.589   8.903  1.00  0.00     0.021 A 
ATOM     13  C   UNL     1      -6.421  -6.724   8.030  1.00  0.00     0.016 A 
ATOM     14  C   UNL     1      -7.790  -6.488   8.194  1.00  0.00     0.047 A 
ATOM     15  C   UNL     1      -8.490  -7.101   9.241  1.00  0.00     0.115 A 
ATOM     16  C   UNL     1      -6.446  -8.186   9.964  1.00  0.00     0.016 A 
ATOM     17  C   UNL     1      -7.814  -7.947  10.125  1.00  0.00     0.047 A 
BRANCH  15  18
ATOM     18  O   UNL     1      -9.853  -6.874   9.413  1.00  0.00    -0.508 OA
ATOM     19  H   UNL     1     -10.430  -7.502   9.962  1.00  0.00     0.293 HD
ENDBRANCH  15  18
ENDBRANCH   1  12
BRANCH   2  20
ATOM     20  O   UNL     1      -4.641  -9.868   7.482  1.00  0.00    -0.502 OA
ATOM     21  H   UNL     1      -4.408 -10.851   7.413  1.00  0.00     0.293 HD
ENDBRANCH   2  20
BRANCH   6  22
ATOM     22  O   UNL     1       0.514  -9.244   7.781  1.00  0.00    -0.507 OA
ATOM     23  H   UNL     1       0.521 -10.168   8.197  1.00  0.00     0.293 HD
ENDBRANCH   6  22
BRANCH   8  24
ATOM     24  O   UNL     1       0.856  -5.040  10.124  1.00  0.00    -0.508 OA
ATOM     25  H   UNL     1       1.526  -5.235  10.859  1.00  0.00     0.293 HD
ENDBRANCH   8  24
TORSDOF 5
ENDMDL
MODEL 2
REMARK VINA RESULT:    -4.488     18.914     20.768
REMARK INTER + INTRA:          -5.568
REMARK INTER:                  -5.277
REMARK INTRA:                  -0.291
REMARK UNBOUND:                -0.292
REMARK SMILES O=c1c(O)c(-c2ccc(O)cc2)oc2cc(O)cc(O)c12
REMARK SMILES IDX 5 1 3 2 2 3 1 4 21 5 19 6 18 7 16 8 15 9 14 10 13 11 6 12
REMARK SMILES IDX 7 13 8 14 9 15 12 16 11 17 10 18 4 20 20 22 17 24
REMARK H PARENT 10 19 4 21 20 23 17 25
REMARK Flexibility Score: inf
ROOT
ATOM      1  C   UNL     1      -9.091   6.406  -4.602  1.00  0.00     0.180 A 
ATOM      2  C   UNL     1      -8.937   7.020  -5.861  1.00  0.00     0.208 A 
ATOM      3  C   UNL     1      -9.077   6.240  -7.019  1.00  0.00     0.238 A 
ATOM      4  O   UNL     1      -8.952   6.781  -8.151  1.00  0.00    -0.285 OA
ATOM      5  C   UNL     1      -9.347   4.861  -6.901  1.00  0.00     0.111 A 
ATOM      6  C   UNL     1      -9.499   4.003  -8.017  1.00  0.00     0.134 A 
ATOM      7  C   UNL     1      -9.758   2.639  -7.818  1.00  0.00     0.093 A 
ATOM      8  C   UNL     1      -9.868   2.116  -6.527  1.00  0.00     0.123 A 
ATOM      9  C   UNL     1      -9.720   2.959  -5.420  1.00  0.00     0.094 A 
ATOM     10  C   UNL     1      -9.463   4.321  -5.598  1.00  0.00     0.146 A 
ATOM     11  O   UNL     1      -9.332   5.100  -4.530  1.00  0.00    -0.452 OA
ENDROOT
BRANCH   1  12
ATOM     12  C   UNL     1      -8.978   7.166  -3.336  1.00  0.00     0.021 A 
ATOM     13  C   UNL     1     -10.120   7.785  -2.799  1.00  0.00     0.016 A 
ATOM     14  C   UNL     1     -10.032   8.527  -1.617  1.00  0.00     0.047 A 
ATOM     15  C   UNL     1      -8.800   8.670  -0.966  1.00  0.00     0.115 A 
ATOM     16  C   UNL     1      -7.741   7.331  -2.688  1.00  0.00     0.016 A 
ATOM     17  C   UNL     1      -7.657   8.074  -1.506  1.00  0.00     0.047 A 
BRANCH  15  18
ATOM     18  O   UNL     1      -8.701   9.405   0.213  1.00  0.00    -0.508 OA
ATOM     19  H   UNL     1      -7.951   9.245   0.876  1.00  0.00     0.293 HD
ENDBRANCH  15  18
ENDBRANCH   1  12
BRANCH   2  20
ATOM     20  O   UNL     1      -8.620   8.378  -5.948  1.00  0.00    -0.502 OA
ATOM     21  H   UNL     1      -9.330   9.101  -5.959  1.00  0.00     0.293 HD
ENDBRANCH   2  20
BRANCH   6  22
ATOM     22  O   UNL     1      -9.394   4.495  -9.320  1.00  0.00    -0.507 OA
ATOM     23  H   UNL     1     -10.210   4.631  -9.905  1.00  0.00     0.293 HD
ENDBRANCH   6  22
BRANCH   8  24
ATOM     24  O   UNL     1     -10.125   0.758  -6.356  1.00  0.00    -0.508 OA
ATOM     25  H   UNL     1      -9.458   0.147  -5.899  1.00  0.00     0.293 HD
ENDBRANCH   8  24
TORSDOF 5
ENDMDL
MODEL 3
REMARK VINA RESULT:    -4.306      7.423      9.352
REMARK INTER + INTRA:          -5.353
REMARK INTER:                  -5.060
REMARK INTRA:                  -0.294
REMARK UNBOUND:                -0.292
REMARK SMILES O=c1c(O)c(-c2ccc(O)cc2)oc2cc(O)cc(O)c12
REMARK SMILES IDX 5 1 3 2 2 3 1 4 21 5 19 6 18 7 16 8 15 9 14 10 13 11 6 12
REMARK SMILES IDX 7 13 8 14 9 15 12 16 11 17 10 18 4 20 20 22 17 24
REMARK H PARENT 10 19 4 21 20 23 17 25
REMARK Flexibility Score: inf
ROOT
ATOM      1  C   UNL     1      -9.286  -6.459   3.654  1.00  0.00     0.180 A 
ATOM      2  C   UNL     1      -9.360  -7.061   4.925  1.00  0.00     0.208 A 
ATOM      3  C   UNL     1      -9.603  -6.253   6.046  1.00  0.00     0.238 A 
ATOM      4  O   UNL     1      -9.682  -6.782   7.188  1.00  0.00    -0.285 OA
ATOM      5  C   UNL     1      -9.748  -4.860   5.882  1.00  0.00     0.111 A 
ATOM      6  C   UNL     1      -9.991  -3.975   6.960  1.00  0.00     0.134 A 
ATOM      7  C   UNL     1     -10.115  -2.599   6.716  1.00  0.00     0.093 A 
ATOM      8  C   UNL     1     -10.000  -2.091   5.420  1.00  0.00     0.123 A 
ATOM      9  C   UNL     1      -9.760  -2.961   4.352  1.00  0.00     0.094 A 
ATOM     10  C   UNL     1      -9.636  -4.336   4.573  1.00  0.00     0.146 A 
ATOM     11  O   UNL     1      -9.413  -5.140   3.540  1.00  0.00    -0.452 OA
ENDROOT
BRANCH   1  12
ATOM     12  C   UNL     1      -9.052  -7.247   2.422  1.00  0.00     0.021 A 
ATOM     13  C   UNL     1      -7.735  -7.470   1.986  1.00  0.00     0.016 A 
ATOM     14  C   UNL     1      -7.491  -8.191   0.813  1.00  0.00     0.047 A 
ATOM     15  C   UNL     1      -8.561  -8.687   0.055  1.00  0.00     0.115 A 
ATOM     16  C   UNL     1     -10.121  -7.730   1.646  1.00  0.00     0.016 A 
ATOM     17  C   UNL     1      -9.873  -8.451   0.474  1.00  0.00     0.047 A 
BRANCH  15  18
ATOM     18  O   UNL     1      -8.330  -9.408  -1.113  1.00  0.00    -0.508 OA
ATOM     19  H   UNL     1      -7.778 -10.259  -1.110  1.00  0.00     0.293 HD
ENDBRANCH  15  18
ENDBRANCH   1  12
BRANCH   2  20
ATOM     20  O   UNL     1      -9.163  -8.438   5.066  1.00  0.00    -0.502 OA
ATOM     21  H   UNL     1      -8.241  -8.847   5.160  1.00  0.00     0.293 HD
ENDBRANCH   2  20
BRANCH   6  22
ATOM     22  O   UNL     1     -10.111  -4.450   8.267  1.00  0.00    -0.507 OA
ATOM     23  H   UNL     1     -10.996  -4.438   8.759  1.00  0.00     0.293 HD
ENDBRANCH   6  22
BRANCH   8  24
ATOM     24  O   UNL     1     -10.125  -0.721   5.206  1.00  0.00    -0.508 OA
ATOM     25  H   UNL     1     -10.260  -0.341   4.276  1.00  0.00     0.293 HD
ENDBRANCH   8  24
TORSDOF 5
ENDMDL
MODEL 4
REMARK VINA RESULT:    -4.285     18.682     20.448
REMARK INTER + INTRA:          -5.329
REMARK INTER:                  -5.055
REMARK INTRA:                  -0.274
REMARK UNBOUND:                -0.292
REMARK SMILES O=c1c(O)c(-c2ccc(O)cc2)oc2cc(O)cc(O)c12
REMARK SMILES IDX 5 1 3 2 2 3 1 4 21 5 19 6 18 7 16 8 15 9 14 10 13 11 6 12
REMARK SMILES IDX 7 13 8 14 9 15 12 16 11 17 10 18 4 20 20 22 17 24
REMARK H PARENT 10 19 4 21 20 23 17 25
REMARK Flexibility Score: inf
ROOT
ATOM      1  C   UNL     1      -8.161   8.606  -1.300  1.00  0.00     0.180 A 
ATOM      2  C   UNL     1      -7.018   9.328  -1.697  1.00  0.00     0.208 A 
ATOM      3  C   UNL     1      -6.641   9.315  -3.049  1.00  0.00     0.238 A 
ATOM      4  O   UNL     1      -5.626   9.965  -3.417  1.00  0.00    -0.285 OA
ATOM      5  C   UNL     1      -7.398   8.568  -3.975  1.00  0.00     0.111 A 
ATOM      6  C   UNL     1      -7.085   8.499  -5.354  1.00  0.00     0.134 A 
ATOM      7  C   UNL     1      -7.883   7.726  -6.212  1.00  0.00     0.093 A 
ATOM      8  C   UNL     1      -8.984   7.023  -5.719  1.00  0.00     0.123 A 
ATOM      9  C   UNL     1      -9.299   7.088  -4.358  1.00  0.00     0.094 A 
ATOM     10  C   UNL     1      -8.518   7.853  -3.487  1.00  0.00     0.146 A 
ATOM     11  O   UNL     1      -8.841   7.902  -2.200  1.00  0.00    -0.452 OA
ENDROOT
BRANCH   1  12
ATOM     12  C   UNL     1      -8.633   8.587   0.103  1.00  0.00     0.021 A 
ATOM     13  C   UNL     1      -8.065   7.676   1.009  1.00  0.00     0.016 A 
ATOM     14  C   UNL     1      -8.511   7.625   2.333  1.00  0.00     0.047 A 
ATOM     15  C   UNL     1      -9.539   8.474   2.764  1.00  0.00     0.115 A 
ATOM     16  C   UNL     1      -9.678   9.423   0.537  1.00  0.00     0.016 A 
ATOM     17  C   UNL     1     -10.121   9.369   1.863  1.00  0.00     0.047 A 
BRANCH  15  18
ATOM     18  O   UNL     1      -9.989   8.433   4.081  1.00  0.00    -0.508 OA
ATOM     19  H   UNL     1      -9.651   9.088   4.778  1.00  0.00     0.293 HD
ENDBRANCH  15  18
ENDBRANCH   1  12
BRANCH   2  20
ATOM     20  O   UNL     1      -6.257  10.019  -0.750  1.00  0.00    -0.502 OA
ATOM     21  H   UNL     1      -6.668  10.435   0.077  1.00  0.00     0.293 HD
ENDBRANCH   2  20
BRANCH   6  22
ATOM     22  O   UNL     1      -5.991   9.190  -5.877  1.00  0.00    -0.507 OA
ATOM     23  H   UNL     1      -6.107  10.017  -6.451  1.00  0.00     0.293 HD
ENDBRANCH   6  22
BRANCH   8  24
ATOM     24  O   UNL     1      -9.759   6.262  -6.591  1.00  0.00    -0.508 OA
ATOM     25  H   UNL     1      -9.335   5.630  -7.261  1.00  0.00     0.293 HD
ENDBRANCH   8  24
TORSDOF 5
ENDMDL
MODEL 5
REMARK VINA RESULT:    -4.282      2.176      7.594
REMARK INTER + INTRA:          -5.326
REMARK INTER:                  -5.061
REMARK INTRA:                  -0.265
REMARK UNBOUND:                -0.292
REMARK SMILES O=c1c(O)c(-c2ccc(O)cc2)oc2cc(O)cc(O)c12
REMARK SMILES IDX 5 1 3 2 2 3 1 4 21 5 19 6 18 7 16 8 15 9 14 10 13 11 6 12
REMARK SMILES IDX 7 13 8 14 9 15 12 16 11 17 10 18 4 20 20 22 17 24
REMARK H PARENT 10 19 4 21 20 23 17 25
REMARK Flexibility Score: inf
ROOT
ATOM      1  C   UNL     1      -0.196  -8.302   8.436  1.00  0.00     0.180 A 
ATOM      2  C   UNL     1      -0.601  -7.206   9.224  1.00  0.00     0.208 A 
ATOM      3  C   UNL     1      -1.969  -6.908   9.319  1.00  0.00     0.238 A 
ATOM      4  O   UNL     1      -2.344  -5.936  10.030  1.00  0.00    -0.285 OA
ATOM      5  C   UNL     1      -2.904  -7.693   8.613  1.00  0.00     0.111 A 
ATOM      6  C   UNL     1      -4.299  -7.457   8.653  1.00  0.00     0.134 A 
ATOM      7  C   UNL     1      -5.165  -8.277   7.915  1.00  0.00     0.093 A 
ATOM      8  C   UNL     1      -4.666  -9.326   7.140  1.00  0.00     0.123 A 
ATOM      9  C   UNL     1      -3.288  -9.564   7.098  1.00  0.00     0.094 A 
ATOM     10  C   UNL     1      -2.408  -8.759   7.827  1.00  0.00     0.146 A 
ATOM     11  O   UNL     1      -1.106  -9.010   7.773  1.00  0.00    -0.452 OA
ENDROOT
BRANCH   1  12
ATOM     12  C   UNL     1       1.226  -8.692   8.301  1.00  0.00     0.021 A 
ATOM     13  C   UNL     1       2.042  -8.018   7.376  1.00  0.00     0.016 A 
ATOM     14  C   UNL     1       3.382  -8.384   7.216  1.00  0.00     0.047 A 
ATOM     15  C   UNL     1       3.919  -9.438   7.968  1.00  0.00     0.115 A 
ATOM     16  C   UNL     1       1.767  -9.761   9.038  1.00  0.00     0.016 A 
ATOM     17  C   UNL     1       3.108 -10.125   8.876  1.00  0.00     0.047 A 
BRANCH  15  18
ATOM     18  O   UNL     1       5.252  -9.810   7.818  1.00  0.00    -0.508 OA
ATOM     19  H   UNL     1       5.872  -9.317   7.184  1.00  0.00     0.293 HD
ENDBRANCH  15  18
ENDBRANCH   1  12
BRANCH   2  20
ATOM     20  O   UNL     1       0.351  -6.415   9.872  1.00  0.00    -0.502 OA
ATOM     21  H   UNL     1       0.553  -6.510  10.861  1.00  0.00     0.293 HD
ENDBRANCH   2  20
BRANCH   6  22
ATOM     22  O   UNL     1      -4.830  -6.416   9.418  1.00  0.00    -0.507 OA
ATOM     23  H   UNL     1      -5.333  -5.646   8.993  1.00  0.00     0.293 HD
ENDBRANCH   6  22
BRANCH   8  24
ATOM     24  O   UNL     1      -5.547 -10.125   6.416  1.00  0.00    -0.508 OA
ATOM     25  H   UNL     1      -6.448 -10.397   6.795  1.00  0.00     0.293 HD
ENDBRANCH   8  24
TORSDOF 5
ENDMDL
MODEL 6
REMARK VINA RESULT:    -4.265      1.795      3.036
REMARK INTER + INTRA:          -5.306
REMARK INTER:                  -5.028
REMARK INTRA:                  -0.278
REMARK UNBOUND:                -0.292
REMARK SMILES O=c1c(O)c(-c2ccc(O)cc2)oc2cc(O)cc(O)c12
REMARK SMILES IDX 5 1 3 2 2 3 1 4 21 5 19 6 18 7 16 8 15 9 14 10 13 11 6 12
REMARK SMILES IDX 7 13 8 14 9 15 12 16 11 17 10 18 4 20 20 22 17 24
REMARK H PARENT 10 19 4 21 20 23 17 25
REMARK Flexibility Score: inf
ROOT
ATOM      1  C   UNL     1      -4.680  -7.935   8.458  1.00  0.00     0.180 A 
ATOM      2  C   UNL     1      -4.530  -6.635   8.980  1.00  0.00     0.208 A 
ATOM      3  C   UNL     1      -3.238  -6.157   9.251  1.00  0.00     0.238 A 
ATOM      4  O   UNL     1      -3.091  -4.991   9.708  1.00  0.00    -0.285 OA
ATOM      5  C   UNL     1      -2.124  -6.990   9.016  1.00  0.00     0.111 A 
ATOM      6  C   UNL     1      -0.790  -6.586   9.265  1.00  0.00     0.134 A 
ATOM      7  C   UNL     1       0.265  -7.477   9.014  1.00  0.00     0.093 A 
ATOM      8  C   UNL     1       0.013  -8.759   8.520  1.00  0.00     0.123 A 
ATOM      9  C   UNL     1      -1.303  -9.162   8.271  1.00  0.00     0.094 A 
ATOM     10  C   UNL     1      -2.368  -8.289   8.513  1.00  0.00     0.146 A 
ATOM     11  O   UNL     1      -3.607  -8.696   8.264  1.00  0.00    -0.452 OA
ENDROOT
BRANCH   1  12
ATOM     12  C   UNL     1      -6.008  -8.502   8.129  1.00  0.00     0.021 A 
ATOM     13  C   UNL     1      -6.498  -8.393   6.816  1.00  0.00     0.016 A 
ATOM     14  C   UNL     1      -7.758  -8.901   6.488  1.00  0.00     0.047 A 
ATOM     15  C   UNL     1      -8.551  -9.510   7.470  1.00  0.00     0.115 A 
ATOM     16  C   UNL     1      -6.817  -9.096   9.114  1.00  0.00     0.016 A 
ATOM     17  C   UNL     1      -8.077  -9.603   8.782  1.00  0.00     0.047 A 
BRANCH  15  18
ATOM     18  O   UNL     1      -9.807 -10.021   7.154  1.00  0.00    -0.508 OA
ATOM     19  H   UNL     1      -9.951 -10.607   6.339  1.00  0.00     0.293 HD
ENDBRANCH  15  18
ENDBRANCH   1  12
BRANCH   2  20
ATOM     20  O   UNL     1      -5.653  -5.849   9.250  1.00  0.00    -0.502 OA
ATOM     21  H   UNL     1      -5.934  -5.080   8.653  1.00  0.00     0.293 HD
ENDBRANCH   2  20
BRANCH   6  22
ATOM     22  O   UNL     1      -0.506  -5.312   9.759  1.00  0.00    -0.507 OA
ATOM     23  H   UNL     1      -0.045  -4.611   9.191  1.00  0.00     0.293 HD
ENDBRANCH   6  22
BRANCH   8  24
ATOM     24  O   UNL     1       1.078  -9.623   8.280  1.00  0.00    -0.508 OA
ATOM     25  H   UNL     1       1.073 -10.264   7.495  1.00  0.00     0.293 HD
ENDBRANCH   8  24
TORSDOF 5
ENDMDL
MODEL 7
REMARK VINA RESULT:    -4.203     14.362     16.848
REMARK INTER + INTRA:          -5.233
REMARK INTER:                  -4.947
REMARK INTRA:                  -0.286
REMARK UNBOUND:                -0.292
REMARK SMILES O=c1c(O)c(-c2ccc(O)cc2)oc2cc(O)cc(O)c12
REMARK SMILES IDX 5 1 3 2 2 3 1 4 21 5 19 6 18 7 16 8 15 9 14 10 13 11 6 12
REMARK SMILES IDX 7 13 8 14 9 15 12 16 11 17 10 18 4 20 20 22 17 24
REMARK H PARENT 10 19 4 21 20 23 17 25
REMARK Flexibility Score: inf
ROOT
ATOM      1  C   UNL     1       6.640   4.140   9.127  1.00  0.00     0.180 A 
ATOM      2  C   UNL     1       7.231   5.415   9.226  1.00  0.00     0.208 A 
ATOM      3  C   UNL     1       6.417   6.521   9.517  1.00  0.00     0.238 A 
ATOM      4  O   UNL     1       6.936   7.665   9.619  1.00  0.00    -0.285 OA
ATOM      5  C   UNL     1       5.029   6.338   9.685  1.00  0.00     0.111 A 
ATOM      6  C   UNL     1       4.138   7.399   9.977  1.00  0.00     0.134 A 
ATOM      7  C   UNL     1       2.767   7.137  10.121  1.00  0.00     0.093 A 
ATOM      8  C   UNL     1       2.270   5.840   9.978  1.00  0.00     0.123 A 
ATOM      9  C   UNL     1       3.146   4.788   9.690  1.00  0.00     0.094 A 
ATOM     10  C   UNL     1       4.515   5.027   9.545  1.00  0.00     0.146 A 
ATOM     11  O   UNL     1       5.325   4.009   9.277  1.00  0.00    -0.452 OA
ENDROOT
BRANCH   1  12
ATOM     12  C   UNL     1       7.435   2.924   8.842  1.00  0.00     0.021 A 
ATOM     13  C   UNL     1       7.950   2.171   9.910  1.00  0.00     0.016 A 
ATOM     14  C   UNL     1       8.723   1.032   9.664  1.00  0.00     0.047 A 
ATOM     15  C   UNL     1       9.002   0.640   8.348  1.00  0.00     0.115 A 
ATOM     16  C   UNL     1       7.736   2.537   7.524  1.00  0.00     0.016 A 
ATOM     17  C   UNL     1       8.509   1.396   7.281  1.00  0.00     0.047 A 
BRANCH  15  18
ATOM     18  O   UNL     1       9.769  -0.493   8.092  1.00  0.00    -0.508 OA
ATOM     19  H   UNL     1      10.223  -1.006   8.840  1.00  0.00     0.293 HD
ENDBRANCH  15  18
ENDBRANCH   1  12
BRANCH   2  20
ATOM     20  O   UNL     1       8.602   5.576   9.005  1.00  0.00    -0.502 OA
ATOM     21  H   UNL     1       9.146   4.912   8.467  1.00  0.00     0.293 HD
ENDBRANCH   2  20
BRANCH   6  22
ATOM     22  O   UNL     1       4.603   8.707  10.125  1.00  0.00    -0.507 OA
ATOM     23  H   UNL     1       3.992   9.459  10.420  1.00  0.00     0.293 HD
ENDBRANCH   6  22
BRANCH   8  24
ATOM     24  O   UNL     1       0.905   5.608  10.125  1.00  0.00    -0.508 OA
ATOM     25  H   UNL     1       0.274   5.648   9.333  1.00  0.00     0.293 HD
ENDBRANCH   8  24
TORSDOF 5
ENDMDL
MODEL 8
REMARK VINA RESULT:    -4.188      3.155      7.209
REMARK INTER + INTRA:          -5.215
REMARK INTER:                  -4.983
REMARK INTRA:                  -0.232
REMARK UNBOUND:                -0.292
REMARK SMILES O=c1c(O)c(-c2ccc(O)cc2)oc2cc(O)cc(O)c12
REMARK SMILES IDX 5 1 3 2 2 3 1 4 21 5 19 6 18 7 16 8 15 9 14 10 13 11 6 12
REMARK SMILES IDX 7 13 8 14 9 15 12 16 11 17 10 18 4 20 20 22 17 24
REMARK H PARENT 10 19 4 21 20 23 17 25
REMARK Flexibility Score: inf
ROOT
ATOM      1  C   UNL     1      -4.021  -9.010   7.115  1.00  0.00     0.180 A 
ATOM      2  C   UNL     1      -5.177  -8.782   7.887  1.00  0.00     0.208 A 
ATOM      3  C   UNL     1      -6.434  -8.869   7.268  1.00  0.00     0.238 A 
ATOM      4  O   UNL     1      -7.476  -8.677   7.951  1.00  0.00    -0.285 OA
ATOM      5  C   UNL     1      -6.514  -9.163   5.891  1.00  0.00     0.111 A 
ATOM      6  C   UNL     1      -7.740  -9.266   5.191  1.00  0.00     0.134 A 
ATOM      7  C   UNL     1      -7.736  -9.553   3.818  1.00  0.00     0.093 A 
ATOM      8  C   UNL     1      -6.533  -9.738   3.132  1.00  0.00     0.123 A 
ATOM      9  C   UNL     1      -5.319  -9.638   3.819  1.00  0.00     0.094 A 
ATOM     10  C   UNL     1      -5.301  -9.355   5.188  1.00  0.00     0.146 A 
ATOM     11  O   UNL     1      -4.135  -9.271   5.816  1.00  0.00    -0.452 OA
ENDROOT
BRANCH   1  12
ATOM     12  C   UNL     1      -2.661  -8.956   7.700  1.00  0.00     0.021 A 
ATOM     13  C   UNL     1      -2.077  -7.707   7.970  1.00  0.00     0.016 A 
ATOM     14  C   UNL     1      -0.785  -7.630   8.500  1.00  0.00     0.047 A 
ATOM     15  C   UNL     1      -0.057  -8.800   8.754  1.00  0.00     0.115 A 
ATOM     16  C   UNL     1      -1.917 -10.125   7.938  1.00  0.00     0.016 A 
ATOM     17  C   UNL     1      -0.626 -10.045   8.469  1.00  0.00     0.047 A 
BRANCH  15  18
ATOM     18  O   UNL     1       1.229  -8.736   9.284  1.00  0.00    -0.508 OA
ATOM     19  H   UNL     1       1.849  -7.960   9.078  1.00  0.00     0.293 HD
ENDBRANCH  15  18
ENDBRANCH   1  12
BRANCH   2  20
ATOM     20  O   UNL     1      -5.068  -8.443   9.238  1.00  0.00    -0.502 OA
ATOM     21  H   UNL     1      -4.717  -9.092   9.933  1.00  0.00     0.293 HD
ENDBRANCH   2  20
BRANCH   6  22
ATOM     22  O   UNL     1      -8.959  -9.085   5.848  1.00  0.00    -0.507 OA
ATOM     23  H   UNL     1      -9.806  -9.543   5.533  1.00  0.00     0.293 HD
ENDBRANCH   6  22
BRANCH   8  24
ATOM     24  O   UNL     1      -6.557 -10.021   1.769  1.00  0.00    -0.508 OA
ATOM     25  H   UNL     1      -7.375  -9.825   1.202  1.00  0.00     0.293 HD
ENDBRANCH   8  24
TORSDOF 5
ENDMDL
MODEL 9
REMARK VINA RESULT:    -4.171      3.951      5.483
REMARK INTER + INTRA:          -5.195
REMARK INTER:                  -4.923
REMARK INTRA:                  -0.271
REMARK UNBOUND:                -0.292
REMARK SMILES O=c1c(O)c(-c2ccc(O)cc2)oc2cc(O)cc(O)c12
REMARK SMILES IDX 5 1 3 2 2 3 1 4 21 5 19 6 18 7 16 8 15 9 14 10 13 11 6 12
REMARK SMILES IDX 7 13 8 14 9 15 12 16 11 17 10 18 4 20 20 22 17 24
REMARK H PARENT 10 19 4 21 20 23 17 25
REMARK Flexibility Score: inf
ROOT
ATOM      1  C   UNL     1      -6.775  -3.757   9.077  1.00  0.00     0.180 A 
ATOM      2  C   UNL     1      -7.538  -4.929   8.907  1.00  0.00     0.208 A 
ATOM      3  C   UNL     1      -6.905  -6.175   9.035  1.00  0.00     0.238 A 
ATOM      4  O   UNL     1      -7.580  -7.231   8.895  1.00  0.00    -0.285 OA
ATOM      5  C   UNL     1      -5.523  -6.230   9.310  1.00  0.00     0.111 A 
ATOM      6  C   UNL     1      -4.810  -7.445   9.450  1.00  0.00     0.134 A 
ATOM      7  C   UNL     1      -3.432  -7.416   9.715  1.00  0.00     0.093 A 
ATOM      8  C   UNL     1      -2.756  -6.200   9.841  1.00  0.00     0.123 A 
ATOM      9  C   UNL     1      -3.456  -4.997   9.704  1.00  0.00     0.094 A 
ATOM     10  C   UNL     1      -4.829  -5.004   9.442  1.00  0.00     0.146 A 
ATOM     11  O   UNL     1      -5.471  -3.848   9.321  1.00  0.00    -0.452 OA
ENDROOT
BRANCH   1  12
ATOM     12  C   UNL     1      -7.374  -2.407   8.977  1.00  0.00     0.021 A 
ATOM     13  C   UNL     1      -7.537  -1.816   7.713  1.00  0.00     0.016 A 
ATOM     14  C   UNL     1      -8.079  -0.532   7.596  1.00  0.00     0.047 A 
ATOM     15  C   UNL     1      -8.452   0.182   8.742  1.00  0.00     0.115 A 
ATOM     16  C   UNL     1      -7.732  -1.676  10.125  1.00  0.00     0.016 A 
ATOM     17  C   UNL     1      -8.274  -0.392  10.004  1.00  0.00     0.047 A 
BRANCH  15  18
ATOM     18  O   UNL     1      -8.994   1.460   8.638  1.00  0.00    -0.508 OA
ATOM     19  H   UNL     1      -8.554   2.261   9.077  1.00  0.00     0.293 HD
ENDBRANCH  15  18
ENDBRANCH   1  12
BRANCH   2  20
ATOM     20  O   UNL     1      -8.896  -4.846   8.586  1.00  0.00    -0.502 OA
ATOM     21  H   UNL     1      -9.398  -5.611   8.151  1.00  0.00     0.293 HD
ENDBRANCH   2  20
BRANCH   6  22
ATOM     22  O   UNL     1      -5.456  -8.676   9.329  1.00  0.00    -0.507 OA
ATOM     23  H   UNL     1      -6.336  -8.769   8.836  1.00  0.00     0.293 HD
ENDBRANCH   6  22
BRANCH   8  24
ATOM     24  O   UNL     1      -1.388  -6.200  10.103  1.00  0.00    -0.508 OA
ATOM     25  H   UNL     1      -0.976  -6.845  10.768  1.00  0.00     0.293 HD
ENDBRANCH   8  24
TORSDOF 5
ENDMDL
