MODEL 1
REMARK VINA RESULT:    -5.773      0.000      0.000
REMARK INTER + INTRA:          -7.120
REMARK INTER:                  -6.954
REMARK INTRA:                  -0.166
REMARK UNBOUND:                -0.166
REMARK SMILES O=c1c(O)c(-c2ccc(O)c(O)c2)oc2cc(O)cc(O)c12
REMARK SMILES IDX 5 1 3 2 2 3 1 4 22 5 20 6 19 7 17 8 16 9 15 10 14 11 6 12
REMARK SMILES IDX 7 13 8 14 9 15 13 16 11 17 10 18 12 20 4 22 21 24 18 26
REMARK H PARENT 10 19 12 21 4 23 21 25 18 27
REMARK Flexibility Score: inf
ROOT
ATOM      1  C   UNL     1      -4.756 -36.840 -31.237  1.00  0.00     0.180 A 
ATOM      2  C   UNL     1      -6.020 -37.438 -31.091  1.00  0.00     0.208 A 
ATOM      3  C   UNL     1      -7.151 -36.765 -31.578  1.00  0.00     0.238 A 
ATOM      4  O   UNL     1      -8.285 -37.281 -31.396  1.00  0.00    -0.285 OA
ATOM      5  C   UNL     1      -7.005 -35.512 -32.221  1.00  0.00     0.111 A 
ATOM      6  C   UNL     1      -8.079 -34.762 -32.790  1.00  0.00     0.134 A 
ATOM      7  C   UNL     1      -7.835 -33.475 -33.284  1.00  0.00     0.093 A 
ATOM      8  C   UNL     1      -6.546 -32.938 -33.290  1.00  0.00     0.123 A 
ATOM      9  C   UNL     1      -5.481 -33.686 -32.793  1.00  0.00     0.094 A 
ATOM     10  C   UNL     1      -5.699 -34.959 -32.259  1.00  0.00     0.146 A 
ATOM     11  O   UNL     1      -4.658 -35.634 -31.786  1.00  0.00    -0.452 OA
ENDROOT
BRANCH   1  12
ATOM     12  C   UNL     1      -3.514 -37.498 -30.772  1.00  0.00     0.025 A 
ATOM     13  C   UNL     1      -3.281 -37.739 -29.407  1.00  0.00     0.016 A 
ATOM     14  C   UNL     1      -2.112 -38.382 -28.993  1.00  0.00     0.051 A 
ATOM     15  C   UNL     1      -1.165 -38.806 -29.935  1.00  0.00     0.157 A 
ATOM     16  C   UNL     1      -2.572 -37.943 -31.714  1.00  0.00     0.062 A 
ATOM     17  C   UNL     1      -1.399 -38.587 -31.303  1.00  0.00     0.158 A 
BRANCH  15  18
ATOM     18  O   UNL     1       0.001 -39.445 -29.518  1.00  0.00    -0.504 OA
ATOM     19  H   UNL     1       0.117 -40.447 -29.606  1.00  0.00     0.293 HD
ENDBRANCH  15  18
BRANCH  17  20
ATOM     20  O   UNL     1      -0.481 -39.003 -32.266  1.00  0.00    -0.504 OA
ATOM     21  H   UNL     1      -0.747 -39.164 -33.229  1.00  0.00     0.293 HD
ENDBRANCH  17  20
ENDBRANCH   1  12
BRANCH   2  22
ATOM     22  O   UNL     1      -6.145 -38.665 -30.434  1.00  0.00    -0.502 OA
ATOM     23  H   UNL     1      -5.424 -39.375 -30.467  1.00  0.00     0.293 HD
ENDBRANCH   2  22
BRANCH   6  24
ATOM     24  O   UNL     1      -9.385 -35.243 -32.915  1.00  0.00    -0.507 OA
ATOM     25  H   UNL     1      -9.628 -36.189 -33.166  1.00  0.00     0.293 HD
ENDBRANCH   6  24
BRANCH   8  26
ATOM     26  O   UNL     1      -6.309 -31.662 -33.799  1.00  0.00    -0.508 OA
ATOM     27  H   UNL     1      -5.393 -31.233 -33.749  1.00  0.00     0.293 HD
ENDBRANCH   8  26
TORSDOF 6
ENDMDL
MODEL 2
REMARK VINA RESULT:    -5.621      2.642      3.353
REMARK INTER + INTRA:          -6.936
REMARK INTER:                  -6.631
REMARK INTRA:                  -0.305
REMARK UNBOUND:                -0.166
REMARK SMILES O=c1c(O)c(-c2ccc(O)c(O)c2)oc2cc(O)cc(O)c12
REMARK SMILES IDX 5 1 3 2 2 3 1 4 22 5 20 6 19 7 17 8 16 9 15 10 14 11 6 12
REMARK SMILES IDX 7 13 8 14 9 15 13 16 11 17 10 18 12 20 4 22 21 24 18 26
REMARK H PARENT 10 19 12 21 4 23 21 25 18 27
REMARK Flexibility Score: inf
ROOT
ATOM      1  C   UNL     1      -6.171 -36.627 -31.627  1.00  0.00     0.180 A 
ATOM      2  C   UNL     1      -7.489 -36.216 -31.886  1.00  0.00     0.208 A 
ATOM      3  C   UNL     1      -7.714 -34.920 -32.374  1.00  0.00     0.238 A 
ATOM      4  O   UNL     1      -8.900 -34.539 -32.554  1.00  0.00    -0.285 OA
ATOM      5  C   UNL     1      -6.618 -34.055 -32.613  1.00  0.00     0.111 A 
ATOM      6  C   UNL     1      -6.727 -32.735 -33.145  1.00  0.00     0.134 A 
ATOM      7  C   UNL     1      -5.588 -31.924 -33.216  1.00  0.00     0.093 A 
ATOM      8  C   UNL     1      -4.334 -32.407 -32.836  1.00  0.00     0.123 A 
ATOM      9  C   UNL     1      -4.208 -33.714 -32.372  1.00  0.00     0.094 A 
ATOM     10  C   UNL     1      -5.332 -34.536 -32.255  1.00  0.00     0.146 A 
ATOM     11  O   UNL     1      -5.168 -35.772 -31.798  1.00  0.00    -0.452 OA
ENDROOT
BRANCH   1  12
ATOM     12  C   UNL     1      -5.851 -37.987 -31.135  1.00  0.00     0.025 A 
ATOM     13  C   UNL     1      -5.416 -38.998 -32.009  1.00  0.00     0.016 A 
ATOM     14  C   UNL     1      -5.098 -40.268 -31.519  1.00  0.00     0.051 A 
ATOM     15  C   UNL     1      -5.196 -40.542 -30.149  1.00  0.00     0.157 A 
ATOM     16  C   UNL     1      -5.927 -38.261 -29.759  1.00  0.00     0.062 A 
ATOM     17  C   UNL     1      -5.610 -39.532 -29.265  1.00  0.00     0.158 A 
BRANCH  15  18
ATOM     18  O   UNL     1      -4.880 -41.809 -29.664  1.00  0.00    -0.504 OA
ATOM     19  H   UNL     1      -5.006 -42.051 -28.689  1.00  0.00     0.293 HD
ENDBRANCH  15  18
BRANCH  17  20
ATOM     20  O   UNL     1      -5.711 -39.770 -27.895  1.00  0.00    -0.504 OA
ATOM     21  H   UNL     1      -5.596 -40.695 -27.500  1.00  0.00     0.293 HD
ENDBRANCH  17  20
ENDBRANCH   1  12
BRANCH   2  22
ATOM     22  O   UNL     1      -8.559 -37.077 -31.624  1.00  0.00    -0.502 OA
ATOM     23  H   UNL     1      -9.512 -36.749 -31.537  1.00  0.00     0.293 HD
ENDBRANCH   2  22
BRANCH   6  24
ATOM     24  O   UNL     1      -7.916 -32.188 -33.638  1.00  0.00    -0.507 OA
ATOM     25  H   UNL     1      -8.162 -32.137 -34.614  1.00  0.00     0.293 HD
ENDBRANCH   6  24
BRANCH   8  26
ATOM     26  O   UNL     1      -3.203 -31.598 -32.925  1.00  0.00    -0.508 OA
ATOM     27  H   UNL     1      -2.574 -31.479 -32.139  1.00  0.00     0.293 HD
ENDBRANCH   8  26
TORSDOF 6
ENDMDL
MODEL 3
REMARK VINA RESULT:    -5.504      1.522      3.175
REMARK INTER + INTRA:          -6.796
REMARK INTER:                  -6.503
REMARK INTRA:                  -0.293
REMARK UNBOUND:                -0.166
REMARK SMILES O=c1c(O)c(-c2ccc(O)c(O)c2)oc2cc(O)cc(O)c12
REMARK SMILES IDX 5 1 3 2 2 3 1 4 22 5 20 6 19 7 17 8 16 9 15 10 14 11 6 12
REMARK SMILES IDX 7 13 8 14 9 15 13 16 11 17 10 18 12 20 4 22 21 24 18 26
REMARK H PARENT 10 19 12 21 4 23 21 25 18 27
REMARK Flexibility Score: inf
ROOT
ATOM      1  C   UNL     1      -4.074 -36.305 -31.114  1.00  0.00     0.180 A 
ATOM      2  C   UNL     1      -4.273 -35.207 -31.969  1.00  0.00     0.208 A 
ATOM      3  C   UNL     1      -5.580 -34.745 -32.189  1.00  0.00     0.238 A 
ATOM      4  O   UNL     1      -5.757 -33.796 -32.997  1.00  0.00    -0.285 OA
ATOM      5  C   UNL     1      -6.671 -35.374 -31.541  1.00  0.00     0.111 A 
ATOM      6  C   UNL     1      -8.032 -34.962 -31.660  1.00  0.00     0.134 A 
ATOM      7  C   UNL     1      -9.041 -35.739 -31.077  1.00  0.00     0.093 A 
ATOM      8  C   UNL     1      -8.733 -36.875 -30.325  1.00  0.00     0.123 A 
ATOM      9  C   UNL     1      -7.402 -37.251 -30.153  1.00  0.00     0.094 A 
ATOM     10  C   UNL     1      -6.375 -36.517 -30.753  1.00  0.00     0.146 A 
ATOM     11  O   UNL     1      -5.122 -36.916 -30.572  1.00  0.00    -0.452 OA
ENDROOT
BRANCH   1  12
ATOM     12  C   UNL     1      -2.725 -36.835 -30.812  1.00  0.00     0.025 A 
ATOM     13  C   UNL     1      -2.074 -36.533 -29.604  1.00  0.00     0.016 A 
ATOM     14  C   UNL     1      -0.810 -37.063 -29.331  1.00  0.00     0.051 A 
ATOM     15  C   UNL     1      -0.185 -37.912 -30.252  1.00  0.00     0.157 A 
ATOM     16  C   UNL     1      -2.103 -37.704 -31.724  1.00  0.00     0.062 A 
ATOM     17  C   UNL     1      -0.837 -38.236 -31.454  1.00  0.00     0.158 A 
BRANCH  15  18
ATOM     18  O   UNL     1       1.076 -38.437 -29.977  1.00  0.00    -0.504 OA
ATOM     19  H   UNL     1       1.326 -38.762 -29.051  1.00  0.00     0.293 HD
ENDBRANCH  15  18
BRANCH  17  20
ATOM     20  O   UNL     1      -0.245 -39.084 -32.389  1.00  0.00    -0.504 OA
ATOM     21  H   UNL     1       0.760 -39.140 -32.505  1.00  0.00     0.293 HD
ENDBRANCH  17  20
ENDBRANCH   1  12
BRANCH   2  22
ATOM     22  O   UNL     1      -3.186 -34.614 -32.616  1.00  0.00    -0.502 OA
ATOM     23  H   UNL     1      -3.264 -33.739 -33.119  1.00  0.00     0.293 HD
ENDBRANCH   2  22
BRANCH   6  24
ATOM     24  O   UNL     1      -8.440 -33.794 -32.311  1.00  0.00    -0.507 OA
ATOM     25  H   UNL     1      -8.370 -32.866 -31.924  1.00  0.00     0.293 HD
ENDBRANCH   6  24
BRANCH   8  26
ATOM     26  O   UNL     1      -9.742 -37.633 -29.735  1.00  0.00    -0.508 OA
ATOM     27  H   UNL     1      -9.552 -38.539 -29.324  1.00  0.00     0.293 HD
ENDBRANCH   8  26
TORSDOF 6
ENDMDL
MODEL 4
REMARK VINA RESULT:    -5.431      2.123      3.574
REMARK INTER + INTRA:          -6.708
REMARK INTER:                  -7.159
REMARK INTRA:                   0.452
REMARK UNBOUND:                -0.166
REMARK SMILES O=c1c(O)c(-c2ccc(O)c(O)c2)oc2cc(O)cc(O)c12
REMARK SMILES IDX 5 1 3 2 2 3 1 4 22 5 20 6 19 7 17 8 16 9 15 10 14 11 6 12
REMARK SMILES IDX 7 13 8 14 9 15 13 16 11 17 10 18 12 20 4 22 21 24 18 26
REMARK H PARENT 10 19 12 21 4 23 21 25 18 27
REMARK Flexibility Score: inf
ROOT
ATOM      1  C   UNL     1      -4.834 -37.536 -30.962  1.00  0.00     0.180 A 
ATOM      2  C   UNL     1      -3.852 -36.601 -31.331  1.00  0.00     0.208 A 
ATOM      3  C   UNL     1      -4.251 -35.394 -31.927  1.00  0.00     0.238 A 
ATOM      4  O   UNL     1      -3.364 -34.585 -32.304  1.00  0.00    -0.285 OA
ATOM      5  C   UNL     1      -5.627 -35.129 -32.131  1.00  0.00     0.111 A 
ATOM      6  C   UNL     1      -6.146 -33.922 -32.689  1.00  0.00     0.134 A 
ATOM      7  C   UNL     1      -7.515 -33.823 -32.965  1.00  0.00     0.093 A 
ATOM      8  C   UNL     1      -8.392 -34.861 -32.643  1.00  0.00     0.123 A 
ATOM      9  C   UNL     1      -7.904 -36.019 -32.043  1.00  0.00     0.094 A 
ATOM     10  C   UNL     1      -6.537 -36.163 -31.789  1.00  0.00     0.146 A 
ATOM     11  O   UNL     1      -6.112 -37.287 -31.225  1.00  0.00    -0.452 OA
ENDROOT
BRANCH   1  12
ATOM     12  C   UNL     1      -4.494 -38.819 -30.306  1.00  0.00     0.025 A 
ATOM     13  C   UNL     1      -3.177 -39.114 -29.914  1.00  0.00     0.016 A 
ATOM     14  C   UNL     1      -2.884 -40.323 -29.276  1.00  0.00     0.051 A 
ATOM     15  C   UNL     1      -3.902 -41.246 -29.007  1.00  0.00     0.157 A 
ATOM     16  C   UNL     1      -5.515 -39.739 -30.015  1.00  0.00     0.062 A 
ATOM     17  C   UNL     1      -5.224 -40.951 -29.377  1.00  0.00     0.158 A 
BRANCH  15  18
ATOM     18  O   UNL     1      -3.605 -42.451 -28.372  1.00  0.00    -0.504 OA
ATOM     19  H   UNL     1      -4.179 -42.809 -27.619  1.00  0.00     0.293 HD
ENDBRANCH  15  18
BRANCH  17  20
ATOM     20  O   UNL     1      -6.262 -41.845 -29.117  1.00  0.00    -0.504 OA
ATOM     21  H   UNL     1      -6.308 -42.758 -29.553  1.00  0.00     0.293 HD
ENDBRANCH  17  20
ENDBRANCH   1  12
BRANCH   2  22
ATOM     22  O   UNL     1      -2.498 -36.891 -31.140  1.00  0.00    -0.502 OA
ATOM     23  H   UNL     1      -1.863 -37.055 -31.912  1.00  0.00     0.293 HD
ENDBRANCH   2  22
BRANCH   6  24
ATOM     24  O   UNL     1      -5.370 -32.792 -32.962  1.00  0.00    -0.507 OA
ATOM     25  H   UNL     1      -4.375 -32.728 -32.810  1.00  0.00     0.293 HD
ENDBRANCH   6  24
BRANCH   8  26
ATOM     26  O   UNL     1      -9.756 -34.747 -32.907  1.00  0.00    -0.508 OA
ATOM     27  H   UNL     1     -10.448 -35.203 -32.323  1.00  0.00     0.293 HD
ENDBRANCH   8  26
TORSDOF 6
ENDMDL
MODEL 5
REMARK VINA RESULT:    -5.379      2.009      6.600
REMARK INTER + INTRA:          -6.646
REMARK INTER:                  -6.364
REMARK INTRA:                  -0.281
REMARK UNBOUND:                -0.166
REMARK SMILES O=c1c(O)c(-c2ccc(O)c(O)c2)oc2cc(O)cc(O)c12
REMARK SMILES IDX 5 1 3 2 2 3 1 4 22 5 20 6 19 7 17 8 16 9 15 10 14 11 6 12
REMARK SMILES IDX 7 13 8 14 9 15 13 16 11 17 10 18 12 20 4 22 21 24 18 26
REMARK H PARENT 10 19 12 21 4 23 21 25 18 27
REMARK Flexibility Score: inf
ROOT
ATOM      1  C   UNL     1      -5.303 -37.251 -30.540  1.00  0.00     0.180 A 
ATOM      2  C   UNL     1      -5.221 -38.515 -29.931  1.00  0.00     0.208 A 
ATOM      3  C   UNL     1      -3.981 -39.170 -29.886  1.00  0.00     0.238 A 
ATOM      4  O   UNL     1      -3.925 -40.324 -29.387  1.00  0.00    -0.285 OA
ATOM      5  C   UNL     1      -2.834 -38.547 -30.436  1.00  0.00     0.111 A 
ATOM      6  C   UNL     1      -1.519 -39.102 -30.410  1.00  0.00     0.134 A 
ATOM      7  C   UNL     1      -0.484 -38.458 -31.099  1.00  0.00     0.093 A 
ATOM      8  C   UNL     1      -0.703 -37.246 -31.759  1.00  0.00     0.123 A 
ATOM      9  C   UNL     1      -1.969 -36.666 -31.739  1.00  0.00     0.094 A 
ATOM     10  C   UNL     1      -3.030 -37.303 -31.091  1.00  0.00     0.146 A 
ATOM     11  O   UNL     1      -4.223 -36.721 -31.105  1.00  0.00    -0.452 OA
ENDROOT
BRANCH   1  12
ATOM     12  C   UNL     1      -6.570 -36.487 -30.604  1.00  0.00     0.025 A 
ATOM     13  C   UNL     1      -7.088 -35.833 -29.473  1.00  0.00     0.016 A 
ATOM     14  C   UNL     1      -8.274 -35.099 -29.562  1.00  0.00     0.051 A 
ATOM     15  C   UNL     1      -8.951 -34.994 -30.785  1.00  0.00     0.157 A 
ATOM     16  C   UNL     1      -7.241 -36.361 -31.832  1.00  0.00     0.062 A 
ATOM     17  C   UNL     1      -8.429 -35.627 -31.925  1.00  0.00     0.158 A 
BRANCH  15  18
ATOM     18  O   UNL     1     -10.133 -34.262 -30.870  1.00  0.00    -0.504 OA
ATOM     19  H   UNL     1     -10.405 -33.607 -30.147  1.00  0.00     0.293 HD
ENDBRANCH  15  18
BRANCH  17  20
ATOM     20  O   UNL     1      -9.074 -35.537 -33.157  1.00  0.00    -0.504 OA
ATOM     21  H   UNL     1      -9.353 -34.648 -33.556  1.00  0.00     0.293 HD
ENDBRANCH  17  20
ENDBRANCH   1  12
BRANCH   2  22
ATOM     22  O   UNL     1      -6.369 -39.121 -29.413  1.00  0.00    -0.502 OA
ATOM     23  H   UNL     1      -6.436 -39.426 -28.450  1.00  0.00     0.293 HD
ENDBRANCH   2  22
BRANCH   6  24
ATOM     24  O   UNL     1      -1.174 -40.259 -29.704  1.00  0.00    -0.507 OA
ATOM     25  H   UNL     1      -1.257 -40.369 -28.706  1.00  0.00     0.293 HD
ENDBRANCH   6  24
BRANCH   8  26
ATOM     26  O   UNL     1       0.336 -36.604 -32.429  1.00  0.00    -0.508 OA
ATOM     27  H   UNL     1       0.239 -36.304 -33.392  1.00  0.00     0.293 HD
ENDBRANCH   8  26
TORSDOF 6
ENDMDL
MODEL 6
REMARK VINA RESULT:    -5.365      1.763      2.461
REMARK INTER + INTRA:          -6.628
REMARK INTER:                  -6.305
REMARK INTRA:                  -0.323
REMARK UNBOUND:                -0.166
REMARK SMILES O=c1c(O)c(-c2ccc(O)c(O)c2)oc2cc(O)cc(O)c12
REMARK SMILES IDX 5 1 3 2 2 3 1 4 22 5 20 6 19 7 17 8 16 9 15 10 14 11 6 12
REMARK SMILES IDX 7 13 8 14 9 15 13 16 11 17 10 18 12 20 4 22 21 24 18 26
REMARK H PARENT 10 19 12 21 4 23 21 25 18 27
REMARK Flexibility Score: inf
ROOT
ATOM      1  C   UNL     1      -4.336 -37.035 -30.515  1.00  0.00     0.180 A 
ATOM      2  C   UNL     1      -5.000 -37.798 -29.539  1.00  0.00     0.208 A 
ATOM      3  C   UNL     1      -6.402 -37.762 -29.485  1.00  0.00     0.238 A 
ATOM      4  O   UNL     1      -6.988 -38.406 -28.575  1.00  0.00    -0.285 OA
ATOM      5  C   UNL     1      -7.125 -36.977 -30.416  1.00  0.00     0.111 A 
ATOM      6  C   UNL     1      -8.549 -36.899 -30.478  1.00  0.00     0.134 A 
ATOM      7  C   UNL     1      -9.152 -35.989 -31.355  1.00  0.00     0.093 A 
ATOM      8  C   UNL     1      -8.385 -35.203 -32.218  1.00  0.00     0.123 A 
ATOM      9  C   UNL     1      -6.996 -35.316 -32.207  1.00  0.00     0.094 A 
ATOM     10  C   UNL     1      -6.364 -36.188 -31.317  1.00  0.00     0.146 A 
ATOM     11  O   UNL     1      -5.038 -36.257 -31.332  1.00  0.00    -0.452 OA
ENDROOT
BRANCH   1  12
ATOM     12  C   UNL     1      -2.862 -37.041 -30.652  1.00  0.00     0.025 A 
ATOM     13  C   UNL     1      -2.059 -36.121 -29.956  1.00  0.00     0.016 A 
ATOM     14  C   UNL     1      -0.668 -36.159 -30.083  1.00  0.00     0.051 A 
ATOM     15  C   UNL     1      -0.058 -37.125 -30.894  1.00  0.00     0.157 A 
ATOM     16  C   UNL     1      -2.245 -38.021 -31.447  1.00  0.00     0.062 A 
ATOM     17  C   UNL     1      -0.852 -38.062 -31.576  1.00  0.00     0.158 A 
BRANCH  15  18
ATOM     18  O   UNL     1       1.329 -37.159 -31.019  1.00  0.00    -0.504 OA
ATOM     19  H   UNL     1       1.938 -36.966 -30.234  1.00  0.00     0.293 HD
ENDBRANCH  15  18
BRANCH  17  20
ATOM     20  O   UNL     1      -0.275 -39.040 -32.386  1.00  0.00    -0.504 OA
ATOM     21  H   UNL     1      -0.462 -39.095 -33.379  1.00  0.00     0.293 HD
ENDBRANCH  17  20
ENDBRANCH   1  12
BRANCH   2  22
ATOM     22  O   UNL     1      -4.268 -38.550 -28.616  1.00  0.00    -0.502 OA
ATOM     23  H   UNL     1      -4.417 -38.479 -27.617  1.00  0.00     0.293 HD
ENDBRANCH   2  22
BRANCH   6  24
ATOM     24  O   UNL     1      -9.408 -37.705 -29.725  1.00  0.00    -0.507 OA
ATOM     25  H   UNL     1      -9.119 -38.297 -28.963  1.00  0.00     0.293 HD
ENDBRANCH   6  24
BRANCH   8  26
ATOM     26  O   UNL     1      -8.994 -34.311 -33.099  1.00  0.00    -0.508 OA
ATOM     27  H   UNL     1      -8.451 -33.758 -33.752  1.00  0.00     0.293 HD
ENDBRANCH   8  26
TORSDOF 6
ENDMDL
MODEL 7
REMARK VINA RESULT:    -5.308      8.909     11.393
REMARK INTER + INTRA:          -6.560
REMARK INTER:                  -6.235
REMARK INTRA:                  -0.325
REMARK UNBOUND:                -0.166
REMARK SMILES O=c1c(O)c(-c2ccc(O)c(O)c2)oc2cc(O)cc(O)c12
REMARK SMILES IDX 5 1 3 2 2 3 1 4 22 5 20 6 19 7 17 8 16 9 15 10 14 11 6 12
REMARK SMILES IDX 7 13 8 14 9 15 13 16 11 17 10 18 12 20 4 22 21 24 18 26
REMARK H PARENT 10 19 12 21 4 23 21 25 18 27
REMARK Flexibility Score: inf
ROOT
ATOM      1  C   UNL     1       0.223 -34.080 -38.884  1.00  0.00     0.180 A 
ATOM      2  C   UNL     1       0.782 -35.278 -38.407  1.00  0.00     0.208 A 
ATOM      3  C   UNL     1       1.660 -35.996 -39.233  1.00  0.00     0.238 A 
ATOM      4  O   UNL     1       2.115 -37.095 -38.821  1.00  0.00    -0.285 OA
ATOM      5  C   UNL     1       1.983 -35.500 -40.520  1.00  0.00     0.111 A 
ATOM      6  C   UNL     1       2.893 -36.124 -41.425  1.00  0.00     0.134 A 
ATOM      7  C   UNL     1       3.036 -35.615 -42.722  1.00  0.00     0.093 A 
ATOM      8  C   UNL     1       2.351 -34.466 -43.124  1.00  0.00     0.123 A 
ATOM      9  C   UNL     1       1.507 -33.814 -42.228  1.00  0.00     0.094 A 
ATOM     10  C   UNL     1       1.315 -34.320 -40.939  1.00  0.00     0.146 A 
ATOM     11  O   UNL     1       0.494 -33.674 -40.120  1.00  0.00    -0.452 OA
ENDROOT
BRANCH   1  12
ATOM     12  C   UNL     1      -0.691 -33.254 -38.063  1.00  0.00     0.025 A 
ATOM     13  C   UNL     1      -0.199 -32.329 -37.126  1.00  0.00     0.016 A 
ATOM     14  C   UNL     1      -1.081 -31.544 -36.379  1.00  0.00     0.051 A 
ATOM     15  C   UNL     1      -2.464 -31.660 -36.565  1.00  0.00     0.157 A 
ATOM     16  C   UNL     1      -2.078 -33.351 -38.262  1.00  0.00     0.062 A 
ATOM     17  C   UNL     1      -2.964 -32.567 -37.514  1.00  0.00     0.158 A 
BRANCH  15  18
ATOM     18  O   UNL     1      -3.340 -30.877 -35.817  1.00  0.00    -0.504 OA
ATOM     19  H   UNL     1      -3.759 -31.219 -34.961  1.00  0.00     0.293 HD
ENDBRANCH  15  18
BRANCH  17  20
ATOM     20  O   UNL     1      -4.335 -32.701 -37.729  1.00  0.00    -0.504 OA
ATOM     21  H   UNL     1      -4.867 -33.473 -37.346  1.00  0.00     0.293 HD
ENDBRANCH  17  20
ENDBRANCH   1  12
BRANCH   2  22
ATOM     22  O   UNL     1       0.434 -35.761 -37.143  1.00  0.00    -0.502 OA
ATOM     23  H   UNL     1       0.927 -36.525 -36.698  1.00  0.00     0.293 HD
ENDBRANCH   2  22
BRANCH   6  24
ATOM     24  O   UNL     1       3.693 -37.222 -41.094  1.00  0.00    -0.507 OA
ATOM     25  H   UNL     1       3.963 -37.473 -40.155  1.00  0.00     0.293 HD
ENDBRANCH   6  24
BRANCH   8  26
ATOM     26  O   UNL     1       2.511 -33.956 -44.411  1.00  0.00    -0.508 OA
ATOM     27  H   UNL     1       1.767 -33.449 -44.876  1.00  0.00     0.293 HD
ENDBRANCH   8  26
TORSDOF 6
ENDMDL
MODEL 8
REMARK VINA RESULT:    -5.255     10.237     12.260
REMARK INTER + INTRA:          -6.495
REMARK INTER:                  -6.175
REMARK INTRA:                  -0.321
REMARK UNBOUND:                -0.166
REMARK SMILES O=c1c(O)c(-c2ccc(O)c(O)c2)oc2cc(O)cc(O)c12
REMARK SMILES IDX 5 1 3 2 2 3 1 4 22 5 20 6 19 7 17 8 16 9 15 10 14 11 6 12
REMARK SMILES IDX 7 13 8 14 9 15 13 16 11 17 10 18 12 20 4 22 21 24 18 26
REMARK H PARENT 10 19 12 21 4 23 21 25 18 27
REMARK Flexibility Score: inf
ROOT
ATOM      1  C   UNL     1       0.848 -33.931 -39.993  1.00  0.00     0.180 A 
ATOM      2  C   UNL     1       1.481 -35.183 -40.061  1.00  0.00     0.208 A 
ATOM      3  C   UNL     1       2.280 -35.483 -41.176  1.00  0.00     0.238 A 
ATOM      4  O   UNL     1       2.801 -36.626 -41.257  1.00  0.00    -0.285 OA
ATOM      5  C   UNL     1       2.450 -34.520 -42.201  1.00  0.00     0.111 A 
ATOM      6  C   UNL     1       3.269 -34.702 -43.356  1.00  0.00     0.134 A 
ATOM      7  C   UNL     1       3.259 -33.734 -44.368  1.00  0.00     0.093 A 
ATOM      8  C   UNL     1       2.510 -32.563 -44.237  1.00  0.00     0.123 A 
ATOM      9  C   UNL     1       1.754 -32.349 -43.087  1.00  0.00     0.094 A 
ATOM     10  C   UNL     1       1.715 -33.313 -42.076  1.00  0.00     0.146 A 
ATOM     11  O   UNL     1       0.974 -33.074 -41.001  1.00  0.00    -0.452 OA
ENDROOT
BRANCH   1  12
ATOM     12  C   UNL     1       0.011 -33.532 -38.839  1.00  0.00     0.025 A 
ATOM     13  C   UNL     1       0.584 -33.023 -37.661  1.00  0.00     0.016 A 
ATOM     14  C   UNL     1      -0.228 -32.632 -36.592  1.00  0.00     0.051 A 
ATOM     15  C   UNL     1      -1.622 -32.729 -36.690  1.00  0.00     0.157 A 
ATOM     16  C   UNL     1      -1.388 -33.608 -38.940  1.00  0.00     0.062 A 
ATOM     17  C   UNL     1      -2.204 -33.217 -37.871  1.00  0.00     0.158 A 
BRANCH  15  18
ATOM     18  O   UNL     1      -2.428 -32.340 -35.622  1.00  0.00    -0.504 OA
ATOM     19  H   UNL     1      -2.032 -31.979 -34.762  1.00  0.00     0.293 HD
ENDBRANCH  15  18
BRANCH  17  20
ATOM     20  O   UNL     1      -3.588 -33.320 -38.003  1.00  0.00    -0.504 OA
ATOM     21  H   UNL     1      -4.211 -32.566 -37.741  1.00  0.00     0.293 HD
ENDBRANCH  17  20
ENDBRANCH   1  12
BRANCH   2  22
ATOM     22  O   UNL     1       1.284 -36.127 -39.049  1.00  0.00    -0.502 OA
ATOM     23  H   UNL     1       0.409 -36.622 -38.930  1.00  0.00     0.293 HD
ENDBRANCH   2  22
BRANCH   6  24
ATOM     24  O   UNL     1       4.125 -35.792 -43.542  1.00  0.00    -0.507 OA
ATOM     25  H   UNL     1       4.219 -36.307 -44.403  1.00  0.00     0.293 HD
ENDBRANCH   6  24
BRANCH   8  26
ATOM     26  O   UNL     1       2.517 -31.598 -45.243  1.00  0.00    -0.508 OA
ATOM     27  H   UNL     1       2.531 -30.608 -45.026  1.00  0.00     0.293 HD
ENDBRANCH   8  26
TORSDOF 6
ENDMDL
MODEL 9
REMARK VINA RESULT:    -5.166      8.329     11.360
REMARK INTER + INTRA:          -6.388
REMARK INTER:                  -6.158
REMARK INTRA:                  -0.230
REMARK UNBOUND:                -0.166
REMARK SMILES O=c1c(O)c(-c2ccc(O)c(O)c2)oc2cc(O)cc(O)c12
REMARK SMILES IDX 5 1 3 2 2 3 1 4 22 5 20 6 19 7 17 8 16 9 15 10 14 11 6 12
REMARK SMILES IDX 7 13 8 14 9 15 13 16 11 17 10 18 12 20 4 22 21 24 18 26
REMARK H PARENT 10 19 12 21 4 23 21 25 18 27
REMARK Flexibility Score: inf
ROOT
ATOM      1  C   UNL     1      -0.147 -33.498 -38.784  1.00  0.00     0.180 A 
ATOM      2  C   UNL     1       0.182 -32.852 -39.988  1.00  0.00     0.208 A 
ATOM      3  C   UNL     1       1.099 -33.462 -40.858  1.00  0.00     0.238 A 
ATOM      4  O   UNL     1       1.431 -32.854 -41.910  1.00  0.00    -0.285 OA
ATOM      5  C   UNL     1       1.664 -34.717 -40.522  1.00  0.00     0.111 A 
ATOM      6  C   UNL     1       2.573 -35.444 -41.349  1.00  0.00     0.134 A 
ATOM      7  C   UNL     1       3.168 -36.612 -40.857  1.00  0.00     0.093 A 
ATOM      8  C   UNL     1       2.839 -37.113 -39.595  1.00  0.00     0.123 A 
ATOM      9  C   UNL     1       1.907 -36.443 -38.806  1.00  0.00     0.094 A 
ATOM     10  C   UNL     1       1.324 -35.255 -39.254  1.00  0.00     0.146 A 
ATOM     11  O   UNL     1       0.449 -34.642 -38.466  1.00  0.00    -0.452 OA
ENDROOT
BRANCH   1  12
ATOM     12  C   UNL     1      -1.124 -32.930 -37.827  1.00  0.00     0.025 A 
ATOM     13  C   UNL     1      -0.711 -32.360 -36.611  1.00  0.00     0.016 A 
ATOM     14  C   UNL     1      -1.650 -31.810 -35.733  1.00  0.00     0.051 A 
ATOM     15  C   UNL     1      -3.011 -31.808 -36.063  1.00  0.00     0.157 A 
ATOM     16  C   UNL     1      -2.488 -32.908 -38.163  1.00  0.00     0.062 A 
ATOM     17  C   UNL     1      -3.431 -32.358 -37.286  1.00  0.00     0.158 A 
BRANCH  15  18
ATOM     18  O   UNL     1      -3.944 -31.261 -35.185  1.00  0.00    -0.504 OA
ATOM     19  H   UNL     1      -3.771 -31.213 -34.189  1.00  0.00     0.293 HD
ENDBRANCH  15  18
BRANCH  17  20
ATOM     20  O   UNL     1      -4.777 -32.366 -37.647  1.00  0.00    -0.504 OA
ATOM     21  H   UNL     1      -5.105 -31.955 -38.512  1.00  0.00     0.293 HD
ENDBRANCH  17  20
ENDBRANCH   1  12
BRANCH   2  22
ATOM     22  O   UNL     1      -0.370 -31.605 -40.291  1.00  0.00    -0.502 OA
ATOM     23  H   UNL     1       0.181 -30.756 -40.309  1.00  0.00     0.293 HD
ENDBRANCH   2  22
BRANCH   6  24
ATOM     24  O   UNL     1       2.899 -35.080 -42.658  1.00  0.00    -0.507 OA
ATOM     25  H   UNL     1       3.348 -34.216 -42.919  1.00  0.00     0.293 HD
ENDBRANCH   6  24
BRANCH   8  26
ATOM     26  O   UNL     1       3.424 -38.285 -39.120  1.00  0.00    -0.508 OA
ATOM     27  H   UNL     1       4.416 -38.464 -39.230  1.00  0.00     0.293 HD
ENDBRANCH   8  26
TORSDOF 6
ENDMDL
