MODEL 1
REMARK VINA RESULT:    -8.962      0.000      0.000
REMARK INTER + INTRA:         -10.804
REMARK INTER:                 -10.533
REMARK INTRA:                  -0.271
REMARK UNBOUND:                -0.271
REMARK SMILES O=c1c(O)c(-c2ccc(O)cc2)oc2cc(O)cc(O)c12
REMARK SMILES IDX 5 1 3 2 2 3 1 4 21 5 19 6 18 7 16 8 15 9 14 10 13 11 6 12
REMARK SMILES IDX 7 13 8 14 9 15 12 16 11 17 10 18 4 20 20 22 17 24
REMARK H PARENT 10 19 4 21 20 23 17 25
REMARK Flexibility Score: inf
ROOT
ATOM      1  C   UNL     1     141.112 -20.443  78.865  1.00  0.00     0.180 A 
ATOM      2  C   UNL     1     139.868 -20.812  78.323  1.00  0.00     0.208 A 
ATOM      3  C   UNL     1     138.697 -20.276  78.881  1.00  0.00     0.238 A 
ATOM      4  O   UNL     1     137.592 -20.551  78.344  1.00  0.00    -0.285 OA
ATOM      5  C   UNL     1     138.778 -19.422  80.008  1.00  0.00     0.111 A 
ATOM      6  C   UNL     1     137.654 -18.857  80.682  1.00  0.00     0.134 A 
ATOM      7  C   UNL     1     137.860 -17.940  81.721  1.00  0.00     0.093 A 
ATOM      8  C   UNL     1     139.146 -17.617  82.152  1.00  0.00     0.123 A 
ATOM      9  C   UNL     1     140.251 -18.206  81.537  1.00  0.00     0.094 A 
ATOM     10  C   UNL     1     140.079 -19.094  80.472  1.00  0.00     0.146 A 
ATOM     11  O   UNL     1     141.159 -19.615  79.902  1.00  0.00    -0.452 OA
ENDROOT
BRANCH   1  12
ATOM     12  C   UNL     1     142.390 -20.955  78.323  1.00  0.00     0.021 A 
ATOM     13  C   UNL     1     142.880 -22.227  78.676  1.00  0.00     0.016 A 
ATOM     14  C   UNL     1     144.078 -22.698  78.130  1.00  0.00     0.047 A 
ATOM     15  C   UNL     1     144.794 -21.914  77.217  1.00  0.00     0.115 A 
ATOM     16  C   UNL     1     143.104 -20.184  77.390  1.00  0.00     0.016 A 
ATOM     17  C   UNL     1     144.301 -20.659  76.847  1.00  0.00     0.047 A 
BRANCH  15  18
ATOM     18  O   UNL     1     145.989 -22.374  76.668  1.00  0.00    -0.508 OA
ATOM     19  H   UNL     1     146.872 -22.259  77.152  1.00  0.00     0.293 HD
ENDBRANCH  15  18
ENDBRANCH   1  12
BRANCH   2  20
ATOM     20  O   UNL     1     139.804 -21.716  77.259  1.00  0.00    -0.502 OA
ATOM     21  H   UNL     1     139.651 -21.421  76.303  1.00  0.00     0.293 HD
ENDBRANCH   2  20
BRANCH   6  22
ATOM     22  O   UNL     1     136.324 -19.177  80.392  1.00  0.00    -0.507 OA
ATOM     23  H   UNL     1     135.836 -19.987  80.740  1.00  0.00     0.293 HD
ENDBRANCH   6  22
BRANCH   8  24
ATOM     24  O   UNL     1     139.314 -16.715  83.201  1.00  0.00    -0.508 OA
ATOM     25  H   UNL     1     138.677 -16.694  83.989  1.00  0.00     0.293 HD
ENDBRANCH   8  24
TORSDOF 5
ENDMDL
MODEL 2
REMARK VINA RESULT:    -8.722      1.277      1.684
REMARK INTER + INTRA:         -10.523
REMARK INTER:                 -10.410
REMARK INTRA:                  -0.113
REMARK UNBOUND:                -0.271
REMARK SMILES O=c1c(O)c(-c2ccc(O)cc2)oc2cc(O)cc(O)c12
REMARK SMILES IDX 5 1 3 2 2 3 1 4 21 5 19 6 18 7 16 8 15 9 14 10 13 11 6 12
REMARK SMILES IDX 7 13 8 14 9 15 12 16 11 17 10 18 4 20 20 22 17 24
REMARK H PARENT 10 19 4 21 20 23 17 25
REMARK Flexibility Score: inf
ROOT
ATOM      1  C   UNL     1     141.214 -19.745  78.828  1.00  0.00     0.180 A 
ATOM      2  C   UNL     1     139.869 -20.114  78.653  1.00  0.00     0.208 A 
ATOM      3  C   UNL     1     138.863 -19.296  79.192  1.00  0.00     0.238 A 
ATOM      4  O   UNL     1     137.660 -19.593  78.967  1.00  0.00    -0.285 OA
ATOM      5  C   UNL     1     139.213 -18.151  79.947  1.00  0.00     0.111 A 
ATOM      6  C   UNL     1     138.278 -17.276  80.577  1.00  0.00     0.134 A 
ATOM      7  C   UNL     1     138.737 -16.113  81.209  1.00  0.00     0.093 A 
ATOM      8  C   UNL     1     140.099 -15.827  81.290  1.00  0.00     0.123 A 
ATOM      9  C   UNL     1     141.026 -16.704  80.726  1.00  0.00     0.094 A 
ATOM     10  C   UNL     1     140.597 -17.852  80.055  1.00  0.00     0.146 A 
ATOM     11  O   UNL     1     141.512 -18.648  79.514  1.00  0.00    -0.452 OA
ENDROOT
BRANCH   1  12
ATOM     12  C   UNL     1     142.329 -20.548  78.278  1.00  0.00     0.021 A 
ATOM     13  C   UNL     1     143.215 -20.015  77.323  1.00  0.00     0.016 A 
ATOM     14  C   UNL     1     144.276 -20.786  76.837  1.00  0.00     0.047 A 
ATOM     15  C   UNL     1     144.474 -22.090  77.308  1.00  0.00     0.115 A 
ATOM     16  C   UNL     1     142.548 -21.849  78.761  1.00  0.00     0.016 A 
ATOM     17  C   UNL     1     143.610 -22.616  78.273  1.00  0.00     0.047 A 
BRANCH  15  18
ATOM     18  O   UNL     1     145.528 -22.866  76.831  1.00  0.00    -0.508 OA
ATOM     19  H   UNL     1     145.654 -23.827  77.129  1.00  0.00     0.293 HD
ENDBRANCH  15  18
ENDBRANCH   1  12
BRANCH   2  20
ATOM     20  O   UNL     1     139.545 -21.290  77.970  1.00  0.00    -0.502 OA
ATOM     21  H   UNL     1     139.462 -22.185  78.437  1.00  0.00     0.293 HD
ENDBRANCH   2  20
BRANCH   6  22
ATOM     22  O   UNL     1     136.900 -17.510  80.634  1.00  0.00    -0.507 OA
ATOM     23  H   UNL     1     136.472 -18.341  81.012  1.00  0.00     0.293 HD
ENDBRANCH   6  22
BRANCH   8  24
ATOM     24  O   UNL     1     140.521 -14.670  81.943  1.00  0.00    -0.508 OA
ATOM     25  H   UNL     1     140.688 -13.808  81.438  1.00  0.00     0.293 HD
ENDBRANCH   8  24
TORSDOF 5
ENDMDL
MODEL 3
REMARK VINA RESULT:    -8.706      2.992      5.956
REMARK INTER + INTRA:         -10.503
REMARK INTER:                 -10.234
REMARK INTRA:                  -0.269
REMARK UNBOUND:                -0.271
REMARK SMILES O=c1c(O)c(-c2ccc(O)cc2)oc2cc(O)cc(O)c12
REMARK SMILES IDX 5 1 3 2 2 3 1 4 21 5 19 6 18 7 16 8 15 9 14 10 13 11 6 12
REMARK SMILES IDX 7 13 8 14 9 15 12 16 11 17 10 18 4 20 20 22 17 24
REMARK H PARENT 10 19 4 21 20 23 17 25
REMARK Flexibility Score: inf
ROOT
ATOM      1  C   UNL     1     139.142 -18.653  79.577  1.00  0.00     0.180 A 
ATOM      2  C   UNL     1     140.309 -19.177  78.992  1.00  0.00     0.208 A 
ATOM      3  C   UNL     1     141.532 -18.524  79.210  1.00  0.00     0.238 A 
ATOM      4  O   UNL     1     142.582 -19.040  78.746  1.00  0.00    -0.285 OA
ATOM      5  C   UNL     1     141.569 -17.325  79.963  1.00  0.00     0.111 A 
ATOM      6  C   UNL     1     142.746 -16.556  80.209  1.00  0.00     0.134 A 
ATOM      7  C   UNL     1     142.679 -15.444  81.059  1.00  0.00     0.093 A 
ATOM      8  C   UNL     1     141.469 -15.035  81.617  1.00  0.00     0.123 A 
ATOM      9  C   UNL     1     140.302 -15.747  81.338  1.00  0.00     0.094 A 
ATOM     10  C   UNL     1     140.343 -16.884  80.527  1.00  0.00     0.146 A 
ATOM     11  O   UNL     1     139.213 -17.544  80.305  1.00  0.00    -0.452 OA
ENDROOT
BRANCH   1  12
ATOM     12  C   UNL     1     137.819 -19.291  79.404  1.00  0.00     0.021 A 
ATOM     13  C   UNL     1     137.053 -19.090  78.240  1.00  0.00     0.016 A 
ATOM     14  C   UNL     1     135.816 -19.725  78.091  1.00  0.00     0.047 A 
ATOM     15  C   UNL     1     135.335 -20.578  79.092  1.00  0.00     0.115 A 
ATOM     16  C   UNL     1     137.339 -20.165  80.394  1.00  0.00     0.016 A 
ATOM     17  C   UNL     1     136.102 -20.798  80.240  1.00  0.00     0.047 A 
BRANCH  15  18
ATOM     18  O   UNL     1     134.105 -21.215  78.953  1.00  0.00    -0.508 OA
ATOM     19  H   UNL     1     133.465 -21.305  79.734  1.00  0.00     0.293 HD
ENDBRANCH  15  18
ENDBRANCH   1  12
BRANCH   2  20
ATOM     20  O   UNL     1     140.240 -20.318  78.189  1.00  0.00    -0.502 OA
ATOM     21  H   UNL     1     139.408 -20.569  77.669  1.00  0.00     0.293 HD
ENDBRANCH   2  20
BRANCH   6  22
ATOM     22  O   UNL     1     143.991 -16.822  79.632  1.00  0.00    -0.507 OA
ATOM     23  H   UNL     1     144.181 -17.578  78.993  1.00  0.00     0.293 HD
ENDBRANCH   6  22
BRANCH   8  24
ATOM     24  O   UNL     1     141.436 -13.913  82.442  1.00  0.00    -0.508 OA
ATOM     25  H   UNL     1     141.148 -13.976  83.411  1.00  0.00     0.293 HD
ENDBRANCH   8  24
TORSDOF 5
ENDMDL
MODEL 4
REMARK VINA RESULT:    -8.436      1.400      2.861
REMARK INTER + INTRA:         -10.187
REMARK INTER:                 -10.213
REMARK INTRA:                   0.027
REMARK UNBOUND:                -0.271
REMARK SMILES O=c1c(O)c(-c2ccc(O)cc2)oc2cc(O)cc(O)c12
REMARK SMILES IDX 5 1 3 2 2 3 1 4 21 5 19 6 18 7 16 8 15 9 14 10 13 11 6 12
REMARK SMILES IDX 7 13 8 14 9 15 12 16 11 17 10 18 4 20 20 22 17 24
REMARK H PARENT 10 19 4 21 20 23 17 25
REMARK Flexibility Score: inf
ROOT
ATOM      1  C   UNL     1     141.066 -19.937  78.940  1.00  0.00     0.180 A 
ATOM      2  C   UNL     1     141.137 -18.653  79.508  1.00  0.00     0.208 A 
ATOM      3  C   UNL     1     139.979 -18.090  80.067  1.00  0.00     0.238 A 
ATOM      4  O   UNL     1     140.067 -16.973  80.640  1.00  0.00    -0.285 OA
ATOM      5  C   UNL     1     138.750 -18.792  80.001  1.00  0.00     0.111 A 
ATOM      6  C   UNL     1     137.505 -18.298  80.494  1.00  0.00     0.134 A 
ATOM      7  C   UNL     1     136.375 -19.126  80.470  1.00  0.00     0.093 A 
ATOM      8  C   UNL     1     136.429 -20.403  79.913  1.00  0.00     0.123 A 
ATOM      9  C   UNL     1     137.628 -20.875  79.378  1.00  0.00     0.094 A 
ATOM     10  C   UNL     1     138.782 -20.088  79.422  1.00  0.00     0.146 A 
ATOM     11  O   UNL     1     139.907 -20.585  78.921  1.00  0.00    -0.452 OA
ENDROOT
BRANCH   1  12
ATOM     12  C   UNL     1     142.246 -20.602  78.344  1.00  0.00     0.021 A 
ATOM     13  C   UNL     1     142.611 -21.912  78.707  1.00  0.00     0.016 A 
ATOM     14  C   UNL     1     143.716 -22.528  78.111  1.00  0.00     0.047 A 
ATOM     15  C   UNL     1     144.461 -21.850  77.138  1.00  0.00     0.115 A 
ATOM     16  C   UNL     1     142.986 -19.938  77.352  1.00  0.00     0.016 A 
ATOM     17  C   UNL     1     144.091 -20.557  76.759  1.00  0.00     0.047 A 
BRANCH  15  18
ATOM     18  O   UNL     1     145.564 -22.454  76.539  1.00  0.00    -0.508 OA
ATOM     19  H   UNL     1     145.562 -23.438  76.295  1.00  0.00     0.293 HD
ENDBRANCH  15  18
ENDBRANCH   1  12
BRANCH   2  20
ATOM     20  O   UNL     1     142.342 -17.945  79.496  1.00  0.00    -0.502 OA
ATOM     21  H   UNL     1     142.377 -16.933  79.472  1.00  0.00     0.293 HD
ENDBRANCH   2  20
BRANCH   6  22
ATOM     22  O   UNL     1     137.316 -17.005  80.992  1.00  0.00    -0.507 OA
ATOM     23  H   UNL     1     136.451 -16.654  81.372  1.00  0.00     0.293 HD
ENDBRANCH   6  22
BRANCH   8  24
ATOM     24  O   UNL     1     135.281 -21.192  79.889  1.00  0.00    -0.508 OA
ATOM     25  H   UNL     1     135.092 -21.875  80.613  1.00  0.00     0.293 HD
ENDBRANCH   8  24
TORSDOF 5
ENDMDL
MODEL 5
REMARK VINA RESULT:    -7.923      3.539      5.358
REMARK INTER + INTRA:          -9.584
REMARK INTER:                  -9.313
REMARK INTRA:                  -0.271
REMARK UNBOUND:                -0.271
REMARK SMILES O=c1c(O)c(-c2ccc(O)cc2)oc2cc(O)cc(O)c12
REMARK SMILES IDX 5 1 3 2 2 3 1 4 21 5 19 6 18 7 16 8 15 9 14 10 13 11 6 12
REMARK SMILES IDX 7 13 8 14 9 15 12 16 11 17 10 18 4 20 20 22 17 24
REMARK H PARENT 10 19 4 21 20 23 17 25
REMARK Flexibility Score: inf
ROOT
ATOM      1  C   UNL     1     138.550 -18.747  79.699  1.00  0.00     0.180 A 
ATOM      2  C   UNL     1     138.127 -19.723  80.618  1.00  0.00     0.208 A 
ATOM      3  C   UNL     1     136.958 -20.451  80.348  1.00  0.00     0.238 A 
ATOM      4  O   UNL     1     136.627 -21.374  81.137  1.00  0.00    -0.285 OA
ATOM      5  C   UNL     1     136.195 -20.157  79.192  1.00  0.00     0.111 A 
ATOM      6  C   UNL     1     134.970 -20.802  78.842  1.00  0.00     0.134 A 
ATOM      7  C   UNL     1     134.357 -20.503  77.618  1.00  0.00     0.093 A 
ATOM      8  C   UNL     1     134.888 -19.539  76.763  1.00  0.00     0.123 A 
ATOM      9  C   UNL     1     136.056 -18.863  77.120  1.00  0.00     0.094 A 
ATOM     10  C   UNL     1     136.712 -19.167  78.316  1.00  0.00     0.146 A 
ATOM     11  O   UNL     1     137.831 -18.516  78.607  1.00  0.00    -0.452 OA
ENDROOT
BRANCH   1  12
ATOM     12  C   UNL     1     139.779 -17.948  79.907  1.00  0.00     0.021 A 
ATOM     13  C   UNL     1     139.789 -16.825  80.755  1.00  0.00     0.016 A 
ATOM     14  C   UNL     1     140.969 -16.102  80.954  1.00  0.00     0.047 A 
ATOM     15  C   UNL     1     142.155 -16.498  80.323  1.00  0.00     0.115 A 
ATOM     16  C   UNL     1     140.977 -18.352  79.294  1.00  0.00     0.016 A 
ATOM     17  C   UNL     1     142.155 -17.626  79.496  1.00  0.00     0.047 A 
BRANCH  15  18
ATOM     18  O   UNL     1     143.336 -15.785  80.514  1.00  0.00    -0.508 OA
ATOM     19  H   UNL     1     143.555 -15.355  81.405  1.00  0.00     0.293 HD
ENDBRANCH  15  18
ENDBRANCH   1  12
BRANCH   2  20
ATOM     20  O   UNL     1     138.853 -19.945  81.792  1.00  0.00    -0.502 OA
ATOM     21  H   UNL     1     139.560 -19.301  82.124  1.00  0.00     0.293 HD
ENDBRANCH   2  20
BRANCH   6  22
ATOM     22  O   UNL     1     134.303 -21.717  79.663  1.00  0.00    -0.507 OA
ATOM     23  H   UNL     1     134.612 -22.658  79.847  1.00  0.00     0.293 HD
ENDBRANCH   6  22
BRANCH   8  24
ATOM     24  O   UNL     1     134.242 -19.254  75.561  1.00  0.00    -0.508 OA
ATOM     25  H   UNL     1     133.264 -18.991  75.535  1.00  0.00     0.293 HD
ENDBRANCH   8  24
TORSDOF 5
ENDMDL
MODEL 6
REMARK VINA RESULT:    -7.843      3.832      6.266
REMARK INTER + INTRA:          -9.489
REMARK INTER:                  -9.220
REMARK INTRA:                  -0.269
REMARK UNBOUND:                -0.271
REMARK SMILES O=c1c(O)c(-c2ccc(O)cc2)oc2cc(O)cc(O)c12
REMARK SMILES IDX 5 1 3 2 2 3 1 4 21 5 19 6 18 7 16 8 15 9 14 10 13 11 6 12
REMARK SMILES IDX 7 13 8 14 9 15 12 16 11 17 10 18 4 20 20 22 17 24
REMARK H PARENT 10 19 4 21 20 23 17 25
REMARK Flexibility Score: inf
ROOT
ATOM      1  C   UNL     1     138.854 -17.719  80.442  1.00  0.00     0.180 A 
ATOM      2  C   UNL     1     138.352 -16.537  81.014  1.00  0.00     0.208 A 
ATOM      3  C   UNL     1     139.244 -15.499  81.326  1.00  0.00     0.238 A 
ATOM      4  O   UNL     1     138.778 -14.416  81.768  1.00  0.00    -0.285 OA
ATOM      5  C   UNL     1     140.633 -15.675  81.117  1.00  0.00     0.111 A 
ATOM      6  C   UNL     1     141.632 -14.708  81.438  1.00  0.00     0.134 A 
ATOM      7  C   UNL     1     142.967 -14.949  81.087  1.00  0.00     0.093 A 
ATOM      8  C   UNL     1     143.348 -16.148  80.486  1.00  0.00     0.123 A 
ATOM      9  C   UNL     1     142.387 -17.124  80.217  1.00  0.00     0.094 A 
ATOM     10  C   UNL     1     141.042 -16.897  80.520  1.00  0.00     0.146 A 
ATOM     11  O   UNL     1     140.159 -17.843  80.227  1.00  0.00    -0.452 OA
ENDROOT
BRANCH   1  12
ATOM     12  C   UNL     1     137.976 -18.851  80.073  1.00  0.00     0.021 A 
ATOM     13  C   UNL     1     137.527 -19.776  81.035  1.00  0.00     0.016 A 
ATOM     14  C   UNL     1     136.677 -20.823  80.665  1.00  0.00     0.047 A 
ATOM     15  C   UNL     1     136.254 -20.952  79.336  1.00  0.00     0.115 A 
ATOM     16  C   UNL     1     137.529 -18.976  78.747  1.00  0.00     0.016 A 
ATOM     17  C   UNL     1     136.680 -20.024  78.381  1.00  0.00     0.047 A 
BRANCH  15  18
ATOM     18  O   UNL     1     135.408 -21.991  78.957  1.00  0.00    -0.508 OA
ATOM     19  H   UNL     1     134.451 -22.042  79.289  1.00  0.00     0.293 HD
ENDBRANCH  15  18
ENDBRANCH   1  12
BRANCH   2  20
ATOM     20  O   UNL     1     136.986 -16.412  81.285  1.00  0.00    -0.502 OA
ATOM     21  H   UNL     1     136.363 -15.869  80.699  1.00  0.00     0.293 HD
ENDBRANCH   2  20
BRANCH   6  22
ATOM     22  O   UNL     1     141.377 -13.513  82.118  1.00  0.00    -0.507 OA
ATOM     23  H   UNL     1     140.672 -12.841  81.859  1.00  0.00     0.293 HD
ENDBRANCH   6  22
BRANCH   8  24
ATOM     24  O   UNL     1     144.687 -16.363  80.166  1.00  0.00    -0.508 OA
ATOM     25  H   UNL     1     145.012 -16.350  79.207  1.00  0.00     0.293 HD
ENDBRANCH   8  24
TORSDOF 5
ENDMDL
MODEL 7
REMARK VINA RESULT:    -7.538      3.825      9.921
REMARK INTER + INTRA:          -9.131
REMARK INTER:                  -9.347
REMARK INTRA:                   0.217
REMARK UNBOUND:                -0.271
REMARK SMILES O=c1c(O)c(-c2ccc(O)cc2)oc2cc(O)cc(O)c12
REMARK SMILES IDX 5 1 3 2 2 3 1 4 21 5 19 6 18 7 16 8 15 9 14 10 13 11 6 12
REMARK SMILES IDX 7 13 8 14 9 15 12 16 11 17 10 18 4 20 20 22 17 24
REMARK H PARENT 10 19 4 21 20 23 17 25
REMARK Flexibility Score: inf
ROOT
ATOM      1  C   UNL     1     146.354 -22.680  77.317  1.00  0.00     0.180 A 
ATOM      2  C   UNL     1     147.117 -23.220  78.368  1.00  0.00     0.208 A 
ATOM      3  C   UNL     1     148.427 -23.651  78.106  1.00  0.00     0.238 A 
ATOM      4  O   UNL     1     149.130 -24.063  79.066  1.00  0.00    -0.285 OA
ATOM      5  C   UNL     1     148.941 -23.589  76.788  1.00  0.00     0.111 A 
ATOM      6  C   UNL     1     150.238 -24.039  76.399  1.00  0.00     0.134 A 
ATOM      7  C   UNL     1     150.678 -23.830  75.086  1.00  0.00     0.093 A 
ATOM      8  C   UNL     1     149.845 -23.247  74.132  1.00  0.00     0.123 A 
ATOM      9  C   UNL     1     148.554 -22.854  74.486  1.00  0.00     0.094 A 
ATOM     10  C   UNL     1     148.101 -23.013  75.798  1.00  0.00     0.146 A 
ATOM     11  O   UNL     1     146.874 -22.605  76.098  1.00  0.00    -0.452 OA
ENDROOT
BRANCH   1  12
ATOM     12  C   UNL     1     144.972 -22.192  77.518  1.00  0.00     0.021 A 
ATOM     13  C   UNL     1     144.082 -22.846  78.392  1.00  0.00     0.016 A 
ATOM     14  C   UNL     1     142.788 -22.350  78.583  1.00  0.00     0.047 A 
ATOM     15  C   UNL     1     142.372 -21.191  77.916  1.00  0.00     0.115 A 
ATOM     16  C   UNL     1     144.552 -21.018  76.870  1.00  0.00     0.016 A 
ATOM     17  C   UNL     1     143.258 -20.526  77.064  1.00  0.00     0.047 A 
BRANCH  15  18
ATOM     18  O   UNL     1     141.085 -20.689  78.099  1.00  0.00    -0.508 OA
ATOM     19  H   UNL     1     140.796 -20.285  78.982  1.00  0.00     0.293 HD
ENDBRANCH  15  18
ENDBRANCH   1  12
BRANCH   2  20
ATOM     20  O   UNL     1     146.566 -23.343  79.646  1.00  0.00    -0.502 OA
ATOM     21  H   UNL     1     146.523 -24.228  80.137  1.00  0.00     0.293 HD
ENDBRANCH   2  20
BRANCH   6  22
ATOM     22  O   UNL     1     151.121 -24.714  77.249  1.00  0.00    -0.507 OA
ATOM     23  H   UNL     1     151.156 -25.715  77.367  1.00  0.00     0.293 HD
ENDBRANCH   6  22
BRANCH   8  24
ATOM     24  O   UNL     1     150.309 -23.071  72.830  1.00  0.00    -0.508 OA
ATOM     25  H   UNL     1     149.723 -22.666  72.109  1.00  0.00     0.293 HD
ENDBRANCH   8  24
TORSDOF 5
ENDMDL
MODEL 8
REMARK VINA RESULT:    -7.498      4.263      7.604
REMARK INTER + INTRA:          -9.084
REMARK INTER:                  -8.918
REMARK INTRA:                  -0.166
REMARK UNBOUND:                -0.271
REMARK SMILES O=c1c(O)c(-c2ccc(O)cc2)oc2cc(O)cc(O)c12
REMARK SMILES IDX 5 1 3 2 2 3 1 4 21 5 19 6 18 7 16 8 15 9 14 10 13 11 6 12
REMARK SMILES IDX 7 13 8 14 9 15 12 16 11 17 10 18 4 20 20 22 17 24
REMARK H PARENT 10 19 4 21 20 23 17 25
REMARK Flexibility Score: inf
ROOT
ATOM      1  C   UNL     1     135.414 -19.587  77.843  1.00  0.00     0.180 A 
ATOM      2  C   UNL     1     135.381 -20.610  78.808  1.00  0.00     0.208 A 
ATOM      3  C   UNL     1     136.542 -20.888  79.546  1.00  0.00     0.238 A 
ATOM      4  O   UNL     1     136.483 -21.753  80.459  1.00  0.00    -0.285 OA
ATOM      5  C   UNL     1     137.738 -20.180  79.274  1.00  0.00     0.111 A 
ATOM      6  C   UNL     1     138.985 -20.410  79.929  1.00  0.00     0.134 A 
ATOM      7  C   UNL     1     140.075 -19.575  79.652  1.00  0.00     0.093 A 
ATOM      8  C   UNL     1     139.983 -18.562  78.699  1.00  0.00     0.123 A 
ATOM      9  C   UNL     1     138.785 -18.364  78.012  1.00  0.00     0.094 A 
ATOM     10  C   UNL     1     137.668 -19.155  78.294  1.00  0.00     0.146 A 
ATOM     11  O   UNL     1     136.541 -18.918  77.633  1.00  0.00    -0.452 OA
ENDROOT
BRANCH   1  12
ATOM     12  C   UNL     1     134.228 -19.226  77.036  1.00  0.00     0.021 A 
ATOM     13  C   UNL     1     133.081 -18.665  77.628  1.00  0.00     0.016 A 
ATOM     14  C   UNL     1     131.982 -18.309  76.839  1.00  0.00     0.047 A 
ATOM     15  C   UNL     1     132.019 -18.497  75.451  1.00  0.00     0.115 A 
ATOM     16  C   UNL     1     134.265 -19.391  75.641  1.00  0.00     0.016 A 
ATOM     17  C   UNL     1     133.164 -19.034  74.856  1.00  0.00     0.047 A 
BRANCH  15  18
ATOM     18  O   UNL     1     130.930 -18.146  74.657  1.00  0.00    -0.508 OA
ATOM     19  H   UNL     1     130.547 -17.208  74.668  1.00  0.00     0.293 HD
ENDBRANCH  15  18
ENDBRANCH   1  12
BRANCH   2  20
ATOM     20  O   UNL     1     134.211 -21.349  79.009  1.00  0.00    -0.502 OA
ATOM     21  H   UNL     1     133.783 -21.900  78.274  1.00  0.00     0.293 HD
ENDBRANCH   2  20
BRANCH   6  22
ATOM     22  O   UNL     1     139.214 -21.450  80.835  1.00  0.00    -0.507 OA
ATOM     23  H   UNL     1     138.549 -22.172  81.066  1.00  0.00     0.293 HD
ENDBRANCH   6  22
BRANCH   8  24
ATOM     24  O   UNL     1     141.093 -17.762  78.435  1.00  0.00    -0.508 OA
ATOM     25  H   UNL     1     141.213 -17.301  77.541  1.00  0.00     0.293 HD
ENDBRANCH   8  24
TORSDOF 5
ENDMDL
MODEL 9
REMARK VINA RESULT:    -7.395      4.005      6.197
REMARK INTER + INTRA:          -8.963
REMARK INTER:                  -8.824
REMARK INTRA:                  -0.139
REMARK UNBOUND:                -0.271
REMARK SMILES O=c1c(O)c(-c2ccc(O)cc2)oc2cc(O)cc(O)c12
REMARK SMILES IDX 5 1 3 2 2 3 1 4 21 5 19 6 18 7 16 8 15 9 14 10 13 11 6 12
REMARK SMILES IDX 7 13 8 14 9 15 12 16 11 17 10 18 4 20 20 22 17 24
REMARK H PARENT 10 19 4 21 20 23 17 25
REMARK Flexibility Score: inf
ROOT
ATOM      1  C   UNL     1     138.530 -18.085  80.344  1.00  0.00     0.180 A 
ATOM      2  C   UNL     1     139.862 -18.414  80.651  1.00  0.00     0.208 A 
ATOM      3  C   UNL     1     140.771 -17.382  80.932  1.00  0.00     0.238 A 
ATOM      4  O   UNL     1     141.942 -17.687  81.278  1.00  0.00    -0.285 OA
ATOM      5  C   UNL     1     140.354 -16.031  80.847  1.00  0.00     0.111 A 
ATOM      6  C   UNL     1     141.202 -14.904  81.067  1.00  0.00     0.134 A 
ATOM      7  C   UNL     1     140.652 -13.615  81.061  1.00  0.00     0.093 A 
ATOM      8  C   UNL     1     139.303 -13.408  80.780  1.00  0.00     0.123 A 
ATOM      9  C   UNL     1     138.476 -14.500  80.509  1.00  0.00     0.094 A 
ATOM     10  C   UNL     1     138.986 -15.800  80.546  1.00  0.00     0.146 A 
ATOM     11  O   UNL     1     138.160 -16.811  80.304  1.00  0.00    -0.452 OA
ENDROOT
BRANCH   1  12
ATOM     12  C   UNL     1     137.511 -19.117  80.050  1.00  0.00     0.021 A 
ATOM     13  C   UNL     1     137.128 -20.066  81.017  1.00  0.00     0.016 A 
ATOM     14  C   UNL     1     136.144 -21.015  80.723  1.00  0.00     0.047 A 
ATOM     15  C   UNL     1     135.522 -21.021  79.469  1.00  0.00     0.115 A 
ATOM     16  C   UNL     1     136.867 -19.117  78.802  1.00  0.00     0.016 A 
ATOM     17  C   UNL     1     135.884 -20.068  78.512  1.00  0.00     0.047 A 
BRANCH  15  18
ATOM     18  O   UNL     1     134.542 -21.963  79.165  1.00  0.00    -0.508 OA
ATOM     19  H   UNL     1     134.167 -22.054  78.228  1.00  0.00     0.293 HD
ENDBRANCH  15  18
ENDBRANCH   1  12
BRANCH   2  20
ATOM     20  O   UNL     1     140.274 -19.750  80.654  1.00  0.00    -0.502 OA
ATOM     21  H   UNL     1     139.667 -20.505  80.948  1.00  0.00     0.293 HD
ENDBRANCH   2  20
BRANCH   6  22
ATOM     22  O   UNL     1     142.582 -14.989  81.269  1.00  0.00    -0.507 OA
ATOM     23  H   UNL     1     143.252 -15.268  80.569  1.00  0.00     0.293 HD
ENDBRANCH   6  22
BRANCH   8  24
ATOM     24  O   UNL     1     138.794 -12.111  80.764  1.00  0.00    -0.508 OA
ATOM     25  H   UNL     1     139.027 -11.460  80.025  1.00  0.00     0.293 HD
ENDBRANCH   8  24
TORSDOF 5
ENDMDL
