MODEL 1
REMARK VINA RESULT:    -0.490      0.000      0.000
REMARK INTER + INTRA:          -0.729
REMARK INTER:                  -0.533
REMARK INTRA:                  -0.197
REMARK UNBOUND:                -0.197
REMARK SMILES C[C@@H]1[C@@H](C)CC[C@@]2(C(=O)[O-])CC[C@@]3(C)C(=CC[C@@H]4[C@]5(C)CC[C@H](O)C(C)(C)[C@H]5CC[C@@]43C)[C@@H]12
REMARK SMILES IDX 7 1 6 2 11 3 33 4 5 5 12 6 15 7 2 8 3 9 13 10 16 11 1 12
REMARK SMILES IDX 4 13 14 14 31 15 17 16 18 17 30 18 32 19 19 20 29 21 28 22
REMARK SMILES IDX 21 23 20 24 25 25 22 26 23 27 26 28 27 29 8 30 9 31 10 32
REMARK SMILES IDX 24 33
REMARK H PARENT 24 34
REMARK Flexibility Score: inf
ROOT
ATOM      1  C   UNL     1      -0.225  -7.252   9.004  1.00  0.00     0.017 C 
ATOM      2  C   UNL     1       0.736  -6.252   9.690  1.00  0.00     0.014 C 
ATOM      3  C   UNL     1      -1.138  -7.846  10.120  1.00  0.00     0.014 C 
ATOM      4  C   UNL     1      -1.050  -6.578   7.818  1.00  0.00     0.030 C 
ATOM      5  C   UNL     1       0.052  -4.960  10.121  1.00  0.00     0.004 C 
ATOM      6  C   UNL     1      -2.260  -8.719   9.580  1.00  0.00     0.013 C 
ATOM      7  C   UNL     1      -2.470  -7.167   7.592  1.00  0.00    -0.063 C 
ATOM      8  C   UNL     1      -1.124  -4.984   7.796  1.00  0.00    -0.003 C 
ATOM      9  C   UNL     1      -0.364  -4.159   8.893  1.00  0.00    -0.011 C 
ATOM     10  C   UNL     1      -3.259  -7.966   8.649  1.00  0.00    -0.006 C 
ATOM     11  C   UNL     1      -3.127  -6.830   6.461  1.00  0.00    -0.027 C 
ATOM     12  C   UNL     1      -0.678  -4.414   6.421  1.00  0.00     0.008 C 
ATOM     13  C   UNL     1      -1.193  -2.938   9.336  1.00  0.00     0.008 C 
ATOM     14  C   UNL     1      -4.005  -6.942   9.551  1.00  0.00     0.017 C 
ATOM     15  C   UNL     1      -4.265  -9.016   7.900  1.00  0.00    -0.020 C 
ATOM     16  C   UNL     1      -4.619  -6.949   6.341  1.00  0.00     0.032 C 
ATOM     17  C   UNL     1      -5.142  -8.346   6.726  1.00  0.00     0.006 C 
ATOM     18  C   UNL     1      -5.161  -9.807   8.913  1.00  0.00     0.008 C 
ATOM     19  C   UNL     1      -3.403 -10.125   7.195  1.00  0.00     0.012 C 
ATOM     20  C   UNL     1      -6.736  -8.462   6.868  1.00  0.00    -0.025 C 
ATOM     21  C   UNL     1      -6.480  -9.154   9.372  1.00  0.00     0.005 C 
ATOM     22  C   UNL     1      -7.139  -8.180   8.366  1.00  0.00     0.003 C 
ATOM     23  C   UNL     1      -7.469  -7.428   5.942  1.00  0.00     0.010 C 
ATOM     24  C   UNL     1      -7.159  -9.887   6.374  1.00  0.00     0.012 C 
ATOM     25  C   UNL     1      -8.673  -7.918   8.688  1.00  0.00    -0.006 C 
ATOM     26  C   UNL     1      -8.970  -7.293   6.228  1.00  0.00     0.033 C 
ATOM     27  C   UNL     1      -9.241  -6.865   7.683  1.00  0.00     0.120 C 
ATOM     28  C   UNL     1      -9.546  -9.204   8.655  1.00  0.00     0.014 C 
ATOM     29  C   UNL     1      -8.821  -7.333  10.119  1.00  0.00     0.014 C 
ENDROOT
BRANCH   1  30
ATOM     30  C   UNL     1       0.675  -8.364   8.438  1.00  0.00     0.048 C 
ATOM     31  O   UNL     1       0.411  -8.937   7.349  1.00  0.00    -0.550 OA
ATOM     32  O   UNL     1       1.748  -8.863   9.177  1.00  0.00    -0.550 OA
ENDBRANCH   1  30
BRANCH  27  33
ATOM     33  O   UNL     1      -8.698  -5.596   7.951  1.00  0.00    -0.393 OA
ATOM     34  H   UNL     1      -7.864  -5.473   7.436  1.00  0.00     0.210 HD
ENDBRANCH  27  33
TORSDOF 2
ENDMDL
MODEL 2
REMARK VINA RESULT:     0.146      3.782      7.259
REMARK INTER + INTRA:          -0.038
REMARK INTER:                  -0.071
REMARK INTRA:                   0.033
REMARK UNBOUND:                -0.197
REMARK SMILES C[C@@H]1[C@@H](C)CC[C@@]2(C(=O)[O-])CC[C@@]3(C)C(=CC[C@@H]4[C@]5(C)CC[C@H](O)C(C)(C)[C@H]5CC[C@@]43C)[C@@H]12
REMARK SMILES IDX 7 1 6 2 11 3 33 4 5 5 12 6 15 7 2 8 3 9 13 10 16 11 1 12
REMARK SMILES IDX 4 13 14 14 31 15 17 16 18 17 30 18 32 19 19 20 29 21 28 22
REMARK SMILES IDX 21 23 20 24 25 25 22 26 23 27 26 28 27 29 8 30 9 31 10 32
REMARK SMILES IDX 24 33
REMARK H PARENT 24 34
REMARK Flexibility Score: inf
ROOT
ATOM      1  C   UNL     1       1.279  -0.265   8.441  1.00  0.00     0.017 C 
ATOM      2  C   UNL     1       2.388   0.582   7.772  1.00  0.00     0.014 C 
ATOM      3  C   UNL     1       0.269  -0.660   7.322  1.00  0.00     0.014 C 
ATOM      4  C   UNL     1       1.870  -1.524   9.220  1.00  0.00     0.030 C 
ATOM      5  C   UNL     1       3.334  -0.242   6.907  1.00  0.00     0.004 C 
ATOM      6  C   UNL     1      -0.792  -1.647   7.788  1.00  0.00     0.013 C 
ATOM      7  C   UNL     1       0.939  -2.767   9.255  1.00  0.00    -0.063 C 
ATOM      8  C   UNL     1       3.354  -1.979   8.849  1.00  0.00    -0.003 C 
ATOM      9  C   UNL     1       4.171  -1.163   7.786  1.00  0.00    -0.011 C 
ATOM     10  C   UNL     1      -0.219  -3.015   8.267  1.00  0.00    -0.006 C 
ATOM     11  C   UNL     1       1.253  -3.775  10.099  1.00  0.00    -0.027 C 
ATOM     12  C   UNL     1       4.250  -2.084  10.114  1.00  0.00     0.008 C 
ATOM     13  C   UNL     1       5.006  -2.102   6.895  1.00  0.00     0.008 C 
ATOM     14  C   UNL     1       0.378  -3.701   7.006  1.00  0.00     0.017 C 
ATOM     15  C   UNL     1      -1.377  -3.910   8.999  1.00  0.00    -0.020 C 
ATOM     16  C   UNL     1       0.726  -5.167   9.907  1.00  0.00     0.032 C 
ATOM     17  C   UNL     1      -0.806  -5.213   9.755  1.00  0.00     0.006 C 
ATOM     18  C   UNL     1      -2.551  -4.271   8.027  1.00  0.00     0.008 C 
ATOM     19  C   UNL     1      -2.053  -3.041  10.120  1.00  0.00     0.012 C 
ATOM     20  C   UNL     1      -1.404  -6.629   9.292  1.00  0.00    -0.025 C 
ATOM     21  C   UNL     1      -2.397  -5.526   7.144  1.00  0.00     0.005 C 
ATOM     22  C   UNL     1      -1.504  -6.652   7.719  1.00  0.00     0.003 C 
ATOM     23  C   UNL     1      -0.489  -7.816   9.760  1.00  0.00     0.010 C 
ATOM     24  C   UNL     1      -2.787  -6.820  10.001  1.00  0.00     0.012 C 
ATOM     25  C   UNL     1      -1.758  -8.052   7.009  1.00  0.00    -0.006 C 
ATOM     26  C   UNL     1      -0.848  -9.164   9.122  1.00  0.00     0.033 C 
ATOM     27  C   UNL     1      -0.764  -9.111   7.584  1.00  0.00     0.120 C 
ATOM     28  C   UNL     1      -3.218  -8.566   7.149  1.00  0.00     0.014 C 
ATOM     29  C   UNL     1      -1.488  -7.929   5.485  1.00  0.00     0.014 C 
ENDROOT
BRANCH   1  30
ATOM     30  C   UNL     1       0.588   0.679   9.440  1.00  0.00     0.048 C 
ATOM     31  O   UNL     1       1.094   1.786   9.762  1.00  0.00    -0.550 OA
ATOM     32  O   UNL     1      -0.564   0.284  10.120  1.00  0.00    -0.550 OA
ENDBRANCH   1  30
BRANCH  27  33
ATOM     33  O   UNL     1       0.544  -8.834   7.154  1.00  0.00    -0.393 OA
ATOM     34  H   UNL     1       0.517  -8.304   6.321  1.00  0.00     0.210 HD
ENDBRANCH  27  33
TORSDOF 2
ENDMDL
MODEL 3
REMARK VINA RESULT:     0.185      2.033      7.665
REMARK INTER + INTRA:           0.005
REMARK INTER:                   0.214
REMARK INTRA:                  -0.209
REMARK UNBOUND:                -0.197
REMARK SMILES C[C@@H]1[C@@H](C)CC[C@@]2(C(=O)[O-])CC[C@@]3(C)C(=CC[C@@H]4[C@]5(C)CC[C@H](O)C(C)(C)[C@H]5CC[C@@]43C)[C@@H]12
REMARK SMILES IDX 7 1 6 2 11 3 33 4 5 5 12 6 15 7 2 8 3 9 13 10 16 11 1 12
REMARK SMILES IDX 4 13 14 14 31 15 17 16 18 17 30 18 32 19 19 20 29 21 28 22
REMARK SMILES IDX 21 23 20 24 25 25 22 26 23 27 26 28 27 29 8 30 9 31 10 32
REMARK SMILES IDX 24 33
REMARK H PARENT 24 34
REMARK Flexibility Score: inf
ROOT
ATOM      1  C   UNL     1      -8.138  -8.514   7.431  1.00  0.00     0.017 C 
ATOM      2  C   UNL     1      -8.644  -9.710   6.591  1.00  0.00     0.014 C 
ATOM      3  C   UNL     1      -6.983  -9.046   8.334  1.00  0.00     0.014 C 
ATOM      4  C   UNL     1      -7.699  -7.281   6.521  1.00  0.00     0.030 C 
ATOM      5  C   UNL     1      -7.677 -10.121   5.486  1.00  0.00     0.004 C 
ATOM      6  C   UNL     1      -6.259  -7.948   9.097  1.00  0.00     0.013 C 
ATOM      7  C   UNL     1      -6.548  -6.415   7.105  1.00  0.00    -0.063 C 
ATOM      8  C   UNL     1      -7.414  -7.579   4.980  1.00  0.00    -0.003 C 
ATOM      9  C   UNL     1      -7.613  -9.032   4.422  1.00  0.00    -0.011 C 
ATOM     10  C   UNL     1      -5.558  -6.897   8.184  1.00  0.00    -0.006 C 
ATOM     11  C   UNL     1      -6.292  -5.221   6.525  1.00  0.00    -0.027 C 
ATOM     12  C   UNL     1      -8.231  -6.633   4.057  1.00  0.00     0.008 C 
ATOM     13  C   UNL     1      -6.517  -9.383   3.397  1.00  0.00     0.008 C 
ATOM     14  C   UNL     1      -4.405  -7.650   7.461  1.00  0.00     0.017 C 
ATOM     15  C   UNL     1      -5.040  -5.615   9.059  1.00  0.00    -0.020 C 
ATOM     16  C   UNL     1      -4.972  -4.526   6.685  1.00  0.00     0.032 C 
ATOM     17  C   UNL     1      -4.549  -4.373   8.158  1.00  0.00     0.006 C 
ATOM     18  C   UNL     1      -3.965  -6.019  10.125  1.00  0.00     0.008 C 
ATOM     19  C   UNL     1      -6.242  -5.064   9.908  1.00  0.00     0.012 C 
ATOM     20  C   UNL     1      -3.041  -3.875   8.387  1.00  0.00    -0.025 C 
ATOM     21  C   UNL     1      -2.491  -6.076   9.677  1.00  0.00     0.005 C 
ATOM     22  C   UNL     1      -2.100  -5.133   8.514  1.00  0.00     0.003 C 
ATOM     23  C   UNL     1      -2.544  -2.989   7.189  1.00  0.00     0.010 C 
ATOM     24  C   UNL     1      -3.025  -2.961   9.659  1.00  0.00     0.012 C 
ATOM     25  C   UNL     1      -0.530  -4.902   8.421  1.00  0.00    -0.006 C 
ATOM     26  C   UNL     1      -1.036  -2.710   7.208  1.00  0.00     0.033 C 
ATOM     27  C   UNL     1      -0.211  -4.011   7.177  1.00  0.00     0.120 C 
ATOM     28  C   UNL     1       0.084  -4.264   9.698  1.00  0.00     0.014 C 
ATOM     29  C   UNL     1       0.195  -6.262   8.226  1.00  0.00     0.014 C 
ENDROOT
BRANCH   1  30
ATOM     30  C   UNL     1      -9.327  -8.102   8.316  1.00  0.00     0.048 C 
ATOM     31  O   UNL     1      -9.598  -6.893   8.538  1.00  0.00    -0.550 OA
ATOM     32  O   UNL     1     -10.071  -9.060   9.007  1.00  0.00    -0.550 OA
ENDBRANCH   1  30
BRANCH  27  33
ATOM     33  O   UNL     1      -0.440  -4.732   5.992  1.00  0.00    -0.393 OA
ATOM     34  H   UNL     1      -0.920  -5.570   6.197  1.00  0.00     0.210 HD
ENDBRANCH  27  33
TORSDOF 2
ENDMDL
MODEL 4
REMARK VINA RESULT:     1.581      1.259      1.484
REMARK INTER + INTRA:           1.523
REMARK INTER:                   1.661
REMARK INTRA:                  -0.138
REMARK UNBOUND:                -0.197
REMARK SMILES C[C@@H]1[C@@H](C)CC[C@@]2(C(=O)[O-])CC[C@@]3(C)C(=CC[C@@H]4[C@]5(C)CC[C@H](O)C(C)(C)[C@H]5CC[C@@]43C)[C@@H]12
REMARK SMILES IDX 7 1 6 2 11 3 33 4 5 5 12 6 15 7 2 8 3 9 13 10 16 11 1 12
REMARK SMILES IDX 4 13 14 14 31 15 17 16 18 17 30 18 32 19 19 20 29 21 28 22
REMARK SMILES IDX 21 23 20 24 25 25 22 26 23 27 26 28 27 29 8 30 9 31 10 32
REMARK SMILES IDX 24 33
REMARK H PARENT 24 34
REMARK Flexibility Score: inf
ROOT
ATOM      1  C   UNL     1      -0.362  -5.681   9.012  1.00  0.00     0.017 C 
ATOM      2  C   UNL     1       0.441  -4.375   9.224  1.00  0.00     0.014 C 
ATOM      3  C   UNL     1      -1.454  -5.731  10.125  1.00  0.00     0.014 C 
ATOM      4  C   UNL     1      -0.968  -5.784   7.541  1.00  0.00     0.030 C 
ATOM      5  C   UNL     1      -0.332  -3.123   8.827  1.00  0.00     0.004 C 
ATOM      6  C   UNL     1      -2.444  -6.873   9.948  1.00  0.00     0.013 C 
ATOM      7  C   UNL     1      -2.313  -6.556   7.440  1.00  0.00    -0.063 C 
ATOM      8  C   UNL     1      -1.063  -4.433   6.697  1.00  0.00    -0.003 C 
ATOM      9  C   UNL     1      -0.530  -3.094   7.317  1.00  0.00    -0.011 C 
ATOM     10  C   UNL     1      -3.268  -6.798   8.626  1.00  0.00    -0.006 C 
ATOM     11  C   UNL     1      -2.758  -6.902   6.212  1.00  0.00    -0.027 C 
ATOM     12  C   UNL     1      -0.383  -4.583   5.308  1.00  0.00     0.008 C 
ATOM     13  C   UNL     1      -1.446  -1.913   6.944  1.00  0.00     0.008 C 
ATOM     14  C   UNL     1      -4.183  -5.548   8.755  1.00  0.00     0.017 C 
ATOM     15  C   UNL     1      -4.102  -8.183   8.379  1.00  0.00    -0.020 C 
ATOM     16  C   UNL     1      -4.200  -7.225   5.951  1.00  0.00     0.032 C 
ATOM     17  C   UNL     1      -4.761  -8.288   6.912  1.00  0.00     0.006 C 
ATOM     18  C   UNL     1      -5.155  -8.452   9.508  1.00  0.00     0.008 C 
ATOM     19  C   UNL     1      -3.108  -9.396   8.477  1.00  0.00     0.012 C 
ATOM     20  C   UNL     1      -6.353  -8.489   6.855  1.00  0.00    -0.025 C 
ATOM     21  C   UNL     1      -6.547  -7.803   9.366  1.00  0.00     0.005 C 
ATOM     22  C   UNL     1      -7.026  -7.540   7.919  1.00  0.00     0.003 C 
ATOM     23  C   UNL     1      -6.921  -8.142   5.433  1.00  0.00     0.010 C 
ATOM     24  C   UNL     1      -6.654 -10.005   7.102  1.00  0.00     0.012 C 
ATOM     25  C   UNL     1      -8.598  -7.319   7.830  1.00  0.00    -0.006 C 
ATOM     26  C   UNL     1      -8.451  -8.045   5.384  1.00  0.00     0.033 C 
ATOM     27  C   UNL     1      -8.990  -6.977   6.356  1.00  0.00     0.120 C 
ATOM     28  C   UNL     1      -9.428  -8.534   8.329  1.00  0.00     0.014 C 
ATOM     29  C   UNL     1      -9.015  -6.117   8.720  1.00  0.00     0.014 C 
ENDROOT
BRANCH   1  30
ATOM     30  C   UNL     1       0.644  -6.823   9.236  1.00  0.00     0.048 C 
ATOM     31  O   UNL     1       0.460  -7.970   8.751  1.00  0.00    -0.550 OA
ATOM     32  O   UNL     1       1.735  -6.659  10.090  1.00  0.00    -0.550 OA
ENDBRANCH   1  30
BRANCH  27  33
ATOM     33  O   UNL     1      -8.526  -5.696   6.015  1.00  0.00    -0.393 OA
ATOM     34  H   UNL     1      -8.097  -5.720   5.126  1.00  0.00     0.210 HD
ENDBRANCH  27  33
TORSDOF 2
ENDMDL
