MODEL 1
REMARK VINA RESULT:    -4.934      0.000      0.000
REMARK INTER + INTRA:          -8.726
REMARK INTER:                  -7.819
REMARK INTRA:                  -0.908
REMARK UNBOUND:                -0.908
REMARK SMILES CCCCCCCCCCCC(=O)[O-]
REMARK SMILES IDX 7 1 8 2 9 3 10 4 11 5 12 6 13 7 14 8 6 9 5 10 4 11 3 12 2 13
REMARK SMILES IDX 1 14
REMARK H PARENT
REMARK Flexibility Score: inf
ROOT
ATOM      1  C   UNL     1      74.484  13.300  17.346  1.00  0.00     0.000 C 
ENDROOT
BRANCH   1   2
ATOM      2  C   UNL     1      75.045  14.713  17.127  1.00  0.00     0.000 C 
BRANCH   2   3
ATOM      3  C   UNL     1      75.240  15.000  15.633  1.00  0.00     0.000 C 
BRANCH   3   4
ATOM      4  C   UNL     1      74.652  16.367  15.254  1.00  0.00     0.006 C 
BRANCH   4   5
ATOM      5  C   UNL     1      75.198  17.499  16.135  1.00  0.00     0.053 C 
BRANCH   5   6
ATOM      6  C   UNL     1      76.583  17.900  15.730  1.00  0.00     0.041 C 
ATOM      7  O   UNL     1      77.569  17.582  16.446  1.00  0.00    -0.550 OA
ATOM      8  O   UNL     1      76.789  18.595  14.545  1.00  0.00    -0.550 OA
ENDBRANCH   5   6
ENDBRANCH   4   5
ENDBRANCH   3   4
ENDBRANCH   2   3
ENDBRANCH   1   2
BRANCH   1   9
ATOM      9  C   UNL     1      73.706  13.168  18.665  1.00  0.00     0.000 C 
BRANCH   9  10
ATOM     10  C   UNL     1      74.171  11.969  19.510  1.00  0.00    -0.000 C 
BRANCH  10  11
ATOM     11  C   UNL     1      75.608  11.538  19.162  1.00  0.00    -0.000 C 
BRANCH  11  12
ATOM     12  C   UNL     1      76.592  11.694  20.343  1.00  0.00    -0.000 C 
BRANCH  12  13
ATOM     13  C   UNL     1      77.777  12.624  20.034  1.00  0.00    -0.003 C 
ATOM     14  C   UNL     1      77.954  12.884  18.540  1.00  0.00     0.004 C 
ENDBRANCH  12  13
ENDBRANCH  11  12
ENDBRANCH  10  11
ENDBRANCH   9  10
ENDBRANCH   1   9
TORSDOF 10
ENDMDL
MODEL 2
REMARK VINA RESULT:    -4.878      1.997      3.438
REMARK INTER + INTRA:          -8.638
REMARK INTER:                  -7.766
REMARK INTRA:                  -0.871
REMARK UNBOUND:                -0.908
REMARK SMILES CCCCCCCCCCCC(=O)[O-]
REMARK SMILES IDX 7 1 8 2 9 3 10 4 11 5 12 6 13 7 14 8 6 9 5 10 4 11 3 12 2 13
REMARK SMILES IDX 1 14
REMARK H PARENT
REMARK Flexibility Score: inf
ROOT
ATOM      1  C   UNL     1      75.559  11.926  20.232  1.00  0.00     0.000 C 
ENDROOT
BRANCH   1   2
ATOM      2  C   UNL     1      74.461  11.829  19.163  1.00  0.00     0.000 C 
BRANCH   2   3
ATOM      3  C   UNL     1      74.113  13.215  18.606  1.00  0.00     0.000 C 
BRANCH   3   4
ATOM      4  C   UNL     1      75.226  13.732  17.683  1.00  0.00     0.006 C 
BRANCH   4   5
ATOM      5  C   UNL     1      75.580  15.199  17.965  1.00  0.00     0.053 C 
BRANCH   5   6
ATOM      6  C   UNL     1      75.403  16.057  16.750  1.00  0.00     0.041 C 
ATOM      7  O   UNL     1      76.222  16.980  16.503  1.00  0.00    -0.550 OA
ATOM      8  O   UNL     1      74.352  15.815  15.874  1.00  0.00    -0.550 OA
ENDBRANCH   5   6
ENDBRANCH   4   5
ENDBRANCH   3   4
ENDBRANCH   2   3
ENDBRANCH   1   2
BRANCH   1   9
ATOM      9  C   UNL     1      76.672  10.885  20.037  1.00  0.00     0.000 C 
BRANCH   9  10
ATOM     10  C   UNL     1      77.978  11.505  19.509  1.00  0.00    -0.000 C 
BRANCH  10  11
ATOM     11  C   UNL     1      78.141  12.971  19.949  1.00  0.00    -0.000 C 
BRANCH  11  12
ATOM     12  C   UNL     1      79.543  13.545  19.643  1.00  0.00    -0.000 C 
BRANCH  12  13
ATOM     13  C   UNL     1      80.097  14.439  20.765  1.00  0.00    -0.003 C 
ATOM     14  C   UNL     1      81.604  14.286  20.956  1.00  0.00     0.004 C 
ENDBRANCH  12  13
ENDBRANCH  11  12
ENDBRANCH  10  11
ENDBRANCH   9  10
ENDBRANCH   1   9
TORSDOF 10
ENDMDL
MODEL 3
REMARK VINA RESULT:    -4.793      1.146      2.188
REMARK INTER + INTRA:          -8.503
REMARK INTER:                  -7.143
REMARK INTRA:                  -1.360
REMARK UNBOUND:                -0.908
REMARK SMILES CCCCCCCCCCCC(=O)[O-]
REMARK SMILES IDX 7 1 8 2 9 3 10 4 11 5 12 6 13 7 14 8 6 9 5 10 4 11 3 12 2 13
REMARK SMILES IDX 1 14
REMARK H PARENT
REMARK Flexibility Score: inf
ROOT
ATOM      1  C   UNL     1      74.335  11.994  19.382  1.00  0.00     0.000 C 
ENDROOT
BRANCH   1   2
ATOM      2  C   UNL     1      73.794  13.117  18.485  1.00  0.00     0.000 C 
BRANCH   2   3
ATOM      3  C   UNL     1      74.631  13.250  17.207  1.00  0.00     0.000 C 
BRANCH   3   4
ATOM      4  C   UNL     1      74.719  14.716  16.757  1.00  0.00     0.006 C 
BRANCH   4   5
ATOM      5  C   UNL     1      75.367  14.861  15.373  1.00  0.00     0.053 C 
BRANCH   5   6
ATOM      6  C   UNL     1      76.024  16.196  15.204  1.00  0.00     0.041 C 
ATOM      7  O   UNL     1      77.270  16.310  15.347  1.00  0.00    -0.550 OA
ATOM      8  O   UNL     1      75.266  17.307  14.856  1.00  0.00    -0.550 OA
ENDBRANCH   5   6
ENDBRANCH   4   5
ENDBRANCH   3   4
ENDBRANCH   2   3
ENDBRANCH   1   2
BRANCH   1   9
ATOM      9  C   UNL     1      75.344  11.089  18.658  1.00  0.00     0.000 C 
BRANCH   9  10
ATOM     10  C   UNL     1      76.599  10.805  19.502  1.00  0.00    -0.000 C 
BRANCH  10  11
ATOM     11  C   UNL     1      76.941  11.976  20.442  1.00  0.00    -0.000 C 
BRANCH  11  12
ATOM     12  C   UNL     1      78.139  12.819  19.951  1.00  0.00    -0.000 C 
BRANCH  12  13
ATOM     13  C   UNL     1      77.741  13.937  18.973  1.00  0.00    -0.003 C 
ATOM     14  C   UNL     1      78.277  13.712  17.562  1.00  0.00     0.004 C 
ENDBRANCH  12  13
ENDBRANCH  11  12
ENDBRANCH  10  11
ENDBRANCH   9  10
ENDBRANCH   1   9
TORSDOF 10
ENDMDL
MODEL 4
REMARK VINA RESULT:    -4.756      2.746      5.818
REMARK INTER + INTRA:          -8.444
REMARK INTER:                  -7.500
REMARK INTRA:                  -0.944
REMARK UNBOUND:                -0.908
REMARK SMILES CCCCCCCCCCCC(=O)[O-]
REMARK SMILES IDX 7 1 8 2 9 3 10 4 11 5 12 6 13 7 14 8 6 9 5 10 4 11 3 12 2 13
REMARK SMILES IDX 1 14
REMARK H PARENT
REMARK Flexibility Score: inf
ROOT
ATOM      1  C   UNL     1      73.850  13.153  18.371  1.00  0.00     0.000 C 
ENDROOT
BRANCH   1   2
ATOM      2  C   UNL     1      74.159  12.079  19.424  1.00  0.00     0.000 C 
BRANCH   2   3
ATOM      3  C   UNL     1      75.446  11.322  19.075  1.00  0.00     0.000 C 
BRANCH   3   4
ATOM      4  C   UNL     1      76.459  11.399  20.226  1.00  0.00     0.006 C 
BRANCH   4   5
ATOM      5  C   UNL     1      77.536  12.466  19.983  1.00  0.00     0.053 C 
BRANCH   5   6
ATOM      6  C   UNL     1      78.721  11.905  19.259  1.00  0.00     0.041 C 
ATOM      7  O   UNL     1      79.687  12.652  18.952  1.00  0.00    -0.550 OA
ATOM      8  O   UNL     1      78.774  10.550  18.955  1.00  0.00    -0.550 OA
ENDBRANCH   5   6
ENDBRANCH   4   5
ENDBRANCH   3   4
ENDBRANCH   2   3
ENDBRANCH   1   2
BRANCH   1   9
ATOM      9  C   UNL     1      74.644  14.450  18.595  1.00  0.00     0.000 C 
BRANCH   9  10
ATOM     10  C   UNL     1      75.722  14.678  17.521  1.00  0.00    -0.000 C 
BRANCH  10  11
ATOM     11  C   UNL     1      75.309  14.100  16.155  1.00  0.00    -0.000 C 
BRANCH  11  12
ATOM     12  C   UNL     1      75.454  15.114  14.998  1.00  0.00    -0.000 C 
BRANCH  12  13
ATOM     13  C   UNL     1      74.718  16.440  15.249  1.00  0.00    -0.003 C 
ATOM     14  C   UNL     1      75.643  17.653  15.196  1.00  0.00     0.004 C 
ENDBRANCH  12  13
ENDBRANCH  11  12
ENDBRANCH  10  11
ENDBRANCH   9  10
ENDBRANCH   1   9
TORSDOF 10
ENDMDL
MODEL 5
REMARK VINA RESULT:    -4.745      1.730      2.379
REMARK INTER + INTRA:          -8.426
REMARK INTER:                  -7.401
REMARK INTRA:                  -1.026
REMARK UNBOUND:                -0.908
REMARK SMILES CCCCCCCCCCCC(=O)[O-]
REMARK SMILES IDX 7 1 8 2 9 3 10 4 11 5 12 6 13 7 14 8 6 9 5 10 4 11 3 12 2 13
REMARK SMILES IDX 1 14
REMARK H PARENT
REMARK Flexibility Score: inf
ROOT
ATOM      1  C   UNL     1      73.844  13.109  18.655  1.00  0.00     0.000 C 
ENDROOT
BRANCH   1   2
ATOM      2  C   UNL     1      74.793  13.604  17.554  1.00  0.00     0.000 C 
BRANCH   2   3
ATOM      3  C   UNL     1      75.512  14.888  17.985  1.00  0.00     0.000 C 
BRANCH   3   4
ATOM      4  C   UNL     1      76.546  15.319  16.935  1.00  0.00     0.006 C 
BRANCH   4   5
ATOM      5  C   UNL     1      75.968  15.309  15.513  1.00  0.00     0.053 C 
BRANCH   5   6
ATOM      6  C   UNL     1      75.204  16.562  15.214  1.00  0.00     0.041 C 
ATOM      7  O   UNL     1      73.954  16.592  15.362  1.00  0.00    -0.550 OA
ATOM      8  O   UNL     1      75.876  17.706  14.805  1.00  0.00    -0.550 OA
ENDBRANCH   5   6
ENDBRANCH   4   5
ENDBRANCH   3   4
ENDBRANCH   2   3
ENDBRANCH   1   2
BRANCH   1   9
ATOM      9  C   UNL     1      74.311  11.792  19.294  1.00  0.00     0.000 C 
BRANCH   9  10
ATOM     10  C   UNL     1      75.562  11.970  20.173  1.00  0.00    -0.000 C 
BRANCH  10  11
ATOM     11  C   UNL     1      76.713  11.045  19.735  1.00  0.00    -0.000 C 
BRANCH  11  12
ATOM     12  C   UNL     1      76.285  10.001  18.679  1.00  0.00    -0.000 C 
BRANCH  12  13
ATOM     13  C   UNL     1      77.308   9.824  17.544  1.00  0.00    -0.003 C 
ATOM     14  C   UNL     1      77.165  10.876  16.446  1.00  0.00     0.004 C 
ENDBRANCH  12  13
ENDBRANCH  11  12
ENDBRANCH  10  11
ENDBRANCH   9  10
ENDBRANCH   1   9
TORSDOF 10
ENDMDL
MODEL 6
REMARK VINA RESULT:    -4.743      2.852      4.224
REMARK INTER + INTRA:          -8.423
REMARK INTER:                  -7.424
REMARK INTRA:                  -0.999
REMARK UNBOUND:                -0.908
REMARK SMILES CCCCCCCCCCCC(=O)[O-]
REMARK SMILES IDX 7 1 8 2 9 3 10 4 11 5 12 6 13 7 14 8 6 9 5 10 4 11 3 12 2 13
REMARK SMILES IDX 1 14
REMARK H PARENT
REMARK Flexibility Score: inf
ROOT
ATOM      1  C   UNL     1      75.585  11.916  20.094  1.00  0.00     0.000 C 
ENDROOT
BRANCH   1   2
ATOM      2  C   UNL     1      74.336  11.859  19.203  1.00  0.00     0.000 C 
BRANCH   2   3
ATOM      3  C   UNL     1      73.940  13.260  18.722  1.00  0.00     0.000 C 
BRANCH   3   4
ATOM      4  C   UNL     1      74.986  13.823  17.748  1.00  0.00     0.006 C 
BRANCH   4   5
ATOM      5  C   UNL     1      75.032  13.039  16.429  1.00  0.00     0.053 C 
BRANCH   5   6
ATOM      6  C   UNL     1      76.425  12.606  16.089  1.00  0.00     0.041 C 
ATOM      7  O   UNL     1      76.614  11.618  15.332  1.00  0.00    -0.550 OA
ATOM      8  O   UNL     1      77.514  13.315  16.580  1.00  0.00    -0.550 OA
ENDBRANCH   5   6
ENDBRANCH   4   5
ENDBRANCH   3   4
ENDBRANCH   2   3
ENDBRANCH   1   2
BRANCH   1   9
ATOM      9  C   UNL     1      76.647  10.879  19.697  1.00  0.00     0.000 C 
BRANCH   9  10
ATOM     10  C   UNL     1      78.063  11.478  19.625  1.00  0.00    -0.000 C 
BRANCH  10  11
ATOM     11  C   UNL     1      78.083  12.964  20.024  1.00  0.00    -0.000 C 
BRANCH  11  12
ATOM     12  C   UNL     1      79.371  13.695  19.581  1.00  0.00    -0.000 C 
BRANCH  12  13
ATOM     13  C   UNL     1      79.992  14.565  20.686  1.00  0.00    -0.003 C 
ATOM     14  C   UNL     1      81.471  14.264  20.918  1.00  0.00     0.004 C 
ENDBRANCH  12  13
ENDBRANCH  11  12
ENDBRANCH  10  11
ENDBRANCH   9  10
ENDBRANCH   1   9
TORSDOF 10
ENDMDL
MODEL 7
REMARK VINA RESULT:    -4.732      2.389      4.362
REMARK INTER + INTRA:          -8.406
REMARK INTER:                  -7.689
REMARK INTRA:                  -0.716
REMARK UNBOUND:                -0.908
REMARK SMILES CCCCCCCCCCCC(=O)[O-]
REMARK SMILES IDX 7 1 8 2 9 3 10 4 11 5 12 6 13 7 14 8 6 9 5 10 4 11 3 12 2 13
REMARK SMILES IDX 1 14
REMARK H PARENT
REMARK Flexibility Score: inf
ROOT
ATOM      1  C   UNL     1      76.774  10.910  19.794  1.00  0.00     0.000 C 
ENDROOT
BRANCH   1   2
ATOM      2  C   UNL     1      75.726  11.964  20.181  1.00  0.00     0.000 C 
BRANCH   2   3
ATOM      3  C   UNL     1      74.441  11.787  19.362  1.00  0.00     0.000 C 
BRANCH   3   4
ATOM      4  C   UNL     1      73.948  13.135  18.815  1.00  0.00     0.006 C 
BRANCH   4   5
ATOM      5  C   UNL     1      74.449  13.403  17.390  1.00  0.00     0.053 C 
BRANCH   5   6
ATOM      6  C   UNL     1      75.188  14.702  17.296  1.00  0.00     0.041 C 
ATOM      7  O   UNL     1      75.838  15.134  18.284  1.00  0.00    -0.550 OA
ATOM      8  O   UNL     1      75.187  15.419  16.106  1.00  0.00    -0.550 OA
ENDBRANCH   5   6
ENDBRANCH   4   5
ENDBRANCH   3   4
ENDBRANCH   2   3
ENDBRANCH   1   2
BRANCH   1   9
ATOM      9  C   UNL     1      78.161  11.519  19.535  1.00  0.00     0.000 C 
BRANCH   9  10
ATOM     10  C   UNL     1      78.246  12.998  19.950  1.00  0.00    -0.000 C 
BRANCH  10  11
ATOM     11  C   UNL     1      79.603  13.625  19.582  1.00  0.00    -0.000 C 
BRANCH  11  12
ATOM     12  C   UNL     1      80.180  14.524  20.698  1.00  0.00    -0.000 C 
BRANCH  12  13
ATOM     13  C   UNL     1      81.673  14.277  20.973  1.00  0.00    -0.003 C 
ATOM     14  C   UNL     1      82.228  13.080  20.205  1.00  0.00     0.004 C 
ENDBRANCH  12  13
ENDBRANCH  11  12
ENDBRANCH  10  11
ENDBRANCH   9  10
ENDBRANCH   1   9
TORSDOF 10
ENDMDL
MODEL 8
REMARK VINA RESULT:    -4.668      2.654      4.811
REMARK INTER + INTRA:          -8.305
REMARK INTER:                  -7.066
REMARK INTRA:                  -1.239
REMARK UNBOUND:                -0.908
REMARK SMILES CCCCCCCCCCCC(=O)[O-]
REMARK SMILES IDX 7 1 8 2 9 3 10 4 11 5 12 6 13 7 14 8 6 9 5 10 4 11 3 12 2 13
REMARK SMILES IDX 1 14
REMARK H PARENT
REMARK Flexibility Score: inf
ROOT
ATOM      1  C   UNL     1      75.721  11.290  19.264  1.00  0.00     0.000 C 
ENDROOT
BRANCH   1   2
ATOM      2  C   UNL     1      76.907  11.745  20.126  1.00  0.00     0.000 C 
BRANCH   2   3
ATOM      3  C   UNL     1      77.979  12.428  19.269  1.00  0.00     0.000 C 
BRANCH   3   4
ATOM      4  C   UNL     1      78.754  13.472  20.086  1.00  0.00     0.006 C 
BRANCH   4   5
ATOM      5  C   UNL     1      78.889  14.808  19.343  1.00  0.00     0.053 C 
BRANCH   5   6
ATOM      6  C   UNL     1      80.005  15.641  19.894  1.00  0.00     0.041 C 
ATOM      7  O   UNL     1      79.982  16.893  19.769  1.00  0.00    -0.550 OA
ATOM      8  O   UNL     1      81.054  15.036  20.576  1.00  0.00    -0.550 OA
ENDBRANCH   5   6
ENDBRANCH   4   5
ENDBRANCH   3   4
ENDBRANCH   2   3
ENDBRANCH   1   2
BRANCH   1   9
ATOM      9  C   UNL     1      74.416  12.021  19.616  1.00  0.00     0.000 C 
BRANCH   9  10
ATOM     10  C   UNL     1      73.903  12.906  18.467  1.00  0.00    -0.000 C 
BRANCH  10  11
ATOM     11  C   UNL     1      74.755  14.177  18.292  1.00  0.00    -0.000 C 
BRANCH  11  12
ATOM     12  C   UNL     1      75.432  14.268  16.906  1.00  0.00    -0.000 C 
BRANCH  12  13
ATOM     13  C   UNL     1      75.123  13.069  15.994  1.00  0.00    -0.003 C 
ATOM     14  C   UNL     1      76.360  12.235  15.670  1.00  0.00     0.004 C 
ENDBRANCH  12  13
ENDBRANCH  11  12
ENDBRANCH  10  11
ENDBRANCH   9  10
ENDBRANCH   1   9
TORSDOF 10
ENDMDL
MODEL 9
REMARK VINA RESULT:    -4.643      2.379      3.554
REMARK INTER + INTRA:          -8.266
REMARK INTER:                  -7.379
REMARK INTRA:                  -0.887
REMARK UNBOUND:                -0.908
REMARK SMILES CCCCCCCCCCCC(=O)[O-]
REMARK SMILES IDX 7 1 8 2 9 3 10 4 11 5 12 6 13 7 14 8 6 9 5 10 4 11 3 12 2 13
REMARK SMILES IDX 1 14
REMARK H PARENT
REMARK Flexibility Score: inf
ROOT
ATOM      1  C   UNL     1      75.908  12.436  19.562  1.00  0.00     0.000 C 
ENDROOT
BRANCH   1   2
ATOM      2  C   UNL     1      74.419  12.103  19.387  1.00  0.00     0.000 C 
BRANCH   2   3
ATOM      3  C   UNL     1      73.769  13.023  18.346  1.00  0.00     0.000 C 
BRANCH   3   4
ATOM      4  C   UNL     1      74.754  13.358  17.217  1.00  0.00     0.006 C 
BRANCH   4   5
ATOM      5  C   UNL     1      74.741  14.850  16.857  1.00  0.00     0.053 C 
BRANCH   5   6
ATOM      6  C   UNL     1      75.203  15.088  15.453  1.00  0.00     0.041 C 
ATOM      7  O   UNL     1      75.586  14.123  14.740  1.00  0.00    -0.550 OA
ATOM      8  O   UNL     1      75.179  16.370  14.919  1.00  0.00    -0.550 OA
ENDBRANCH   5   6
ENDBRANCH   4   5
ENDBRANCH   3   4
ENDBRANCH   2   3
ENDBRANCH   1   2
BRANCH   1   9
ATOM      9  C   UNL     1      76.637  11.437  20.474  1.00  0.00     0.000 C 
BRANCH   9  10
ATOM     10  C   UNL     1      76.965  10.114  19.760  1.00  0.00    -0.000 C 
BRANCH  10  11
ATOM     11  C   UNL     1      77.620  10.344  18.386  1.00  0.00    -0.000 C 
BRANCH  11  12
ATOM     12  C   UNL     1      77.370   9.188  17.392  1.00  0.00    -0.000 C 
BRANCH  12  13
ATOM     13  C   UNL     1      77.585   9.586  15.923  1.00  0.00    -0.003 C 
ATOM     14  C   UNL     1      77.213  11.040  15.641  1.00  0.00     0.004 C 
ENDBRANCH  12  13
ENDBRANCH  11  12
ENDBRANCH  10  11
ENDBRANCH   9  10
ENDBRANCH   1   9
TORSDOF 10
ENDMDL
