MODEL 1
REMARK VINA RESULT:    -4.396      0.000      0.000
REMARK INTER + INTRA:         -10.598
REMARK INTER:                  -8.509
REMARK INTRA:                  -2.089
REMARK UNBOUND:                -2.089
REMARK SMILES CCCCCCCCCCCCCCCCCC(=O)[O-]
REMARK SMILES IDX 10 1 11 2 12 3 13 4 14 5 15 6 16 7 17 8 18 9 19 10 20 11
REMARK SMILES IDX 9 12 8 13 7 14 6 15 5 16 4 17 3 18 2 19 1 20
REMARK H PARENT
REMARK Flexibility Score: inf
ROOT
ATOM      1  C   UNL     1       4.751  -3.377  45.386  1.00  0.00     0.000 C 
ENDROOT
BRANCH   1   2
ATOM      2  C   UNL     1       5.234  -4.094  46.658  1.00  0.00     0.000 C 
BRANCH   2   3
ATOM      3  C   UNL     1       4.988  -5.617  46.603  1.00  0.00     0.000 C 
BRANCH   3   4
ATOM      4  C   UNL     1       4.004  -6.125  47.674  1.00  0.00     0.000 C 
BRANCH   4   5
ATOM      5  C   UNL     1       3.446  -5.035  48.609  1.00  0.00     0.000 C 
BRANCH   5   6
ATOM      6  C   UNL     1       3.965  -5.091  50.060  1.00  0.00     0.000 C 
BRANCH   6   7
ATOM      7  C   UNL     1       5.470  -4.809  50.235  1.00  0.00     0.006 C 
BRANCH   7   8
ATOM      8  C   UNL     1       5.800  -3.887  51.425  1.00  0.00     0.053 C 
BRANCH   8   9
ATOM      9  C   UNL     1       5.904  -2.449  51.021  1.00  0.00     0.041 C 
ATOM     10  O   UNL     1       5.343  -2.042  49.969  1.00  0.00    -0.550 OA
ATOM     11  O   UNL     1       6.653  -1.561  51.785  1.00  0.00    -0.550 OA
ENDBRANCH   8   9
ENDBRANCH   7   8
ENDBRANCH   6   7
ENDBRANCH   5   6
ENDBRANCH   4   5
ENDBRANCH   3   4
ENDBRANCH   2   3
ENDBRANCH   1   2
BRANCH   1  12
ATOM     12  C   UNL     1       5.245  -1.924  45.300  1.00  0.00     0.000 C 
BRANCH  12  13
ATOM     13  C   UNL     1       5.423  -1.275  46.681  1.00  0.00    -0.000 C 
BRANCH  13  14
ATOM     14  C   UNL     1       6.774  -0.551  46.775  1.00  0.00    -0.000 C 
BRANCH  14  15
ATOM     15  C   UNL     1       7.772  -1.263  47.706  1.00  0.00    -0.000 C 
BRANCH  15  16
ATOM     16  C   UNL     1       8.525  -2.451  47.071  1.00  0.00    -0.000 C 
BRANCH  16  17
ATOM     17  C   UNL     1       9.554  -3.136  47.988  1.00  0.00    -0.000 C 
BRANCH  17  18
ATOM     18  C   UNL     1       8.909  -3.814  49.206  1.00  0.00    -0.000 C 
BRANCH  18  19
ATOM     19  C   UNL     1       8.983  -5.341  49.085  1.00  0.00    -0.003 C 
ATOM     20  C   UNL     1       8.424  -5.816  47.747  1.00  0.00     0.004 C 
ENDBRANCH  18  19
ENDBRANCH  17  18
ENDBRANCH  16  17
ENDBRANCH  15  16
ENDBRANCH  14  15
ENDBRANCH  13  14
ENDBRANCH  12  13
ENDBRANCH   1  12
TORSDOF 16
ENDMDL
MODEL 2
REMARK VINA RESULT:    -4.393      3.647      5.886
REMARK INTER + INTRA:         -10.591
REMARK INTER:                  -8.599
REMARK INTRA:                  -1.991
REMARK UNBOUND:                -2.089
REMARK SMILES CCCCCCCCCCCCCCCCCC(=O)[O-]
REMARK SMILES IDX 10 1 11 2 12 3 13 4 14 5 15 6 16 7 17 8 18 9 19 10 20 11
REMARK SMILES IDX 9 12 8 13 7 14 6 15 5 16 4 17 3 18 2 19 1 20
REMARK H PARENT
REMARK Flexibility Score: inf
ROOT
ATOM      1  C   UNL     1       5.522  -3.479  50.421  1.00  0.00     0.000 C 
ENDROOT
BRANCH   1   2
ATOM      2  C   UNL     1       5.750  -1.960  50.496  1.00  0.00     0.000 C 
BRANCH   2   3
ATOM      3  C   UNL     1       7.106  -1.600  51.142  1.00  0.00     0.000 C 
BRANCH   3   4
ATOM      4  C   UNL     1       7.031  -1.404  52.668  1.00  0.00     0.000 C 
BRANCH   4   5
ATOM      5  C   UNL     1       7.284   0.037  53.149  1.00  0.00     0.000 C 
BRANCH   5   6
ATOM      6  C   UNL     1       8.444   0.198  54.152  1.00  0.00     0.000 C 
BRANCH   6   7
ATOM      7  C   UNL     1       8.450   1.515  54.951  1.00  0.00     0.006 C 
BRANCH   7   8
ATOM      8  C   UNL     1       7.434   2.558  54.448  1.00  0.00     0.053 C 
BRANCH   8   9
ATOM      9  C   UNL     1       8.096   3.726  53.785  1.00  0.00     0.041 C 
ATOM     10  O   UNL     1       7.584   4.875  53.863  1.00  0.00    -0.550 OA
ATOM     11  O   UNL     1       9.259   3.544  53.046  1.00  0.00    -0.550 OA
ENDBRANCH   8   9
ENDBRANCH   7   8
ENDBRANCH   6   7
ENDBRANCH   5   6
ENDBRANCH   4   5
ENDBRANCH   3   4
ENDBRANCH   2   3
ENDBRANCH   1   2
BRANCH   1  12
ATOM     12  C   UNL     1       5.178  -3.958  49.002  1.00  0.00     0.000 C 
BRANCH  12  13
ATOM     13  C   UNL     1       6.129  -5.055  48.499  1.00  0.00    -0.000 C 
BRANCH  13  14
ATOM     14  C   UNL     1       7.502  -4.940  49.177  1.00  0.00    -0.000 C 
BRANCH  14  15
ATOM     15  C   UNL     1       8.652  -4.747  48.171  1.00  0.00    -0.000 C 
BRANCH  15  16
ATOM     16  C   UNL     1       9.667  -3.646  48.543  1.00  0.00    -0.000 C 
BRANCH  16  17
ATOM     17  C   UNL     1       9.159  -2.204  48.366  1.00  0.00    -0.000 C 
BRANCH  17  18
ATOM     18  C   UNL     1       8.138  -2.067  47.228  1.00  0.00    -0.000 C 
BRANCH  18  19
ATOM     19  C   UNL     1       7.400  -0.725  47.312  1.00  0.00    -0.003 C 
ATOM     20  C   UNL     1       5.923  -0.885  46.963  1.00  0.00     0.004 C 
ENDBRANCH  18  19
ENDBRANCH  17  18
ENDBRANCH  16  17
ENDBRANCH  15  16
ENDBRANCH  14  15
ENDBRANCH  13  14
ENDBRANCH  12  13
ENDBRANCH   1  12
TORSDOF 16
ENDMDL
MODEL 3
REMARK VINA RESULT:    -4.377      2.838      4.683
REMARK INTER + INTRA:         -10.561
REMARK INTER:                  -8.193
REMARK INTRA:                  -2.368
REMARK UNBOUND:                -2.089
REMARK SMILES CCCCCCCCCCCCCCCCCC(=O)[O-]
REMARK SMILES IDX 10 1 11 2 12 3 13 4 14 5 15 6 16 7 17 8 18 9 19 10 20 11
REMARK SMILES IDX 9 12 8 13 7 14 6 15 5 16 4 17 3 18 2 19 1 20
REMARK H PARENT
REMARK Flexibility Score: inf
ROOT
ATOM      1  C   UNL     1       6.291  -4.864  48.807  1.00  0.00     0.000 C 
ENDROOT
BRANCH   1   2
ATOM      2  C   UNL     1       6.375  -4.171  50.177  1.00  0.00     0.000 C 
BRANCH   2   3
ATOM      3  C   UNL     1       5.272  -3.107  50.366  1.00  0.00     0.000 C 
BRANCH   3   4
ATOM      4  C   UNL     1       5.818  -1.688  50.616  1.00  0.00     0.000 C 
BRANCH   4   5
ATOM      5  C   UNL     1       7.166  -1.634  51.358  1.00  0.00     0.000 C 
BRANCH   5   6
ATOM      6  C   UNL     1       7.070  -1.333  52.867  1.00  0.00     0.000 C 
BRANCH   6   7
ATOM      7  C   UNL     1       7.388   0.119  53.273  1.00  0.00     0.006 C 
BRANCH   7   8
ATOM      8  C   UNL     1       8.577   0.252  54.244  1.00  0.00     0.053 C 
BRANCH   8   9
ATOM      9  C   UNL     1       8.606   1.581  54.934  1.00  0.00     0.041 C 
ATOM     10  O   UNL     1       9.681   2.235  55.009  1.00  0.00    -0.550 OA
ATOM     11  O   UNL     1       7.456   2.084  55.529  1.00  0.00    -0.550 OA
ENDBRANCH   8   9
ENDBRANCH   7   8
ENDBRANCH   6   7
ENDBRANCH   5   6
ENDBRANCH   4   5
ENDBRANCH   3   4
ENDBRANCH   2   3
ENDBRANCH   1   2
BRANCH   1  12
ATOM     12  C   UNL     1       4.857  -4.916  48.255  1.00  0.00     0.000 C 
BRANCH  12  13
ATOM     13  C   UNL     1       4.787  -4.594  46.755  1.00  0.00    -0.000 C 
BRANCH  13  14
ATOM     14  C   UNL     1       5.661  -3.378  46.415  1.00  0.00    -0.000 C 
BRANCH  14  15
ATOM     15  C   UNL     1       4.986  -2.039  46.765  1.00  0.00    -0.000 C 
BRANCH  15  16
ATOM     16  C   UNL     1       5.956  -0.880  47.073  1.00  0.00    -0.000 C 
BRANCH  16  17
ATOM     17  C   UNL     1       7.433  -1.159  46.740  1.00  0.00    -0.000 C 
BRANCH  17  18
ATOM     18  C   UNL     1       8.247  -1.597  47.966  1.00  0.00    -0.000 C 
BRANCH  18  19
ATOM     19  C   UNL     1       9.212  -2.734  47.606  1.00  0.00    -0.003 C 
ATOM     20  C   UNL     1       9.900  -3.288  48.850  1.00  0.00     0.004 C 
ENDBRANCH  18  19
ENDBRANCH  17  18
ENDBRANCH  16  17
ENDBRANCH  15  16
ENDBRANCH  14  15
ENDBRANCH  13  14
ENDBRANCH  12  13
ENDBRANCH   1  12
TORSDOF 16
ENDMDL
MODEL 4
REMARK VINA RESULT:    -4.345      4.274      6.696
REMARK INTER + INTRA:         -10.499
REMARK INTER:                  -8.722
REMARK INTRA:                  -1.777
REMARK UNBOUND:                -2.089
REMARK SMILES CCCCCCCCCCCCCCCCCC(=O)[O-]
REMARK SMILES IDX 10 1 11 2 12 3 13 4 14 5 15 6 16 7 17 8 18 9 19 10 20 11
REMARK SMILES IDX 9 12 8 13 7 14 6 15 5 16 4 17 3 18 2 19 1 20
REMARK H PARENT
REMARK Flexibility Score: inf
ROOT
ATOM      1  C   UNL     1       6.159  -1.624  50.538  1.00  0.00     0.000 C 
ENDROOT
BRANCH   1   2
ATOM      2  C   UNL     1       6.618  -1.778  51.997  1.00  0.00     0.000 C 
BRANCH   2   3
ATOM      3  C   UNL     1       6.673  -0.426  52.741  1.00  0.00     0.000 C 
BRANCH   3   4
ATOM      4  C   UNL     1       7.950  -0.233  53.582  1.00  0.00     0.000 C 
BRANCH   4   5
ATOM      5  C   UNL     1       8.074   1.143  54.263  1.00  0.00     0.000 C 
BRANCH   5   6
ATOM      6  C   UNL     1       6.995   2.169  53.865  1.00  0.00     0.000 C 
BRANCH   6   7
ATOM      7  C   UNL     1       7.416   3.647  53.972  1.00  0.00     0.006 C 
BRANCH   7   8
ATOM      8  C   UNL     1       7.221   4.450  52.671  1.00  0.00     0.053 C 
BRANCH   8   9
ATOM      9  C   UNL     1       8.493   5.079  52.192  1.00  0.00     0.041 C 
ATOM     10  O   UNL     1       9.434   4.360  51.761  1.00  0.00    -0.550 OA
ATOM     11  O   UNL     1       8.658   6.457  52.256  1.00  0.00    -0.550 OA
ENDBRANCH   8   9
ENDBRANCH   7   8
ENDBRANCH   6   7
ENDBRANCH   5   6
ENDBRANCH   4   5
ENDBRANCH   3   4
ENDBRANCH   2   3
ENDBRANCH   1   2
BRANCH   1  12
ATOM     12  C   UNL     1       5.465  -2.885  49.998  1.00  0.00     0.000 C 
BRANCH  12  13
ATOM     13  C   UNL     1       6.351  -4.137  50.091  1.00  0.00    -0.000 C 
BRANCH  13  14
ATOM     14  C   UNL     1       7.199  -4.301  48.822  1.00  0.00    -0.000 C 
BRANCH  14  15
ATOM     15  C   UNL     1       8.669  -3.891  49.026  1.00  0.00    -0.000 C 
BRANCH  15  16
ATOM     16  C   UNL     1       9.111  -2.634  48.247  1.00  0.00    -0.000 C 
BRANCH  16  17
ATOM     17  C   UNL     1       8.141  -2.179  47.141  1.00  0.00    -0.000 C 
BRANCH  17  18
ATOM     18  C   UNL     1       7.605  -0.758  47.366  1.00  0.00    -0.000 C 
BRANCH  18  19
ATOM     19  C   UNL     1       6.228  -0.583  46.712  1.00  0.00    -0.003 C 
ATOM     20  C   UNL     1       5.619  -1.931  46.340  1.00  0.00     0.004 C 
ENDBRANCH  18  19
ENDBRANCH  17  18
ENDBRANCH  16  17
ENDBRANCH  15  16
ENDBRANCH  14  15
ENDBRANCH  13  14
ENDBRANCH  12  13
ENDBRANCH   1  12
TORSDOF 16
ENDMDL
MODEL 5
REMARK VINA RESULT:    -4.301      3.642      6.266
REMARK INTER + INTRA:         -10.414
REMARK INTER:                  -8.780
REMARK INTRA:                  -1.634
REMARK UNBOUND:                -2.089
REMARK SMILES CCCCCCCCCCCCCCCCCC(=O)[O-]
REMARK SMILES IDX 10 1 11 2 12 3 13 4 14 5 15 6 16 7 17 8 18 9 19 10 20 11
REMARK SMILES IDX 9 12 8 13 7 14 6 15 5 16 4 17 3 18 2 19 1 20
REMARK H PARENT
REMARK Flexibility Score: inf
ROOT
ATOM      1  C   UNL     1       6.061  -3.853  49.784  1.00  0.00     0.000 C 
ENDROOT
BRANCH   1   2
ATOM      2  C   UNL     1       4.984  -4.233  48.754  1.00  0.00     0.000 C 
BRANCH   2   3
ATOM      3  C   UNL     1       5.238  -3.588  47.375  1.00  0.00     0.000 C 
BRANCH   3   4
ATOM      4  C   UNL     1       5.045  -2.060  47.361  1.00  0.00     0.000 C 
BRANCH   4   5
ATOM      5  C   UNL     1       5.989  -1.296  46.413  1.00  0.00     0.000 C 
BRANCH   5   6
ATOM      6  C   UNL     1       7.144  -0.546  47.106  1.00  0.00     0.000 C 
BRANCH   6   7
ATOM      7  C   UNL     1       8.086  -1.421  47.956  1.00  0.00     0.006 C 
BRANCH   7   8
ATOM      8  C   UNL     1       8.783  -2.543  47.163  1.00  0.00     0.053 C 
BRANCH   8   9
ATOM      9  C   UNL     1       9.271  -3.649  48.048  1.00  0.00     0.041 C 
ATOM     10  O   UNL     1      10.112  -3.412  48.956  1.00  0.00    -0.550 OA
ATOM     11  O   UNL     1       8.829  -4.951  47.847  1.00  0.00    -0.550 OA
ENDBRANCH   8   9
ENDBRANCH   7   8
ENDBRANCH   6   7
ENDBRANCH   5   6
ENDBRANCH   4   5
ENDBRANCH   3   4
ENDBRANCH   2   3
ENDBRANCH   1   2
BRANCH   1  12
ATOM     12  C   UNL     1       5.498  -3.036  50.958  1.00  0.00     0.000 C 
BRANCH  12  13
ATOM     13  C   UNL     1       6.117  -1.634  51.057  1.00  0.00    -0.000 C 
BRANCH  13  14
ATOM     14  C   UNL     1       6.999  -1.513  52.308  1.00  0.00    -0.000 C 
BRANCH  14  15
ATOM     15  C   UNL     1       6.894  -0.133  52.984  1.00  0.00    -0.000 C 
BRANCH  15  16
ATOM     16  C   UNL     1       8.107   0.264  53.851  1.00  0.00    -0.000 C 
BRANCH  16  17
ATOM     17  C   UNL     1       8.003   1.646  54.522  1.00  0.00    -0.000 C 
BRANCH  17  18
ATOM     18  C   UNL     1       6.916   2.532  53.897  1.00  0.00    -0.000 C 
BRANCH  18  19
ATOM     19  C   UNL     1       7.524   3.807  53.300  1.00  0.00    -0.003 C 
ATOM     20  C   UNL     1       8.924   4.060  53.852  1.00  0.00     0.004 C 
ENDBRANCH  18  19
ENDBRANCH  17  18
ENDBRANCH  16  17
ENDBRANCH  15  16
ENDBRANCH  14  15
ENDBRANCH  13  14
ENDBRANCH  12  13
ENDBRANCH   1  12
TORSDOF 16
ENDMDL
MODEL 6
REMARK VINA RESULT:    -4.292      3.738      6.457
REMARK INTER + INTRA:         -10.396
REMARK INTER:                  -8.599
REMARK INTRA:                  -1.797
REMARK UNBOUND:                -2.089
REMARK SMILES CCCCCCCCCCCCCCCCCC(=O)[O-]
REMARK SMILES IDX 10 1 11 2 12 3 13 4 14 5 15 6 16 7 17 8 18 9 19 10 20 11
REMARK SMILES IDX 9 12 8 13 7 14 6 15 5 16 4 17 3 18 2 19 1 20
REMARK H PARENT
REMARK Flexibility Score: inf
ROOT
ATOM      1  C   UNL     1       5.387  -3.022  49.897  1.00  0.00     0.000 C 
ENDROOT
BRANCH   1   2
ATOM      2  C   UNL     1       5.778  -4.364  49.255  1.00  0.00     0.000 C 
BRANCH   2   3
ATOM      3  C   UNL     1       7.181  -4.837  49.691  1.00  0.00     0.000 C 
BRANCH   3   4
ATOM      4  C   UNL     1       8.106  -5.199  48.513  1.00  0.00     0.000 C 
BRANCH   4   5
ATOM      5  C   UNL     1       9.154  -4.127  48.159  1.00  0.00     0.000 C 
BRANCH   5   6
ATOM      6  C   UNL     1       9.033  -2.809  48.949  1.00  0.00     0.000 C 
BRANCH   6   7
ATOM      7  C   UNL     1       8.366  -1.644  48.193  1.00  0.00     0.006 C 
BRANCH   7   8
ATOM      8  C   UNL     1       7.955  -1.988  46.749  1.00  0.00     0.053 C 
BRANCH   8   9
ATOM      9  C   UNL     1       6.489  -1.790  46.510  1.00  0.00     0.041 C 
ATOM     10  O   UNL     1       5.771  -2.754  46.132  1.00  0.00    -0.550 OA
ATOM     11  O   UNL     1       5.920  -0.532  46.666  1.00  0.00    -0.550 OA
ENDBRANCH   8   9
ENDBRANCH   7   8
ENDBRANCH   6   7
ENDBRANCH   5   6
ENDBRANCH   4   5
ENDBRANCH   3   4
ENDBRANCH   2   3
ENDBRANCH   1   2
BRANCH   1  12
ATOM     12  C   UNL     1       6.059  -2.799  51.262  1.00  0.00     0.000 C 
BRANCH  12  13
ATOM     13  C   UNL     1       6.514  -1.346  51.469  1.00  0.00    -0.000 C 
BRANCH  13  14
ATOM     14  C   UNL     1       7.373  -1.218  52.735  1.00  0.00    -0.000 C 
BRANCH  14  15
ATOM     15  C   UNL     1       7.284   0.177  53.380  1.00  0.00    -0.000 C 
BRANCH  15  16
ATOM     16  C   UNL     1       8.524   0.600  54.196  1.00  0.00    -0.000 C 
BRANCH  16  17
ATOM     17  C   UNL     1       8.613   2.103  54.515  1.00  0.00    -0.000 C 
BRANCH  17  18
ATOM     18  C   UNL     1       7.313   2.858  54.197  1.00  0.00    -0.000 C 
BRANCH  18  19
ATOM     19  C   UNL     1       7.564   3.973  53.174  1.00  0.00    -0.003 C 
ATOM     20  C   UNL     1       6.404   4.964  53.144  1.00  0.00     0.004 C 
ENDBRANCH  18  19
ENDBRANCH  17  18
ENDBRANCH  16  17
ENDBRANCH  15  16
ENDBRANCH  14  15
ENDBRANCH  13  14
ENDBRANCH  12  13
ENDBRANCH   1  12
TORSDOF 16
ENDMDL
MODEL 7
REMARK VINA RESULT:    -4.285     13.808     14.905
REMARK INTER + INTRA:         -10.382
REMARK INTER:                  -8.518
REMARK INTRA:                  -1.864
REMARK UNBOUND:                -2.089
REMARK SMILES CCCCCCCCCCCCCCCCCC(=O)[O-]
REMARK SMILES IDX 10 1 11 2 12 3 13 4 14 5 15 6 16 7 17 8 18 9 19 10 20 11
REMARK SMILES IDX 9 12 8 13 7 14 6 15 5 16 4 17 3 18 2 19 1 20
REMARK H PARENT
REMARK Flexibility Score: inf
ROOT
ATOM      1  C   UNL     1       1.306   9.402  46.767  1.00  0.00     0.000 C 
ENDROOT
BRANCH   1   2
ATOM      2  C   UNL     1       0.824   8.808  48.101  1.00  0.00     0.000 C 
BRANCH   2   3
ATOM      3  C   UNL     1      -0.716   8.746  48.194  1.00  0.00     0.000 C 
BRANCH   3   4
ATOM      4  C   UNL     1      -1.432   9.194  46.906  1.00  0.00     0.000 C 
BRANCH   4   5
ATOM      5  C   UNL     1      -2.590   8.282  46.459  1.00  0.00     0.000 C 
BRANCH   5   6
ATOM      6  C   UNL     1      -2.464   7.720  45.029  1.00  0.00     0.000 C 
BRANCH   6   7
ATOM      7  C   UNL     1      -1.032   7.674  44.460  1.00  0.00     0.006 C 
BRANCH   7   8
ATOM      8  C   UNL     1      -0.916   8.187  43.013  1.00  0.00     0.053 C 
BRANCH   8   9
ATOM      9  C   UNL     1      -1.077   7.092  42.003  1.00  0.00     0.041 C 
ATOM     10  O   UNL     1      -1.050   7.355  40.771  1.00  0.00    -0.550 OA
ATOM     11  O   UNL     1      -1.298   5.785  42.420  1.00  0.00    -0.550 OA
ENDBRANCH   8   9
ENDBRANCH   7   8
ENDBRANCH   6   7
ENDBRANCH   5   6
ENDBRANCH   4   5
ENDBRANCH   3   4
ENDBRANCH   2   3
ENDBRANCH   1   2
BRANCH   1  12
ATOM     12  C   UNL     1       2.504  10.351  46.939  1.00  0.00     0.000 C 
BRANCH  12  13
ATOM     13  C   UNL     1       2.080  11.785  47.290  1.00  0.00    -0.000 C 
BRANCH  13  14
ATOM     14  C   UNL     1       2.451  12.124  48.741  1.00  0.00    -0.000 C 
BRANCH  14  15
ATOM     15  C   UNL     1       3.464  11.135  49.347  1.00  0.00    -0.000 C 
BRANCH  15  16
ATOM     16  C   UNL     1       4.854  11.729  49.655  1.00  0.00    -0.000 C 
BRANCH  16  17
ATOM     17  C   UNL     1       6.034  11.020  48.965  1.00  0.00    -0.000 C 
BRANCH  17  18
ATOM     18  C   UNL     1       6.714  11.894  47.901  1.00  0.00    -0.000 C 
BRANCH  18  19
ATOM     19  C   UNL     1       5.841  12.006  46.645  1.00  0.00    -0.003 C 
ATOM     20  C   UNL     1       5.924  10.738  45.800  1.00  0.00     0.004 C 
ENDBRANCH  18  19
ENDBRANCH  17  18
ENDBRANCH  16  17
ENDBRANCH  15  16
ENDBRANCH  14  15
ENDBRANCH  13  14
ENDBRANCH  12  13
ENDBRANCH   1  12
TORSDOF 16
ENDMDL
MODEL 8
REMARK VINA RESULT:    -4.282      3.293      5.372
REMARK INTER + INTRA:         -10.377
REMARK INTER:                  -8.306
REMARK INTRA:                  -2.071
REMARK UNBOUND:                -2.089
REMARK SMILES CCCCCCCCCCCCCCCCCC(=O)[O-]
REMARK SMILES IDX 10 1 11 2 12 3 13 4 14 5 15 6 16 7 17 8 18 9 19 10 20 11
REMARK SMILES IDX 9 12 8 13 7 14 6 15 5 16 4 17 3 18 2 19 1 20
REMARK H PARENT
REMARK Flexibility Score: inf
ROOT
ATOM      1  C   UNL     1       7.297  -1.478  48.342  1.00  0.00     0.000 C 
ENDROOT
BRANCH   1   2
ATOM      2  C   UNL     1       6.018  -2.268  48.668  1.00  0.00     0.000 C 
BRANCH   2   3
ATOM      3  C   UNL     1       5.570  -2.081  50.133  1.00  0.00     0.000 C 
BRANCH   3   4
ATOM      4  C   UNL     1       6.739  -1.989  51.132  1.00  0.00     0.000 C 
BRANCH   4   5
ATOM      5  C   UNL     1       6.599  -0.881  52.193  1.00  0.00     0.000 C 
BRANCH   5   6
ATOM      6  C   UNL     1       7.685  -0.883  53.287  1.00  0.00     0.000 C 
BRANCH   6   7
ATOM      7  C   UNL     1       7.965   0.483  53.943  1.00  0.00     0.006 C 
BRANCH   7   8
ATOM      8  C   UNL     1       8.961   0.421  55.117  1.00  0.00     0.053 C 
BRANCH   8   9
ATOM      9  C   UNL     1       9.959   1.537  55.078  1.00  0.00     0.041 C 
ATOM     10  O   UNL     1      10.800   1.605  54.143  1.00  0.00    -0.550 OA
ATOM     11  O   UNL     1       9.988   2.484  56.096  1.00  0.00    -0.550 OA
ENDBRANCH   8   9
ENDBRANCH   7   8
ENDBRANCH   6   7
ENDBRANCH   5   6
ENDBRANCH   4   5
ENDBRANCH   3   4
ENDBRANCH   2   3
ENDBRANCH   1   2
BRANCH   1  12
ATOM     12  C   UNL     1       8.135  -2.137  47.234  1.00  0.00     0.000 C 
BRANCH  12  13
ATOM     13  C   UNL     1       9.437  -2.756  47.765  1.00  0.00    -0.000 C 
BRANCH  13  14
ATOM     14  C   UNL     1       9.142  -3.981  48.643  1.00  0.00    -0.000 C 
BRANCH  14  15
ATOM     15  C   UNL     1       8.426  -5.108  47.876  1.00  0.00    -0.000 C 
BRANCH  15  16
ATOM     16  C   UNL     1       7.275  -5.791  48.644  1.00  0.00    -0.000 C 
BRANCH  16  17
ATOM     17  C   UNL     1       7.304  -5.597  50.171  1.00  0.00    -0.000 C 
BRANCH  17  18
ATOM     18  C   UNL     1       5.925  -5.776  50.821  1.00  0.00    -0.000 C 
BRANCH  18  19
ATOM     19  C   UNL     1       4.845  -6.013  49.758  1.00  0.00    -0.003 C 
ATOM     20  C   UNL     1       3.610  -5.157  50.025  1.00  0.00     0.004 C 
ENDBRANCH  18  19
ENDBRANCH  17  18
ENDBRANCH  16  17
ENDBRANCH  15  16
ENDBRANCH  14  15
ENDBRANCH  13  14
ENDBRANCH  12  13
ENDBRANCH   1  12
TORSDOF 16
ENDMDL
MODEL 9
REMARK VINA RESULT:    -4.265     14.118     15.490
REMARK INTER + INTRA:         -10.344
REMARK INTER:                  -7.889
REMARK INTRA:                  -2.455
REMARK UNBOUND:                -2.089
REMARK SMILES CCCCCCCCCCCCCCCCCC(=O)[O-]
REMARK SMILES IDX 10 1 11 2 12 3 13 4 14 5 15 6 16 7 17 8 18 9 19 10 20 11
REMARK SMILES IDX 9 12 8 13 7 14 6 15 5 16 4 17 3 18 2 19 1 20
REMARK H PARENT
REMARK Flexibility Score: inf
ROOT
ATOM      1  C   UNL     1      -0.766   9.439  44.428  1.00  0.00     0.000 C 
ENDROOT
BRANCH   1   2
ATOM      2  C   UNL     1      -1.080   7.935  44.483  1.00  0.00     0.000 C 
BRANCH   2   3
ATOM      3  C   UNL     1      -2.598   7.651  44.487  1.00  0.00     0.000 C 
BRANCH   3   4
ATOM      4  C   UNL     1      -3.037   6.617  43.434  1.00  0.00     0.000 C 
BRANCH   4   5
ATOM      5  C   UNL     1      -1.883   5.945  42.666  1.00  0.00     0.000 C 
BRANCH   5   6
ATOM      6  C   UNL     1      -2.155   5.692  41.169  1.00  0.00     0.000 C 
BRANCH   6   7
ATOM      7  C   UNL     1      -1.328   6.550  40.192  1.00  0.00     0.006 C 
BRANCH   7   8
ATOM      8  C   UNL     1      -0.452   7.614  40.880  1.00  0.00     0.053 C 
BRANCH   8   9
ATOM      9  C   UNL     1      -0.992   9.000  40.701  1.00  0.00     0.041 C 
ATOM     10  O   UNL     1      -2.157   9.283  41.087  1.00  0.00    -0.550 OA
ATOM     11  O   UNL     1      -0.223   9.973  40.074  1.00  0.00    -0.550 OA
ENDBRANCH   8   9
ENDBRANCH   7   8
ENDBRANCH   6   7
ENDBRANCH   5   6
ENDBRANCH   4   5
ENDBRANCH   3   4
ENDBRANCH   2   3
ENDBRANCH   1   2
BRANCH   1  12
ATOM     12  C   UNL     1      -1.833  10.295  45.131  1.00  0.00     0.000 C 
BRANCH  12  13
ATOM     13  C   UNL     1      -1.225  11.341  46.077  1.00  0.00    -0.000 C 
BRANCH  13  14
ATOM     14  C   UNL     1      -1.539  11.002  47.541  1.00  0.00    -0.000 C 
BRANCH  14  15
ATOM     15  C   UNL     1      -1.956   9.532  47.739  1.00  0.00    -0.000 C 
BRANCH  15  16
ATOM     16  C   UNL     1      -0.875   8.625  48.363  1.00  0.00    -0.000 C 
BRANCH  16  17
ATOM     17  C   UNL     1       0.562   8.898  47.882  1.00  0.00    -0.000 C 
BRANCH  17  18
ATOM     18  C   UNL     1       1.441   9.543  48.964  1.00  0.00    -0.000 C 
BRANCH  18  19
ATOM     19  C   UNL     1       2.195  10.756  48.405  1.00  0.00    -0.003 C 
ATOM     20  C   UNL     1       2.375  10.645  46.894  1.00  0.00     0.004 C 
ENDBRANCH  18  19
ENDBRANCH  17  18
ENDBRANCH  16  17
ENDBRANCH  15  16
ENDBRANCH  14  15
ENDBRANCH  13  14
ENDBRANCH  12  13
ENDBRANCH   1  12
TORSDOF 16
ENDMDL
