MODEL 1
REMARK VINA RESULT:    -6.019      0.000      0.000
REMARK INTER + INTRA:         -19.563
REMARK INTER:                 -15.872
REMARK INTRA:                  -3.690
REMARK UNBOUND:                -3.690
REMARK SMILES CCCCCCCCCCCCCCCCCCCCCCCCCCCCCC(=O)[O-]
REMARK SMILES IDX 16 1 17 2 18 3 19 4 20 5 21 6 22 7 23 8 24 9 25 10 26 11
REMARK SMILES IDX 27 12 28 13 29 14 30 15 31 16 32 17 15 18 14 19 13 20 12 21
REMARK SMILES IDX 11 22 10 23 9 24 8 25 7 26 6 27 5 28 4 29 3 30 2 31 1 32
REMARK H PARENT
REMARK Flexibility Score: inf
ROOT
ATOM      1  C   UNL     1      46.846 -13.345 -38.718  1.00  0.00     0.000 C 
ENDROOT
BRANCH   1   2
ATOM      2  C   UNL     1      45.430 -12.853 -39.053  1.00  0.00     0.000 C 
BRANCH   2   3
ATOM      3  C   UNL     1      45.382 -11.353 -39.398  1.00  0.00     0.000 C 
BRANCH   3   4
ATOM      4  C   UNL     1      44.158 -10.915 -40.223  1.00  0.00     0.000 C 
BRANCH   4   5
ATOM      5  C   UNL     1      43.738 -11.956 -41.270  1.00  0.00     0.000 C 
BRANCH   5   6
ATOM      6  C   UNL     1      43.546 -11.301 -42.647  1.00  0.00     0.000 C 
BRANCH   6   7
ATOM      7  C   UNL     1      43.234 -12.322 -43.758  1.00  0.00     0.000 C 
BRANCH   7   8
ATOM      8  C   UNL     1      42.284 -11.813 -44.860  1.00  0.00     0.000 C 
BRANCH   8   9
ATOM      9  C   UNL     1      40.782 -11.926 -44.536  1.00  0.00     0.000 C 
BRANCH   9  10
ATOM     10  C   UNL     1      40.072 -10.566 -44.367  1.00  0.00     0.000 C 
BRANCH  10  11
ATOM     11  C   UNL     1      40.921  -9.389 -44.878  1.00  0.00     0.000 C 
BRANCH  11  12
ATOM     12  C   UNL     1      41.083  -8.281 -43.823  1.00  0.00     0.000 C 
BRANCH  12  13
ATOM     13  C   UNL     1      41.710  -8.800 -42.517  1.00  0.00     0.006 C 
BRANCH  13  14
ATOM     14  C   UNL     1      41.141  -8.091 -41.280  1.00  0.00     0.053 C 
BRANCH  14  15
ATOM     15  C   UNL     1      41.144  -8.979 -40.075  1.00  0.00     0.041 C 
ATOM     16  O   UNL     1      40.567 -10.098 -40.110  1.00  0.00    -0.550 OA
ATOM     17  O   UNL     1      41.809  -8.582 -38.921  1.00  0.00    -0.550 OA
ENDBRANCH  14  15
ENDBRANCH  13  14
ENDBRANCH  12  13
ENDBRANCH  11  12
ENDBRANCH  10  11
ENDBRANCH   9  10
ENDBRANCH   8   9
ENDBRANCH   7   8
ENDBRANCH   6   7
ENDBRANCH   5   6
ENDBRANCH   4   5
ENDBRANCH   3   4
ENDBRANCH   2   3
ENDBRANCH   1   2
BRANCH   1  18
ATOM     18  C   UNL     1      46.873 -14.062 -37.358  1.00  0.00     0.000 C 
BRANCH  18  19
ATOM     19  C   UNL     1      47.600 -13.255 -36.265  1.00  0.00     0.000 C 
BRANCH  19  20
ATOM     20  C   UNL     1      48.724 -14.012 -35.532  1.00  0.00     0.000 C 
BRANCH  20  21
ATOM     21  C   UNL     1      49.053 -13.411 -34.155  1.00  0.00     0.000 C 
BRANCH  21  22
ATOM     22  C   UNL     1      47.799 -13.131 -33.308  1.00  0.00     0.000 C 
BRANCH  22  23
ATOM     23  C   UNL     1      47.577 -14.099 -32.131  1.00  0.00     0.000 C 
BRANCH  23  24
ATOM     24  C   UNL     1      46.652 -15.275 -32.492  1.00  0.00    -0.000 C 
BRANCH  24  25
ATOM     25  C   UNL     1      45.682 -14.937 -33.635  1.00  0.00    -0.000 C 
BRANCH  25  26
ATOM     26  C   UNL     1      44.317 -15.628 -33.475  1.00  0.00    -0.000 C 
BRANCH  26  27
ATOM     27  C   UNL     1      43.473 -15.570 -34.758  1.00  0.00    -0.000 C 
BRANCH  27  28
ATOM     28  C   UNL     1      43.847 -14.383 -35.664  1.00  0.00    -0.000 C 
BRANCH  28  29
ATOM     29  C   UNL     1      43.119 -13.084 -35.276  1.00  0.00    -0.000 C 
BRANCH  29  30
ATOM     30  C   UNL     1      43.845 -11.791 -35.693  1.00  0.00    -0.000 C 
BRANCH  30  31
ATOM     31  C   UNL     1      43.067 -10.983 -36.742  1.00  0.00    -0.003 C 
ATOM     32  C   UNL     1      41.787 -11.705 -37.154  1.00  0.00     0.004 C 
ENDBRANCH  30  31
ENDBRANCH  29  30
ENDBRANCH  28  29
ENDBRANCH  27  28
ENDBRANCH  26  27
ENDBRANCH  25  26
ENDBRANCH  24  25
ENDBRANCH  23  24
ENDBRANCH  22  23
ENDBRANCH  21  22
ENDBRANCH  20  21
ENDBRANCH  19  20
ENDBRANCH  18  19
ENDBRANCH   1  18
TORSDOF 28
ENDMDL
MODEL 2
REMARK VINA RESULT:    -5.839      2.061      3.765
REMARK INTER + INTRA:         -19.086
REMARK INTER:                 -15.156
REMARK INTRA:                  -3.930
REMARK UNBOUND:                -3.690
REMARK SMILES CCCCCCCCCCCCCCCCCCCCCCCCCCCCCC(=O)[O-]
REMARK SMILES IDX 16 1 17 2 18 3 19 4 20 5 21 6 22 7 23 8 24 9 25 10 26 11
REMARK SMILES IDX 27 12 28 13 29 14 30 15 31 16 32 17 15 18 14 19 13 20 12 21
REMARK SMILES IDX 11 22 10 23 9 24 8 25 7 26 6 27 5 28 4 29 3 30 2 31 1 32
REMARK H PARENT
REMARK Flexibility Score: inf
ROOT
ATOM      1  C   UNL     1      45.392 -13.191 -39.535  1.00  0.00     0.000 C 
ENDROOT
BRANCH   1   2
ATOM      2  C   UNL     1      45.914 -11.758 -39.355  1.00  0.00     0.000 C 
BRANCH   2   3
ATOM      3  C   UNL     1      44.784 -10.723 -39.196  1.00  0.00     0.000 C 
BRANCH   3   4
ATOM      4  C   UNL     1      44.059 -10.757 -37.838  1.00  0.00     0.000 C 
BRANCH   4   5
ATOM      5  C   UNL     1      42.586 -11.171 -37.956  1.00  0.00     0.000 C 
BRANCH   5   6
ATOM      6  C   UNL     1      42.120 -11.129 -39.419  1.00  0.00     0.000 C 
BRANCH   6   7
ATOM      7  C   UNL     1      41.152  -9.965 -39.707  1.00  0.00     0.000 C 
BRANCH   7   8
ATOM      8  C   UNL     1      41.742  -8.827 -40.563  1.00  0.00     0.000 C 
BRANCH   8   9
ATOM      9  C   UNL     1      41.999  -9.183 -42.041  1.00  0.00     0.000 C 
BRANCH   9  10
ATOM     10  C   UNL     1      41.195  -8.326 -43.042  1.00  0.00     0.000 C 
BRANCH  10  11
ATOM     11  C   UNL     1      40.992  -9.033 -44.394  1.00  0.00     0.000 C 
BRANCH  11  12
ATOM     12  C   UNL     1      39.989 -10.195 -44.303  1.00  0.00     0.000 C 
BRANCH  12  13
ATOM     13  C   UNL     1      40.558 -11.509 -44.869  1.00  0.00     0.006 C 
BRANCH  13  14
ATOM     14  C   UNL     1      41.802 -11.978 -44.102  1.00  0.00     0.053 C 
BRANCH  14  15
ATOM     15  C   UNL     1      43.025 -11.982 -44.967  1.00  0.00     0.041 C 
ATOM     16  O   UNL     1      42.936 -11.694 -46.190  1.00  0.00    -0.550 OA
ATOM     17  O   UNL     1      44.266 -12.275 -44.415  1.00  0.00    -0.550 OA
ENDBRANCH  14  15
ENDBRANCH  13  14
ENDBRANCH  12  13
ENDBRANCH  11  12
ENDBRANCH  10  11
ENDBRANCH   9  10
ENDBRANCH   8   9
ENDBRANCH   7   8
ENDBRANCH   6   7
ENDBRANCH   5   6
ENDBRANCH   4   5
ENDBRANCH   3   4
ENDBRANCH   2   3
ENDBRANCH   1   2
BRANCH   1  18
ATOM     18  C   UNL     1      45.922 -14.114 -38.426  1.00  0.00     0.000 C 
BRANCH  18  19
ATOM     19  C   UNL     1      46.638 -13.349 -37.295  1.00  0.00     0.000 C 
BRANCH  19  20
ATOM     20  C   UNL     1      47.291 -14.234 -36.218  1.00  0.00     0.000 C 
BRANCH  20  21
ATOM     21  C   UNL     1      47.349 -13.557 -34.838  1.00  0.00     0.000 C 
BRANCH  21  22
ATOM     22  C   UNL     1      46.699 -14.402 -33.728  1.00  0.00     0.000 C 
BRANCH  22  23
ATOM     23  C   UNL     1      46.812 -13.813 -32.310  1.00  0.00     0.000 C 
BRANCH  23  24
ATOM     24  C   UNL     1      45.509 -13.147 -31.834  1.00  0.00    -0.000 C 
BRANCH  24  25
ATOM     25  C   UNL     1      44.264 -13.706 -32.543  1.00  0.00    -0.000 C 
BRANCH  25  26
ATOM     26  C   UNL     1      43.605 -12.676 -33.476  1.00  0.00    -0.000 C 
BRANCH  26  27
ATOM     27  C   UNL     1      42.724 -13.334 -34.551  1.00  0.00    -0.000 C 
BRANCH  27  28
ATOM     28  C   UNL     1      43.543 -13.913 -35.719  1.00  0.00    -0.000 C 
BRANCH  28  29
ATOM     29  C   UNL     1      43.810 -15.422 -35.571  1.00  0.00    -0.000 C 
BRANCH  29  30
ATOM     30  C   UNL     1      42.578 -16.256 -35.175  1.00  0.00    -0.000 C 
BRANCH  30  31
ATOM     31  C   UNL     1      42.941 -17.506 -34.360  1.00  0.00    -0.003 C 
ATOM     32  C   UNL     1      43.732 -17.136 -33.109  1.00  0.00     0.004 C 
ENDBRANCH  30  31
ENDBRANCH  29  30
ENDBRANCH  28  29
ENDBRANCH  27  28
ENDBRANCH  26  27
ENDBRANCH  25  26
ENDBRANCH  24  25
ENDBRANCH  23  24
ENDBRANCH  22  23
ENDBRANCH  21  22
ENDBRANCH  20  21
ENDBRANCH  19  20
ENDBRANCH  18  19
ENDBRANCH   1  18
TORSDOF 28
ENDMDL
MODEL 3
REMARK VINA RESULT:    -5.641      3.358      5.564
REMARK INTER + INTRA:         -18.566
REMARK INTER:                 -15.222
REMARK INTRA:                  -3.343
REMARK UNBOUND:                -3.690
REMARK SMILES CCCCCCCCCCCCCCCCCCCCCCCCCCCCCC(=O)[O-]
REMARK SMILES IDX 16 1 17 2 18 3 19 4 20 5 21 6 22 7 23 8 24 9 25 10 26 11
REMARK SMILES IDX 27 12 28 13 29 14 30 15 31 16 32 17 15 18 14 19 13 20 12 21
REMARK SMILES IDX 11 22 10 23 9 24 8 25 7 26 6 27 5 28 4 29 3 30 2 31 1 32
REMARK H PARENT
REMARK Flexibility Score: inf
ROOT
ATOM      1  C   UNL     1      47.069 -14.259 -36.275  1.00  0.00     0.000 C 
ENDROOT
BRANCH   1   2
ATOM      2  C   UNL     1      45.792 -14.185 -37.127  1.00  0.00     0.000 C 
BRANCH   2   3
ATOM      3  C   UNL     1      46.082 -14.043 -38.633  1.00  0.00     0.000 C 
BRANCH   3   4
ATOM      4  C   UNL     1      46.787 -12.735 -39.037  1.00  0.00     0.000 C 
BRANCH   4   5
ATOM      5  C   UNL     1      45.846 -11.734 -39.722  1.00  0.00     0.000 C 
BRANCH   5   6
ATOM      6  C   UNL     1      44.574 -12.434 -40.225  1.00  0.00     0.000 C 
BRANCH   6   7
ATOM      7  C   UNL     1      44.004 -11.793 -41.504  1.00  0.00     0.000 C 
BRANCH   7   8
ATOM      8  C   UNL     1      43.274 -10.452 -41.289  1.00  0.00     0.000 C 
BRANCH   8   9
ATOM      9  C   UNL     1      41.761 -10.565 -41.017  1.00  0.00     0.000 C 
BRANCH   9  10
ATOM     10  C   UNL     1      41.232  -9.547 -39.984  1.00  0.00     0.000 C 
BRANCH  10  11
ATOM     11  C   UNL     1      42.354  -8.944 -39.120  1.00  0.00     0.000 C 
BRANCH  11  12
ATOM     12  C   UNL     1      42.311  -9.450 -37.668  1.00  0.00     0.000 C 
BRANCH  12  13
ATOM     13  C   UNL     1      42.318 -10.987 -37.579  1.00  0.00     0.006 C 
BRANCH  13  14
ATOM     14  C   UNL     1      43.518 -11.515 -36.780  1.00  0.00     0.053 C 
BRANCH  14  15
ATOM     15  C   UNL     1      43.101 -12.096 -35.464  1.00  0.00     0.041 C 
ATOM     16  O   UNL     1      43.688 -11.752 -34.404  1.00  0.00    -0.550 OA
ATOM     17  O   UNL     1      42.045 -12.997 -35.406  1.00  0.00    -0.550 OA
ENDBRANCH  14  15
ENDBRANCH  13  14
ENDBRANCH  12  13
ENDBRANCH  11  12
ENDBRANCH  10  11
ENDBRANCH   9  10
ENDBRANCH   8   9
ENDBRANCH   7   8
ENDBRANCH   6   7
ENDBRANCH   5   6
ENDBRANCH   4   5
ENDBRANCH   3   4
ENDBRANCH   2   3
ENDBRANCH   1   2
BRANCH   1  18
ATOM     18  C   UNL     1      47.127 -13.099 -35.268  1.00  0.00     0.000 C 
BRANCH  18  19
ATOM     19  C   UNL     1      48.249 -13.263 -34.224  1.00  0.00     0.000 C 
BRANCH  19  20
ATOM     20  C   UNL     1      47.925 -14.214 -33.058  1.00  0.00     0.000 C 
BRANCH  20  21
ATOM     21  C   UNL     1      46.527 -13.978 -32.461  1.00  0.00     0.000 C 
BRANCH  21  22
ATOM     22  C   UNL     1      45.640 -15.236 -32.497  1.00  0.00     0.000 C 
BRANCH  22  23
ATOM     23  C   UNL     1      44.482 -15.188 -33.511  1.00  0.00     0.000 C 
BRANCH  23  24
ATOM     24  C   UNL     1      43.815 -16.559 -33.720  1.00  0.00    -0.000 C 
BRANCH  24  25
ATOM     25  C   UNL     1      43.013 -16.635 -35.029  1.00  0.00    -0.000 C 
BRANCH  25  26
ATOM     26  C   UNL     1      42.126 -17.890 -35.106  1.00  0.00    -0.000 C 
BRANCH  26  27
ATOM     27  C   UNL     1      42.675 -19.052 -34.262  1.00  0.00    -0.000 C 
BRANCH  27  28
ATOM     28  C   UNL     1      41.561 -19.915 -33.643  1.00  0.00    -0.000 C 
BRANCH  28  29
ATOM     29  C   UNL     1      41.419 -21.286 -34.327  1.00  0.00    -0.000 C 
BRANCH  29  30
ATOM     30  C   UNL     1      41.254 -22.473 -33.360  1.00  0.00    -0.000 C 
BRANCH  30  31
ATOM     31  C   UNL     1      40.461 -22.107 -32.097  1.00  0.00    -0.003 C 
ATOM     32  C   UNL     1      38.961 -22.273 -32.321  1.00  0.00     0.004 C 
ENDBRANCH  30  31
ENDBRANCH  29  30
ENDBRANCH  28  29
ENDBRANCH  27  28
ENDBRANCH  26  27
ENDBRANCH  25  26
ENDBRANCH  24  25
ENDBRANCH  23  24
ENDBRANCH  22  23
ENDBRANCH  21  22
ENDBRANCH  20  21
ENDBRANCH  19  20
ENDBRANCH  18  19
ENDBRANCH   1  18
TORSDOF 28
ENDMDL
MODEL 4
REMARK VINA RESULT:    -5.519      4.954      7.979
REMARK INTER + INTRA:         -18.244
REMARK INTER:                 -14.900
REMARK INTRA:                  -3.344
REMARK UNBOUND:                -3.690
REMARK SMILES CCCCCCCCCCCCCCCCCCCCCCCCCCCCCC(=O)[O-]
REMARK SMILES IDX 16 1 17 2 18 3 19 4 20 5 21 6 22 7 23 8 24 9 25 10 26 11
REMARK SMILES IDX 27 12 28 13 29 14 30 15 31 16 32 17 15 18 14 19 13 20 12 21
REMARK SMILES IDX 11 22 10 23 9 24 8 25 7 26 6 27 5 28 4 29 3 30 2 31 1 32
REMARK H PARENT
REMARK Flexibility Score: inf
ROOT
ATOM      1  C   UNL     1      45.931 -15.686 -32.609  1.00  0.00     0.000 C 
ENDROOT
BRANCH   1   2
ATOM      2  C   UNL     1      46.893 -14.489 -32.576  1.00  0.00     0.000 C 
BRANCH   2   3
ATOM      3  C   UNL     1      46.632 -13.478 -33.708  1.00  0.00     0.000 C 
BRANCH   3   4
ATOM      4  C   UNL     1      47.880 -13.061 -34.507  1.00  0.00     0.000 C 
BRANCH   4   5
ATOM      5  C   UNL     1      47.816 -13.486 -35.981  1.00  0.00     0.000 C 
BRANCH   5   6
ATOM      6  C   UNL     1      46.579 -14.356 -36.247  1.00  0.00     0.000 C 
BRANCH   6   7
ATOM      7  C   UNL     1      46.054 -14.226 -37.690  1.00  0.00     0.000 C 
BRANCH   7   8
ATOM      8  C   UNL     1      46.686 -13.086 -38.511  1.00  0.00     0.000 C 
BRANCH   8   9
ATOM      9  C   UNL     1      45.816 -12.544 -39.662  1.00  0.00     0.000 C 
BRANCH   9  10
ATOM     10  C   UNL     1      45.286 -11.113 -39.428  1.00  0.00     0.000 C 
BRANCH  10  11
ATOM     11  C   UNL     1      43.777 -11.083 -39.129  1.00  0.00     0.000 C 
BRANCH  11  12
ATOM     12  C   UNL     1      43.477 -10.723 -37.664  1.00  0.00     0.000 C 
BRANCH  12  13
ATOM     13  C   UNL     1      43.442 -11.960 -36.749  1.00  0.00     0.006 C 
BRANCH  13  14
ATOM     14  C   UNL     1      44.028 -11.670 -35.360  1.00  0.00     0.053 C 
BRANCH  14  15
ATOM     15  C   UNL     1      43.118 -12.127 -34.262  1.00  0.00     0.041 C 
ATOM     16  O   UNL     1      43.265 -11.684 -33.092  1.00  0.00    -0.550 OA
ATOM     17  O   UNL     1      42.090 -13.020 -34.538  1.00  0.00    -0.550 OA
ENDBRANCH  14  15
ENDBRANCH  13  14
ENDBRANCH  12  13
ENDBRANCH  11  12
ENDBRANCH  10  11
ENDBRANCH   9  10
ENDBRANCH   8   9
ENDBRANCH   7   8
ENDBRANCH   6   7
ENDBRANCH   5   6
ENDBRANCH   4   5
ENDBRANCH   3   4
ENDBRANCH   2   3
ENDBRANCH   1   2
BRANCH   1  18
ATOM     18  C   UNL     1      44.524 -15.250 -33.050  1.00  0.00     0.000 C 
BRANCH  18  19
ATOM     19  C   UNL     1      43.798 -16.315 -33.894  1.00  0.00     0.000 C 
BRANCH  19  20
ATOM     20  C   UNL     1      43.508 -17.641 -33.166  1.00  0.00     0.000 C 
BRANCH  20  21
ATOM     21  C   UNL     1      42.802 -18.675 -34.060  1.00  0.00     0.000 C 
BRANCH  21  22
ATOM     22  C   UNL     1      41.799 -19.549 -33.287  1.00  0.00     0.000 C 
BRANCH  22  23
ATOM     23  C   UNL     1      41.421 -20.873 -33.978  1.00  0.00     0.000 C 
BRANCH  23  24
ATOM     24  C   UNL     1      40.791 -21.892 -33.012  1.00  0.00    -0.000 C 
BRANCH  24  25
ATOM     25  C   UNL     1      40.727 -21.376 -31.565  1.00  0.00    -0.000 C 
BRANCH  25  26
ATOM     26  C   UNL     1      39.653 -22.093 -30.729  1.00  0.00    -0.000 C 
BRANCH  26  27
ATOM     27  C   UNL     1      38.608 -22.808 -31.601  1.00  0.00    -0.000 C 
BRANCH  27  28
ATOM     28  C   UNL     1      37.236 -22.111 -31.578  1.00  0.00    -0.000 C 
BRANCH  28  29
ATOM     29  C   UNL     1      36.923 -21.368 -32.889  1.00  0.00    -0.000 C 
BRANCH  29  30
ATOM     30  C   UNL     1      37.417 -19.910 -32.935  1.00  0.00    -0.000 C 
BRANCH  30  31
ATOM     31  C   UNL     1      36.426 -18.925 -32.298  1.00  0.00    -0.003 C 
ATOM     32  C   UNL     1      36.047 -17.816 -33.276  1.00  0.00     0.004 C 
ENDBRANCH  30  31
ENDBRANCH  29  30
ENDBRANCH  28  29
ENDBRANCH  27  28
ENDBRANCH  26  27
ENDBRANCH  25  26
ENDBRANCH  24  25
ENDBRANCH  23  24
ENDBRANCH  22  23
ENDBRANCH  21  22
ENDBRANCH  20  21
ENDBRANCH  19  20
ENDBRANCH  18  19
ENDBRANCH   1  18
TORSDOF 28
ENDMDL
MODEL 5
REMARK VINA RESULT:    -5.514      6.154     10.082
REMARK INTER + INTRA:         -18.230
REMARK INTER:                 -14.416
REMARK INTRA:                  -3.813
REMARK UNBOUND:                -3.690
REMARK SMILES CCCCCCCCCCCCCCCCCCCCCCCCCCCCCC(=O)[O-]
REMARK SMILES IDX 16 1 17 2 18 3 19 4 20 5 21 6 22 7 23 8 24 9 25 10 26 11
REMARK SMILES IDX 27 12 28 13 29 14 30 15 31 16 32 17 15 18 14 19 13 20 12 21
REMARK SMILES IDX 11 22 10 23 9 24 8 25 7 26 6 27 5 28 4 29 3 30 2 31 1 32
REMARK H PARENT
REMARK Flexibility Score: inf
ROOT
ATOM      1  C   UNL     1      41.652 -19.891 -34.033  1.00  0.00     0.000 C 
ENDROOT
BRANCH   1   2
ATOM      2  C   UNL     1      42.862 -18.947 -34.117  1.00  0.00     0.000 C 
BRANCH   2   3
ATOM      3  C   UNL     1      42.565 -17.660 -34.909  1.00  0.00     0.000 C 
BRANCH   3   4
ATOM      4  C   UNL     1      43.395 -16.433 -34.489  1.00  0.00     0.000 C 
BRANCH   4   5
ATOM      5  C   UNL     1      44.049 -16.596 -33.110  1.00  0.00     0.000 C 
BRANCH   5   6
ATOM      6  C   UNL     1      45.030 -15.447 -32.830  1.00  0.00     0.000 C 
BRANCH   6   7
ATOM      7  C   UNL     1      44.740 -14.192 -33.675  1.00  0.00     0.000 C 
BRANCH   7   8
ATOM      8  C   UNL     1      43.931 -13.096 -32.954  1.00  0.00     0.000 C 
BRANCH   8   9
ATOM      9  C   UNL     1      43.138 -12.150 -33.878  1.00  0.00     0.000 C 
BRANCH   9  10
ATOM     10  C   UNL     1      42.186 -12.876 -34.852  1.00  0.00     0.000 C 
BRANCH  10  11
ATOM     11  C   UNL     1      42.278 -12.327 -36.287  1.00  0.00     0.000 C 
BRANCH  11  12
ATOM     12  C   UNL     1      43.524 -11.450 -36.500  1.00  0.00     0.000 C 
BRANCH  12  13
ATOM     13  C   UNL     1      44.478 -12.030 -37.560  1.00  0.00     0.006 C 
BRANCH  13  14
ATOM     14  C   UNL     1      44.619 -11.106 -38.778  1.00  0.00     0.053 C 
BRANCH  14  15
ATOM     15  C   UNL     1      43.753 -11.545 -39.917  1.00  0.00     0.041 C 
ATOM     16  O   UNL     1      44.270 -12.052 -40.948  1.00  0.00    -0.550 OA
ATOM     17  O   UNL     1      42.372 -11.422 -39.828  1.00  0.00    -0.550 OA
ENDBRANCH  14  15
ENDBRANCH  13  14
ENDBRANCH  12  13
ENDBRANCH  11  12
ENDBRANCH  10  11
ENDBRANCH   9  10
ENDBRANCH   8   9
ENDBRANCH   7   8
ENDBRANCH   6   7
ENDBRANCH   5   6
ENDBRANCH   4   5
ENDBRANCH   3   4
ENDBRANCH   2   3
ENDBRANCH   1   2
BRANCH   1  18
ATOM     18  C   UNL     1      41.244 -20.134 -32.571  1.00  0.00     0.000 C 
BRANCH  18  19
ATOM     19  C   UNL     1      40.500 -21.468 -32.366  1.00  0.00     0.000 C 
BRANCH  19  20
ATOM     20  C   UNL     1      39.793 -21.621 -31.006  1.00  0.00     0.000 C 
BRANCH  20  21
ATOM     21  C   UNL     1      39.298 -20.282 -30.434  1.00  0.00     0.000 C 
BRANCH  21  22
ATOM     22  C   UNL     1      37.806 -20.308 -30.055  1.00  0.00     0.000 C 
BRANCH  22  23
ATOM     23  C   UNL     1      37.052 -21.588 -30.461  1.00  0.00     0.000 C 
BRANCH  23  24
ATOM     24  C   UNL     1      35.598 -21.316 -30.882  1.00  0.00    -0.000 C 
BRANCH  24  25
ATOM     25  C   UNL     1      35.333 -19.830 -31.176  1.00  0.00    -0.000 C 
BRANCH  25  26
ATOM     26  C   UNL     1      35.160 -19.547 -32.678  1.00  0.00    -0.000 C 
BRANCH  26  27
ATOM     27  C   UNL     1      36.400 -18.883 -33.300  1.00  0.00    -0.000 C 
BRANCH  27  28
ATOM     28  C   UNL     1      37.447 -19.906 -33.774  1.00  0.00    -0.000 C 
BRANCH  28  29
ATOM     29  C   UNL     1      36.817 -21.135 -34.454  1.00  0.00    -0.000 C 
BRANCH  29  30
ATOM     30  C   UNL     1      37.368 -22.490 -33.972  1.00  0.00    -0.000 C 
BRANCH  30  31
ATOM     31  C   UNL     1      38.384 -23.100 -34.949  1.00  0.00    -0.003 C 
ATOM     32  C   UNL     1      39.027 -24.353 -34.361  1.00  0.00     0.004 C 
ENDBRANCH  30  31
ENDBRANCH  29  30
ENDBRANCH  28  29
ENDBRANCH  27  28
ENDBRANCH  26  27
ENDBRANCH  25  26
ENDBRANCH  24  25
ENDBRANCH  23  24
ENDBRANCH  22  23
ENDBRANCH  21  22
ENDBRANCH  20  21
ENDBRANCH  19  20
ENDBRANCH  18  19
ENDBRANCH   1  18
TORSDOF 28
ENDMDL
MODEL 6
REMARK VINA RESULT:    -5.423      1.603      9.045
REMARK INTER + INTRA:         -17.990
REMARK INTER:                 -14.736
REMARK INTRA:                  -3.255
REMARK UNBOUND:                -3.690
REMARK SMILES CCCCCCCCCCCCCCCCCCCCCCCCCCCCCC(=O)[O-]
REMARK SMILES IDX 16 1 17 2 18 3 19 4 20 5 21 6 22 7 23 8 24 9 25 10 26 11
REMARK SMILES IDX 27 12 28 13 29 14 30 15 31 16 32 17 15 18 14 19 13 20 12 21
REMARK SMILES IDX 11 22 10 23 9 24 8 25 7 26 6 27 5 28 4 29 3 30 2 31 1 32
REMARK H PARENT
REMARK Flexibility Score: inf
ROOT
ATOM      1  C   UNL     1      47.357 -13.472 -37.549  1.00  0.00     0.000 C 
ENDROOT
BRANCH   1   2
ATOM      2  C   UNL     1      47.346 -13.525 -36.013  1.00  0.00     0.000 C 
BRANCH   2   3
ATOM      3  C   UNL     1      48.706 -13.156 -35.391  1.00  0.00     0.000 C 
BRANCH   3   4
ATOM      4  C   UNL     1      48.789 -13.326 -33.863  1.00  0.00     0.000 C 
BRANCH   4   5
ATOM      5  C   UNL     1      47.429 -13.165 -33.168  1.00  0.00     0.000 C 
BRANCH   5   6
ATOM      6  C   UNL     1      47.148 -14.349 -32.231  1.00  0.00     0.000 C 
BRANCH   6   7
ATOM      7  C   UNL     1      46.097 -15.324 -32.796  1.00  0.00     0.000 C 
BRANCH   7   8
ATOM      8  C   UNL     1      44.705 -15.227 -32.143  1.00  0.00     0.000 C 
BRANCH   8   9
ATOM      9  C   UNL     1      43.920 -16.552 -32.071  1.00  0.00     0.000 C 
BRANCH   9  10
ATOM     10  C   UNL     1      43.880 -17.331 -33.403  1.00  0.00     0.000 C 
BRANCH  10  11
ATOM     11  C   UNL     1      42.833 -16.773 -34.383  1.00  0.00     0.000 C 
BRANCH  11  12
ATOM     12  C   UNL     1      43.472 -16.192 -35.656  1.00  0.00     0.000 C 
BRANCH  12  13
ATOM     13  C   UNL     1      43.739 -14.680 -35.543  1.00  0.00     0.006 C 
BRANCH  13  14
ATOM     14  C   UNL     1      42.546 -13.926 -34.939  1.00  0.00     0.053 C 
BRANCH  14  15
ATOM     15  C   UNL     1      42.373 -12.570 -35.551  1.00  0.00     0.041 C 
ATOM     16  O   UNL     1      41.326 -12.295 -36.196  1.00  0.00    -0.550 OA
ATOM     17  O   UNL     1      43.355 -11.602 -35.384  1.00  0.00    -0.550 OA
ENDBRANCH  14  15
ENDBRANCH  13  14
ENDBRANCH  12  13
ENDBRANCH  11  12
ENDBRANCH  10  11
ENDBRANCH   9  10
ENDBRANCH   8   9
ENDBRANCH   7   8
ENDBRANCH   6   7
ENDBRANCH   5   6
ENDBRANCH   4   5
ENDBRANCH   3   4
ENDBRANCH   2   3
ENDBRANCH   1   2
BRANCH   1  18
ATOM     18  C   UNL     1      46.208 -14.307 -38.136  1.00  0.00     0.000 C 
BRANCH  18  19
ATOM     19  C   UNL     1      45.568 -13.661 -39.381  1.00  0.00     0.000 C 
BRANCH  19  20
ATOM     20  C   UNL     1      46.077 -12.248 -39.720  1.00  0.00     0.000 C 
BRANCH  20  21
ATOM     21  C   UNL     1      44.942 -11.223 -39.882  1.00  0.00     0.000 C 
BRANCH  21  22
ATOM     22  C   UNL     1      43.864 -11.344 -38.791  1.00  0.00     0.000 C 
BRANCH  22  23
ATOM     23  C   UNL     1      42.413 -11.213 -39.289  1.00  0.00     0.000 C 
BRANCH  23  24
ATOM     24  C   UNL     1      41.725  -9.928 -38.794  1.00  0.00    -0.000 C 
BRANCH  24  25
ATOM     25  C   UNL     1      41.522  -8.895 -39.915  1.00  0.00    -0.000 C 
BRANCH  25  26
ATOM     26  C   UNL     1      41.482  -9.539 -41.311  1.00  0.00    -0.000 C 
BRANCH  26  27
ATOM     27  C   UNL     1      40.514  -8.819 -42.264  1.00  0.00    -0.000 C 
BRANCH  27  28
ATOM     28  C   UNL     1      40.962  -8.892 -43.735  1.00  0.00    -0.000 C 
BRANCH  28  29
ATOM     29  C   UNL     1      40.123  -9.879 -44.566  1.00  0.00    -0.000 C 
BRANCH  29  30
ATOM     30  C   UNL     1      40.511 -11.359 -44.390  1.00  0.00    -0.000 C 
BRANCH  30  31
ATOM     31  C   UNL     1      42.030 -11.571 -44.303  1.00  0.00    -0.003 C 
ATOM     32  C   UNL     1      42.614 -11.924 -45.668  1.00  0.00     0.004 C 
ENDBRANCH  30  31
ENDBRANCH  29  30
ENDBRANCH  28  29
ENDBRANCH  27  28
ENDBRANCH  26  27
ENDBRANCH  25  26
ENDBRANCH  24  25
ENDBRANCH  23  24
ENDBRANCH  22  23
ENDBRANCH  21  22
ENDBRANCH  20  21
ENDBRANCH  19  20
ENDBRANCH  18  19
ENDBRANCH   1  18
TORSDOF 28
ENDMDL
MODEL 7
REMARK VINA RESULT:    -5.412      5.001      8.316
REMARK INTER + INTRA:         -17.962
REMARK INTER:                 -14.870
REMARK INTRA:                  -3.092
REMARK UNBOUND:                -3.690
REMARK SMILES CCCCCCCCCCCCCCCCCCCCCCCCCCCCCC(=O)[O-]
REMARK SMILES IDX 16 1 17 2 18 3 19 4 20 5 21 6 22 7 23 8 24 9 25 10 26 11
REMARK SMILES IDX 27 12 28 13 29 14 30 15 31 16 32 17 15 18 14 19 13 20 12 21
REMARK SMILES IDX 11 22 10 23 9 24 8 25 7 26 6 27 5 28 4 29 3 30 2 31 1 32
REMARK H PARENT
REMARK Flexibility Score: inf
ROOT
ATOM      1  C   UNL     1      43.828 -17.213 -32.721  1.00  0.00     0.000 C 
ENDROOT
BRANCH   1   2
ATOM      2  C   UNL     1      45.086 -16.418 -32.340  1.00  0.00     0.000 C 
BRANCH   2   3
ATOM      3  C   UNL     1      45.023 -14.945 -32.787  1.00  0.00     0.000 C 
BRANCH   3   4
ATOM      4  C   UNL     1      46.386 -14.308 -33.117  1.00  0.00     0.000 C 
BRANCH   4   5
ATOM      5  C   UNL     1      46.369 -13.501 -34.423  1.00  0.00     0.000 C 
BRANCH   5   6
ATOM      6  C   UNL     1      45.690 -14.296 -35.549  1.00  0.00     0.000 C 
BRANCH   6   7
ATOM      7  C   UNL     1      46.619 -14.543 -36.752  1.00  0.00     0.000 C 
BRANCH   7   8
ATOM      8  C   UNL     1      46.742 -13.361 -37.733  1.00  0.00     0.000 C 
BRANCH   8   9
ATOM      9  C   UNL     1      45.419 -12.904 -38.379  1.00  0.00     0.000 C 
BRANCH   9  10
ATOM     10  C   UNL     1      45.604 -11.969 -39.594  1.00  0.00     0.000 C 
BRANCH  10  11
ATOM     11  C   UNL     1      44.535 -12.192 -40.678  1.00  0.00     0.000 C 
BRANCH  11  12
ATOM     12  C   UNL     1      43.838 -10.884 -41.092  1.00  0.00     0.000 C 
BRANCH  12  13
ATOM     13  C   UNL     1      42.349 -10.861 -40.702  1.00  0.00     0.006 C 
BRANCH  13  14
ATOM     14  C   UNL     1      42.138 -11.129 -39.205  1.00  0.00     0.053 C 
BRANCH  14  15
ATOM     15  C   UNL     1      42.094  -9.860 -38.411  1.00  0.00     0.041 C 
ATOM     16  O   UNL     1      42.442  -9.858 -37.201  1.00  0.00    -0.550 OA
ATOM     17  O   UNL     1      41.695  -8.675 -39.017  1.00  0.00    -0.550 OA
ENDBRANCH  14  15
ENDBRANCH  13  14
ENDBRANCH  12  13
ENDBRANCH  11  12
ENDBRANCH  10  11
ENDBRANCH   9  10
ENDBRANCH   8   9
ENDBRANCH   7   8
ENDBRANCH   6   7
ENDBRANCH   5   6
ENDBRANCH   4   5
ENDBRANCH   3   4
ENDBRANCH   2   3
ENDBRANCH   1   2
BRANCH   1  18
ATOM     18  C   UNL     1      43.367 -16.864 -34.145  1.00  0.00     0.000 C 
BRANCH  18  19
ATOM     19  C   UNL     1      42.569 -17.998 -34.816  1.00  0.00     0.000 C 
BRANCH  19  20
ATOM     20  C   UNL     1      42.744 -19.389 -34.177  1.00  0.00     0.000 C 
BRANCH  20  21
ATOM     21  C   UNL     1      41.415 -20.008 -33.713  1.00  0.00     0.000 C 
BRANCH  21  22
ATOM     22  C   UNL     1      41.213 -21.445 -34.225  1.00  0.00     0.000 C 
BRANCH  22  23
ATOM     23  C   UNL     1      41.037 -22.510 -33.127  1.00  0.00     0.000 C 
BRANCH  23  24
ATOM     24  C   UNL     1      39.702 -23.267 -33.237  1.00  0.00    -0.000 C 
BRANCH  24  25
ATOM     25  C   UNL     1      38.827 -22.761 -34.395  1.00  0.00    -0.000 C 
BRANCH  25  26
ATOM     26  C   UNL     1      37.540 -22.075 -33.906  1.00  0.00    -0.000 C 
BRANCH  26  27
ATOM     27  C   UNL     1      37.515 -21.887 -32.381  1.00  0.00    -0.000 C 
BRANCH  27  28
ATOM     28  C   UNL     1      37.733 -20.424 -31.957  1.00  0.00    -0.000 C 
BRANCH  28  29
ATOM     29  C   UNL     1      38.838 -20.268 -30.897  1.00  0.00    -0.000 C 
BRANCH  29  30
ATOM     30  C   UNL     1      39.047 -21.501 -29.999  1.00  0.00    -0.000 C 
BRANCH  30  31
ATOM     31  C   UNL     1      40.523 -21.744 -29.654  1.00  0.00    -0.003 C 
ATOM     32  C   UNL     1      41.331 -20.453 -29.755  1.00  0.00     0.004 C 
ENDBRANCH  30  31
ENDBRANCH  29  30
ENDBRANCH  28  29
ENDBRANCH  27  28
ENDBRANCH  26  27
ENDBRANCH  25  26
ENDBRANCH  24  25
ENDBRANCH  23  24
ENDBRANCH  22  23
ENDBRANCH  21  22
ENDBRANCH  20  21
ENDBRANCH  19  20
ENDBRANCH  18  19
ENDBRANCH   1  18
TORSDOF 28
ENDMDL
MODEL 8
REMARK VINA RESULT:    -5.405      4.739      7.880
REMARK INTER + INTRA:         -17.943
REMARK INTER:                 -14.207
REMARK INTRA:                  -3.736
REMARK UNBOUND:                -3.690
REMARK SMILES CCCCCCCCCCCCCCCCCCCCCCCCCCCCCC(=O)[O-]
REMARK SMILES IDX 16 1 17 2 18 3 19 4 20 5 21 6 22 7 23 8 24 9 25 10 26 11
REMARK SMILES IDX 27 12 28 13 29 14 30 15 31 16 32 17 15 18 14 19 13 20 12 21
REMARK SMILES IDX 11 22 10 23 9 24 8 25 7 26 6 27 5 28 4 29 3 30 2 31 1 32
REMARK H PARENT
REMARK Flexibility Score: inf
ROOT
ATOM      1  C   UNL     1      45.636 -15.081 -32.641  1.00  0.00     0.000 C 
ENDROOT
BRANCH   1   2
ATOM      2  C   UNL     1      45.515 -13.549 -32.644  1.00  0.00     0.000 C 
BRANCH   2   3
ATOM      3  C   UNL     1      44.090 -13.059 -32.326  1.00  0.00     0.000 C 
BRANCH   3   4
ATOM      4  C   UNL     1      43.455 -12.163 -33.405  1.00  0.00     0.000 C 
BRANCH   4   5
ATOM      5  C   UNL     1      44.090 -12.353 -34.789  1.00  0.00     0.000 C 
BRANCH   5   6
ATOM      6  C   UNL     1      43.338 -13.423 -35.595  1.00  0.00     0.000 C 
BRANCH   6   7
ATOM      7  C   UNL     1      44.240 -14.597 -36.022  1.00  0.00     0.000 C 
BRANCH   7   8
ATOM      8  C   UNL     1      45.667 -14.198 -36.446  1.00  0.00     0.000 C 
BRANCH   8   9
ATOM      9  C   UNL     1      45.931 -14.222 -37.964  1.00  0.00     0.000 C 
BRANCH   9  10
ATOM     10  C   UNL     1      46.787 -13.041 -38.471  1.00  0.00     0.000 C 
BRANCH  10  11
ATOM     11  C   UNL     1      46.165 -12.344 -39.694  1.00  0.00     0.000 C 
BRANCH  11  12
ATOM     12  C   UNL     1      45.183 -11.228 -39.296  1.00  0.00     0.000 C 
BRANCH  12  13
ATOM     13  C   UNL     1      43.713 -11.641 -39.490  1.00  0.00     0.006 C 
BRANCH  13  14
ATOM     14  C   UNL     1      42.806 -11.089 -38.382  1.00  0.00     0.053 C 
BRANCH  14  15
ATOM     15  C   UNL     1      42.339  -9.698 -38.682  1.00  0.00     0.041 C 
ATOM     16  O   UNL     1      41.979  -9.389 -39.849  1.00  0.00    -0.550 OA
ATOM     17  O   UNL     1      42.273  -8.752 -37.667  1.00  0.00    -0.550 OA
ENDBRANCH  14  15
ENDBRANCH  13  14
ENDBRANCH  12  13
ENDBRANCH  11  12
ENDBRANCH  10  11
ENDBRANCH   9  10
ENDBRANCH   8   9
ENDBRANCH   7   8
ENDBRANCH   6   7
ENDBRANCH   5   6
ENDBRANCH   4   5
ENDBRANCH   3   4
ENDBRANCH   2   3
ENDBRANCH   1   2
BRANCH   1  18
ATOM     18  C   UNL     1      44.251 -15.742 -32.552  1.00  0.00     0.000 C 
BRANCH  18  19
ATOM     19  C   UNL     1      44.280 -17.249 -32.873  1.00  0.00     0.000 C 
BRANCH  19  20
ATOM     20  C   UNL     1      42.969 -17.822 -33.442  1.00  0.00     0.000 C 
BRANCH  20  21
ATOM     21  C   UNL     1      43.163 -19.172 -34.154  1.00  0.00     0.000 C 
BRANCH  21  22
ATOM     22  C   UNL     1      41.918 -20.073 -34.081  1.00  0.00     0.000 C 
BRANCH  22  23
ATOM     23  C   UNL     1      41.155 -20.023 -32.744  1.00  0.00     0.000 C 
BRANCH  23  24
ATOM     24  C   UNL     1      40.009 -21.047 -32.672  1.00  0.00    -0.000 C 
BRANCH  24  25
ATOM     25  C   UNL     1      40.511 -22.500 -32.649  1.00  0.00    -0.000 C 
BRANCH  25  26
ATOM     26  C   UNL     1      39.394 -23.516 -32.941  1.00  0.00    -0.000 C 
BRANCH  26  27
ATOM     27  C   UNL     1      39.228 -23.794 -34.444  1.00  0.00    -0.000 C 
BRANCH  27  28
ATOM     28  C   UNL     1      37.802 -23.509 -34.947  1.00  0.00    -0.000 C 
BRANCH  28  29
ATOM     29  C   UNL     1      37.760 -22.418 -36.033  1.00  0.00    -0.000 C 
BRANCH  29  30
ATOM     30  C   UNL     1      39.077 -21.641 -36.215  1.00  0.00    -0.000 C 
BRANCH  30  31
ATOM     31  C   UNL     1      38.897 -20.123 -36.071  1.00  0.00    -0.003 C 
ATOM     32  C   UNL     1      37.529 -19.784 -35.485  1.00  0.00     0.004 C 
ENDBRANCH  30  31
ENDBRANCH  29  30
ENDBRANCH  28  29
ENDBRANCH  27  28
ENDBRANCH  26  27
ENDBRANCH  25  26
ENDBRANCH  24  25
ENDBRANCH  23  24
ENDBRANCH  22  23
ENDBRANCH  21  22
ENDBRANCH  20  21
ENDBRANCH  19  20
ENDBRANCH  18  19
ENDBRANCH   1  18
TORSDOF 28
ENDMDL
MODEL 9
REMARK VINA RESULT:    -5.346      5.551      9.557
REMARK INTER + INTRA:         -17.787
REMARK INTER:                 -13.775
REMARK INTRA:                  -4.013
REMARK UNBOUND:                -3.690
REMARK SMILES CCCCCCCCCCCCCCCCCCCCCCCCCCCCCC(=O)[O-]
REMARK SMILES IDX 16 1 17 2 18 3 19 4 20 5 21 6 22 7 23 8 24 9 25 10 26 11
REMARK SMILES IDX 27 12 28 13 29 14 30 15 31 16 32 17 15 18 14 19 13 20 12 21
REMARK SMILES IDX 11 22 10 23 9 24 8 25 7 26 6 27 5 28 4 29 3 30 2 31 1 32
REMARK H PARENT
REMARK Flexibility Score: inf
ROOT
ATOM      1  C   UNL     1      42.265 -17.766 -35.169  1.00  0.00     0.000 C 
ENDROOT
BRANCH   1   2
ATOM      2  C   UNL     1      43.126 -16.494 -35.203  1.00  0.00     0.000 C 
BRANCH   2   3
ATOM      3  C   UNL     1      43.869 -16.237 -33.878  1.00  0.00     0.000 C 
BRANCH   3   4
ATOM      4  C   UNL     1      43.931 -14.762 -33.444  1.00  0.00     0.000 C 
BRANCH   4   5
ATOM      5  C   UNL     1      44.740 -14.550 -32.156  1.00  0.00     0.000 C 
BRANCH   5   6
ATOM      6  C   UNL     1      46.005 -13.724 -32.433  1.00  0.00     0.000 C 
BRANCH   6   7
ATOM      7  C   UNL     1      47.197 -14.587 -32.888  1.00  0.00     0.000 C 
BRANCH   7   8
ATOM      8  C   UNL     1      48.178 -13.886 -33.849  1.00  0.00     0.000 C 
BRANCH   8   9
ATOM      9  C   UNL     1      47.521 -13.103 -35.002  1.00  0.00     0.000 C 
BRANCH   9  10
ATOM     10  C   UNL     1      46.868 -13.999 -36.077  1.00  0.00     0.000 C 
BRANCH  10  11
ATOM     11  C   UNL     1      45.446 -13.540 -36.445  1.00  0.00     0.000 C 
BRANCH  11  12
ATOM     12  C   UNL     1      45.025 -12.271 -35.684  1.00  0.00     0.000 C 
BRANCH  12  13
ATOM     13  C   UNL     1      43.636 -11.762 -36.111  1.00  0.00     0.006 C 
BRANCH  13  14
ATOM     14  C   UNL     1      43.666 -11.086 -37.489  1.00  0.00     0.053 C 
BRANCH  14  15
ATOM     15  C   UNL     1      42.338 -11.160 -38.177  1.00  0.00     0.041 C 
ATOM     16  O   UNL     1      41.274 -11.167 -37.503  1.00  0.00    -0.550 OA
ATOM     17  O   UNL     1      42.276 -11.193 -39.565  1.00  0.00    -0.550 OA
ENDBRANCH  14  15
ENDBRANCH  13  14
ENDBRANCH  12  13
ENDBRANCH  11  12
ENDBRANCH  10  11
ENDBRANCH   9  10
ENDBRANCH   8   9
ENDBRANCH   7   8
ENDBRANCH   6   7
ENDBRANCH   5   6
ENDBRANCH   4   5
ENDBRANCH   3   4
ENDBRANCH   2   3
ENDBRANCH   1   2
BRANCH   1  18
ATOM     18  C   UNL     1      42.789 -18.758 -34.119  1.00  0.00     0.000 C 
BRANCH  18  19
ATOM     19  C   UNL     1      41.680 -19.642 -33.517  1.00  0.00     0.000 C 
BRANCH  19  20
ATOM     20  C   UNL     1      41.589 -21.065 -34.100  1.00  0.00     0.000 C 
BRANCH  20  21
ATOM     21  C   UNL     1      41.152 -22.113 -33.062  1.00  0.00     0.000 C 
BRANCH  21  22
ATOM     22  C   UNL     1      40.610 -21.483 -31.766  1.00  0.00     0.000 C 
BRANCH  22  23
ATOM     23  C   UNL     1      39.283 -22.077 -31.259  1.00  0.00     0.000 C 
BRANCH  23  24
ATOM     24  C   UNL     1      38.700 -23.136 -32.210  1.00  0.00    -0.000 C 
BRANCH  24  25
ATOM     25  C   UNL     1      37.454 -22.639 -32.961  1.00  0.00    -0.000 C 
BRANCH  25  26
ATOM     26  C   UNL     1      37.710 -22.442 -34.465  1.00  0.00    -0.000 C 
BRANCH  26  27
ATOM     27  C   UNL     1      37.318 -21.037 -34.951  1.00  0.00    -0.000 C 
BRANCH  27  28
ATOM     28  C   UNL     1      37.827 -19.923 -34.020  1.00  0.00    -0.000 C 
BRANCH  28  29
ATOM     29  C   UNL     1      36.686 -19.166 -33.316  1.00  0.00    -0.000 C 
BRANCH  29  30
ATOM     30  C   UNL     1      36.782 -19.140 -31.780  1.00  0.00    -0.000 C 
BRANCH  30  31
ATOM     31  C   UNL     1      35.624 -19.882 -31.098  1.00  0.00    -0.003 C 
ATOM     32  C   UNL     1      34.580 -20.328 -32.118  1.00  0.00     0.004 C 
ENDBRANCH  30  31
ENDBRANCH  29  30
ENDBRANCH  28  29
ENDBRANCH  27  28
ENDBRANCH  26  27
ENDBRANCH  25  26
ENDBRANCH  24  25
ENDBRANCH  23  24
ENDBRANCH  22  23
ENDBRANCH  21  22
ENDBRANCH  20  21
ENDBRANCH  19  20
ENDBRANCH  18  19
ENDBRANCH   1  18
TORSDOF 28
ENDMDL
