MODEL 1
REMARK VINA RESULT:    -4.398      0.000      0.000
REMARK INTER + INTRA:          -9.511
REMARK INTER:                  -7.997
REMARK INTRA:                  -1.514
REMARK UNBOUND:                -1.514
REMARK SMILES CCCCCCCCCCCCCCCC(=O)[O-]
REMARK SMILES IDX 9 1 10 2 11 3 12 4 13 5 14 6 15 7 16 8 17 9 18 10 8 11 7 12
REMARK SMILES IDX 6 13 5 14 4 15 3 16 2 17 1 18
REMARK H PARENT
REMARK Flexibility Score: inf
ROOT
ATOM      1  C   UNL     1      95.909  85.304  78.602  1.00  0.00     0.000 C 
ENDROOT
BRANCH   1   2
ATOM      2  C   UNL     1      96.230  83.878  78.116  1.00  0.00     0.000 C 
BRANCH   2   3
ATOM      3  C   UNL     1      95.587  82.794  78.997  1.00  0.00     0.000 C 
BRANCH   3   4
ATOM      4  C   UNL     1      96.541  81.620  79.275  1.00  0.00     0.000 C 
BRANCH   4   5
ATOM      5  C   UNL     1      98.025  82.022  79.193  1.00  0.00     0.000 C 
BRANCH   5   6
ATOM      6  C   UNL     1      98.769  82.055  80.540  1.00  0.00     0.006 C 
BRANCH   6   7
ATOM      7  C   UNL     1      99.616  83.320  80.725  1.00  0.00     0.053 C 
BRANCH   7   8
ATOM      8  C   UNL     1     100.094  83.426  82.139  1.00  0.00     0.041 C 
ATOM      9  O   UNL     1      99.967  82.451  82.926  1.00  0.00    -0.550 OA
ATOM     10  O   UNL     1     100.721  84.586  82.577  1.00  0.00    -0.550 OA
ENDBRANCH   7   8
ENDBRANCH   6   7
ENDBRANCH   5   6
ENDBRANCH   4   5
ENDBRANCH   3   4
ENDBRANCH   2   3
ENDBRANCH   1   2
BRANCH   1  11
ATOM     11  C   UNL     1      94.516  85.775  78.156  1.00  0.00     0.000 C 
BRANCH  11  12
ATOM     12  C   UNL     1      94.142  85.266  76.753  1.00  0.00    -0.000 C 
BRANCH  12  13
ATOM     13  C   UNL     1      92.714  84.681  76.708  1.00  0.00    -0.000 C 
BRANCH  13  14
ATOM     14  C   UNL     1      92.676  83.145  76.756  1.00  0.00    -0.000 C 
BRANCH  14  15
ATOM     15  C   UNL     1      92.096  82.598  78.071  1.00  0.00    -0.000 C 
BRANCH  15  16
ATOM     16  C   UNL     1      91.439  83.707  78.921  1.00  0.00    -0.000 C 
BRANCH  16  17
ATOM     17  C   UNL     1      89.971  83.420  79.277  1.00  0.00    -0.003 C 
ATOM     18  C   UNL     1      89.046  83.431  78.062  1.00  0.00     0.004 C 
ENDBRANCH  16  17
ENDBRANCH  15  16
ENDBRANCH  14  15
ENDBRANCH  13  14
ENDBRANCH  12  13
ENDBRANCH  11  12
ENDBRANCH   1  11
TORSDOF 14
ENDMDL
MODEL 2
REMARK VINA RESULT:    -4.281      3.862      7.625
REMARK INTER + INTRA:          -9.299
REMARK INTER:                  -7.646
REMARK INTRA:                  -1.653
REMARK UNBOUND:                -1.514
REMARK SMILES CCCCCCCCCCCCCCCC(=O)[O-]
REMARK SMILES IDX 9 1 10 2 11 3 12 4 13 5 14 6 15 7 16 8 17 9 18 10 8 11 7 12
REMARK SMILES IDX 6 13 5 14 4 15 3 16 2 17 1 18
REMARK H PARENT
REMARK Flexibility Score: inf
ROOT
ATOM      1  C   UNL     1      96.538  83.723  78.195  1.00  0.00     0.000 C 
ENDROOT
BRANCH   1   2
ATOM      2  C   UNL     1      96.078  85.125  78.635  1.00  0.00     0.000 C 
BRANCH   2   3
ATOM      3  C   UNL     1      95.089  85.762  77.644  1.00  0.00     0.000 C 
BRANCH   3   4
ATOM      4  C   UNL     1      94.447  84.724  76.707  1.00  0.00     0.000 C 
BRANCH   4   5
ATOM      5  C   UNL     1      92.908  84.758  76.740  1.00  0.00     0.000 C 
BRANCH   5   6
ATOM      6  C   UNL     1      92.227  83.388  76.905  1.00  0.00     0.006 C 
BRANCH   6   7
ATOM      7  C   UNL     1      91.888  83.059  78.365  1.00  0.00     0.053 C 
BRANCH   7   8
ATOM      8  C   UNL     1      90.442  83.331  78.638  1.00  0.00     0.041 C 
ATOM      9  O   UNL     1      90.037  83.475  79.822  1.00  0.00    -0.550 OA
ATOM     10  O   UNL     1      89.548  83.471  77.584  1.00  0.00    -0.550 OA
ENDBRANCH   7   8
ENDBRANCH   6   7
ENDBRANCH   5   6
ENDBRANCH   4   5
ENDBRANCH   3   4
ENDBRANCH   2   3
ENDBRANCH   1   2
BRANCH   1  11
ATOM     11  C   UNL     1      95.899  82.606  79.037  1.00  0.00     0.000 C 
BRANCH  11  12
ATOM     12  C   UNL     1      96.947  81.684  79.685  1.00  0.00    -0.000 C 
BRANCH  12  13
ATOM     13  C   UNL     1      98.380  82.013  79.217  1.00  0.00    -0.000 C 
BRANCH  13  14
ATOM     14  C   UNL     1      99.367  82.245  80.373  1.00  0.00    -0.000 C 
BRANCH  14  15
ATOM     15  C   UNL     1      98.731  82.974  81.568  1.00  0.00    -0.000 C 
BRANCH  15  16
ATOM     16  C   UNL     1      98.593  84.491  81.318  1.00  0.00    -0.000 C 
BRANCH  16  17
ATOM     17  C   UNL     1      99.822  85.116  80.638  1.00  0.00    -0.003 C 
ATOM     18  C   UNL     1      99.471  86.289  79.725  1.00  0.00     0.004 C 
ENDBRANCH  16  17
ENDBRANCH  15  16
ENDBRANCH  14  15
ENDBRANCH  13  14
ENDBRANCH  12  13
ENDBRANCH  11  12
ENDBRANCH   1  11
TORSDOF 14
ENDMDL
MODEL 3
REMARK VINA RESULT:    -4.223     13.220     15.197
REMARK INTER + INTRA:          -9.194
REMARK INTER:                  -7.040
REMARK INTRA:                  -2.154
REMARK UNBOUND:                -1.514
REMARK SMILES CCCCCCCCCCCCCCCC(=O)[O-]
REMARK SMILES IDX 9 1 10 2 11 3 12 4 13 5 14 6 15 7 16 8 17 9 18 10 8 11 7 12
REMARK SMILES IDX 6 13 5 14 4 15 3 16 2 17 1 18
REMARK H PARENT
REMARK Flexibility Score: inf
ROOT
ATOM      1  C   UNL     1      88.053  77.489  70.045  1.00  0.00     0.000 C 
ENDROOT
BRANCH   1   2
ATOM      2  C   UNL     1      86.583  77.936  70.158  1.00  0.00     0.000 C 
BRANCH   2   3
ATOM      3  C   UNL     1      85.717  76.929  70.933  1.00  0.00     0.000 C 
BRANCH   3   4
ATOM      4  C   UNL     1      85.812  75.505  70.356  1.00  0.00     0.000 C 
BRANCH   4   5
ATOM      5  C   UNL     1      86.043  74.435  71.438  1.00  0.00     0.000 C 
BRANCH   5   6
ATOM      6  C   UNL     1      87.129  74.777  72.475  1.00  0.00     0.006 C 
BRANCH   6   7
ATOM      7  C   UNL     1      87.780  73.533  73.091  1.00  0.00     0.053 C 
BRANCH   7   8
ATOM      8  C   UNL     1      89.249  73.751  73.279  1.00  0.00     0.041 C 
ATOM      9  O   UNL     1      89.665  74.767  73.897  1.00  0.00    -0.550 OA
ATOM     10  O   UNL     1      90.158  72.810  72.812  1.00  0.00    -0.550 OA
ENDBRANCH   7   8
ENDBRANCH   6   7
ENDBRANCH   5   6
ENDBRANCH   4   5
ENDBRANCH   3   4
ENDBRANCH   2   3
ENDBRANCH   1   2
BRANCH   1  11
ATOM     11  C   UNL     1      88.516  77.363  68.585  1.00  0.00     0.000 C 
BRANCH  11  12
ATOM     12  C   UNL     1      87.469  77.888  67.587  1.00  0.00    -0.000 C 
BRANCH  12  13
ATOM     13  C   UNL     1      86.692  76.742  66.904  1.00  0.00    -0.000 C 
BRANCH  13  14
ATOM     14  C   UNL     1      87.458  75.410  66.875  1.00  0.00    -0.000 C 
BRANCH  14  15
ATOM     15  C   UNL     1      86.553  74.190  67.114  1.00  0.00    -0.000 C 
BRANCH  15  16
ATOM     16  C   UNL     1      87.356  72.946  67.549  1.00  0.00    -0.000 C 
BRANCH  16  17
ATOM     17  C   UNL     1      88.785  73.269  68.016  1.00  0.00    -0.003 C 
ATOM     18  C   UNL     1      88.908  73.390  69.533  1.00  0.00     0.004 C 
ENDBRANCH  16  17
ENDBRANCH  15  16
ENDBRANCH  14  15
ENDBRANCH  13  14
ENDBRANCH  12  13
ENDBRANCH  11  12
ENDBRANCH   1  11
TORSDOF 14
ENDMDL
MODEL 4
REMARK VINA RESULT:    -4.123      2.956      4.038
REMARK INTER + INTRA:          -9.012
REMARK INTER:                  -6.436
REMARK INTRA:                  -2.576
REMARK UNBOUND:                -1.514
REMARK SMILES CCCCCCCCCCCCCCCC(=O)[O-]
REMARK SMILES IDX 9 1 10 2 11 3 12 4 13 5 14 6 15 7 16 8 17 9 18 10 8 11 7 12
REMARK SMILES IDX 6 13 5 14 4 15 3 16 2 17 1 18
REMARK H PARENT
REMARK Flexibility Score: inf
ROOT
ATOM      1  C   UNL     1      96.598  83.879  78.135  1.00  0.00     0.000 C 
ENDROOT
BRANCH   1   2
ATOM      2  C   UNL     1      95.781  82.859  78.950  1.00  0.00     0.000 C 
BRANCH   2   3
ATOM      3  C   UNL     1      96.659  81.763  79.577  1.00  0.00     0.000 C 
BRANCH   3   4
ATOM      4  C   UNL     1      98.160  82.014  79.353  1.00  0.00     0.000 C 
BRANCH   4   5
ATOM      5  C   UNL     1      98.964  82.054  80.666  1.00  0.00     0.000 C 
BRANCH   5   6
ATOM      6  C   UNL     1     100.334  82.749  80.573  1.00  0.00     0.006 C 
BRANCH   6   7
ATOM      7  C   UNL     1     100.612  83.685  81.756  1.00  0.00     0.053 C 
BRANCH   7   8
ATOM      8  C   UNL     1     101.563  84.768  81.353  1.00  0.00     0.041 C 
ATOM      9  O   UNL     1     101.898  84.901  80.146  1.00  0.00    -0.550 OA
ATOM     10  O   UNL     1     102.046  85.660  82.302  1.00  0.00    -0.550 OA
ENDBRANCH   7   8
ENDBRANCH   6   7
ENDBRANCH   5   6
ENDBRANCH   4   5
ENDBRANCH   3   4
ENDBRANCH   2   3
ENDBRANCH   1   2
BRANCH   1  11
ATOM     11  C   UNL     1      96.576  85.282  78.762  1.00  0.00     0.000 C 
BRANCH  11  12
ATOM     12  C   UNL     1      97.954  85.712  79.296  1.00  0.00    -0.000 C 
BRANCH  12  13
ATOM     13  C   UNL     1      97.962  85.858  80.833  1.00  0.00    -0.000 C 
BRANCH  13  14
ATOM     14  C   UNL     1      96.621  85.496  81.492  1.00  0.00    -0.000 C 
BRANCH  14  15
ATOM     15  C   UNL     1      96.705  84.237  82.372  1.00  0.00    -0.000 C 
BRANCH  15  16
ATOM     16  C   UNL     1      95.309  83.672  82.711  1.00  0.00    -0.000 C 
BRANCH  16  17
ATOM     17  C   UNL     1      94.164  84.370  81.960  1.00  0.00    -0.003 C 
ATOM     18  C   UNL     1      92.853  84.383  82.744  1.00  0.00     0.004 C 
ENDBRANCH  16  17
ENDBRANCH  15  16
ENDBRANCH  14  15
ENDBRANCH  13  14
ENDBRANCH  12  13
ENDBRANCH  11  12
ENDBRANCH   1  11
TORSDOF 14
ENDMDL
MODEL 5
REMARK VINA RESULT:    -4.114      4.047      7.833
REMARK INTER + INTRA:          -8.995
REMARK INTER:                  -7.618
REMARK INTRA:                  -1.376
REMARK UNBOUND:                -1.514
REMARK SMILES CCCCCCCCCCCCCCCC(=O)[O-]
REMARK SMILES IDX 9 1 10 2 11 3 12 4 13 5 14 6 15 7 16 8 17 9 18 10 8 11 7 12
REMARK SMILES IDX 6 13 5 14 4 15 3 16 2 17 1 18
REMARK H PARENT
REMARK Flexibility Score: inf
ROOT
ATOM      1  C   UNL     1      95.129  84.934  79.212  1.00  0.00     0.000 C 
ENDROOT
BRANCH   1   2
ATOM      2  C   UNL     1      95.637  84.844  77.760  1.00  0.00     0.000 C 
BRANCH   2   3
ATOM      3  C   UNL     1      94.496  84.898  76.730  1.00  0.00     0.000 C 
BRANCH   3   4
ATOM      4  C   UNL     1      93.109  84.751  77.381  1.00  0.00     0.000 C 
BRANCH   4   5
ATOM      5  C   UNL     1      92.471  83.374  77.126  1.00  0.00     0.000 C 
BRANCH   5   6
ATOM      6  C   UNL     1      91.650  82.806  78.298  1.00  0.00     0.006 C 
BRANCH   6   7
ATOM      7  C   UNL     1      91.131  83.892  79.247  1.00  0.00     0.053 C 
BRANCH   7   8
ATOM      8  C   UNL     1      89.635  83.880  79.286  1.00  0.00     0.041 C 
ATOM      9  O   UNL     1      89.010  82.786  79.303  1.00  0.00    -0.550 OA
ATOM     10  O   UNL     1      88.930  85.075  79.349  1.00  0.00    -0.550 OA
ENDBRANCH   7   8
ENDBRANCH   6   7
ENDBRANCH   5   6
ENDBRANCH   4   5
ENDBRANCH   3   4
ENDBRANCH   2   3
ENDBRANCH   1   2
BRANCH   1  11
ATOM     11  C   UNL     1      95.433  83.660  80.018  1.00  0.00     0.000 C 
BRANCH  11  12
ATOM     12  C   UNL     1      95.734  82.450  79.117  1.00  0.00    -0.000 C 
BRANCH  12  13
ATOM     13  C   UNL     1      97.114  81.829  79.420  1.00  0.00    -0.000 C 
BRANCH  13  14
ATOM     14  C   UNL     1      98.072  82.784  80.150  1.00  0.00    -0.000 C 
BRANCH  14  15
ATOM     15  C   UNL     1      99.425  82.137  80.488  1.00  0.00    -0.000 C 
BRANCH  15  16
ATOM     16  C   UNL     1     100.346  83.092  81.276  1.00  0.00    -0.000 C 
BRANCH  16  17
ATOM     17  C   UNL     1      99.943  83.257  82.751  1.00  0.00    -0.003 C 
ATOM     18  C   UNL     1      99.522  81.945  83.408  1.00  0.00     0.004 C 
ENDBRANCH  16  17
ENDBRANCH  15  16
ENDBRANCH  14  15
ENDBRANCH  13  14
ENDBRANCH  12  13
ENDBRANCH  11  12
ENDBRANCH   1  11
TORSDOF 14
ENDMDL
MODEL 6
REMARK VINA RESULT:    -4.088      1.337      2.080
REMARK INTER + INTRA:          -8.948
REMARK INTER:                  -7.325
REMARK INTRA:                  -1.623
REMARK UNBOUND:                -1.514
REMARK SMILES CCCCCCCCCCCCCCCC(=O)[O-]
REMARK SMILES IDX 9 1 10 2 11 3 12 4 13 5 14 6 15 7 16 8 17 9 18 10 8 11 7 12
REMARK SMILES IDX 6 13 5 14 4 15 3 16 2 17 1 18
REMARK H PARENT
REMARK Flexibility Score: inf
ROOT
ATOM      1  C   UNL     1      94.769  85.574  77.473  1.00  0.00     0.000 C 
ENDROOT
BRANCH   1   2
ATOM      2  C   UNL     1      95.590  84.457  78.144  1.00  0.00     0.000 C 
BRANCH   2   3
ATOM      3  C   UNL     1      95.143  84.182  79.590  1.00  0.00     0.000 C 
BRANCH   3   4
ATOM      4  C   UNL     1      95.910  83.011  80.229  1.00  0.00     0.000 C 
BRANCH   4   5
ATOM      5  C   UNL     1      96.526  82.059  79.188  1.00  0.00     0.000 C 
BRANCH   5   6
ATOM      6  C   UNL     1      98.065  82.060  79.131  1.00  0.00     0.006 C 
BRANCH   6   7
ATOM      7  C   UNL     1      98.715  82.033  80.520  1.00  0.00     0.053 C 
BRANCH   7   8
ATOM      8  C   UNL     1      99.535  83.266  80.736  1.00  0.00     0.041 C 
ATOM      9  O   UNL     1     100.635  83.198  81.347  1.00  0.00    -0.550 OA
ATOM     10  O   UNL     1      99.108  84.485  80.223  1.00  0.00    -0.550 OA
ENDBRANCH   7   8
ENDBRANCH   6   7
ENDBRANCH   5   6
ENDBRANCH   4   5
ENDBRANCH   3   4
ENDBRANCH   2   3
ENDBRANCH   1   2
BRANCH   1  11
ATOM     11  C   UNL     1      93.988  85.072  76.248  1.00  0.00     0.000 C 
BRANCH  11  12
ATOM     12  C   UNL     1      92.552  84.646  76.598  1.00  0.00    -0.000 C 
BRANCH  12  13
ATOM     13  C   UNL     1      92.441  83.128  76.852  1.00  0.00    -0.000 C 
BRANCH  13  14
ATOM     14  C   UNL     1      91.940  82.775  78.262  1.00  0.00    -0.000 C 
BRANCH  14  15
ATOM     15  C   UNL     1      90.537  83.328  78.558  1.00  0.00    -0.000 C 
BRANCH  15  16
ATOM     16  C   UNL     1      90.424  83.890  79.992  1.00  0.00    -0.000 C 
BRANCH  16  17
ATOM     17  C   UNL     1      91.234  85.178  80.213  1.00  0.00    -0.003 C 
ATOM     18  C   UNL     1      92.165  85.101  81.421  1.00  0.00     0.004 C 
ENDBRANCH  16  17
ENDBRANCH  15  16
ENDBRANCH  14  15
ENDBRANCH  13  14
ENDBRANCH  12  13
ENDBRANCH  11  12
ENDBRANCH   1  11
TORSDOF 14
ENDMDL
MODEL 7
REMARK VINA RESULT:    -4.070      3.854      7.212
REMARK INTER + INTRA:          -8.915
REMARK INTER:                  -6.848
REMARK INTRA:                  -2.067
REMARK UNBOUND:                -1.514
REMARK SMILES CCCCCCCCCCCCCCCC(=O)[O-]
REMARK SMILES IDX 9 1 10 2 11 3 12 4 13 5 14 6 15 7 16 8 17 9 18 10 8 11 7 12
REMARK SMILES IDX 6 13 5 14 4 15 3 16 2 17 1 18
REMARK H PARENT
REMARK Flexibility Score: inf
ROOT
ATOM      1  C   UNL     1      95.331  84.843  82.057  1.00  0.00     0.000 C 
ENDROOT
BRANCH   1   2
ATOM      2  C   UNL     1      94.708  84.631  80.664  1.00  0.00     0.000 C 
BRANCH   2   3
ATOM      3  C   UNL     1      95.418  85.443  79.568  1.00  0.00     0.000 C 
BRANCH   3   4
ATOM      4  C   UNL     1      94.538  85.644  78.322  1.00  0.00     0.000 C 
BRANCH   4   5
ATOM      5  C   UNL     1      94.553  84.429  77.377  1.00  0.00     0.000 C 
BRANCH   5   6
ATOM      6  C   UNL     1      93.175  83.998  76.843  1.00  0.00     0.006 C 
BRANCH   6   7
ATOM      7  C   UNL     1      92.511  82.918  77.705  1.00  0.00     0.053 C 
BRANCH   7   8
ATOM      8  C   UNL     1      91.337  83.485  78.440  1.00  0.00     0.041 C 
ATOM      9  O   UNL     1      91.512  84.168  79.484  1.00  0.00    -0.550 OA
ATOM     10  O   UNL     1      90.051  83.298  77.948  1.00  0.00    -0.550 OA
ENDBRANCH   7   8
ENDBRANCH   6   7
ENDBRANCH   5   6
ENDBRANCH   4   5
ENDBRANCH   3   4
ENDBRANCH   2   3
ENDBRANCH   1   2
BRANCH   1  11
ATOM     11  C   UNL     1      95.580  83.517  82.795  1.00  0.00     0.000 C 
BRANCH  11  12
ATOM     12  C   UNL     1      96.953  83.476  83.488  1.00  0.00    -0.000 C 
BRANCH  12  13
ATOM     13  C   UNL     1      98.049  84.164  82.648  1.00  0.00    -0.000 C 
BRANCH  13  14
ATOM     14  C   UNL     1      99.247  83.252  82.334  1.00  0.00    -0.000 C 
BRANCH  14  15
ATOM     15  C   UNL     1      98.982  82.295  81.160  1.00  0.00    -0.000 C 
BRANCH  15  16
ATOM     16  C   UNL     1      98.143  82.958  80.047  1.00  0.00    -0.000 C 
BRANCH  16  17
ATOM     17  C   UNL     1      97.605  81.963  79.006  1.00  0.00    -0.003 C 
ATOM     18  C   UNL     1      96.164  81.536  79.272  1.00  0.00     0.004 C 
ENDBRANCH  16  17
ENDBRANCH  15  16
ENDBRANCH  14  15
ENDBRANCH  13  14
ENDBRANCH  12  13
ENDBRANCH  11  12
ENDBRANCH   1  11
TORSDOF 14
ENDMDL
MODEL 8
REMARK VINA RESULT:    -4.039      4.188      8.046
REMARK INTER + INTRA:          -8.859
REMARK INTER:                  -7.473
REMARK INTRA:                  -1.386
REMARK UNBOUND:                -1.514
REMARK SMILES CCCCCCCCCCCCCCCC(=O)[O-]
REMARK SMILES IDX 9 1 10 2 11 3 12 4 13 5 14 6 15 7 16 8 17 9 18 10 8 11 7 12
REMARK SMILES IDX 6 13 5 14 4 15 3 16 2 17 1 18
REMARK H PARENT
REMARK Flexibility Score: inf
ROOT
ATOM      1  C   UNL     1      97.784  81.991  79.155  1.00  0.00     0.000 C 
ENDROOT
BRANCH   1   2
ATOM      2  C   UNL     1      96.255  82.059  78.980  1.00  0.00     0.000 C 
BRANCH   2   3
ATOM      3  C   UNL     1      95.706  83.488  79.122  1.00  0.00     0.000 C 
BRANCH   3   4
ATOM      4  C   UNL     1      95.712  84.255  77.788  1.00  0.00     0.000 C 
BRANCH   4   5
ATOM      5  C   UNL     1      94.299  84.625  77.303  1.00  0.00     0.000 C 
BRANCH   5   6
ATOM      6  C   UNL     1      93.157  83.799  77.922  1.00  0.00     0.006 C 
BRANCH   6   7
ATOM      7  C   UNL     1      92.227  83.181  76.871  1.00  0.00     0.053 C 
BRANCH   7   8
ATOM      8  C   UNL     1      90.923  83.913  76.833  1.00  0.00     0.041 C 
ATOM      9  O   UNL     1      90.042  83.685  77.704  1.00  0.00    -0.550 OA
ATOM     10  O   UNL     1      90.696  84.881  75.863  1.00  0.00    -0.550 OA
ENDBRANCH   7   8
ENDBRANCH   6   7
ENDBRANCH   5   6
ENDBRANCH   4   5
ENDBRANCH   3   4
ENDBRANCH   2   3
ENDBRANCH   1   2
BRANCH   1  11
ATOM     11  C   UNL     1      98.258  82.705  80.432  1.00  0.00     0.000 C 
BRANCH  11  12
ATOM     12  C   UNL     1      99.703  82.336  80.812  1.00  0.00    -0.000 C 
BRANCH  12  13
ATOM     13  C   UNL     1     100.428  83.492  81.533  1.00  0.00    -0.000 C 
BRANCH  13  14
ATOM     14  C   UNL     1     101.570  84.110  80.711  1.00  0.00    -0.000 C 
BRANCH  14  15
ATOM     15  C   UNL     1     101.279  85.554  80.268  1.00  0.00    -0.000 C 
BRANCH  15  16
ATOM     16  C   UNL     1      99.865  86.015  80.681  1.00  0.00    -0.000 C 
BRANCH  16  17
ATOM     17  C   UNL     1      98.909  86.204  79.493  1.00  0.00    -0.003 C 
ATOM     18  C   UNL     1      97.526  86.702  79.909  1.00  0.00     0.004 C 
ENDBRANCH  16  17
ENDBRANCH  15  16
ENDBRANCH  14  15
ENDBRANCH  13  14
ENDBRANCH  12  13
ENDBRANCH  11  12
ENDBRANCH   1  11
TORSDOF 14
ENDMDL
