MODEL 1
REMARK VINA RESULT:    -5.983      0.000      0.000
REMARK INTER + INTRA:          -6.567
REMARK INTER:                  -6.508
REMARK INTRA:                  -0.059
REMARK UNBOUND:                -0.059
REMARK SMILES COc1cc2ccc(=O)oc2cc1O
REMARK SMILES IDX 3 1 13 2 12 3 11 4 5 5 4 6 6 7 7 8 8 9 9 10 10 11 2 12 1 13
REMARK SMILES IDX 14 14
REMARK H PARENT 14 15
REMARK Flexibility Score: inf
ROOT
ATOM      1  C   UNL     1      12.456  10.772  14.299  1.00  0.00     0.161 A 
ATOM      2  C   UNL     1      11.838  11.525  15.309  1.00  0.00     0.161 A 
ATOM      3  C   UNL     1      10.456  11.418  15.527  1.00  0.00     0.098 A 
ATOM      4  C   UNL     1       9.682  10.562  14.740  1.00  0.00     0.142 A 
ATOM      5  C   UNL     1      10.296   9.802  13.722  1.00  0.00     0.022 A 
ATOM      6  C   UNL     1      11.677   9.907  13.502  1.00  0.00     0.062 A 
ATOM      7  C   UNL     1       9.495   8.954  12.950  1.00  0.00     0.019 A 
ATOM      8  C   UNL     1       8.126   8.884  13.206  1.00  0.00     0.094 A 
ATOM      9  C   UNL     1       7.588   9.667  14.232  1.00  0.00     0.336 A 
ATOM     10  O   UNL     1       6.355   9.618  14.478  1.00  0.00    -0.246 OA
ATOM     11  O   UNL     1       8.372  10.465  14.951  1.00  0.00    -0.423 OA
ENDROOT
BRANCH   1  12
ATOM     12  O   UNL     1      13.840  10.910  14.116  1.00  0.00    -0.493 OA
ATOM     13  C   UNL     1      14.774   9.836  14.182  1.00  0.00     0.278 C 
ENDBRANCH   1  12
BRANCH   2  14
ATOM     14  O   UNL     1      12.606  12.379  16.097  1.00  0.00    -0.504 OA
ATOM     15  H   UNL     1      13.422  12.853  15.727  1.00  0.00     0.293 HD
ENDBRANCH   2  14
TORSDOF 2
ENDMDL
MODEL 2
REMARK VINA RESULT:    -5.708      1.464      4.755
REMARK INTER + INTRA:          -6.268
REMARK INTER:                  -6.222
REMARK INTRA:                  -0.046
REMARK UNBOUND:                -0.059
REMARK SMILES COc1cc2ccc(=O)oc2cc1O
REMARK SMILES IDX 3 1 13 2 12 3 11 4 5 5 4 6 6 7 7 8 8 9 9 10 10 11 2 12 1 13
REMARK SMILES IDX 14 14
REMARK H PARENT 14 15
REMARK Flexibility Score: inf
ROOT
ATOM      1  C   UNL     1       8.849   9.121  12.774  1.00  0.00     0.161 A 
ATOM      2  C   UNL     1       8.155   9.641  13.878  1.00  0.00     0.161 A 
ATOM      3  C   UNL     1       8.796  10.511  14.772  1.00  0.00     0.098 A 
ATOM      4  C   UNL     1      10.131  10.869  14.572  1.00  0.00     0.142 A 
ATOM      5  C   UNL     1      10.836  10.352  13.465  1.00  0.00     0.022 A 
ATOM      6  C   UNL     1      10.197   9.481  12.570  1.00  0.00     0.062 A 
ATOM      7  C   UNL     1      12.172  10.728  13.291  1.00  0.00     0.019 A 
ATOM      8  C   UNL     1      12.764  11.596  14.208  1.00  0.00     0.094 A 
ATOM      9  C   UNL     1      12.002  12.068  15.282  1.00  0.00     0.336 A 
ATOM     10  O   UNL     1      12.518  12.853  16.120  1.00  0.00    -0.246 OA
ATOM     11  O   UNL     1      10.733  11.695  15.424  1.00  0.00    -0.423 OA
ENDROOT
BRANCH   1  12
ATOM     12  O   UNL     1       8.168   8.255  11.905  1.00  0.00    -0.493 OA
ATOM     13  C   UNL     1       8.606   7.921  10.592  1.00  0.00     0.278 C 
ENDBRANCH   1  12
BRANCH   2  14
ATOM     14  O   UNL     1       6.822   9.286  14.080  1.00  0.00    -0.504 OA
ATOM     15  H   UNL     1       6.465   8.380  13.802  1.00  0.00     0.293 HD
ENDBRANCH   2  14
TORSDOF 2
ENDMDL
MODEL 3
REMARK VINA RESULT:    -5.569      1.931      4.860
REMARK INTER + INTRA:          -6.116
REMARK INTER:                  -6.065
REMARK INTRA:                  -0.051
REMARK UNBOUND:                -0.059
REMARK SMILES COc1cc2ccc(=O)oc2cc1O
REMARK SMILES IDX 3 1 13 2 12 3 11 4 5 5 4 6 6 7 7 8 8 9 9 10 10 11 2 12 1 13
REMARK SMILES IDX 14 14
REMARK H PARENT 14 15
REMARK Flexibility Score: inf
ROOT
ATOM      1  C   UNL     1       9.972   9.709  14.385  1.00  0.00     0.161 A 
ATOM      2  C   UNL     1      10.970  10.226  15.225  1.00  0.00     0.161 A 
ATOM      3  C   UNL     1      12.196  10.650  14.690  1.00  0.00     0.098 A 
ATOM      4  C   UNL     1      12.434  10.561  13.317  1.00  0.00     0.142 A 
ATOM      5  C   UNL     1      11.435  10.043  12.465  1.00  0.00     0.022 A 
ATOM      6  C   UNL     1      10.210   9.618  12.998  1.00  0.00     0.062 A 
ATOM      7  C   UNL     1      11.704   9.966  11.094  1.00  0.00     0.019 A 
ATOM      8  C   UNL     1      12.938  10.400  10.613  1.00  0.00     0.094 A 
ATOM      9  C   UNL     1      13.879  10.903  11.517  1.00  0.00     0.336 A 
ATOM     10  O   UNL     1      14.999  11.300  11.101  1.00  0.00    -0.246 OA
ATOM     11  O   UNL     1      13.599  10.965  12.815  1.00  0.00    -0.423 OA
ENDROOT
BRANCH   1  12
ATOM     12  O   UNL     1       8.761   9.298  14.962  1.00  0.00    -0.493 OA
ATOM     13  C   UNL     1       7.476   9.518  14.388  1.00  0.00     0.278 C 
ENDBRANCH   1  12
BRANCH   2  14
ATOM     14  O   UNL     1      10.736  10.317  16.595  1.00  0.00    -0.504 OA
ATOM     15  H   UNL     1      11.016   9.581  17.233  1.00  0.00     0.293 HD
ENDBRANCH   2  14
TORSDOF 2
ENDMDL
MODEL 4
REMARK VINA RESULT:    -5.295      2.041      5.147
REMARK INTER + INTRA:          -5.818
REMARK INTER:                  -5.773
REMARK INTRA:                  -0.046
REMARK UNBOUND:                -0.059
REMARK SMILES COc1cc2ccc(=O)oc2cc1O
REMARK SMILES IDX 3 1 13 2 12 3 11 4 5 5 4 6 6 7 7 8 8 9 9 10 10 11 2 12 1 13
REMARK SMILES IDX 14 14
REMARK H PARENT 14 15
REMARK Flexibility Score: inf
ROOT
ATOM      1  C   UNL     1      10.493  10.117  13.988  1.00  0.00     0.161 A 
ATOM      2  C   UNL     1      11.498  10.409  14.923  1.00  0.00     0.161 A 
ATOM      3  C   UNL     1      12.839  10.487  14.520  1.00  0.00     0.098 A 
ATOM      4  C   UNL     1      13.187  10.274  13.184  1.00  0.00     0.142 A 
ATOM      5  C   UNL     1      12.183   9.980  12.238  1.00  0.00     0.022 A 
ATOM      6  C   UNL     1      10.842   9.901  12.638  1.00  0.00     0.062 A 
ATOM      7  C   UNL     1      12.563   9.771  10.907  1.00  0.00     0.019 A 
ATOM      8  C   UNL     1      13.909   9.859  10.557  1.00  0.00     0.094 A 
ATOM      9  C   UNL     1      14.849  10.155  11.550  1.00  0.00     0.336 A 
ATOM     10  O   UNL     1      16.070  10.239  11.254  1.00  0.00    -0.246 OA
ATOM     11  O   UNL     1      14.462  10.349  12.808  1.00  0.00    -0.423 OA
ENDROOT
BRANCH   1  12
ATOM     12  O   UNL     1       9.165  10.049  14.435  1.00  0.00    -0.493 OA
ATOM     13  C   UNL     1       8.105   9.418  13.724  1.00  0.00     0.278 C 
ENDBRANCH   1  12
BRANCH   2  14
ATOM     14  O   UNL     1      11.154  10.623  16.256  1.00  0.00    -0.504 OA
ATOM     15  H   UNL     1      11.470  11.443  16.761  1.00  0.00     0.293 HD
ENDBRANCH   2  14
TORSDOF 2
ENDMDL
MODEL 5
REMARK VINA RESULT:    -5.219      1.898      2.808
REMARK INTER + INTRA:          -5.736
REMARK INTER:                  -5.671
REMARK INTRA:                  -0.064
REMARK UNBOUND:                -0.059
REMARK SMILES COc1cc2ccc(=O)oc2cc1O
REMARK SMILES IDX 3 1 13 2 12 3 11 4 5 5 4 6 6 7 7 8 8 9 9 10 10 11 2 12 1 13
REMARK SMILES IDX 14 14
REMARK H PARENT 14 15
REMARK Flexibility Score: inf
ROOT
ATOM      1  C   UNL     1      13.018   9.754  12.732  1.00  0.00     0.161 A 
ATOM      2  C   UNL     1      12.181   9.772  11.605  1.00  0.00     0.161 A 
ATOM      3  C   UNL     1      10.787   9.734  11.758  1.00  0.00     0.098 A 
ATOM      4  C   UNL     1      10.219   9.677  13.033  1.00  0.00     0.142 A 
ATOM      5  C   UNL     1      11.053   9.659  14.170  1.00  0.00     0.022 A 
ATOM      6  C   UNL     1      12.447   9.696  14.020  1.00  0.00     0.062 A 
ATOM      7  C   UNL     1      10.455   9.602  15.434  1.00  0.00     0.019 A 
ATOM      8  C   UNL     1       9.065   9.565  15.532  1.00  0.00     0.094 A 
ATOM      9  C   UNL     1       8.302   9.586  14.360  1.00  0.00     0.336 A 
ATOM     10  O   UNL     1       7.046   9.554  14.429  1.00  0.00    -0.246 OA
ATOM     11  O   UNL     1       8.896   9.641  13.171  1.00  0.00    -0.423 OA
ENDROOT
BRANCH   1  12
ATOM     12  O   UNL     1      14.406   9.794  12.532  1.00  0.00    -0.493 OA
ATOM     13  C   UNL     1      15.285   8.695  12.751  1.00  0.00     0.278 C 
ENDBRANCH   1  12
BRANCH   2  14
ATOM     14  O   UNL     1      12.744   9.829  10.332  1.00  0.00    -0.504 OA
ATOM     15  H   UNL     1      12.632  10.643   9.737  1.00  0.00     0.293 HD
ENDBRANCH   2  14
TORSDOF 2
ENDMDL
MODEL 6
REMARK VINA RESULT:    -5.041      3.321      5.835
REMARK INTER + INTRA:          -5.542
REMARK INTER:                  -5.482
REMARK INTRA:                  -0.060
REMARK UNBOUND:                -0.059
REMARK SMILES COc1cc2ccc(=O)oc2cc1O
REMARK SMILES IDX 3 1 13 2 12 3 11 4 5 5 4 6 6 7 7 8 8 9 9 10 10 11 2 12 1 13
REMARK SMILES IDX 14 14
REMARK H PARENT 14 15
REMARK Flexibility Score: inf
ROOT
ATOM      1  C   UNL     1      13.386  10.565  13.380  1.00  0.00     0.161 A 
ATOM      2  C   UNL     1      14.060   9.794  14.340  1.00  0.00     0.161 A 
ATOM      3  C   UNL     1      14.719   8.614  13.963  1.00  0.00     0.098 A 
ATOM      4  C   UNL     1      14.710   8.196  12.631  1.00  0.00     0.142 A 
ATOM      5  C   UNL     1      14.035   8.966  11.660  1.00  0.00     0.022 A 
ATOM      6  C   UNL     1      13.375  10.145  12.034  1.00  0.00     0.062 A 
ATOM      7  C   UNL     1      14.044   8.521  10.334  1.00  0.00     0.019 A 
ATOM      8  C   UNL     1      14.713   7.341  10.011  1.00  0.00     0.094 A 
ATOM      9  C   UNL     1      15.360   6.630  11.027  1.00  0.00     0.336 A 
ATOM     10  O   UNL     1      15.970   5.563  10.756  1.00  0.00    -0.246 OA
ATOM     11  O   UNL     1      15.337   7.075  12.280  1.00  0.00    -0.423 OA
ENDROOT
BRANCH   1  12
ATOM     12  O   UNL     1      12.741  11.738  13.801  1.00  0.00    -0.493 OA
ATOM     13  C   UNL     1      11.355  11.829  14.114  1.00  0.00     0.278 C 
ENDBRANCH   1  12
BRANCH   2  14
ATOM     14  O   UNL     1      14.072  10.208  15.670  1.00  0.00    -0.504 OA
ATOM     15  H   UNL     1      14.634  10.993  15.978  1.00  0.00     0.293 HD
ENDBRANCH   2  14
TORSDOF 2
ENDMDL
MODEL 7
REMARK VINA RESULT:    -5.036      3.334      4.889
REMARK INTER + INTRA:          -5.536
REMARK INTER:                  -5.473
REMARK INTRA:                  -0.063
REMARK UNBOUND:                -0.059
REMARK SMILES COc1cc2ccc(=O)oc2cc1O
REMARK SMILES IDX 3 1 13 2 12 3 11 4 5 5 4 6 6 7 7 8 8 9 9 10 10 11 2 12 1 13
REMARK SMILES IDX 14 14
REMARK H PARENT 14 15
REMARK Flexibility Score: inf
ROOT
ATOM      1  C   UNL     1      14.683   8.476  11.738  1.00  0.00     0.161 A 
ATOM      2  C   UNL     1      15.001   8.155  13.066  1.00  0.00     0.161 A 
ATOM      3  C   UNL     1      14.485   8.922  14.122  1.00  0.00     0.098 A 
ATOM      4  C   UNL     1      13.651  10.011  13.861  1.00  0.00     0.142 A 
ATOM      5  C   UNL     1      13.327  10.339  12.528  1.00  0.00     0.022 A 
ATOM      6  C   UNL     1      13.841   9.575  11.471  1.00  0.00     0.062 A 
ATOM      7  C   UNL     1      12.489  11.436  12.297  1.00  0.00     0.019 A 
ATOM      8  C   UNL     1      12.003  12.166  13.381  1.00  0.00     0.094 A 
ATOM      9  C   UNL     1      12.368  11.781  14.676  1.00  0.00     0.336 A 
ATOM     10  O   UNL     1      11.939  12.427  15.667  1.00  0.00    -0.246 OA
ATOM     11  O   UNL     1      13.165  10.734  14.867  1.00  0.00    -0.423 OA
ENDROOT
BRANCH   1  12
ATOM     12  O   UNL     1      15.221   7.682  10.713  1.00  0.00    -0.493 OA
ATOM     13  C   UNL     1      14.458   6.818   9.876  1.00  0.00     0.278 C 
ENDBRANCH   1  12
BRANCH   2  14
ATOM     14  O   UNL     1      15.833   7.069  13.332  1.00  0.00    -0.504 OA
ATOM     15  H   UNL     1      16.383   7.015  14.181  1.00  0.00     0.293 HD
ENDBRANCH   2  14
TORSDOF 2
ENDMDL
MODEL 8
REMARK VINA RESULT:    -4.977      2.163      5.228
REMARK INTER + INTRA:          -5.472
REMARK INTER:                  -5.427
REMARK INTRA:                  -0.045
REMARK UNBOUND:                -0.059
REMARK SMILES COc1cc2ccc(=O)oc2cc1O
REMARK SMILES IDX 3 1 13 2 12 3 11 4 5 5 4 6 6 7 7 8 8 9 9 10 10 11 2 12 1 13
REMARK SMILES IDX 14 14
REMARK H PARENT 14 15
REMARK Flexibility Score: inf
ROOT
ATOM      1  C   UNL     1      10.333   9.543  14.457  1.00  0.00     0.161 A 
ATOM      2  C   UNL     1       9.746   9.497  13.183  1.00  0.00     0.161 A 
ATOM      3  C   UNL     1      10.534   9.659  12.034  1.00  0.00     0.098 A 
ATOM      4  C   UNL     1      11.911   9.868  12.147  1.00  0.00     0.142 A 
ATOM      5  C   UNL     1      12.509   9.915  13.424  1.00  0.00     0.022 A 
ATOM      6  C   UNL     1      11.723   9.754  14.574  1.00  0.00     0.062 A 
ATOM      7  C   UNL     1      13.889  10.126  13.505  1.00  0.00     0.019 A 
ATOM      8  C   UNL     1      14.628  10.282  12.333  1.00  0.00     0.094 A 
ATOM      9  C   UNL     1      13.967  10.223  11.103  1.00  0.00     0.336 A 
ATOM     10  O   UNL     1      14.616  10.361  10.034  1.00  0.00    -0.246 OA
ATOM     11  O   UNL     1      12.653  10.021  11.053  1.00  0.00    -0.423 OA
ENDROOT
BRANCH   1  12
ATOM     12  O   UNL     1       9.507   9.376  15.579  1.00  0.00    -0.493 OA
ATOM     13  C   UNL     1       9.954   9.449  16.929  1.00  0.00     0.278 C 
ENDBRANCH   1  12
BRANCH   2  14
ATOM     14  O   UNL     1       8.373   9.288  13.067  1.00  0.00    -0.504 OA
ATOM     15  H   UNL     1       7.821   9.765  12.363  1.00  0.00     0.293 HD
ENDBRANCH   2  14
TORSDOF 2
ENDMDL
MODEL 9
REMARK VINA RESULT:    -4.915      2.290      3.273
REMARK INTER + INTRA:          -5.404
REMARK INTER:                  -5.367
REMARK INTRA:                  -0.037
REMARK UNBOUND:                -0.059
REMARK SMILES COc1cc2ccc(=O)oc2cc1O
REMARK SMILES IDX 3 1 13 2 12 3 11 4 5 5 4 6 6 7 7 8 8 9 9 10 10 11 2 12 1 13
REMARK SMILES IDX 14 14
REMARK H PARENT 14 15
REMARK Flexibility Score: inf
ROOT
ATOM      1  C   UNL     1      13.696   9.960  11.594  1.00  0.00     0.161 A 
ATOM      2  C   UNL     1      14.340   9.885  12.839  1.00  0.00     0.161 A 
ATOM      3  C   UNL     1      13.589   9.761  14.018  1.00  0.00     0.098 A 
ATOM      4  C   UNL     1      12.195   9.711  13.963  1.00  0.00     0.142 A 
ATOM      5  C   UNL     1      11.540   9.785  12.716  1.00  0.00     0.022 A 
ATOM      6  C   UNL     1      12.288   9.910  11.536  1.00  0.00     0.062 A 
ATOM      7  C   UNL     1      10.142   9.732  12.694  1.00  0.00     0.019 A 
ATOM      8  C   UNL     1       9.442   9.608  13.893  1.00  0.00     0.094 A 
ATOM      9  C   UNL     1      10.159   9.541  15.092  1.00  0.00     0.336 A 
ATOM     10  O   UNL     1       9.546   9.429  16.185  1.00  0.00    -0.246 OA
ATOM     11  O   UNL     1      11.489   9.593  15.085  1.00  0.00    -0.423 OA
ENDROOT
BRANCH   1  12
ATOM     12  O   UNL     1      14.486  10.083  10.441  1.00  0.00    -0.493 OA
ATOM     13  C   UNL     1      14.900  11.323   9.875  1.00  0.00     0.278 C 
ENDBRANCH   1  12
BRANCH   2  14
ATOM     14  O   UNL     1      15.731   9.935  12.897  1.00  0.00    -0.504 OA
ATOM     15  H   UNL     1      16.237  10.806  12.783  1.00  0.00     0.293 HD
ENDBRANCH   2  14
TORSDOF 2
ENDMDL
