MODEL 1
REMARK VINA RESULT:    -8.036      0.000      0.000
REMARK INTER + INTRA:         -12.882
REMARK INTER:                 -11.090
REMARK INTRA:                  -1.792
REMARK UNBOUND:                -1.792
REMARK SMILES CC[C@H](CC[C@H](C)[C@H]1CC[C@H]2[C@H]3CC=C4C[C@H](O)CC[C@]4(C)[C@H]3CC[C@]12C)C(C)C
REMARK SMILES IDX 5 1 4 2 3 3 2 4 1 5 28 6 29 7 30 8 6 9 7 10 8 11 9 12 26 13
REMARK SMILES IDX 10 14 11 15 25 16 27 17 12 18 24 19 23 20 13 21 21 22 14 23
REMARK SMILES IDX 15 24 20 25 22 26 16 27 19 28 17 29 18 30
REMARK H PARENT 18 31
REMARK Flexibility Score: inf
ROOT
ATOM      1  C   UNL     1      26.353 -26.520  33.979  1.00  0.00     0.004 C 
ENDROOT
BRANCH   1   2
ATOM      2  C   UNL     1      27.628 -25.653  33.919  1.00  0.00     0.004 C 
BRANCH   2   3
ATOM      3  C   UNL     1      28.448 -25.703  35.243  1.00  0.00    -0.009 C 
BRANCH   3   4
ATOM      4  C   UNL     1      27.530 -25.851  36.486  1.00  0.00     0.000 C 
ATOM      5  C   UNL     1      27.859 -24.848  37.596  1.00  0.00     0.004 C 
ENDBRANCH   3   4
BRANCH   3   6
ATOM      6  C   UNL     1      29.548 -26.814  35.170  1.00  0.00    -0.014 C 
ATOM      7  C   UNL     1      29.138 -28.097  35.907  1.00  0.00     0.007 C 
ATOM      8  C   UNL     1      29.984 -27.140  33.730  1.00  0.00     0.007 C 
ENDBRANCH   3   6
ENDBRANCH   2   3
ENDBRANCH   1   2
BRANCH   1   9
ATOM      9  C   UNL     1      26.226 -27.565  32.838  1.00  0.00    -0.011 C 
ATOM     10  C   UNL     1      26.680 -28.957  33.347  1.00  0.00     0.008 C 
BRANCH   9  11
ATOM     11  C   UNL     1      26.839 -27.051  31.476  1.00  0.00    -0.002 C 
ATOM     12  C   UNL     1      27.695 -28.060  30.642  1.00  0.00     0.005 C 
ATOM     13  C   UNL     1      25.871 -26.400  30.436  1.00  0.00    -0.026 C 
ATOM     14  C   UNL     1      27.464 -27.711  29.159  1.00  0.00     0.005 C 
ATOM     15  C   UNL     1      26.798 -26.349  29.212  1.00  0.00    -0.001 C 
ATOM     16  C   UNL     1      25.458 -24.942  30.744  1.00  0.00     0.007 C 
ATOM     17  C   UNL     1      24.612 -27.288  30.249  1.00  0.00     0.012 C 
ATOM     18  C   UNL     1      26.262 -25.699  27.916  1.00  0.00     0.000 C 
ATOM     19  C   UNL     1      24.760 -24.292  29.527  1.00  0.00     0.005 C 
ATOM     20  C   UNL     1      25.610 -24.313  28.210  1.00  0.00     0.003 C 
ATOM     21  C   UNL     1      25.388 -26.548  26.986  1.00  0.00     0.031 C 
ATOM     22  C   UNL     1      24.884 -23.671  26.927  1.00  0.00    -0.008 C 
ATOM     23  C   UNL     1      25.283 -25.824  25.680  1.00  0.00    -0.027 C 
ATOM     24  C   UNL     1      25.146 -24.482  25.637  1.00  0.00    -0.065 C 
ATOM     25  C   UNL     1      25.429 -22.215  26.747  1.00  0.00     0.014 C 
ATOM     26  C   UNL     1      23.341 -23.607  27.080  1.00  0.00     0.016 C 
ATOM     27  C   UNL     1      24.980 -23.831  24.276  1.00  0.00     0.063 C 
ATOM     28  C   UNL     1      25.089 -21.572  25.394  1.00  0.00     0.033 C 
ATOM     29  C   UNL     1      25.596 -22.427  24.233  1.00  0.00     0.118 C 
BRANCH  29  30
ATOM     30  O   UNL     1      26.999 -22.507  24.277  1.00  0.00    -0.393 OA
ATOM     31  H   UNL     1      27.234 -23.446  24.065  1.00  0.00     0.210 HD
ENDBRANCH  29  30
ENDBRANCH   9  11
ENDBRANCH   1   9
TORSDOF 7
ENDMDL
MODEL 2
REMARK VINA RESULT:    -7.855      2.016      3.458
REMARK INTER + INTRA:         -12.632
REMARK INTER:                 -11.785
REMARK INTRA:                  -0.847
REMARK UNBOUND:                -1.792
REMARK SMILES CC[C@H](CC[C@H](C)[C@H]1CC[C@H]2[C@H]3CC=C4C[C@H](O)CC[C@]4(C)[C@H]3CC[C@]12C)C(C)C
REMARK SMILES IDX 5 1 4 2 3 3 2 4 1 5 28 6 29 7 30 8 6 9 7 10 8 11 9 12 26 13
REMARK SMILES IDX 10 14 11 15 25 16 27 17 12 18 24 19 23 20 13 21 21 22 14 23
REMARK SMILES IDX 15 24 20 25 22 26 16 27 19 28 17 29 18 30
REMARK H PARENT 18 31
REMARK Flexibility Score: inf
ROOT
ATOM      1  C   UNL     1      28.251 -29.505  34.312  1.00  0.00     0.004 C 
ENDROOT
BRANCH   1   2
ATOM      2  C   UNL     1      28.542 -28.674  35.580  1.00  0.00     0.004 C 
BRANCH   2   3
ATOM      3  C   UNL     1      27.253 -28.365  36.400  1.00  0.00    -0.009 C 
BRANCH   3   4
ATOM      4  C   UNL     1      27.242 -29.111  37.762  1.00  0.00     0.000 C 
ATOM      5  C   UNL     1      26.488 -28.349  38.856  1.00  0.00     0.004 C 
ENDBRANCH   3   4
BRANCH   3   6
ATOM      6  C   UNL     1      27.055 -26.820  36.556  1.00  0.00    -0.014 C 
ATOM      7  C   UNL     1      28.387 -26.059  36.608  1.00  0.00     0.007 C 
ATOM      8  C   UNL     1      26.135 -26.216  35.479  1.00  0.00     0.007 C 
ENDBRANCH   3   6
ENDBRANCH   2   3
ENDBRANCH   1   2
BRANCH   1   9
ATOM      9  C   UNL     1      28.373 -28.716  32.980  1.00  0.00    -0.011 C 
ATOM     10  C   UNL     1      29.021 -27.333  33.245  1.00  0.00     0.008 C 
BRANCH   9  11
ATOM     11  C   UNL     1      27.039 -28.746  32.135  1.00  0.00    -0.002 C 
ATOM     12  C   UNL     1      25.697 -28.955  32.909  1.00  0.00     0.005 C 
ATOM     13  C   UNL     1      26.757 -27.552  31.169  1.00  0.00    -0.026 C 
ATOM     14  C   UNL     1      24.620 -28.161  32.144  1.00  0.00     0.005 C 
ATOM     15  C   UNL     1      25.288 -27.838  30.821  1.00  0.00    -0.001 C 
ATOM     16  C   UNL     1      27.543 -27.580  29.837  1.00  0.00     0.007 C 
ATOM     17  C   UNL     1      26.989 -26.204  31.903  1.00  0.00     0.012 C 
ATOM     18  C   UNL     1      24.583 -26.909  29.805  1.00  0.00     0.000 C 
ATOM     19  C   UNL     1      26.982 -26.544  28.836  1.00  0.00     0.005 C 
ATOM     20  C   UNL     1      25.455 -26.709  28.528  1.00  0.00     0.003 C 
ATOM     21  C   UNL     1      24.010 -25.581  30.312  1.00  0.00     0.031 C 
ATOM     22  C   UNL     1      24.848 -25.618  27.514  1.00  0.00    -0.008 C 
ATOM     23  C   UNL     1      23.110 -25.041  29.244  1.00  0.00    -0.027 C 
ATOM     24  C   UNL     1      23.442 -25.138  27.940  1.00  0.00    -0.065 C 
ATOM     25  C   UNL     1      24.768 -26.275  26.095  1.00  0.00     0.014 C 
ATOM     26  C   UNL     1      25.721 -24.338  27.418  1.00  0.00     0.016 C 
ATOM     27  C   UNL     1      22.508 -24.507  26.924  1.00  0.00     0.063 C 
ATOM     28  C   UNL     1      23.921 -25.493  25.080  1.00  0.00     0.033 C 
ATOM     29  C   UNL     1      22.498 -25.278  25.597  1.00  0.00     0.118 C 
BRANCH  29  30
ATOM     30  O   UNL     1      21.856 -26.519  25.757  1.00  0.00    -0.393 OA
ATOM     31  H   UNL     1      22.560 -27.212  25.679  1.00  0.00     0.210 HD
ENDBRANCH  29  30
ENDBRANCH   9  11
ENDBRANCH   1   9
TORSDOF 7
ENDMDL
MODEL 3
REMARK VINA RESULT:    -7.779      1.817      4.118
REMARK INTER + INTRA:         -12.527
REMARK INTER:                 -11.060
REMARK INTRA:                  -1.467
REMARK UNBOUND:                -1.792
REMARK SMILES CC[C@H](CC[C@H](C)[C@H]1CC[C@H]2[C@H]3CC=C4C[C@H](O)CC[C@]4(C)[C@H]3CC[C@]12C)C(C)C
REMARK SMILES IDX 5 1 4 2 3 3 2 4 1 5 28 6 29 7 30 8 6 9 7 10 8 11 9 12 26 13
REMARK SMILES IDX 10 14 11 15 25 16 27 17 12 18 24 19 23 20 13 21 21 22 14 23
REMARK SMILES IDX 15 24 20 25 22 26 16 27 19 28 17 29 18 30
REMARK H PARENT 18 31
REMARK Flexibility Score: inf
ROOT
ATOM      1  C   UNL     1      25.408 -27.744  37.025  1.00  0.00     0.004 C 
ENDROOT
BRANCH   1   2
ATOM      2  C   UNL     1      25.686 -26.237  37.208  1.00  0.00     0.004 C 
BRANCH   2   3
ATOM      3  C   UNL     1      26.807 -25.959  38.254  1.00  0.00    -0.009 C 
BRANCH   3   4
ATOM      4  C   UNL     1      27.642 -24.703  37.887  1.00  0.00     0.000 C 
ATOM      5  C   UNL     1      28.748 -24.995  36.870  1.00  0.00     0.004 C 
ENDBRANCH   3   4
BRANCH   3   6
ATOM      6  C   UNL     1      26.209 -25.886  39.699  1.00  0.00    -0.014 C 
ATOM      7  C   UNL     1      26.179 -27.254  40.393  1.00  0.00     0.007 C 
ATOM      8  C   UNL     1      26.912 -24.848  40.593  1.00  0.00     0.007 C 
ENDBRANCH   3   6
ENDBRANCH   2   3
ENDBRANCH   1   2
BRANCH   1   9
ATOM      9  C   UNL     1      26.554 -28.535  36.337  1.00  0.00    -0.011 C 
ATOM     10  C   UNL     1      27.479 -29.161  37.412  1.00  0.00     0.008 C 
BRANCH   9  11
ATOM     11  C   UNL     1      27.238 -27.718  35.172  1.00  0.00    -0.002 C 
ATOM     12  C   UNL     1      28.762 -27.959  34.918  1.00  0.00     0.005 C 
ATOM     13  C   UNL     1      26.586 -27.780  33.753  1.00  0.00    -0.026 C 
ATOM     14  C   UNL     1      28.987 -27.790  33.402  1.00  0.00     0.005 C 
ATOM     15  C   UNL     1      27.706 -27.135  32.922  1.00  0.00    -0.001 C 
ATOM     16  C   UNL     1      25.329 -26.898  33.566  1.00  0.00     0.007 C 
ATOM     17  C   UNL     1      26.273 -29.251  33.372  1.00  0.00     0.012 C 
ATOM     18  C   UNL     1      27.465 -26.924  31.409  1.00  0.00     0.000 C 
ATOM     19  C   UNL     1      24.941 -26.790  32.073  1.00  0.00     0.005 C 
ATOM     20  C   UNL     1      26.085 -26.247  31.149  1.00  0.00     0.003 C 
ATOM     21  C   UNL     1      27.701 -28.108  30.465  1.00  0.00     0.031 C 
ATOM     22  C   UNL     1      25.708 -26.161  29.588  1.00  0.00    -0.008 C 
ATOM     23  C   UNL     1      27.729 -27.572  29.067  1.00  0.00    -0.027 C 
ATOM     24  C   UNL     1      26.876 -26.602  28.677  1.00  0.00    -0.065 C 
ATOM     25  C   UNL     1      25.330 -24.675  29.268  1.00  0.00     0.014 C 
ATOM     26  C   UNL     1      24.509 -27.069  29.209  1.00  0.00     0.016 C 
ATOM     27  C   UNL     1      26.924 -26.160  27.226  1.00  0.00     0.063 C 
ATOM     28  C   UNL     1      25.256 -24.347  27.770  1.00  0.00     0.033 C 
ATOM     29  C   UNL     1      26.573 -24.675  27.066  1.00  0.00     0.118 C 
BRANCH  29  30
ATOM     30  O   UNL     1      27.603 -23.871  27.584  1.00  0.00    -0.393 OA
ATOM     31  H   UNL     1      28.454 -24.256  27.255  1.00  0.00     0.210 HD
ENDBRANCH  29  30
ENDBRANCH   9  11
ENDBRANCH   1   9
TORSDOF 7
ENDMDL
MODEL 4
REMARK VINA RESULT:    -7.773      6.259      9.514
REMARK INTER + INTRA:         -12.518
REMARK INTER:                 -10.577
REMARK INTRA:                  -1.942
REMARK UNBOUND:                -1.792
REMARK SMILES CC[C@H](CC[C@H](C)[C@H]1CC[C@H]2[C@H]3CC=C4C[C@H](O)CC[C@]4(C)[C@H]3CC[C@]12C)C(C)C
REMARK SMILES IDX 5 1 4 2 3 3 2 4 1 5 28 6 29 7 30 8 6 9 7 10 8 11 9 12 26 13
REMARK SMILES IDX 10 14 11 15 25 16 27 17 12 18 24 19 23 20 13 21 21 22 14 23
REMARK SMILES IDX 15 24 20 25 22 26 16 27 19 28 17 29 18 30
REMARK H PARENT 18 31
REMARK Flexibility Score: inf
ROOT
ATOM      1  C   UNL     1      27.434 -24.616  37.713  1.00  0.00     0.004 C 
ENDROOT
BRANCH   1   2
ATOM      2  C   UNL     1      28.661 -25.359  37.142  1.00  0.00     0.004 C 
BRANCH   2   3
ATOM      3  C   UNL     1      28.394 -25.956  35.727  1.00  0.00    -0.009 C 
BRANCH   3   4
ATOM      4  C   UNL     1      28.515 -24.881  34.614  1.00  0.00     0.000 C 
ATOM      5  C   UNL     1      27.205 -24.658  33.852  1.00  0.00     0.004 C 
ENDBRANCH   3   4
BRANCH   3   6
ATOM      6  C   UNL     1      29.311 -27.198  35.469  1.00  0.00    -0.014 C 
ATOM      7  C   UNL     1      28.627 -28.521  35.840  1.00  0.00     0.007 C 
ATOM      8  C   UNL     1      29.854 -27.260  34.030  1.00  0.00     0.007 C 
ENDBRANCH   3   6
ENDBRANCH   2   3
ENDBRANCH   1   2
BRANCH   1   9
ATOM      9  C   UNL     1      26.678 -25.381  38.832  1.00  0.00    -0.011 C 
ATOM     10  C   UNL     1      27.246 -24.981  40.218  1.00  0.00     0.008 C 
BRANCH   9  11
ATOM     11  C   UNL     1      26.533 -26.922  38.520  1.00  0.00    -0.002 C 
ATOM     12  C   UNL     1      26.871 -27.927  39.669  1.00  0.00     0.005 C 
ATOM     13  C   UNL     1      25.172 -27.427  37.941  1.00  0.00    -0.026 C 
ATOM     14  C   UNL     1      25.934 -29.137  39.485  1.00  0.00     0.005 C 
ATOM     15  C   UNL     1      25.371 -28.944  38.090  1.00  0.00    -0.001 C 
ATOM     16  C   UNL     1      24.954 -27.152  36.435  1.00  0.00     0.007 C 
ATOM     17  C   UNL     1      23.992 -26.853  38.769  1.00  0.00     0.012 C 
ATOM     18  C   UNL     1      24.259 -29.881  37.567  1.00  0.00     0.000 C 
ATOM     19  C   UNL     1      23.740 -27.943  35.893  1.00  0.00     0.005 C 
ATOM     20  C   UNL     1      23.828 -29.491  36.120  1.00  0.00     0.003 C 
ATOM     21  C   UNL     1      23.046 -30.141  38.468  1.00  0.00     0.031 C 
ATOM     22  C   UNL     1      22.556 -30.323  35.594  1.00  0.00    -0.008 C 
ATOM     23  C   UNL     1      22.302 -31.309  37.899  1.00  0.00    -0.027 C 
ATOM     24  C   UNL     1      22.152 -31.455  36.566  1.00  0.00    -0.065 C 
ATOM     25  C   UNL     1      22.930 -30.938  34.203  1.00  0.00     0.014 C 
ATOM     26  C   UNL     1      21.292 -29.441  35.421  1.00  0.00     0.016 C 
ATOM     27  C   UNL     1      21.329 -32.631  36.072  1.00  0.00     0.063 C 
ATOM     28  C   UNL     1      21.960 -32.020  33.706  1.00  0.00     0.033 C 
ATOM     29  C   UNL     1      21.832 -33.157  34.721  1.00  0.00     0.118 C 
BRANCH  29  30
ATOM     30  O   UNL     1      23.074 -33.797  34.877  1.00  0.00    -0.393 OA
ATOM     31  H   UNL     1      23.473 -33.864  33.973  1.00  0.00     0.210 HD
ENDBRANCH  29  30
ENDBRANCH   9  11
ENDBRANCH   1   9
TORSDOF 7
ENDMDL
MODEL 5
REMARK VINA RESULT:    -7.713      1.676      2.320
REMARK INTER + INTRA:         -12.436
REMARK INTER:                 -10.799
REMARK INTRA:                  -1.636
REMARK UNBOUND:                -1.792
REMARK SMILES CC[C@H](CC[C@H](C)[C@H]1CC[C@H]2[C@H]3CC=C4C[C@H](O)CC[C@]4(C)[C@H]3CC[C@]12C)C(C)C
REMARK SMILES IDX 5 1 4 2 3 3 2 4 1 5 28 6 29 7 30 8 6 9 7 10 8 11 9 12 26 13
REMARK SMILES IDX 10 14 11 15 25 16 27 17 12 18 24 19 23 20 13 21 21 22 14 23
REMARK SMILES IDX 15 24 20 25 22 26 16 27 19 28 17 29 18 30
REMARK H PARENT 18 31
REMARK Flexibility Score: inf
ROOT
ATOM      1  C   UNL     1      29.255 -27.649  33.402  1.00  0.00     0.004 C 
ENDROOT
BRANCH   1   2
ATOM      2  C   UNL     1      29.344 -27.501  34.936  1.00  0.00     0.004 C 
BRANCH   2   3
ATOM      3  C   UNL     1      28.974 -26.067  35.420  1.00  0.00    -0.009 C 
BRANCH   3   4
ATOM      4  C   UNL     1      29.001 -25.039  34.257  1.00  0.00     0.000 C 
ATOM      5  C   UNL     1      29.248 -23.604  34.731  1.00  0.00     0.004 C 
ENDBRANCH   3   4
BRANCH   3   6
ATOM      6  C   UNL     1      27.608 -26.077  36.185  1.00  0.00    -0.014 C 
ATOM      7  C   UNL     1      26.412 -25.836  35.254  1.00  0.00     0.007 C 
ATOM      8  C   UNL     1      27.391 -27.354  37.017  1.00  0.00     0.007 C 
ENDBRANCH   3   6
ENDBRANCH   2   3
ENDBRANCH   1   2
BRANCH   1   9
ATOM      9  C   UNL     1      27.861 -28.085  32.874  1.00  0.00    -0.011 C 
ATOM     10  C   UNL     1      27.600 -29.569  33.241  1.00  0.00     0.008 C 
BRANCH   9  11
ATOM     11  C   UNL     1      27.619 -27.651  31.376  1.00  0.00    -0.002 C 
ATOM     12  C   UNL     1      27.701 -28.762  30.278  1.00  0.00     0.005 C 
ATOM     13  C   UNL     1      26.311 -26.863  31.043  1.00  0.00    -0.026 C 
ATOM     14  C   UNL     1      26.691 -28.373  29.181  1.00  0.00     0.005 C 
ATOM     15  C   UNL     1      26.346 -26.932  29.509  1.00  0.00    -0.001 C 
ATOM     16  C   UNL     1      26.329 -25.364  31.423  1.00  0.00     0.007 C 
ATOM     17  C   UNL     1      25.085 -27.566  31.686  1.00  0.00     0.012 C 
ATOM     18  C   UNL     1      25.235 -26.203  28.718  1.00  0.00     0.000 C 
ATOM     19  C   UNL     1      25.134 -24.614  30.790  1.00  0.00     0.005 C 
ATOM     20  C   UNL     1      25.046 -24.743  29.231  1.00  0.00     0.003 C 
ATOM     21  C   UNL     1      23.891 -26.915  28.533  1.00  0.00     0.031 C 
ATOM     22  C   UNL     1      23.788 -23.997  28.562  1.00  0.00    -0.008 C 
ATOM     23  C   UNL     1      23.128 -26.174  27.479  1.00  0.00    -0.027 C 
ATOM     24  C   UNL     1      23.151 -24.826  27.424  1.00  0.00    -0.065 C 
ATOM     25  C   UNL     1      24.292 -22.628  27.991  1.00  0.00     0.014 C 
ATOM     26  C   UNL     1      22.647 -23.720  29.575  1.00  0.00     0.016 C 
ATOM     27  C   UNL     1      22.299 -24.147  26.367  1.00  0.00     0.063 C 
ATOM     28  C   UNL     1      23.305 -21.933  27.042  1.00  0.00     0.033 C 
ATOM     29  C   UNL     1      22.934 -22.841  25.869  1.00  0.00     0.118 C 
BRANCH  29  30
ATOM     30  O   UNL     1      24.077 -23.116  25.099  1.00  0.00    -0.393 OA
ATOM     31  H   UNL     1      24.356 -22.256  24.693  1.00  0.00     0.210 HD
ENDBRANCH  29  30
ENDBRANCH   9  11
ENDBRANCH   1   9
TORSDOF 7
ENDMDL
MODEL 6
REMARK VINA RESULT:    -7.638      2.626      8.638
REMARK INTER + INTRA:         -12.333
REMARK INTER:                 -10.542
REMARK INTRA:                  -1.791
REMARK UNBOUND:                -1.792
REMARK SMILES CC[C@H](CC[C@H](C)[C@H]1CC[C@H]2[C@H]3CC=C4C[C@H](O)CC[C@]4(C)[C@H]3CC[C@]12C)C(C)C
REMARK SMILES IDX 5 1 4 2 3 3 2 4 1 5 28 6 29 7 30 8 6 9 7 10 8 11 9 12 26 13
REMARK SMILES IDX 10 14 11 15 25 16 27 17 12 18 24 19 23 20 13 21 21 22 14 23
REMARK SMILES IDX 15 24 20 25 22 26 16 27 19 28 17 29 18 30
REMARK H PARENT 18 31
REMARK Flexibility Score: inf
ROOT
ATOM      1  C   UNL     1      26.021 -25.281  25.812  1.00  0.00     0.004 C 
ENDROOT
BRANCH   1   2
ATOM      2  C   UNL     1      27.047 -24.321  26.451  1.00  0.00     0.004 C 
BRANCH   2   3
ATOM      3  C   UNL     1      26.843 -22.843  26.003  1.00  0.00    -0.009 C 
BRANCH   3   4
ATOM      4  C   UNL     1      27.151 -22.649  24.494  1.00  0.00     0.000 C 
ATOM      5  C   UNL     1      28.650 -22.664  24.182  1.00  0.00     0.004 C 
ENDBRANCH   3   4
BRANCH   3   6
ATOM      6  C   UNL     1      25.414 -22.338  26.397  1.00  0.00    -0.014 C 
ATOM      7  C   UNL     1      25.402 -21.602  27.744  1.00  0.00     0.007 C 
ATOM      8  C   UNL     1      24.757 -21.472  25.308  1.00  0.00     0.007 C 
ENDBRANCH   3   6
ENDBRANCH   2   3
ENDBRANCH   1   2
BRANCH   1   9
ATOM      9  C   UNL     1      25.016 -25.913  26.812  1.00  0.00    -0.011 C 
ATOM     10  C   UNL     1      23.579 -25.831  26.237  1.00  0.00     0.008 C 
BRANCH   9  11
ATOM     11  C   UNL     1      25.239 -25.412  28.293  1.00  0.00    -0.002 C 
ATOM     12  C   UNL     1      24.047 -24.688  28.998  1.00  0.00     0.005 C 
ATOM     13  C   UNL     1      25.754 -26.445  29.346  1.00  0.00    -0.026 C 
ATOM     14  C   UNL     1      24.139 -25.045  30.495  1.00  0.00     0.005 C 
ATOM     15  C   UNL     1      25.528 -25.639  30.635  1.00  0.00    -0.001 C 
ATOM     16  C   UNL     1      27.267 -26.759  29.277  1.00  0.00     0.007 C 
ATOM     17  C   UNL     1      24.928 -27.756  29.258  1.00  0.00     0.012 C 
ATOM     18  C   UNL     1      25.969 -26.268  31.977  1.00  0.00     0.000 C 
ATOM     19  C   UNL     1      27.732 -27.541  30.527  1.00  0.00     0.005 C 
ATOM     20  C   UNL     1      27.423 -26.824  31.886  1.00  0.00     0.003 C 
ATOM     21  C   UNL     1      25.024 -27.265  32.656  1.00  0.00     0.031 C 
ATOM     22  C   UNL     1      27.870 -27.640  33.197  1.00  0.00    -0.008 C 
ATOM     23  C   UNL     1      25.509 -27.463  34.059  1.00  0.00    -0.027 C 
ATOM     24  C   UNL     1      26.828 -27.541  34.334  1.00  0.00    -0.065 C 
ATOM     25  C   UNL     1      29.234 -27.049  33.688  1.00  0.00     0.014 C 
ATOM     26  C   UNL     1      28.057 -29.156  32.925  1.00  0.00     0.016 C 
ATOM     27  C   UNL     1      27.234 -27.809  35.772  1.00  0.00     0.063 C 
ATOM     28  C   UNL     1      29.646 -27.488  35.101  1.00  0.00     0.033 C 
ATOM     29  C   UNL     1      28.568 -27.135  36.125  1.00  0.00     0.118 C 
BRANCH  29  30
ATOM     30  O   UNL     1      28.409 -25.740  36.189  1.00  0.00    -0.393 OA
ATOM     31  H   UNL     1      29.204 -25.387  36.662  1.00  0.00     0.210 HD
ENDBRANCH  29  30
ENDBRANCH   9  11
ENDBRANCH   1   9
TORSDOF 7
ENDMDL
MODEL 7
REMARK VINA RESULT:    -7.605      1.294      1.823
REMARK INTER + INTRA:         -12.286
REMARK INTER:                 -10.493
REMARK INTRA:                  -1.794
REMARK UNBOUND:                -1.792
REMARK SMILES CC[C@H](CC[C@H](C)[C@H]1CC[C@H]2[C@H]3CC=C4C[C@H](O)CC[C@]4(C)[C@H]3CC[C@]12C)C(C)C
REMARK SMILES IDX 5 1 4 2 3 3 2 4 1 5 28 6 29 7 30 8 6 9 7 10 8 11 9 12 26 13
REMARK SMILES IDX 10 14 11 15 25 16 27 17 12 18 24 19 23 20 13 21 21 22 14 23
REMARK SMILES IDX 15 24 20 25 22 26 16 27 19 28 17 29 18 30
REMARK H PARENT 18 31
REMARK Flexibility Score: inf
ROOT
ATOM      1  C   UNL     1      25.692 -26.483  35.727  1.00  0.00     0.004 C 
ENDROOT
BRANCH   1   2
ATOM      2  C   UNL     1      27.010 -26.863  36.436  1.00  0.00     0.004 C 
BRANCH   2   3
ATOM      3  C   UNL     1      28.243 -26.115  35.846  1.00  0.00    -0.009 C 
BRANCH   3   4
ATOM      4  C   UNL     1      28.727 -24.974  36.780  1.00  0.00     0.000 C 
ATOM      5  C   UNL     1      27.849 -24.803  38.023  1.00  0.00     0.004 C 
ENDBRANCH   3   4
BRANCH   3   6
ATOM      6  C   UNL     1      29.382 -27.126  35.487  1.00  0.00    -0.014 C 
ATOM      7  C   UNL     1      28.983 -28.583  35.761  1.00  0.00     0.007 C 
ATOM      8  C   UNL     1      29.893 -26.974  34.042  1.00  0.00     0.007 C 
ENDBRANCH   3   6
ENDBRANCH   2   3
ENDBRANCH   1   2
BRANCH   1   9
ATOM      9  C   UNL     1      25.244 -27.475  34.621  1.00  0.00    -0.011 C 
ATOM     10  C   UNL     1      25.035 -28.885  35.232  1.00  0.00     0.008 C 
BRANCH   9  11
ATOM     11  C   UNL     1      26.129 -27.369  33.317  1.00  0.00    -0.002 C 
ATOM     12  C   UNL     1      26.782 -28.683  32.777  1.00  0.00     0.005 C 
ATOM     13  C   UNL     1      25.499 -26.693  32.057  1.00  0.00    -0.026 C 
ATOM     14  C   UNL     1      26.831 -28.552  31.242  1.00  0.00     0.005 C 
ATOM     15  C   UNL     1      26.547 -27.081  31.002  1.00  0.00    -0.001 C 
ATOM     16  C   UNL     1      25.452 -25.148  32.092  1.00  0.00     0.007 C 
ATOM     17  C   UNL     1      24.082 -27.269  31.793  1.00  0.00     0.012 C 
ATOM     18  C   UNL     1      26.360 -26.555  29.560  1.00  0.00     0.000 C 
ATOM     19  C   UNL     1      25.101 -24.570  30.701  1.00  0.00     0.005 C 
ATOM     20  C   UNL     1      26.067 -25.024  29.553  1.00  0.00     0.003 C 
ATOM     21  C   UNL     1      25.412 -27.316  28.627  1.00  0.00     0.031 C 
ATOM     22  C   UNL     1      25.695 -24.458  28.094  1.00  0.00    -0.008 C 
ATOM     23  C   UNL     1      25.658 -26.826  27.234  1.00  0.00    -0.027 C 
ATOM     24  C   UNL     1      25.887 -25.519  26.987  1.00  0.00    -0.065 C 
ATOM     25  C   UNL     1      26.623 -23.230  27.806  1.00  0.00     0.014 C 
ATOM     26  C   UNL     1      24.218 -23.997  27.989  1.00  0.00     0.016 C 
ATOM     27  C   UNL     1      26.062 -25.093  25.541  1.00  0.00     0.063 C 
ATOM     28  C   UNL     1      26.630 -22.768  26.342  1.00  0.00     0.033 C 
ATOM     29  C   UNL     1      27.028 -23.908  25.405  1.00  0.00     0.118 C 
BRANCH  29  30
ATOM     30  O   UNL     1      28.345 -24.316  25.683  1.00  0.00    -0.393 OA
ATOM     31  H   UNL     1      28.920 -23.905  24.989  1.00  0.00     0.210 HD
ENDBRANCH  29  30
ENDBRANCH   9  11
ENDBRANCH   1   9
TORSDOF 7
ENDMDL
MODEL 8
REMARK VINA RESULT:    -7.590      2.718      8.094
REMARK INTER + INTRA:         -12.267
REMARK INTER:                 -10.134
REMARK INTRA:                  -2.132
REMARK UNBOUND:                -1.792
REMARK SMILES CC[C@H](CC[C@H](C)[C@H]1CC[C@H]2[C@H]3CC=C4C[C@H](O)CC[C@]4(C)[C@H]3CC[C@]12C)C(C)C
REMARK SMILES IDX 5 1 4 2 3 3 2 4 1 5 28 6 29 7 30 8 6 9 7 10 8 11 9 12 26 13
REMARK SMILES IDX 10 14 11 15 25 16 27 17 12 18 24 19 23 20 13 21 21 22 14 23
REMARK SMILES IDX 15 24 20 25 22 26 16 27 19 28 17 29 18 30
REMARK H PARENT 18 31
REMARK Flexibility Score: inf
ROOT
ATOM      1  C   UNL     1      24.447 -24.086  25.611  1.00  0.00     0.004 C 
ENDROOT
BRANCH   1   2
ATOM      2  C   UNL     1      24.883 -22.876  26.464  1.00  0.00     0.004 C 
BRANCH   2   3
ATOM      3  C   UNL     1      26.422 -22.636  26.420  1.00  0.00    -0.009 C 
BRANCH   3   4
ATOM      4  C   UNL     1      27.071 -22.788  27.821  1.00  0.00     0.000 C 
ATOM      5  C   UNL     1      26.153 -22.331  28.959  1.00  0.00     0.004 C 
ENDBRANCH   3   4
BRANCH   3   6
ATOM      6  C   UNL     1      27.093 -23.552  25.341  1.00  0.00    -0.014 C 
ATOM      7  C   UNL     1      27.844 -22.746  24.272  1.00  0.00     0.007 C 
ATOM      8  C   UNL     1      28.014 -24.626  25.948  1.00  0.00     0.007 C 
ENDBRANCH   3   6
ENDBRANCH   2   3
ENDBRANCH   1   2
BRANCH   1   9
ATOM      9  C   UNL     1      24.000 -25.327  26.428  1.00  0.00    -0.011 C 
ATOM     10  C   UNL     1      22.618 -25.818  25.926  1.00  0.00     0.008 C 
BRANCH   9  11
ATOM     11  C   UNL     1      24.180 -25.125  27.984  1.00  0.00    -0.002 C 
ATOM     12  C   UNL     1      22.894 -24.857  28.832  1.00  0.00     0.005 C 
ATOM     13  C   UNL     1      24.958 -26.220  28.781  1.00  0.00    -0.026 C 
ATOM     14  C   UNL     1      23.135 -25.501  30.212  1.00  0.00     0.005 C 
ATOM     15  C   UNL     1      24.625 -25.787  30.216  1.00  0.00    -0.001 C 
ATOM     16  C   UNL     1      26.498 -26.166  28.645  1.00  0.00     0.007 C 
ATOM     17  C   UNL     1      24.434 -27.631  28.401  1.00  0.00     0.012 C 
ATOM     18  C   UNL     1      25.257 -26.578  31.384  1.00  0.00     0.000 C 
ATOM     19  C   UNL     1      27.182 -27.078  29.690  1.00  0.00     0.005 C 
ATOM     20  C   UNL     1      26.791 -26.762  31.174  1.00  0.00     0.003 C 
ATOM     21  C   UNL     1      24.586 -27.885  31.823  1.00  0.00     0.031 C 
ATOM     22  C   UNL     1      27.468 -27.725  32.270  1.00  0.00    -0.008 C 
ATOM     23  C   UNL     1      25.169 -28.271  33.146  1.00  0.00    -0.027 C 
ATOM     24  C   UNL     1      26.485 -28.111  33.399  1.00  0.00    -0.065 C 
ATOM     25  C   UNL     1      28.693 -26.965  32.882  1.00  0.00     0.014 C 
ATOM     26  C   UNL     1      27.967 -29.064  31.666  1.00  0.00     0.016 C 
ATOM     27  C   UNL     1      27.010 -28.588  34.741  1.00  0.00     0.063 C 
ATOM     28  C   UNL     1      29.258 -27.599  34.162  1.00  0.00     0.033 C 
ATOM     29  C   UNL     1      28.180 -27.728  35.238  1.00  0.00     0.118 C 
BRANCH  29  30
ATOM     30  O   UNL     1      27.724 -26.451  35.612  1.00  0.00    -0.393 OA
ATOM     31  H   UNL     1      26.868 -26.587  36.092  1.00  0.00     0.210 HD
ENDBRANCH  29  30
ENDBRANCH   9  11
ENDBRANCH   1   9
TORSDOF 7
ENDMDL
MODEL 9
REMARK VINA RESULT:    -7.406      3.636      7.118
REMARK INTER + INTRA:         -12.012
REMARK INTER:                 -10.430
REMARK INTRA:                  -1.582
REMARK UNBOUND:                -1.792
REMARK SMILES CC[C@H](CC[C@H](C)[C@H]1CC[C@H]2[C@H]3CC=C4C[C@H](O)CC[C@]4(C)[C@H]3CC[C@]12C)C(C)C
REMARK SMILES IDX 5 1 4 2 3 3 2 4 1 5 28 6 29 7 30 8 6 9 7 10 8 11 9 12 26 13
REMARK SMILES IDX 10 14 11 15 25 16 27 17 12 18 24 19 23 20 13 21 21 22 14 23
REMARK SMILES IDX 15 24 20 25 22 26 16 27 19 28 17 29 18 30
REMARK H PARENT 18 31
REMARK Flexibility Score: inf
ROOT
ATOM      1  C   UNL     1      24.877 -26.503  26.550  1.00  0.00     0.004 C 
ENDROOT
BRANCH   1   2
ATOM      2  C   UNL     1      25.887 -25.940  27.572  1.00  0.00     0.004 C 
BRANCH   2   3
ATOM      3  C   UNL     1      27.214 -26.757  27.614  1.00  0.00    -0.009 C 
BRANCH   3   4
ATOM      4  C   UNL     1      28.406 -25.954  27.028  1.00  0.00     0.000 C 
ATOM      5  C   UNL     1      28.116 -24.456  26.906  1.00  0.00     0.004 C 
ENDBRANCH   3   4
BRANCH   3   6
ATOM      6  C   UNL     1      27.493 -27.284  29.061  1.00  0.00    -0.014 C 
ATOM      7  C   UNL     1      26.544 -26.674  30.102  1.00  0.00     0.007 C 
ATOM      8  C   UNL     1      27.478 -28.821  29.159  1.00  0.00     0.007 C 
ENDBRANCH   3   6
ENDBRANCH   2   3
ENDBRANCH   1   2
BRANCH   1   9
ATOM      9  C   UNL     1      24.286 -25.448  25.577  1.00  0.00    -0.011 C 
ATOM     10  C   UNL     1      24.422 -25.947  24.115  1.00  0.00     0.008 C 
BRANCH   9  11
ATOM     11  C   UNL     1      24.782 -23.984  25.897  1.00  0.00    -0.002 C 
ATOM     12  C   UNL     1      25.364 -23.143  24.714  1.00  0.00     0.005 C 
ATOM     13  C   UNL     1      23.792 -23.016  26.621  1.00  0.00    -0.026 C 
ATOM     14  C   UNL     1      24.994 -21.673  24.996  1.00  0.00     0.005 C 
ATOM     15  C   UNL     1      24.547 -21.689  26.445  1.00  0.00    -0.001 C 
ATOM     16  C   UNL     1      23.641 -23.245  28.143  1.00  0.00     0.007 C 
ATOM     17  C   UNL     1      22.403 -23.057  25.930  1.00  0.00     0.012 C 
ATOM     18  C   UNL     1      23.946 -20.416  27.084  1.00  0.00     0.000 C 
ATOM     19  C   UNL     1      22.891 -22.069  28.812  1.00  0.00     0.005 C 
ATOM     20  C   UNL     1      23.548 -20.667  28.571  1.00  0.00     0.003 C 
ATOM     21  C   UNL     1      22.842 -19.674  26.321  1.00  0.00     0.031 C 
ATOM     22  C   UNL     1      22.761 -19.430  29.231  1.00  0.00    -0.008 C 
ATOM     23  C   UNL     1      22.673 -18.333  26.965  1.00  0.00    -0.027 C 
ATOM     24  C   UNL     1      22.730 -18.192  28.305  1.00  0.00    -0.065 C 
ATOM     25  C   UNL     1      23.485 -19.062  30.570  1.00  0.00     0.014 C 
ATOM     26  C   UNL     1      21.278 -19.761  29.545  1.00  0.00     0.016 C 
ATOM     27  C   UNL     1      22.482 -16.810  28.883  1.00  0.00     0.063 C 
ATOM     28  C   UNL     1      23.067 -17.709  31.167  1.00  0.00     0.033 C 
ATOM     29  C   UNL     1      23.286 -16.573  30.168  1.00  0.00     0.118 C 
BRANCH  29  30
ATOM     30  O   UNL     1      24.656 -16.455  29.873  1.00  0.00    -0.393 OA
ATOM     31  H   UNL     1      24.807 -16.956  29.031  1.00  0.00     0.210 HD
ENDBRANCH  29  30
ENDBRANCH   9  11
ENDBRANCH   1   9
TORSDOF 7
ENDMDL
