MODEL 1
REMARK VINA RESULT:    -6.896      0.000      0.000
REMARK INTER + INTRA:          -9.413
REMARK INTER:                  -9.114
REMARK INTRA:                  -0.299
REMARK UNBOUND:                -0.299
REMARK SMILES CC[C@H](C=C[C@H](C)[C@@H]1CC[C@H]2[C@@H]3CC=C4C[C@H](O)CC[C@@]4(C)[C@@H]3CC[C@]21C)C(C)C
REMARK SMILES IDX 6 1 7 2 5 3 4 4 3 5 2 6 1 7 28 8 29 9 30 10 8 11 9 12 26 13
REMARK SMILES IDX 10 14 11 15 25 16 27 17 12 18 24 19 23 20 13 21 21 22 14 23
REMARK SMILES IDX 15 24 20 25 22 26 16 27 19 28 17 29 18 30
REMARK H PARENT 18 31
REMARK Flexibility Score: inf
ROOT
ATOM      1  C   UNL     1     139.272 138.594 145.051  1.00  0.00     0.012 C 
ATOM      2  C   UNL     1     138.643 137.989 146.318  1.00  0.00     0.012 C 
ENDROOT
BRANCH   1   3
ATOM      3  C   UNL     1     139.360 140.101 145.232  1.00  0.00    -0.028 C 
ATOM      4  C   UNL     1     138.726 140.757 146.222  1.00  0.00    -0.027 C 
BRANCH   4   5
ATOM      5  C   UNL     1     138.711 142.270 146.363  1.00  0.00     0.014 C 
BRANCH   5   6
ATOM      6  C   UNL     1     137.474 142.958 145.723  1.00  0.00     0.004 C 
ATOM      7  C   UNL     1     137.609 143.129 144.210  1.00  0.00     0.004 C 
ENDBRANCH   5   6
BRANCH   5   8
ATOM      8  C   UNL     1     138.971 142.691 147.842  1.00  0.00    -0.011 C 
ATOM      9  C   UNL     1     139.987 143.835 147.993  1.00  0.00     0.008 C 
ATOM     10  C   UNL     1     139.387 141.496 148.717  1.00  0.00     0.008 C 
ENDBRANCH   5   8
ENDBRANCH   4   5
ENDBRANCH   1   3
BRANCH   1  11
ATOM     11  C   UNL     1     140.655 137.933 144.712  1.00  0.00     0.002 C 
ATOM     12  C   UNL     1     140.622 136.406 144.770  1.00  0.00     0.005 C 
ATOM     13  C   UNL     1     141.911 138.347 145.579  1.00  0.00    -0.026 C 
ATOM     14  C   UNL     1     142.070 135.985 144.857  1.00  0.00     0.005 C 
ATOM     15  C   UNL     1     142.722 137.019 145.771  1.00  0.00    -0.001 C 
ATOM     16  C   UNL     1     142.743 139.432 144.835  1.00  0.00     0.007 C 
ATOM     17  C   UNL     1     141.531 138.886 146.984  1.00  0.00     0.012 C 
ATOM     18  C   UNL     1     144.269 137.092 145.569  1.00  0.00     0.000 C 
ATOM     19  C   UNL     1     143.637 138.836 143.741  1.00  0.00     0.005 C 
ATOM     20  C   UNL     1     144.744 137.920 144.322  1.00  0.00     0.003 C 
ATOM     21  C   UNL     1     144.986 137.521 146.855  1.00  0.00     0.031 C 
ATOM     22  C   UNL     1     146.178 138.620 144.469  1.00  0.00    -0.008 C 
ATOM     23  C   UNL     1     146.468 137.439 146.647  1.00  0.00    -0.027 C 
ATOM     24  C   UNL     1     147.036 137.882 145.508  1.00  0.00    -0.065 C 
ATOM     25  C   UNL     1     146.875 138.591 143.067  1.00  0.00     0.014 C 
ATOM     26  C   UNL     1     146.093 140.099 144.946  1.00  0.00     0.016 C 
ATOM     27  C   UNL     1     148.551 137.941 145.450  1.00  0.00     0.063 C 
ATOM     28  C   UNL     1     148.379 138.882 143.111  1.00  0.00     0.033 C 
ATOM     29  C   UNL     1     149.085 137.865 144.015  1.00  0.00     0.118 C 
BRANCH  29  30
ATOM     30  O   UNL     1     150.476 138.063 143.993  1.00  0.00    -0.393 OA
ATOM     31  H   UNL     1     150.761 138.317 144.909  1.00  0.00     0.210 HD
ENDBRANCH  29  30
ENDBRANCH   1  11
TORSDOF 6
ENDMDL
MODEL 2
REMARK VINA RESULT:    -6.869      2.370      3.337
REMARK INTER + INTRA:          -9.377
REMARK INTER:                  -9.124
REMARK INTRA:                  -0.253
REMARK UNBOUND:                -0.299
REMARK SMILES CC[C@H](C=C[C@H](C)[C@@H]1CC[C@H]2[C@@H]3CC=C4C[C@H](O)CC[C@@]4(C)[C@@H]3CC[C@]21C)C(C)C
REMARK SMILES IDX 6 1 7 2 5 3 4 4 3 5 2 6 1 7 28 8 29 9 30 10 8 11 9 12 26 13
REMARK SMILES IDX 10 14 11 15 25 16 27 17 12 18 24 19 23 20 13 21 21 22 14 23
REMARK SMILES IDX 15 24 20 25 22 26 16 27 19 28 17 29 18 30
REMARK H PARENT 18 31
REMARK Flexibility Score: inf
ROOT
ATOM      1  C   UNL     1     139.533 138.729 144.817  1.00  0.00     0.012 C 
ATOM      2  C   UNL     1     138.392 137.736 144.538  1.00  0.00     0.012 C 
ENDROOT
BRANCH   1   3
ATOM      3  C   UNL     1     139.259 139.414 146.146  1.00  0.00    -0.028 C 
ATOM      4  C   UNL     1     139.000 140.731 146.251  1.00  0.00    -0.027 C 
BRANCH   4   5
ATOM      5  C   UNL     1     138.828 141.459 147.574  1.00  0.00     0.014 C 
BRANCH   5   6
ATOM      6  C   UNL     1     140.149 141.660 148.367  1.00  0.00     0.004 C 
ATOM      7  C   UNL     1     140.637 143.109 148.344  1.00  0.00     0.004 C 
ENDBRANCH   5   6
BRANCH   5   8
ATOM      8  C   UNL     1     138.003 142.768 147.383  1.00  0.00    -0.011 C 
ATOM      9  C   UNL     1     136.884 142.954 148.421  1.00  0.00     0.008 C 
ATOM     10  C   UNL     1     137.428 142.885 145.961  1.00  0.00     0.008 C 
ENDBRANCH   5   8
ENDBRANCH   4   5
ENDBRANCH   1   3
BRANCH   1  11
ATOM     11  C   UNL     1     140.939 138.035 144.760  1.00  0.00     0.002 C 
ATOM     12  C   UNL     1     141.100 137.099 143.562  1.00  0.00     0.005 C 
ATOM     13  C   UNL     1     141.399 137.180 146.009  1.00  0.00    -0.026 C 
ATOM     14  C   UNL     1     142.282 136.222 143.905  1.00  0.00     0.005 C 
ATOM     15  C   UNL     1     142.136 135.939 145.397  1.00  0.00    -0.001 C 
ATOM     16  C   UNL     1     142.339 138.022 146.919  1.00  0.00     0.007 C 
ATOM     17  C   UNL     1     140.212 136.661 146.863  1.00  0.00     0.012 C 
ATOM     18  C   UNL     1     143.491 135.520 146.052  1.00  0.00     0.000 C 
ATOM     19  C   UNL     1     143.773 138.088 146.379  1.00  0.00     0.005 C 
ATOM     20  C   UNL     1     144.468 136.703 146.389  1.00  0.00     0.003 C 
ATOM     21  C   UNL     1     143.274 134.591 147.252  1.00  0.00     0.031 C 
ATOM     22  C   UNL     1     145.441 136.456 147.637  1.00  0.00    -0.008 C 
ATOM     23  C   UNL     1     144.601 134.109 147.753  1.00  0.00    -0.027 C 
ATOM     24  C   UNL     1     145.648 134.951 147.871  1.00  0.00    -0.065 C 
ATOM     25  C   UNL     1     146.810 137.151 147.328  1.00  0.00     0.014 C 
ATOM     26  C   UNL     1     144.886 137.032 148.971  1.00  0.00     0.016 C 
ATOM     27  C   UNL     1     146.896 134.435 148.562  1.00  0.00     0.063 C 
ATOM     28  C   UNL     1     147.957 136.706 148.240  1.00  0.00     0.033 C 
ATOM     29  C   UNL     1     148.158 135.189 148.130  1.00  0.00     0.118 C 
BRANCH  29  30
ATOM     30  O   UNL     1     149.266 134.779 148.890  1.00  0.00    -0.393 OA
ATOM     31  H   UNL     1     149.045 134.919 149.848  1.00  0.00     0.210 HD
ENDBRANCH  29  30
ENDBRANCH   1  11
TORSDOF 6
ENDMDL
MODEL 3
REMARK VINA RESULT:    -6.838      4.370      9.264
REMARK INTER + INTRA:          -9.336
REMARK INTER:                  -7.975
REMARK INTRA:                  -1.361
REMARK UNBOUND:                -0.299
REMARK SMILES CC[C@H](C=C[C@H](C)[C@@H]1CC[C@H]2[C@@H]3CC=C4C[C@H](O)CC[C@@]4(C)[C@@H]3CC[C@]21C)C(C)C
REMARK SMILES IDX 6 1 7 2 5 3 4 4 3 5 2 6 1 7 28 8 29 9 30 10 8 11 9 12 26 13
REMARK SMILES IDX 10 14 11 15 25 16 27 17 12 18 24 19 23 20 13 21 21 22 14 23
REMARK SMILES IDX 15 24 20 25 22 26 16 27 19 28 17 29 18 30
REMARK H PARENT 18 31
REMARK Flexibility Score: inf
ROOT
ATOM      1  C   UNL     1     147.253 135.509 150.946  1.00  0.00     0.012 C 
ATOM      2  C   UNL     1     146.135 134.742 151.673  1.00  0.00     0.012 C 
ENDROOT
BRANCH   1   3
ATOM      3  C   UNL     1     148.592 134.972 151.424  1.00  0.00    -0.028 C 
ATOM      4  C   UNL     1     149.715 135.716 151.438  1.00  0.00    -0.027 C 
BRANCH   4   5
ATOM      5  C   UNL     1     151.086 135.174 151.810  1.00  0.00     0.014 C 
BRANCH   5   6
ATOM      6  C   UNL     1     151.239 133.641 151.616  1.00  0.00     0.004 C 
ATOM      7  C   UNL     1     151.991 133.279 150.334  1.00  0.00     0.004 C 
ENDBRANCH   5   6
BRANCH   5   8
ATOM      8  C   UNL     1     152.214 136.011 151.133  1.00  0.00    -0.011 C 
ATOM      9  C   UNL     1     153.083 136.801 152.125  1.00  0.00     0.008 C 
ATOM     10  C   UNL     1     151.662 136.951 150.048  1.00  0.00     0.008 C 
ENDBRANCH   5   8
ENDBRANCH   4   5
ENDBRANCH   1   3
BRANCH   1  11
ATOM     11  C   UNL     1     147.087 135.448 149.387  1.00  0.00     0.002 C 
ATOM     12  C   UNL     1     148.098 134.523 148.710  1.00  0.00     0.005 C 
ATOM     13  C   UNL     1     147.167 136.804 148.575  1.00  0.00    -0.026 C 
ATOM     14  C   UNL     1     148.080 134.922 147.252  1.00  0.00     0.005 C 
ATOM     15  C   UNL     1     147.950 136.442 147.266  1.00  0.00    -0.001 C 
ATOM     16  C   UNL     1     145.736 137.331 148.268  1.00  0.00     0.007 C 
ATOM     17  C   UNL     1     147.959 137.913 149.318  1.00  0.00     0.012 C 
ATOM     18  C   UNL     1     147.384 136.997 145.921  1.00  0.00     0.000 C 
ATOM     19  C   UNL     1     145.086 136.607 147.083  1.00  0.00     0.005 C 
ATOM     20  C   UNL     1     145.827 136.883 145.750  1.00  0.00     0.003 C 
ATOM     21  C   UNL     1     147.894 138.416 145.636  1.00  0.00     0.031 C 
ATOM     22  C   UNL     1     145.152 138.012 144.835  1.00  0.00    -0.008 C 
ATOM     23  C   UNL     1     147.437 138.843 144.275  1.00  0.00    -0.027 C 
ATOM     24  C   UNL     1     146.180 138.599 143.855  1.00  0.00    -0.065 C 
ATOM     25  C   UNL     1     143.967 137.355 144.052  1.00  0.00     0.014 C 
ATOM     26  C   UNL     1     144.596 139.213 145.654  1.00  0.00     0.016 C 
ATOM     27  C   UNL     1     145.737 139.229 142.547  1.00  0.00     0.063 C 
ATOM     28  C   UNL     1     143.456 138.191 142.873  1.00  0.00     0.033 C 
ATOM     29  C   UNL     1     144.595 138.452 141.881  1.00  0.00     0.118 C 
BRANCH  29  30
ATOM     30  O   UNL     1     144.121 139.138 140.751  1.00  0.00    -0.393 OA
ATOM     31  H   UNL     1     144.189 140.111 140.936  1.00  0.00     0.210 HD
ENDBRANCH  29  30
ENDBRANCH   1  11
TORSDOF 6
ENDMDL
MODEL 4
REMARK VINA RESULT:    -6.800      2.797      4.928
REMARK INTER + INTRA:          -9.286
REMARK INTER:                  -8.644
REMARK INTRA:                  -0.642
REMARK UNBOUND:                -0.299
REMARK SMILES CC[C@H](C=C[C@H](C)[C@@H]1CC[C@H]2[C@@H]3CC=C4C[C@H](O)CC[C@@]4(C)[C@@H]3CC[C@]21C)C(C)C
REMARK SMILES IDX 6 1 7 2 5 3 4 4 3 5 2 6 1 7 28 8 29 9 30 10 8 11 9 12 26 13
REMARK SMILES IDX 10 14 11 15 25 16 27 17 12 18 24 19 23 20 13 21 21 22 14 23
REMARK SMILES IDX 15 24 20 25 22 26 16 27 19 28 17 29 18 30
REMARK H PARENT 18 31
REMARK Flexibility Score: inf
ROOT
ATOM      1  C   UNL     1     138.161 142.299 146.421  1.00  0.00     0.012 C 
ATOM      2  C   UNL     1     138.797 143.001 147.633  1.00  0.00     0.012 C 
ENDROOT
BRANCH   1   3
ATOM      3  C   UNL     1     138.184 143.260 145.244  1.00  0.00    -0.028 C 
ATOM      4  C   UNL     1     137.302 143.192 144.228  1.00  0.00    -0.027 C 
BRANCH   4   5
ATOM      5  C   UNL     1     137.367 144.071 142.990  1.00  0.00     0.014 C 
BRANCH   5   6
ATOM      6  C   UNL     1     137.436 143.284 141.652  1.00  0.00     0.004 C 
ATOM      7  C   UNL     1     136.854 141.875 141.765  1.00  0.00     0.004 C 
ENDBRANCH   5   6
BRANCH   5   8
ATOM      8  C   UNL     1     136.249 145.158 143.024  1.00  0.00    -0.011 C 
ATOM      9  C   UNL     1     134.964 144.705 143.737  1.00  0.00     0.008 C 
ATOM     10  C   UNL     1     135.914 145.685 141.618  1.00  0.00     0.008 C 
ENDBRANCH   5   8
ENDBRANCH   4   5
ENDBRANCH   1   3
BRANCH   1  11
ATOM     11  C   UNL     1     138.857 140.927 146.109  1.00  0.00     0.002 C 
ATOM     12  C   UNL     1     139.142 140.098 147.361  1.00  0.00     0.005 C 
ATOM     13  C   UNL     1     140.226 140.949 145.315  1.00  0.00    -0.026 C 
ATOM     14  C   UNL     1     140.167 139.075 146.930  1.00  0.00     0.005 C 
ATOM     15  C   UNL     1     141.096 139.829 145.983  1.00  0.00    -0.001 C 
ATOM     16  C   UNL     1     139.975 140.666 143.806  1.00  0.00     0.007 C 
ATOM     17  C   UNL     1     140.987 142.295 145.451  1.00  0.00     0.012 C 
ATOM     18  C   UNL     1     141.873 138.867 145.030  1.00  0.00     0.000 C 
ATOM     19  C   UNL     1     139.778 139.173 143.514  1.00  0.00     0.005 C 
ATOM     20  C   UNL     1     141.060 138.347 143.791  1.00  0.00     0.003 C 
ATOM     21  C   UNL     1     143.233 139.450 144.625  1.00  0.00     0.031 C 
ATOM     22  C   UNL     1     141.931 138.015 142.488  1.00  0.00    -0.008 C 
ATOM     23  C   UNL     1     143.992 138.433 143.830  1.00  0.00    -0.027 C 
ATOM     24  C   UNL     1     143.384 137.700 142.876  1.00  0.00    -0.065 C 
ATOM     25  C   UNL     1     141.280 136.783 141.774  1.00  0.00     0.014 C 
ATOM     26  C   UNL     1     141.996 139.195 141.476  1.00  0.00     0.016 C 
ATOM     27  C   UNL     1     144.256 136.832 141.988  1.00  0.00     0.063 C 
ATOM     28  C   UNL     1     142.184 136.114 140.733  1.00  0.00     0.033 C 
ATOM     29  C   UNL     1     143.488 135.648 141.391  1.00  0.00     0.118 C 
BRANCH  29  30
ATOM     30  O   UNL     1     144.287 134.951 140.469  1.00  0.00    -0.393 OA
ATOM     31  H   UNL     1     145.234 135.064 140.743  1.00  0.00     0.210 HD
ENDBRANCH  29  30
ENDBRANCH   1  11
TORSDOF 6
ENDMDL
MODEL 5
REMARK VINA RESULT:    -6.784      2.243      3.534
REMARK INTER + INTRA:          -9.265
REMARK INTER:                  -7.704
REMARK INTRA:                  -1.561
REMARK UNBOUND:                -0.299
REMARK SMILES CC[C@H](C=C[C@H](C)[C@@H]1CC[C@H]2[C@@H]3CC=C4C[C@H](O)CC[C@@]4(C)[C@@H]3CC[C@]21C)C(C)C
REMARK SMILES IDX 6 1 7 2 5 3 4 4 3 5 2 6 1 7 28 8 29 9 30 10 8 11 9 12 26 13
REMARK SMILES IDX 10 14 11 15 25 16 27 17 12 18 24 19 23 20 13 21 21 22 14 23
REMARK SMILES IDX 15 24 20 25 22 26 16 27 19 28 17 29 18 30
REMARK H PARENT 18 31
REMARK Flexibility Score: inf
ROOT
ATOM      1  C   UNL     1     139.452 138.518 144.273  1.00  0.00     0.012 C 
ATOM      2  C   UNL     1     139.066 139.065 142.888  1.00  0.00     0.012 C 
ENDROOT
BRANCH   1   3
ATOM      3  C   UNL     1     138.335 137.611 144.760  1.00  0.00    -0.028 C 
ATOM      4  C   UNL     1     137.970 137.530 146.053  1.00  0.00    -0.027 C 
BRANCH   4   5
ATOM      5  C   UNL     1     136.929 136.555 146.581  1.00  0.00     0.014 C 
BRANCH   5   6
ATOM      6  C   UNL     1     135.801 136.217 145.568  1.00  0.00     0.004 C 
ATOM      7  C   UNL     1     134.403 136.462 146.137  1.00  0.00     0.004 C 
ENDBRANCH   5   6
BRANCH   5   8
ATOM      8  C   UNL     1     137.613 135.300 147.204  1.00  0.00    -0.011 C 
ATOM      9  C   UNL     1     139.024 135.569 147.753  1.00  0.00     0.008 C 
ATOM     10  C   UNL     1     137.645 134.115 146.225  1.00  0.00     0.008 C 
ENDBRANCH   5   8
ENDBRANCH   4   5
ENDBRANCH   1   3
BRANCH   1  11
ATOM     11  C   UNL     1     140.854 137.812 144.252  1.00  0.00     0.002 C 
ATOM     12  C   UNL     1     140.765 136.295 144.417  1.00  0.00     0.005 C 
ATOM     13  C   UNL     1     141.937 138.273 145.309  1.00  0.00    -0.026 C 
ATOM     14  C   UNL     1     142.158 135.860 144.809  1.00  0.00     0.005 C 
ATOM     15  C   UNL     1     142.657 136.952 145.751  1.00  0.00    -0.001 C 
ATOM     16  C   UNL     1     142.925 139.283 144.658  1.00  0.00     0.007 C 
ATOM     17  C   UNL     1     141.315 138.927 146.573  1.00  0.00     0.012 C 
ATOM     18  C   UNL     1     144.215 136.987 145.841  1.00  0.00     0.000 C 
ATOM     19  C   UNL     1     143.991 138.590 143.801  1.00  0.00     0.005 C 
ATOM     20  C   UNL     1     144.941 137.707 144.649  1.00  0.00     0.003 C 
ATOM     21  C   UNL     1     144.690 137.505 147.204  1.00  0.00     0.031 C 
ATOM     22  C   UNL     1     146.342 138.394 145.013  1.00  0.00    -0.008 C 
ATOM     23  C   UNL     1     146.181 137.384 147.289  1.00  0.00    -0.027 C 
ATOM     24  C   UNL     1     146.967 137.727 146.248  1.00  0.00    -0.065 C 
ATOM     25  C   UNL     1     147.290 138.244 143.776  1.00  0.00     0.014 C 
ATOM     26  C   UNL     1     146.212 139.907 145.354  1.00  0.00     0.016 C 
ATOM     27  C   UNL     1     148.467 137.759 146.475  1.00  0.00     0.063 C 
ATOM     28  C   UNL     1     148.766 138.515 144.082  1.00  0.00     0.033 C 
ATOM     29  C   UNL     1     149.259 137.562 145.178  1.00  0.00     0.118 C 
BRANCH  29  30
ATOM     30  O   UNL     1     150.635 137.736 145.405  1.00  0.00    -0.393 OA
ATOM     31  H   UNL     1     150.902 137.118 146.135  1.00  0.00     0.210 HD
ENDBRANCH  29  30
ENDBRANCH   1  11
TORSDOF 6
ENDMDL
MODEL 6
REMARK VINA RESULT:    -6.725      4.469      9.717
REMARK INTER + INTRA:          -9.187
REMARK INTER:                  -7.878
REMARK INTRA:                  -1.309
REMARK UNBOUND:                -0.299
REMARK SMILES CC[C@H](C=C[C@H](C)[C@@H]1CC[C@H]2[C@@H]3CC=C4C[C@H](O)CC[C@@]4(C)[C@@H]3CC[C@]21C)C(C)C
REMARK SMILES IDX 6 1 7 2 5 3 4 4 3 5 2 6 1 7 28 8 29 9 30 10 8 11 9 12 26 13
REMARK SMILES IDX 10 14 11 15 25 16 27 17 12 18 24 19 23 20 13 21 21 22 14 23
REMARK SMILES IDX 15 24 20 25 22 26 16 27 19 28 17 29 18 30
REMARK H PARENT 18 31
REMARK Flexibility Score: inf
ROOT
ATOM      1  C   UNL     1     148.123 136.457 147.733  1.00  0.00     0.012 C 
ATOM      2  C   UNL     1     148.865 137.411 146.781  1.00  0.00     0.012 C 
ENDROOT
BRANCH   1   3
ATOM      3  C   UNL     1     148.971 136.269 148.980  1.00  0.00    -0.028 C 
ATOM      4  C   UNL     1     149.169 135.068 149.555  1.00  0.00    -0.027 C 
BRANCH   4   5
ATOM      5  C   UNL     1     149.923 134.866 150.860  1.00  0.00     0.014 C 
BRANCH   5   6
ATOM      6  C   UNL     1     149.031 134.414 152.048  1.00  0.00     0.004 C 
ATOM      7  C   UNL     1     147.539 134.443 151.712  1.00  0.00     0.004 C 
ENDBRANCH   5   6
BRANCH   5   8
ATOM      8  C   UNL     1     151.180 133.969 150.639  1.00  0.00    -0.011 C 
ATOM      9  C   UNL     1     151.609 133.183 151.889  1.00  0.00     0.008 C 
ATOM     10  C   UNL     1     152.370 134.770 150.085  1.00  0.00     0.008 C 
ENDBRANCH   5   8
ENDBRANCH   4   5
ENDBRANCH   1   3
BRANCH   1  11
ATOM     11  C   UNL     1     146.669 136.959 148.047  1.00  0.00     0.002 C 
ATOM     12  C   UNL     1     146.457 137.300 149.521  1.00  0.00     0.005 C 
ATOM     13  C   UNL     1     145.458 136.014 147.669  1.00  0.00    -0.026 C 
ATOM     14  C   UNL     1     144.957 137.327 149.706  1.00  0.00     0.005 C 
ATOM     15  C   UNL     1     144.439 136.176 148.849  1.00  0.00    -0.001 C 
ATOM     16  C   UNL     1     144.843 136.450 146.308  1.00  0.00     0.007 C 
ATOM     17  C   UNL     1     145.857 134.517 147.580  1.00  0.00     0.012 C 
ATOM     18  C   UNL     1     142.934 136.353 148.472  1.00  0.00     0.000 C 
ATOM     19  C   UNL     1     143.914 137.662 146.446  1.00  0.00     0.005 C 
ATOM     20  C   UNL     1     142.651 137.341 147.284  1.00  0.00     0.003 C 
ATOM     21  C   UNL     1     142.238 135.000 148.276  1.00  0.00     0.031 C 
ATOM     22  C   UNL     1     141.342 137.018 146.420  1.00  0.00    -0.008 C 
ATOM     23  C   UNL     1     140.773 135.223 148.056  1.00  0.00    -0.027 C 
ATOM     24  C   UNL     1     140.333 136.208 147.248  1.00  0.00    -0.065 C 
ATOM     25  C   UNL     1     140.710 138.379 145.972  1.00  0.00     0.014 C 
ATOM     26  C   UNL     1     141.640 136.171 145.149  1.00  0.00     0.016 C 
ATOM     27  C   UNL     1     138.850 136.249 146.927  1.00  0.00     0.063 C 
ATOM     28  C   UNL     1     139.272 138.262 145.458  1.00  0.00     0.033 C 
ATOM     29  C   UNL     1     138.374 137.654 146.542  1.00  0.00     0.118 C 
BRANCH  29  30
ATOM     30  O   UNL     1     137.035 137.626 146.119  1.00  0.00    -0.393 OA
ATOM     31  H   UNL     1     137.013 137.233 145.207  1.00  0.00     0.210 HD
ENDBRANCH  29  30
ENDBRANCH   1  11
TORSDOF 6
ENDMDL
MODEL 7
REMARK VINA RESULT:    -6.538      3.564      6.615
REMARK INTER + INTRA:          -8.939
REMARK INTER:                  -7.922
REMARK INTRA:                  -1.017
REMARK UNBOUND:                -0.299
REMARK SMILES CC[C@H](C=C[C@H](C)[C@@H]1CC[C@H]2[C@@H]3CC=C4C[C@H](O)CC[C@@]4(C)[C@@H]3CC[C@]21C)C(C)C
REMARK SMILES IDX 6 1 7 2 5 3 4 4 3 5 2 6 1 7 28 8 29 9 30 10 8 11 9 12 26 13
REMARK SMILES IDX 10 14 11 15 25 16 27 17 12 18 24 19 23 20 13 21 21 22 14 23
REMARK SMILES IDX 15 24 20 25 22 26 16 27 19 28 17 29 18 30
REMARK H PARENT 18 31
REMARK Flexibility Score: inf
ROOT
ATOM      1  C   UNL     1     137.565 142.836 142.859  1.00  0.00     0.012 C 
ATOM      2  C   UNL     1     136.619 141.961 142.019  1.00  0.00     0.012 C 
ENDROOT
BRANCH   1   3
ATOM      3  C   UNL     1     136.847 144.132 143.198  1.00  0.00    -0.028 C 
ATOM      4  C   UNL     1     135.620 144.431 142.732  1.00  0.00    -0.027 C 
BRANCH   4   5
ATOM      5  C   UNL     1     134.925 145.762 142.968  1.00  0.00     0.014 C 
BRANCH   5   6
ATOM      6  C   UNL     1     135.876 146.989 142.952  1.00  0.00     0.004 C 
ATOM      7  C   UNL     1     135.413 148.109 143.885  1.00  0.00     0.004 C 
ENDBRANCH   5   6
BRANCH   5   8
ATOM      8  C   UNL     1     133.686 145.913 142.034  1.00  0.00    -0.011 C 
ATOM      9  C   UNL     1     132.927 144.598 141.790  1.00  0.00     0.008 C 
ATOM     10  C   UNL     1     134.053 146.566 140.690  1.00  0.00     0.008 C 
ENDBRANCH   5   8
ENDBRANCH   4   5
ENDBRANCH   1   3
BRANCH   1  11
ATOM     11  C   UNL     1     138.093 142.075 144.127  1.00  0.00     0.002 C 
ATOM     12  C   UNL     1     138.448 143.009 145.284  1.00  0.00     0.005 C 
ATOM     13  C   UNL     1     139.355 141.136 143.960  1.00  0.00    -0.026 C 
ATOM     14  C   UNL     1     139.320 142.183 146.202  1.00  0.00     0.005 C 
ATOM     15  C   UNL     1     140.194 141.354 145.266  1.00  0.00    -0.001 C 
ATOM     16  C   UNL     1     138.904 139.655 143.800  1.00  0.00     0.007 C 
ATOM     17  C   UNL     1     140.245 141.520 142.748  1.00  0.00     0.012 C 
ATOM     18  C   UNL     1     140.764 140.080 145.968  1.00  0.00     0.000 C 
ATOM     19  C   UNL     1     138.541 139.006 145.141  1.00  0.00     0.005 C 
ATOM     20  C   UNL     1     139.767 138.872 146.079  1.00  0.00     0.003 C 
ATOM     21  C   UNL     1     142.113 139.662 145.370  1.00  0.00     0.031 C 
ATOM     22  C   UNL     1     140.445 137.421 146.085  1.00  0.00    -0.008 C 
ATOM     23  C   UNL     1     142.680 138.528 146.167  1.00  0.00    -0.027 C 
ATOM     24  C   UNL     1     141.900 137.506 146.573  1.00  0.00    -0.065 C 
ATOM     25  C   UNL     1     139.607 136.499 147.034  1.00  0.00     0.014 C 
ATOM     26  C   UNL     1     140.496 136.761 144.677  1.00  0.00     0.016 C 
ATOM     27  C   UNL     1     142.580 136.307 147.207  1.00  0.00     0.063 C 
ATOM     28  C   UNL     1     140.318 135.203 147.437  1.00  0.00     0.033 C 
ATOM     29  C   UNL     1     141.643 135.527 148.137  1.00  0.00     0.118 C 
BRANCH  29  30
ATOM     30  O   UNL     1     142.263 134.351 148.593  1.00  0.00    -0.393 OA
ATOM     31  H   UNL     1     141.613 133.607 148.494  1.00  0.00     0.210 HD
ENDBRANCH  29  30
ENDBRANCH   1  11
TORSDOF 6
ENDMDL
MODEL 8
REMARK VINA RESULT:    -6.486      5.092      7.653
REMARK INTER + INTRA:          -8.870
REMARK INTER:                  -7.597
REMARK INTRA:                  -1.274
REMARK UNBOUND:                -0.299
REMARK SMILES CC[C@H](C=C[C@H](C)[C@@H]1CC[C@H]2[C@@H]3CC=C4C[C@H](O)CC[C@@]4(C)[C@@H]3CC[C@]21C)C(C)C
REMARK SMILES IDX 6 1 7 2 5 3 4 4 3 5 2 6 1 7 28 8 29 9 30 10 8 11 9 12 26 13
REMARK SMILES IDX 10 14 11 15 25 16 27 17 12 18 24 19 23 20 13 21 21 22 14 23
REMARK SMILES IDX 15 24 20 25 22 26 16 27 19 28 17 29 18 30
REMARK H PARENT 18 31
REMARK Flexibility Score: inf
ROOT
ATOM      1  C   UNL     1     145.765 133.843 150.652  1.00  0.00     0.012 C 
ATOM      2  C   UNL     1     146.573 133.682 151.951  1.00  0.00     0.012 C 
ENDROOT
BRANCH   1   3
ATOM      3  C   UNL     1     144.330 133.424 150.924  1.00  0.00    -0.028 C 
ATOM      4  C   UNL     1     143.679 132.516 150.173  1.00  0.00    -0.027 C 
BRANCH   4   5
ATOM      5  C   UNL     1     142.213 132.157 150.357  1.00  0.00     0.014 C 
BRANCH   5   6
ATOM      6  C   UNL     1     141.293 132.620 149.195  1.00  0.00     0.004 C 
ATOM      7  C   UNL     1     141.873 133.800 148.415  1.00  0.00     0.004 C 
ENDBRANCH   5   6
BRANCH   5   8
ATOM      8  C   UNL     1     142.054 130.650 150.724  1.00  0.00    -0.011 C 
ATOM      9  C   UNL     1     141.467 130.410 152.125  1.00  0.00     0.008 C 
ATOM     10  C   UNL     1     143.374 129.875 150.565  1.00  0.00     0.008 C 
ENDBRANCH   5   8
ENDBRANCH   4   5
ENDBRANCH   1   3
BRANCH   1  11
ATOM     11  C   UNL     1     145.882 135.295 150.067  1.00  0.00     0.002 C 
ATOM     12  C   UNL     1     144.689 136.183 150.421  1.00  0.00     0.005 C 
ATOM     13  C   UNL     1     146.061 135.457 148.504  1.00  0.00    -0.026 C 
ATOM     14  C   UNL     1     144.756 137.337 149.446  1.00  0.00     0.005 C 
ATOM     15  C   UNL     1     145.192 136.706 148.127  1.00  0.00    -0.001 C 
ATOM     16  C   UNL     1     147.563 135.667 148.155  1.00  0.00     0.007 C 
ATOM     17  C   UNL     1     145.527 134.241 147.700  1.00  0.00     0.012 C 
ATOM     18  C   UNL     1     145.830 137.751 147.158  1.00  0.00     0.000 C 
ATOM     19  C   UNL     1     148.025 137.109 148.403  1.00  0.00     0.005 C 
ATOM     20  C   UNL     1     147.328 138.119 147.458  1.00  0.00     0.003 C 
ATOM     21  C   UNL     1     145.613 137.365 145.689  1.00  0.00     0.031 C 
ATOM     22  C   UNL     1     148.198 138.548 146.183  1.00  0.00    -0.008 C 
ATOM     23  C   UNL     1     146.118 138.466 144.807  1.00  0.00    -0.027 C 
ATOM     24  C   UNL     1     147.290 139.081 145.063  1.00  0.00    -0.065 C 
ATOM     25  C   UNL     1     149.207 139.655 146.637  1.00  0.00     0.014 C 
ATOM     26  C   UNL     1     149.004 137.369 145.566  1.00  0.00     0.016 C 
ATOM     27  C   UNL     1     147.823 140.048 144.022  1.00  0.00     0.063 C 
ATOM     28  C   UNL     1     149.852 140.427 145.481  1.00  0.00     0.033 C 
ATOM     29  C   UNL     1     148.768 141.093 144.625  1.00  0.00     0.118 C 
BRANCH  29  30
ATOM     30  O   UNL     1     149.348 141.880 143.615  1.00  0.00    -0.393 OA
ATOM     31  H   UNL     1     150.106 142.379 144.017  1.00  0.00     0.210 HD
ENDBRANCH  29  30
ENDBRANCH   1  11
TORSDOF 6
ENDMDL
MODEL 9
REMARK VINA RESULT:    -6.456      6.548     11.783
REMARK INTER + INTRA:          -8.831
REMARK INTER:                  -7.723
REMARK INTRA:                  -1.108
REMARK UNBOUND:                -0.299
REMARK SMILES CC[C@H](C=C[C@H](C)[C@@H]1CC[C@H]2[C@@H]3CC=C4C[C@H](O)CC[C@@]4(C)[C@@H]3CC[C@]21C)C(C)C
REMARK SMILES IDX 6 1 7 2 5 3 4 4 3 5 2 6 1 7 28 8 29 9 30 10 8 11 9 12 26 13
REMARK SMILES IDX 10 14 11 15 25 16 27 17 12 18 24 19 23 20 13 21 21 22 14 23
REMARK SMILES IDX 15 24 20 25 22 26 16 27 19 28 17 29 18 30
REMARK H PARENT 18 31
REMARK Flexibility Score: inf
ROOT
ATOM      1  C   UNL     1     138.083 142.151 143.135  1.00  0.00     0.012 C 
ATOM      2  C   UNL     1     139.431 141.931 142.427  1.00  0.00     0.012 C 
ENDROOT
BRANCH   1   3
ATOM      3  C   UNL     1     138.347 142.347 144.619  1.00  0.00    -0.028 C 
ATOM      4  C   UNL     1     138.514 141.320 145.474  1.00  0.00    -0.027 C 
BRANCH   4   5
ATOM      5  C   UNL     1     138.673 141.485 146.977  1.00  0.00     0.014 C 
BRANCH   5   6
ATOM      6  C   UNL     1     140.015 140.941 147.539  1.00  0.00     0.004 C 
ATOM      7  C   UNL     1     140.533 139.730 146.762  1.00  0.00     0.004 C 
ENDBRANCH   5   6
BRANCH   5   8
ATOM      8  C   UNL     1     138.357 142.950 147.409  1.00  0.00    -0.011 C 
ATOM      9  C   UNL     1     139.564 143.697 148.002  1.00  0.00     0.008 C 
ATOM     10  C   UNL     1     137.164 143.021 148.377  1.00  0.00     0.008 C 
ENDBRANCH   5   8
ENDBRANCH   4   5
ENDBRANCH   1   3
BRANCH   1  11
ATOM     11  C   UNL     1     137.271 143.331 142.493  1.00  0.00     0.002 C 
ATOM     12  C   UNL     1     136.393 144.074 143.500  1.00  0.00     0.005 C 
ATOM     13  C   UNL     1     136.311 143.001 141.281  1.00  0.00    -0.026 C 
ATOM     14  C   UNL     1     135.396 144.840 142.661  1.00  0.00     0.005 C 
ATOM     15  C   UNL     1     135.045 143.896 141.515  1.00  0.00    -0.001 C 
ATOM     16  C   UNL     1     137.014 143.333 139.933  1.00  0.00     0.007 C 
ATOM     17  C   UNL     1     135.852 141.518 141.252  1.00  0.00     0.012 C 
ATOM     18  C   UNL     1     134.472 144.658 140.279  1.00  0.00     0.000 C 
ATOM     19  C   UNL     1     136.982 144.832 139.610  1.00  0.00     0.005 C 
ATOM     20  C   UNL     1     135.543 145.348 139.359  1.00  0.00     0.003 C 
ATOM     21  C   UNL     1     133.500 143.784 139.477  1.00  0.00     0.031 C 
ATOM     22  C   UNL     1     135.141 145.476 137.814  1.00  0.00    -0.008 C 
ATOM     23  C   UNL     1     132.875 144.604 138.390  1.00  0.00    -0.027 C 
ATOM     24  C   UNL     1     133.613 145.455 137.649  1.00  0.00    -0.065 C 
ATOM     25  C   UNL     1     135.728 146.823 137.272  1.00  0.00     0.014 C 
ATOM     26  C   UNL     1     135.689 144.311 136.939  1.00  0.00     0.016 C 
ATOM     27  C   UNL     1     132.950 146.104 136.449  1.00  0.00     0.063 C 
ATOM     28  C   UNL     1     135.132 147.271 135.933  1.00  0.00     0.033 C 
ATOM     29  C   UNL     1     133.613 147.431 136.061  1.00  0.00     0.118 C 
BRANCH  29  30
ATOM     30  O   UNL     1     133.064 147.930 134.868  1.00  0.00    -0.393 OA
ATOM     31  H   UNL     1     132.651 147.169 134.383  1.00  0.00     0.210 HD
ENDBRANCH  29  30
ENDBRANCH   1  11
TORSDOF 6
ENDMDL
