MODEL 1
REMARK VINA RESULT:    -3.425      0.000      0.000
REMARK INTER + INTRA:          -8.510
REMARK INTER:                  -6.628
REMARK INTRA:                  -1.881
REMARK UNBOUND:                -1.881
REMARK SMILES CCCCCCCCCCCCCCCCCC(=O)[O-]
REMARK SMILES IDX 10 1 11 2 12 3 13 4 14 5 15 6 16 7 17 8 18 9 19 10 20 11
REMARK SMILES IDX 9 12 8 13 7 14 6 15 5 16 4 17 3 18 2 19 1 20
REMARK H PARENT
REMARK Flexibility Score: inf
ROOT
ATOM      1  C   UNL     1      32.391  10.724  23.589  1.00  0.00     0.000 C 
ENDROOT
BRANCH   1   2
ATOM      2  C   UNL     1      31.816  10.041  22.333  1.00  0.00     0.000 C 
BRANCH   2   3
ATOM      3  C   UNL     1      30.933   8.808  22.607  1.00  0.00     0.000 C 
BRANCH   3   4
ATOM      4  C   UNL     1      31.239   7.580  21.729  1.00  0.00     0.000 C 
BRANCH   4   5
ATOM      5  C   UNL     1      32.560   7.712  20.957  1.00  0.00     0.000 C 
BRANCH   5   6
ATOM      6  C   UNL     1      33.122   6.334  20.591  1.00  0.00     0.000 C 
BRANCH   6   7
ATOM      7  C   UNL     1      32.141   5.217  20.978  1.00  0.00     0.006 C 
BRANCH   7   8
ATOM      8  C   UNL     1      32.770   4.196  21.935  1.00  0.00     0.053 C 
BRANCH   8   9
ATOM      9  C   UNL     1      33.253   2.977  21.209  1.00  0.00     0.041 C 
ATOM     10  O   UNL     1      34.375   2.984  20.638  1.00  0.00    -0.550 OA
ATOM     11  O   UNL     1      32.450   1.847  21.135  1.00  0.00    -0.550 OA
ENDBRANCH   8   9
ENDBRANCH   7   8
ENDBRANCH   6   7
ENDBRANCH   5   6
ENDBRANCH   4   5
ENDBRANCH   3   4
ENDBRANCH   2   3
ENDBRANCH   1   2
BRANCH   1  12
ATOM     12  C   UNL     1      33.838  11.232  23.445  1.00  0.00     0.000 C 
BRANCH  12  13
ATOM     13  C   UNL     1      34.671  10.536  22.349  1.00  0.00    -0.000 C 
BRANCH  13  14
ATOM     14  C   UNL     1      35.899  11.324  21.858  1.00  0.00    -0.000 C 
BRANCH  14  15
ATOM     15  C   UNL     1      37.145  11.096  22.728  1.00  0.00    -0.000 C 
BRANCH  15  16
ATOM     16  C   UNL     1      37.187   9.692  23.360  1.00  0.00    -0.000 C 
BRANCH  16  17
ATOM     17  C   UNL     1      38.431   8.852  23.013  1.00  0.00    -0.000 C 
BRANCH  17  18
ATOM     18  C   UNL     1      38.082   7.492  22.392  1.00  0.00    -0.000 C 
BRANCH  18  19
ATOM     19  C   UNL     1      36.652   7.490  21.842  1.00  0.00    -0.003 C 
ATOM     20  C   UNL     1      36.642   7.666  20.326  1.00  0.00     0.004 C 
ENDBRANCH  18  19
ENDBRANCH  17  18
ENDBRANCH  16  17
ENDBRANCH  15  16
ENDBRANCH  14  15
ENDBRANCH  13  14
ENDBRANCH  12  13
ENDBRANCH   1  12
TORSDOF 16
ENDMDL
MODEL 2
REMARK VINA RESULT:    -3.404      1.469      3.228
REMARK INTER + INTRA:          -8.468
REMARK INTER:                  -6.454
REMARK INTRA:                  -2.014
REMARK UNBOUND:                -1.881
REMARK SMILES CCCCCCCCCCCCCCCCCC(=O)[O-]
REMARK SMILES IDX 10 1 11 2 12 3 13 4 14 5 15 6 16 7 17 8 18 9 19 10 20 11
REMARK SMILES IDX 9 12 8 13 7 14 6 15 5 16 4 17 3 18 2 19 1 20
REMARK H PARENT
REMARK Flexibility Score: inf
ROOT
ATOM      1  C   UNL     1      35.903  11.357  22.876  1.00  0.00     0.000 C 
ENDROOT
BRANCH   1   2
ATOM      2  C   UNL     1      34.524  11.328  23.565  1.00  0.00     0.000 C 
BRANCH   2   3
ATOM      3  C   UNL     1      33.346  10.940  22.650  1.00  0.00     0.000 C 
BRANCH   3   4
ATOM      4  C   UNL     1      32.013  10.688  23.378  1.00  0.00     0.000 C 
BRANCH   4   5
ATOM      5  C   UNL     1      31.274   9.446  22.859  1.00  0.00     0.000 C 
BRANCH   5   6
ATOM      6  C   UNL     1      32.089   8.738  21.771  1.00  0.00     0.000 C 
BRANCH   6   7
ATOM      7  C   UNL     1      31.459   7.388  21.399  1.00  0.00     0.006 C 
BRANCH   7   8
ATOM      8  C   UNL     1      32.293   6.622  20.364  1.00  0.00     0.053 C 
BRANCH   8   9
ATOM      9  C   UNL     1      32.817   5.331  20.916  1.00  0.00     0.041 C 
ATOM     10  O   UNL     1      33.679   4.673  20.277  1.00  0.00    -0.550 OA
ATOM     11  O   UNL     1      32.328   4.839  22.119  1.00  0.00    -0.550 OA
ENDBRANCH   8   9
ENDBRANCH   7   8
ENDBRANCH   6   7
ENDBRANCH   5   6
ENDBRANCH   4   5
ENDBRANCH   3   4
ENDBRANCH   2   3
ENDBRANCH   1   2
BRANCH   1  12
ATOM     12  C   UNL     1      36.593   9.986  22.748  1.00  0.00     0.000 C 
BRANCH  12  13
ATOM     13  C   UNL     1      36.487   9.327  21.357  1.00  0.00    -0.000 C 
BRANCH  13  14
ATOM     14  C   UNL     1      35.678   8.018  21.310  1.00  0.00    -0.000 C 
BRANCH  14  15
ATOM     15  C   UNL     1      36.368   6.916  20.491  1.00  0.00    -0.000 C 
BRANCH  15  16
ATOM     16  C   UNL     1      37.065   5.862  21.370  1.00  0.00    -0.000 C 
BRANCH  16  17
ATOM     17  C   UNL     1      38.069   6.421  22.396  1.00  0.00    -0.000 C 
BRANCH  17  18
ATOM     18  C   UNL     1      37.595   6.263  23.848  1.00  0.00    -0.000 C 
BRANCH  18  19
ATOM     19  C   UNL     1      38.335   7.234  24.774  1.00  0.00    -0.003 C 
ATOM     20  C   UNL     1      39.425   7.993  24.023  1.00  0.00     0.004 C 
ENDBRANCH  18  19
ENDBRANCH  17  18
ENDBRANCH  16  17
ENDBRANCH  15  16
ENDBRANCH  14  15
ENDBRANCH  13  14
ENDBRANCH  12  13
ENDBRANCH   1  12
TORSDOF 16
ENDMDL
MODEL 3
REMARK VINA RESULT:    -3.383      2.612      5.317
REMARK INTER + INTRA:          -8.429
REMARK INTER:                  -6.113
REMARK INTRA:                  -2.316
REMARK UNBOUND:                -1.881
REMARK SMILES CCCCCCCCCCCCCCCCCC(=O)[O-]
REMARK SMILES IDX 10 1 11 2 12 3 13 4 14 5 15 6 16 7 17 8 18 9 19 10 20 11
REMARK SMILES IDX 9 12 8 13 7 14 6 15 5 16 4 17 3 18 2 19 1 20
REMARK H PARENT
REMARK Flexibility Score: inf
ROOT
ATOM      1  C   UNL     1      32.556  11.694  22.047  1.00  0.00     0.000 C 
ENDROOT
BRANCH   1   2
ATOM      2  C   UNL     1      33.990  12.120  22.420  1.00  0.00     0.000 C 
BRANCH   2   3
ATOM      3  C   UNL     1      34.692  11.216  23.452  1.00  0.00     0.000 C 
BRANCH   3   4
ATOM      4  C   UNL     1      36.071  10.685  23.021  1.00  0.00     0.000 C 
BRANCH   4   5
ATOM      5  C   UNL     1      36.085  10.159  21.579  1.00  0.00     0.000 C 
BRANCH   5   6
ATOM      6  C   UNL     1      35.697   8.677  21.532  1.00  0.00     0.000 C 
BRANCH   6   7
ATOM      7  C   UNL     1      36.935   7.787  21.353  1.00  0.00     0.006 C 
BRANCH   7   8
ATOM      8  C   UNL     1      36.911   6.564  22.280  1.00  0.00     0.053 C 
BRANCH   8   9
ATOM      9  C   UNL     1      37.787   6.757  23.480  1.00  0.00     0.041 C 
ATOM     10  O   UNL     1      38.147   7.914  23.821  1.00  0.00    -0.550 OA
ATOM     11  O   UNL     1      38.233   5.657  24.201  1.00  0.00    -0.550 OA
ENDBRANCH   8   9
ENDBRANCH   7   8
ENDBRANCH   6   7
ENDBRANCH   5   6
ENDBRANCH   4   5
ENDBRANCH   3   4
ENDBRANCH   2   3
ENDBRANCH   1   2
BRANCH   1  12
ATOM     12  C   UNL     1      31.773  10.998  23.176  1.00  0.00     0.000 C 
BRANCH  12  13
ATOM     13  C   UNL     1      31.367   9.538  22.888  1.00  0.00    -0.000 C 
BRANCH  13  14
ATOM     14  C   UNL     1      32.098   8.874  21.707  1.00  0.00    -0.000 C 
BRANCH  14  15
ATOM     15  C   UNL     1      31.609   7.445  21.427  1.00  0.00    -0.000 C 
BRANCH  15  16
ATOM     16  C   UNL     1      32.596   6.629  20.572  1.00  0.00    -0.000 C 
BRANCH  16  17
ATOM     17  C   UNL     1      32.166   6.400  19.110  1.00  0.00    -0.000 C 
BRANCH  17  18
ATOM     18  C   UNL     1      32.397   7.628  18.217  1.00  0.00    -0.000 C 
BRANCH  18  19
ATOM     19  C   UNL     1      33.797   8.212  18.439  1.00  0.00    -0.003 C 
ATOM     20  C   UNL     1      33.750   9.733  18.548  1.00  0.00     0.004 C 
ENDBRANCH  18  19
ENDBRANCH  17  18
ENDBRANCH  16  17
ENDBRANCH  15  16
ENDBRANCH  14  15
ENDBRANCH  13  14
ENDBRANCH  12  13
ENDBRANCH   1  12
TORSDOF 16
ENDMDL
MODEL 4
REMARK VINA RESULT:    -3.361      3.246      5.921
REMARK INTER + INTRA:          -8.385
REMARK INTER:                  -6.007
REMARK INTRA:                  -2.378
REMARK UNBOUND:                -1.881
REMARK SMILES CCCCCCCCCCCCCCCCCC(=O)[O-]
REMARK SMILES IDX 10 1 11 2 12 3 13 4 14 5 15 6 16 7 17 8 18 9 19 10 20 11
REMARK SMILES IDX 9 12 8 13 7 14 6 15 5 16 4 17 3 18 2 19 1 20
REMARK H PARENT
REMARK Flexibility Score: inf
ROOT
ATOM      1  C   UNL     1      31.900   8.384  21.507  1.00  0.00     0.000 C 
ENDROOT
BRANCH   1   2
ATOM      2  C   UNL     1      31.194   9.120  22.663  1.00  0.00     0.000 C 
BRANCH   2   3
ATOM      3  C   UNL     1      31.952  10.341  23.220  1.00  0.00     0.000 C 
BRANCH   3   4
ATOM      4  C   UNL     1      32.343  11.399  22.172  1.00  0.00     0.000 C 
BRANCH   4   5
ATOM      5  C   UNL     1      33.729  12.008  22.427  1.00  0.00     0.000 C 
BRANCH   5   6
ATOM      6  C   UNL     1      34.593  11.070  23.276  1.00  0.00     0.000 C 
BRANCH   6   7
ATOM      7  C   UNL     1      36.087  11.284  22.990  1.00  0.00     0.006 C 
BRANCH   7   8
ATOM      8  C   UNL     1      36.914  10.016  23.240  1.00  0.00     0.053 C 
BRANCH   8   9
ATOM      9  C   UNL     1      38.374  10.246  22.993  1.00  0.00     0.041 C 
ATOM     10  O   UNL     1      38.769  11.339  22.508  1.00  0.00    -0.550 OA
ATOM     11  O   UNL     1      39.293   9.242  23.266  1.00  0.00    -0.550 OA
ENDBRANCH   8   9
ENDBRANCH   7   8
ENDBRANCH   6   7
ENDBRANCH   5   6
ENDBRANCH   4   5
ENDBRANCH   3   4
ENDBRANCH   2   3
ENDBRANCH   1   2
BRANCH   1  12
ATOM     12  C   UNL     1      31.237   7.062  21.079  1.00  0.00     0.000 C 
BRANCH  12  13
ATOM     13  C   UNL     1      32.010   5.785  21.469  1.00  0.00    -0.000 C 
BRANCH  13  14
ATOM     14  C   UNL     1      33.111   5.357  20.481  1.00  0.00    -0.000 C 
BRANCH  14  15
ATOM     15  C   UNL     1      34.513   5.810  20.915  1.00  0.00    -0.000 C 
BRANCH  15  16
ATOM     16  C   UNL     1      35.147   6.819  19.939  1.00  0.00    -0.000 C 
BRANCH  16  17
ATOM     17  C   UNL     1      35.442   8.210  20.532  1.00  0.00    -0.000 C 
BRANCH  17  18
ATOM     18  C   UNL     1      34.796   9.353  19.734  1.00  0.00    -0.000 C 
BRANCH  18  19
ATOM     19  C   UNL     1      35.788  10.502  19.522  1.00  0.00    -0.003 C 
ATOM     20  C   UNL     1      37.226   9.992  19.488  1.00  0.00     0.004 C 
ENDBRANCH  18  19
ENDBRANCH  17  18
ENDBRANCH  16  17
ENDBRANCH  15  16
ENDBRANCH  14  15
ENDBRANCH  13  14
ENDBRANCH  12  13
ENDBRANCH   1  12
TORSDOF 16
ENDMDL
MODEL 5
REMARK VINA RESULT:    -3.341      1.473      2.336
REMARK INTER + INTRA:          -8.348
REMARK INTER:                  -5.844
REMARK INTRA:                  -2.504
REMARK UNBOUND:                -1.881
REMARK SMILES CCCCCCCCCCCCCCCCCC(=O)[O-]
REMARK SMILES IDX 10 1 11 2 12 3 13 4 14 5 15 6 16 7 17 8 18 9 19 10 20 11
REMARK SMILES IDX 9 12 8 13 7 14 6 15 5 16 4 17 3 18 2 19 1 20
REMARK H PARENT
REMARK Flexibility Score: inf
ROOT
ATOM      1  C   UNL     1      32.677  11.368  21.937  1.00  0.00     0.000 C 
ENDROOT
BRANCH   1   2
ATOM      2  C   UNL     1      32.126  10.045  22.502  1.00  0.00     0.000 C 
BRANCH   2   3
ATOM      3  C   UNL     1      32.215   8.840  21.546  1.00  0.00     0.000 C 
BRANCH   3   4
ATOM      4  C   UNL     1      31.193   7.719  21.813  1.00  0.00     0.000 C 
BRANCH   4   5
ATOM      5  C   UNL     1      31.592   6.382  21.174  1.00  0.00     0.000 C 
BRANCH   5   6
ATOM      6  C   UNL     1      33.011   6.451  20.597  1.00  0.00     0.000 C 
BRANCH   6   7
ATOM      7  C   UNL     1      33.883   5.308  21.137  1.00  0.00     0.006 C 
BRANCH   7   8
ATOM      8  C   UNL     1      33.063   4.262  21.902  1.00  0.00     0.053 C 
BRANCH   8   9
ATOM      9  C   UNL     1      33.037   2.944  21.190  1.00  0.00     0.041 C 
ATOM     10  O   UNL     1      34.108   2.430  20.773  1.00  0.00    -0.550 OA
ATOM     11  O   UNL     1      31.828   2.302  20.958  1.00  0.00    -0.550 OA
ENDBRANCH   8   9
ENDBRANCH   7   8
ENDBRANCH   6   7
ENDBRANCH   5   6
ENDBRANCH   4   5
ENDBRANCH   3   4
ENDBRANCH   2   3
ENDBRANCH   1   2
BRANCH   1  12
ATOM     12  C   UNL     1      33.638  12.124  22.875  1.00  0.00     0.000 C 
BRANCH  12  13
ATOM     13  C   UNL     1      34.697  11.246  23.573  1.00  0.00    -0.000 C 
BRANCH  13  14
ATOM     14  C   UNL     1      36.062  11.176  22.863  1.00  0.00    -0.000 C 
BRANCH  14  15
ATOM     15  C   UNL     1      36.565   9.736  22.672  1.00  0.00    -0.000 C 
BRANCH  15  16
ATOM     16  C   UNL     1      35.808   8.977  21.567  1.00  0.00    -0.000 C 
BRANCH  16  17
ATOM     17  C   UNL     1      36.144   9.408  20.126  1.00  0.00    -0.000 C 
BRANCH  17  18
ATOM     18  C   UNL     1      34.938   9.993  19.377  1.00  0.00    -0.000 C 
BRANCH  18  19
ATOM     19  C   UNL     1      35.082  11.509  19.205  1.00  0.00    -0.003 C 
ATOM     20  C   UNL     1      36.542  11.940  19.309  1.00  0.00     0.004 C 
ENDBRANCH  18  19
ENDBRANCH  17  18
ENDBRANCH  16  17
ENDBRANCH  15  16
ENDBRANCH  14  15
ENDBRANCH  13  14
ENDBRANCH  12  13
ENDBRANCH   1  12
TORSDOF 16
ENDMDL
MODEL 6
REMARK VINA RESULT:    -3.285      2.583      4.150
REMARK INTER + INTRA:          -8.240
REMARK INTER:                  -5.769
REMARK INTRA:                  -2.471
REMARK UNBOUND:                -1.881
REMARK SMILES CCCCCCCCCCCCCCCCCC(=O)[O-]
REMARK SMILES IDX 10 1 11 2 12 3 13 4 14 5 15 6 16 7 17 8 18 9 19 10 20 11
REMARK SMILES IDX 9 12 8 13 7 14 6 15 5 16 4 17 3 18 2 19 1 20
REMARK H PARENT
REMARK Flexibility Score: inf
ROOT
ATOM      1  C   UNL     1      32.144   8.818  21.789  1.00  0.00     0.000 C 
ENDROOT
BRANCH   1   2
ATOM      2  C   UNL     1      31.616   7.446  21.323  1.00  0.00     0.000 C 
BRANCH   2   3
ATOM      3  C   UNL     1      32.423   6.788  20.187  1.00  0.00     0.000 C 
BRANCH   3   4
ATOM      4  C   UNL     1      33.625   5.943  20.647  1.00  0.00     0.000 C 
BRANCH   4   5
ATOM      5  C   UNL     1      34.828   6.050  19.699  1.00  0.00     0.000 C 
BRANCH   5   6
ATOM      6  C   UNL     1      36.090   5.466  20.344  1.00  0.00     0.000 C 
BRANCH   6   7
ATOM      7  C   UNL     1      36.313   6.049  21.747  1.00  0.00     0.006 C 
BRANCH   7   8
ATOM      8  C   UNL     1      37.792   6.351  22.023  1.00  0.00     0.053 C 
BRANCH   8   9
ATOM      9  C   UNL     1      38.078   6.438  23.491  1.00  0.00     0.041 C 
ATOM     10  O   UNL     1      38.346   5.397  24.146  1.00  0.00    -0.550 OA
ATOM     11  O   UNL     1      38.015   7.663  24.141  1.00  0.00    -0.550 OA
ENDBRANCH   8   9
ENDBRANCH   7   8
ENDBRANCH   6   7
ENDBRANCH   5   6
ENDBRANCH   4   5
ENDBRANCH   3   4
ENDBRANCH   2   3
ENDBRANCH   1   2
BRANCH   1  12
ATOM     12  C   UNL     1      31.292   9.506  22.872  1.00  0.00     0.000 C 
BRANCH  12  13
ATOM     13  C   UNL     1      31.991  10.661  23.619  1.00  0.00    -0.000 C 
BRANCH  13  14
ATOM     14  C   UNL     1      33.087  11.391  22.821  1.00  0.00    -0.000 C 
BRANCH  14  15
ATOM     15  C   UNL     1      34.475  11.280  23.471  1.00  0.00    -0.000 C 
BRANCH  15  16
ATOM     16  C   UNL     1      35.602  11.056  22.446  1.00  0.00    -0.000 C 
BRANCH  16  17
ATOM     17  C   UNL     1      35.802   9.595  21.998  1.00  0.00    -0.000 C 
BRANCH  17  18
ATOM     18  C   UNL     1      35.791   9.428  20.472  1.00  0.00    -0.000 C 
BRANCH  18  19
ATOM     19  C   UNL     1      34.917  10.499  19.809  1.00  0.00    -0.003 C 
ATOM     20  C   UNL     1      33.980   9.885  18.774  1.00  0.00     0.004 C 
ENDBRANCH  18  19
ENDBRANCH  17  18
ENDBRANCH  16  17
ENDBRANCH  15  16
ENDBRANCH  14  15
ENDBRANCH  13  14
ENDBRANCH  12  13
ENDBRANCH   1  12
TORSDOF 16
ENDMDL
MODEL 7
REMARK VINA RESULT:    -3.259      2.387      5.523
REMARK INTER + INTRA:          -8.188
REMARK INTER:                  -5.919
REMARK INTRA:                  -2.270
REMARK UNBOUND:                -1.881
REMARK SMILES CCCCCCCCCCCCCCCCCC(=O)[O-]
REMARK SMILES IDX 10 1 11 2 12 3 13 4 14 5 15 6 16 7 17 8 18 9 19 10 20 11
REMARK SMILES IDX 9 12 8 13 7 14 6 15 5 16 4 17 3 18 2 19 1 20
REMARK H PARENT
REMARK Flexibility Score: inf
ROOT
ATOM      1  C   UNL     1      31.815   8.602  21.853  1.00  0.00     0.000 C 
ENDROOT
BRANCH   1   2
ATOM      2  C   UNL     1      31.216   9.549  22.912  1.00  0.00     0.000 C 
BRANCH   2   3
ATOM      3  C   UNL     1      32.187  10.614  23.459  1.00  0.00     0.000 C 
BRANCH   3   4
ATOM      4  C   UNL     1      32.565  11.724  22.461  1.00  0.00     0.000 C 
BRANCH   4   5
ATOM      5  C   UNL     1      34.054  12.093  22.515  1.00  0.00     0.000 C 
BRANCH   5   6
ATOM      6  C   UNL     1      34.847  11.060  23.323  1.00  0.00     0.000 C 
BRANCH   6   7
ATOM      7  C   UNL     1      35.971  10.443  22.478  1.00  0.00     0.006 C 
BRANCH   7   8
ATOM      8  C   UNL     1      35.505   9.200  21.709  1.00  0.00     0.053 C 
BRANCH   8   9
ATOM      9  C   UNL     1      36.625   8.230  21.486  1.00  0.00     0.041 C 
ATOM     10  O   UNL     1      36.820   7.290  22.301  1.00  0.00    -0.550 OA
ATOM     11  O   UNL     1      37.474   8.385  20.398  1.00  0.00    -0.550 OA
ENDBRANCH   8   9
ENDBRANCH   7   8
ENDBRANCH   6   7
ENDBRANCH   5   6
ENDBRANCH   4   5
ENDBRANCH   3   4
ENDBRANCH   2   3
ENDBRANCH   1   2
BRANCH   1  12
ATOM     12  C   UNL     1      30.944   7.378  21.512  1.00  0.00     0.000 C 
BRANCH  12  13
ATOM     13  C   UNL     1      31.366   6.608  20.244  1.00  0.00    -0.000 C 
BRANCH  13  14
ATOM     14  C   UNL     1      31.590   5.097  20.437  1.00  0.00    -0.000 C 
BRANCH  14  15
ATOM     15  C   UNL     1      32.524   4.777  21.615  1.00  0.00    -0.000 C 
BRANCH  15  16
ATOM     16  C   UNL     1      33.987   5.172  21.347  1.00  0.00    -0.000 C 
BRANCH  16  17
ATOM     17  C   UNL     1      34.635   4.499  20.122  1.00  0.00    -0.000 C 
BRANCH  17  18
ATOM     18  C   UNL     1      35.560   5.442  19.338  1.00  0.00    -0.000 C 
BRANCH  18  19
ATOM     19  C   UNL     1      34.763   6.583  18.696  1.00  0.00    -0.003 C 
ATOM     20  C   UNL     1      33.911   6.077  17.536  1.00  0.00     0.004 C 
ENDBRANCH  18  19
ENDBRANCH  17  18
ENDBRANCH  16  17
ENDBRANCH  15  16
ENDBRANCH  14  15
ENDBRANCH  13  14
ENDBRANCH  12  13
ENDBRANCH   1  12
TORSDOF 16
ENDMDL
MODEL 8
REMARK VINA RESULT:    -3.246      3.476      5.063
REMARK INTER + INTRA:          -8.164
REMARK INTER:                  -5.495
REMARK INTRA:                  -2.670
REMARK UNBOUND:                -1.881
REMARK SMILES CCCCCCCCCCCCCCCCCC(=O)[O-]
REMARK SMILES IDX 10 1 11 2 12 3 13 4 14 5 15 6 16 7 17 8 18 9 19 10 20 11
REMARK SMILES IDX 9 12 8 13 7 14 6 15 5 16 4 17 3 18 2 19 1 20
REMARK H PARENT
REMARK Flexibility Score: inf
ROOT
ATOM      1  C   UNL     1      32.049   8.487  21.414  1.00  0.00     0.000 C 
ENDROOT
BRANCH   1   2
ATOM      2  C   UNL     1      31.778   6.984  21.206  1.00  0.00     0.000 C 
BRANCH   2   3
ATOM      3  C   UNL     1      32.932   6.197  20.557  1.00  0.00     0.000 C 
BRANCH   3   4
ATOM      4  C   UNL     1      34.308   6.886  20.620  1.00  0.00     0.000 C 
BRANCH   4   5
ATOM      5  C   UNL     1      34.933   7.099  19.234  1.00  0.00     0.000 C 
BRANCH   5   6
ATOM      6  C   UNL     1      35.158   8.590  18.956  1.00  0.00     0.000 C 
BRANCH   6   7
ATOM      7  C   UNL     1      33.877   9.253  18.430  1.00  0.00     0.006 C 
BRANCH   7   8
ATOM      8  C   UNL     1      33.723  10.697  18.926  1.00  0.00     0.053 C 
BRANCH   8   9
ATOM      9  C   UNL     1      34.890  11.549  18.529  1.00  0.00     0.041 C 
ATOM     10  O   UNL     1      35.581  12.125  19.409  1.00  0.00    -0.550 OA
ATOM     11  O   UNL     1      35.192  11.734  17.186  1.00  0.00    -0.550 OA
ENDBRANCH   8   9
ENDBRANCH   7   8
ENDBRANCH   6   7
ENDBRANCH   5   6
ENDBRANCH   4   5
ENDBRANCH   3   4
ENDBRANCH   2   3
ENDBRANCH   1   2
BRANCH   1  12
ATOM     12  C   UNL     1      31.263   9.133  22.571  1.00  0.00     0.000 C 
BRANCH  12  13
ATOM     13  C   UNL     1      31.971  10.317  23.262  1.00  0.00    -0.000 C 
BRANCH  13  14
ATOM     14  C   UNL     1      32.372  11.476  22.330  1.00  0.00    -0.000 C 
BRANCH  14  15
ATOM     15  C   UNL     1      33.755  12.059  22.661  1.00  0.00    -0.000 C 
BRANCH  15  16
ATOM     16  C   UNL     1      34.726  11.012  23.239  1.00  0.00    -0.000 C 
BRANCH  16  17
ATOM     17  C   UNL     1      35.341  10.047  22.207  1.00  0.00    -0.000 C 
BRANCH  17  18
ATOM     18  C   UNL     1      36.853   9.852  22.394  1.00  0.00    -0.000 C 
BRANCH  18  19
ATOM     19  C   UNL     1      37.200   8.365  22.535  1.00  0.00    -0.003 C 
ATOM     20  C   UNL     1      38.085   7.894  21.385  1.00  0.00     0.004 C 
ENDBRANCH  18  19
ENDBRANCH  17  18
ENDBRANCH  16  17
ENDBRANCH  15  16
ENDBRANCH  14  15
ENDBRANCH  13  14
ENDBRANCH  12  13
ENDBRANCH   1  12
TORSDOF 16
ENDMDL
MODEL 9
REMARK VINA RESULT:    -3.236      1.601      4.029
REMARK INTER + INTRA:          -8.145
REMARK INTER:                  -5.116
REMARK INTRA:                  -3.029
REMARK UNBOUND:                -1.881
REMARK SMILES CCCCCCCCCCCCCCCCCC(=O)[O-]
REMARK SMILES IDX 10 1 11 2 12 3 13 4 14 5 15 6 16 7 17 8 18 9 19 10 20 11
REMARK SMILES IDX 9 12 8 13 7 14 6 15 5 16 4 17 3 18 2 19 1 20
REMARK H PARENT
REMARK Flexibility Score: inf
ROOT
ATOM      1  C   UNL     1      37.000  11.331  22.768  1.00  0.00     0.000 C 
ENDROOT
BRANCH   1   2
ATOM      2  C   UNL     1      36.917   9.865  23.235  1.00  0.00     0.000 C 
BRANCH   2   3
ATOM      3  C   UNL     1      37.653   8.852  22.336  1.00  0.00     0.000 C 
BRANCH   3   4
ATOM      4  C   UNL     1      36.881   7.550  22.054  1.00  0.00     0.000 C 
BRANCH   4   5
ATOM      5  C   UNL     1      37.311   6.873  20.745  1.00  0.00     0.000 C 
BRANCH   5   6
ATOM      6  C   UNL     1      36.248   5.878  20.266  1.00  0.00     0.000 C 
BRANCH   6   7
ATOM      7  C   UNL     1      34.974   5.978  21.119  1.00  0.00     0.006 C 
BRANCH   7   8
ATOM      8  C   UNL     1      33.773   5.294  20.453  1.00  0.00     0.053 C 
BRANCH   8   9
ATOM      9  C   UNL     1      33.482   3.959  21.067  1.00  0.00     0.041 C 
ATOM     10  O   UNL     1      32.539   3.833  21.892  1.00  0.00    -0.550 OA
ATOM     11  O   UNL     1      34.274   2.861  20.755  1.00  0.00    -0.550 OA
ENDBRANCH   8   9
ENDBRANCH   7   8
ENDBRANCH   6   7
ENDBRANCH   5   6
ENDBRANCH   4   5
ENDBRANCH   3   4
ENDBRANCH   2   3
ENDBRANCH   1   2
BRANCH   1  12
ATOM     12  C   UNL     1      35.683  12.122  22.877  1.00  0.00     0.000 C 
BRANCH  12  13
ATOM     13  C   UNL     1      34.531  11.380  23.586  1.00  0.00    -0.000 C 
BRANCH  13  14
ATOM     14  C   UNL     1      33.165  11.462  22.881  1.00  0.00    -0.000 C 
BRANCH  14  15
ATOM     15  C   UNL     1      32.613  10.084  22.481  1.00  0.00    -0.000 C 
BRANCH  15  16
ATOM     16  C   UNL     1      33.542   9.322  21.517  1.00  0.00    -0.000 C 
BRANCH  16  17
ATOM     17  C   UNL     1      33.812  10.024  20.173  1.00  0.00    -0.000 C 
BRANCH  17  18
ATOM     18  C   UNL     1      34.963   9.385  19.382  1.00  0.00    -0.000 C 
BRANCH  18  19
ATOM     19  C   UNL     1      36.170  10.328  19.312  1.00  0.00    -0.003 C 
ATOM     20  C   UNL     1      35.728  11.784  19.213  1.00  0.00     0.004 C 
ENDBRANCH  18  19
ENDBRANCH  17  18
ENDBRANCH  16  17
ENDBRANCH  15  16
ENDBRANCH  14  15
ENDBRANCH  13  14
ENDBRANCH  12  13
ENDBRANCH   1  12
TORSDOF 16
ENDMDL
