MODEL 1
REMARK VINA RESULT:    -3.834      0.000      0.000
REMARK INTER + INTRA:         -14.984
REMARK INTER:                  -9.661
REMARK INTRA:                  -5.323
REMARK UNBOUND:                -5.323
REMARK SMILES CCCCCCCCCCCCCCCCCCCCCCCCCCCC(=O)[O-]
REMARK SMILES IDX 15 1 16 2 17 3 18 4 19 5 20 6 21 7 22 8 23 9 24 10 25 11
REMARK SMILES IDX 26 12 27 13 28 14 29 15 30 16 14 17 13 18 12 19 11 20 10 21
REMARK SMILES IDX 9 22 8 23 7 24 6 25 5 26 4 27 3 28 2 29 1 30
REMARK H PARENT
REMARK Flexibility Score: inf
ROOT
ATOM      1  C   UNL     1      13.855   2.196  80.575  1.00  0.00     0.000 C 
ENDROOT
BRANCH   1   2
ATOM      2  C   UNL     1      14.642   2.084  81.887  1.00  0.00     0.000 C 
BRANCH   2   3
ATOM      3  C   UNL     1      15.939   2.904  81.824  1.00  0.00     0.000 C 
BRANCH   3   4
ATOM      4  C   UNL     1      17.198   2.063  82.104  1.00  0.00     0.000 C 
BRANCH   4   5
ATOM      5  C   UNL     1      16.954   0.760  82.888  1.00  0.00     0.000 C 
BRANCH   5   6
ATOM      6  C   UNL     1      17.427  -0.493  82.130  1.00  0.00     0.000 C 
BRANCH   6   7
ATOM      7  C   UNL     1      17.077  -0.443  80.633  1.00  0.00     0.000 C 
BRANCH   7   8
ATOM      8  C   UNL     1      15.693  -1.038  80.326  1.00  0.00     0.000 C 
BRANCH   8   9
ATOM      9  C   UNL     1      15.610  -2.500  80.783  1.00  0.00     0.000 C 
BRANCH   9  10
ATOM     10  C   UNL     1      14.329  -2.749  81.594  1.00  0.00     0.000 C 
BRANCH  10  11
ATOM     11  C   UNL     1      14.562  -2.663  83.110  1.00  0.00     0.000 C 
BRANCH  11  12
ATOM     12  C   UNL     1      14.045  -1.345  83.715  1.00  0.00     0.006 C 
BRANCH  12  13
ATOM     13  C   UNL     1      12.773  -0.848  83.016  1.00  0.00     0.053 C 
BRANCH  13  14
ATOM     14  C   UNL     1      11.536  -1.309  83.723  1.00  0.00     0.041 C 
ATOM     15  O   UNL     1      10.637  -1.928  83.094  1.00  0.00    -0.550 OA
ATOM     16  O   UNL     1      11.390  -1.082  85.086  1.00  0.00    -0.550 OA
ENDBRANCH  13  14
ENDBRANCH  12  13
ENDBRANCH  11  12
ENDBRANCH  10  11
ENDBRANCH   9  10
ENDBRANCH   8   9
ENDBRANCH   7   8
ENDBRANCH   6   7
ENDBRANCH   5   6
ENDBRANCH   4   5
ENDBRANCH   3   4
ENDBRANCH   2   3
ENDBRANCH   1   2
BRANCH   1  17
ATOM     17  C   UNL     1      14.413   3.321  79.692  1.00  0.00     0.000 C 
BRANCH  17  18
ATOM     18  C   UNL     1      14.568   2.907  78.218  1.00  0.00     0.000 C 
BRANCH  18  19
ATOM     19  C   UNL     1      15.625   1.818  77.960  1.00  0.00     0.000 C 
BRANCH  19  20
ATOM     20  C   UNL     1      17.063   2.365  77.978  1.00  0.00     0.000 C 
BRANCH  20  21
ATOM     21  C   UNL     1      17.745   2.266  76.605  1.00  0.00     0.000 C 
BRANCH  21  22
ATOM     22  C   UNL     1      18.589   3.511  76.280  1.00  0.00    -0.000 C 
BRANCH  22  23
ATOM     23  C   UNL     1      18.180   4.178  74.954  1.00  0.00    -0.000 C 
BRANCH  23  24
ATOM     24  C   UNL     1      17.534   5.570  75.102  1.00  0.00    -0.000 C 
BRANCH  24  25
ATOM     25  C   UNL     1      16.127   5.579  75.732  1.00  0.00    -0.000 C 
BRANCH  25  26
ATOM     26  C   UNL     1      16.067   6.060  77.194  1.00  0.00    -0.000 C 
BRANCH  26  27
ATOM     27  C   UNL     1      17.315   6.856  77.613  1.00  0.00    -0.000 C 
BRANCH  27  28
ATOM     28  C   UNL     1      18.150   6.136  78.687  1.00  0.00    -0.000 C 
BRANCH  28  29
ATOM     29  C   UNL     1      17.347   5.599  79.886  1.00  0.00    -0.003 C 
ATOM     30  C   UNL     1      17.437   6.497  81.119  1.00  0.00     0.004 C 
ENDBRANCH  28  29
ENDBRANCH  27  28
ENDBRANCH  26  27
ENDBRANCH  25  26
ENDBRANCH  24  25
ENDBRANCH  23  24
ENDBRANCH  22  23
ENDBRANCH  21  22
ENDBRANCH  20  21
ENDBRANCH  19  20
ENDBRANCH  18  19
ENDBRANCH  17  18
ENDBRANCH   1  17
TORSDOF 26
ENDMDL
MODEL 2
REMARK VINA RESULT:    -3.695      1.397      4.175
REMARK INTER + INTRA:         -14.634
REMARK INTER:                  -9.350
REMARK INTRA:                  -5.285
REMARK UNBOUND:                -5.323
REMARK SMILES CCCCCCCCCCCCCCCCCCCCCCCCCCCC(=O)[O-]
REMARK SMILES IDX 15 1 16 2 17 3 18 4 19 5 20 6 21 7 22 8 23 9 24 10 25 11
REMARK SMILES IDX 26 12 27 13 28 14 29 15 30 16 14 17 13 18 12 19 11 20 10 21
REMARK SMILES IDX 9 22 8 23 7 24 6 25 5 26 4 27 3 28 2 29 1 30
REMARK H PARENT
REMARK Flexibility Score: inf
ROOT
ATOM      1  C   UNL     1      18.215   2.293  76.588  1.00  0.00     0.000 C 
ENDROOT
BRANCH   1   2
ATOM      2  C   UNL     1      16.761   1.806  76.631  1.00  0.00     0.000 C 
BRANCH   2   3
ATOM      3  C   UNL     1      16.640   0.501  77.431  1.00  0.00     0.000 C 
BRANCH   3   4
ATOM      4  C   UNL     1      17.990   0.005  77.983  1.00  0.00     0.000 C 
BRANCH   4   5
ATOM      5  C   UNL     1      18.095  -0.036  79.518  1.00  0.00     0.000 C 
BRANCH   5   6
ATOM      6  C   UNL     1      17.372  -1.246  80.135  1.00  0.00     0.000 C 
BRANCH   6   7
ATOM      7  C   UNL     1      16.857  -0.963  81.557  1.00  0.00     0.000 C 
BRANCH   7   8
ATOM      8  C   UNL     1      17.246   0.435  82.063  1.00  0.00     0.000 C 
BRANCH   8   9
ATOM      9  C   UNL     1      16.392   0.838  83.272  1.00  0.00     0.000 C 
BRANCH   9  10
ATOM     10  C   UNL     1      15.198  -0.114  83.441  1.00  0.00     0.000 C 
BRANCH  10  11
ATOM     11  C   UNL     1      13.887   0.628  83.744  1.00  0.00     0.000 C 
BRANCH  11  12
ATOM     12  C   UNL     1      12.667  -0.310  83.767  1.00  0.00     0.006 C 
BRANCH  12  13
ATOM     13  C   UNL     1      13.033  -1.743  83.362  1.00  0.00     0.053 C 
BRANCH  13  14
ATOM     14  C   UNL     1      11.962  -2.373  82.524  1.00  0.00     0.041 C 
ATOM     15  O   UNL     1      12.265  -3.020  81.487  1.00  0.00    -0.550 OA
ATOM     16  O   UNL     1      10.630  -2.271  82.907  1.00  0.00    -0.550 OA
ENDBRANCH  13  14
ENDBRANCH  12  13
ENDBRANCH  11  12
ENDBRANCH  10  11
ENDBRANCH   9  10
ENDBRANCH   8   9
ENDBRANCH   7   8
ENDBRANCH   6   7
ENDBRANCH   5   6
ENDBRANCH   4   5
ENDBRANCH   3   4
ENDBRANCH   2   3
ENDBRANCH   1   2
BRANCH   1  17
ATOM     17  C   UNL     1      18.711   2.421  75.140  1.00  0.00     0.000 C 
BRANCH  17  18
ATOM     18  C   UNL     1      18.722   3.876  74.636  1.00  0.00     0.000 C 
BRANCH  18  19
ATOM     19  C   UNL     1      18.670   4.945  75.742  1.00  0.00     0.000 C 
BRANCH  19  20
ATOM     20  C   UNL     1      17.607   6.026  75.479  1.00  0.00     0.000 C 
BRANCH  20  21
ATOM     21  C   UNL     1      16.183   5.531  75.775  1.00  0.00     0.000 C 
BRANCH  21  22
ATOM     22  C   UNL     1      15.960   5.251  77.271  1.00  0.00    -0.000 C 
BRANCH  22  23
ATOM     23  C   UNL     1      16.308   6.457  78.161  1.00  0.00    -0.000 C 
BRANCH  23  24
ATOM     24  C   UNL     1      17.449   6.211  79.167  1.00  0.00    -0.000 C 
BRANCH  24  25
ATOM     25  C   UNL     1      17.848   4.735  79.363  1.00  0.00    -0.000 C 
BRANCH  25  26
ATOM     26  C   UNL     1      17.559   4.158  80.762  1.00  0.00    -0.000 C 
BRANCH  26  27
ATOM     27  C   UNL     1      16.065   3.877  80.995  1.00  0.00    -0.000 C 
BRANCH  27  28
ATOM     28  C   UNL     1      15.508   2.790  80.058  1.00  0.00    -0.000 C 
BRANCH  28  29
ATOM     29  C   UNL     1      14.114   2.255  80.437  1.00  0.00    -0.003 C 
ATOM     30  C   UNL     1      13.898   0.800  80.022  1.00  0.00     0.004 C 
ENDBRANCH  28  29
ENDBRANCH  27  28
ENDBRANCH  26  27
ENDBRANCH  25  26
ENDBRANCH  24  25
ENDBRANCH  23  24
ENDBRANCH  22  23
ENDBRANCH  21  22
ENDBRANCH  20  21
ENDBRANCH  19  20
ENDBRANCH  18  19
ENDBRANCH  17  18
ENDBRANCH   1  17
TORSDOF 26
ENDMDL
MODEL 3
REMARK VINA RESULT:    -3.694      7.031      9.068
REMARK INTER + INTRA:         -14.631
REMARK INTER:                 -11.819
REMARK INTRA:                  -2.812
REMARK UNBOUND:                -5.323
REMARK SMILES CCCCCCCCCCCCCCCCCCCCCCCCCCCC(=O)[O-]
REMARK SMILES IDX 15 1 16 2 17 3 18 4 19 5 20 6 21 7 22 8 23 9 24 10 25 11
REMARK SMILES IDX 26 12 27 13 28 14 29 15 30 16 14 17 13 18 12 19 11 20 10 21
REMARK SMILES IDX 9 22 8 23 7 24 6 25 5 26 4 27 3 28 2 29 1 30
REMARK H PARENT
REMARK Flexibility Score: inf
ROOT
ATOM      1  C   UNL     1      13.356   3.447  79.279  1.00  0.00     0.000 C 
ENDROOT
BRANCH   1   2
ATOM      2  C   UNL     1      14.125   2.135  79.084  1.00  0.00     0.000 C 
BRANCH   2   3
ATOM      3  C   UNL     1      13.365   0.953  79.704  1.00  0.00     0.000 C 
BRANCH   3   4
ATOM      4  C   UNL     1      14.174   0.220  80.790  1.00  0.00     0.000 C 
BRANCH   4   5
ATOM      5  C   UNL     1      13.876   0.656  82.236  1.00  0.00     0.000 C 
BRANCH   5   6
ATOM      6  C   UNL     1      15.136   0.711  83.117  1.00  0.00     0.000 C 
BRANCH   6   7
ATOM      7  C   UNL     1      16.347   0.028  82.459  1.00  0.00     0.000 C 
BRANCH   7   8
ATOM      8  C   UNL     1      17.538   0.981  82.271  1.00  0.00     0.000 C 
BRANCH   8   9
ATOM      9  C   UNL     1      17.075   2.443  82.261  1.00  0.00     0.000 C 
BRANCH   9  10
ATOM     10  C   UNL     1      17.768   3.230  81.138  1.00  0.00     0.000 C 
BRANCH  10  11
ATOM     11  C   UNL     1      17.619   2.557  79.764  1.00  0.00     0.000 C 
BRANCH  11  12
ATOM     12  C   UNL     1      17.562   3.575  78.610  1.00  0.00     0.006 C 
BRANCH  12  13
ATOM     13  C   UNL     1      16.766   4.831  78.986  1.00  0.00     0.053 C 
BRANCH  13  14
ATOM     14  C   UNL     1      16.168   5.489  77.780  1.00  0.00     0.041 C 
ATOM     15  O   UNL     1      15.917   4.814  76.747  1.00  0.00    -0.550 OA
ATOM     16  O   UNL     1      15.859   6.843  77.810  1.00  0.00    -0.550 OA
ENDBRANCH  13  14
ENDBRANCH  12  13
ENDBRANCH  11  12
ENDBRANCH  10  11
ENDBRANCH   9  10
ENDBRANCH   8   9
ENDBRANCH   7   8
ENDBRANCH   6   7
ENDBRANCH   5   6
ENDBRANCH   4   5
ENDBRANCH   3   4
ENDBRANCH   2   3
ENDBRANCH   1   2
BRANCH   1  17
ATOM     17  C   UNL     1      11.844   3.194  79.359  1.00  0.00     0.000 C 
BRANCH  17  18
ATOM     18  C   UNL     1      11.034   4.473  79.635  1.00  0.00     0.000 C 
BRANCH  18  19
ATOM     19  C   UNL     1       9.561   4.237  80.012  1.00  0.00     0.000 C 
BRANCH  19  20
ATOM     20  C   UNL     1       8.649   5.416  79.627  1.00  0.00     0.000 C 
BRANCH  20  21
ATOM     21  C   UNL     1       9.445   6.638  79.144  1.00  0.00     0.000 C 
BRANCH  21  22
ATOM     22  C   UNL     1       8.824   7.964  79.615  1.00  0.00    -0.000 C 
BRANCH  22  23
ATOM     23  C   UNL     1       7.338   7.826  79.993  1.00  0.00    -0.000 C 
BRANCH  23  24
ATOM     24  C   UNL     1       6.858   8.788  81.097  1.00  0.00    -0.000 C 
BRANCH  24  25
ATOM     25  C   UNL     1       5.599   8.336  81.863  1.00  0.00    -0.000 C 
BRANCH  25  26
ATOM     26  C   UNL     1       4.610   9.461  82.221  1.00  0.00    -0.000 C 
BRANCH  26  27
ATOM     27  C   UNL     1       5.168  10.863  81.924  1.00  0.00    -0.000 C 
BRANCH  27  28
ATOM     28  C   UNL     1       4.211  11.719  81.074  1.00  0.00    -0.000 C 
BRANCH  28  29
ATOM     29  C   UNL     1       4.871  12.458  79.894  1.00  0.00    -0.003 C 
ATOM     30  C   UNL     1       6.128  11.759  79.377  1.00  0.00     0.004 C 
ENDBRANCH  28  29
ENDBRANCH  27  28
ENDBRANCH  26  27
ENDBRANCH  25  26
ENDBRANCH  24  25
ENDBRANCH  23  24
ENDBRANCH  22  23
ENDBRANCH  21  22
ENDBRANCH  20  21
ENDBRANCH  19  20
ENDBRANCH  18  19
ENDBRANCH  17  18
ENDBRANCH   1  17
TORSDOF 26
ENDMDL
MODEL 4
REMARK VINA RESULT:    -3.653      3.400      5.074
REMARK INTER + INTRA:         -14.527
REMARK INTER:                 -10.738
REMARK INTRA:                  -3.789
REMARK UNBOUND:                -5.323
REMARK SMILES CCCCCCCCCCCCCCCCCCCCCCCCCCCC(=O)[O-]
REMARK SMILES IDX 15 1 16 2 17 3 18 4 19 5 20 6 21 7 22 8 23 9 24 10 25 11
REMARK SMILES IDX 26 12 27 13 28 14 29 15 30 16 14 17 13 18 12 19 11 20 10 21
REMARK SMILES IDX 9 22 8 23 7 24 6 25 5 26 4 27 3 28 2 29 1 30
REMARK H PARENT
REMARK Flexibility Score: inf
ROOT
ATOM      1  C   UNL     1      18.100   3.977  78.596  1.00  0.00     0.000 C 
ENDROOT
BRANCH   1   2
ATOM      2  C   UNL     1      17.131   4.453  79.686  1.00  0.00     0.000 C 
BRANCH   2   3
ATOM      3  C   UNL     1      17.435   3.772  81.029  1.00  0.00     0.000 C 
BRANCH   3   4
ATOM      4  C   UNL     1      18.655   2.834  80.967  1.00  0.00     0.000 C 
BRANCH   4   5
ATOM      5  C   UNL     1      18.327   1.330  80.979  1.00  0.00     0.000 C 
BRANCH   5   6
ATOM      6  C   UNL     1      17.213   0.968  81.978  1.00  0.00     0.000 C 
BRANCH   6   7
ATOM      7  C   UNL     1      16.871  -0.531  81.962  1.00  0.00     0.000 C 
BRANCH   7   8
ATOM      8  C   UNL     1      17.078  -1.173  80.581  1.00  0.00     0.000 C 
BRANCH   8   9
ATOM      9  C   UNL     1      15.952  -2.165  80.263  1.00  0.00     0.000 C 
BRANCH   9  10
ATOM     10  C   UNL     1      15.034  -2.360  81.478  1.00  0.00     0.000 C 
BRANCH  10  11
ATOM     11  C   UNL     1      13.595  -1.887  81.215  1.00  0.00     0.000 C 
BRANCH  11  12
ATOM     12  C   UNL     1      13.161  -0.756  82.165  1.00  0.00     0.006 C 
BRANCH  12  13
ATOM     13  C   UNL     1      13.395  -1.117  83.638  1.00  0.00     0.053 C 
BRANCH  13  14
ATOM     14  C   UNL     1      12.135  -1.588  84.300  1.00  0.00     0.041 C 
ATOM     15  O   UNL     1      11.894  -2.820  84.401  1.00  0.00    -0.550 OA
ATOM     16  O   UNL     1      11.244  -0.665  84.832  1.00  0.00    -0.550 OA
ENDBRANCH  13  14
ENDBRANCH  12  13
ENDBRANCH  11  12
ENDBRANCH  10  11
ENDBRANCH   9  10
ENDBRANCH   8   9
ENDBRANCH   7   8
ENDBRANCH   6   7
ENDBRANCH   5   6
ENDBRANCH   4   5
ENDBRANCH   3   4
ENDBRANCH   2   3
ENDBRANCH   1   2
BRANCH   1  17
ATOM     17  C   UNL     1      17.371   3.780  77.259  1.00  0.00     0.000 C 
BRANCH  17  18
ATOM     18  C   UNL     1      16.790   2.365  77.094  1.00  0.00     0.000 C 
BRANCH  18  19
ATOM     19  C   UNL     1      15.328   2.209  77.549  1.00  0.00     0.000 C 
BRANCH  19  20
ATOM     20  C   UNL     1      15.172   1.256  78.747  1.00  0.00     0.000 C 
BRANCH  20  21
ATOM     21  C   UNL     1      14.290   1.850  79.856  1.00  0.00     0.000 C 
BRANCH  21  22
ATOM     22  C   UNL     1      13.642   3.181  79.439  1.00  0.00    -0.000 C 
BRANCH  22  23
ATOM     23  C   UNL     1      12.109   3.090  79.331  1.00  0.00    -0.000 C 
BRANCH  23  24
ATOM     24  C   UNL     1      11.360   4.406  79.620  1.00  0.00    -0.000 C 
BRANCH  24  25
ATOM     25  C   UNL     1       9.875   4.248  80.003  1.00  0.00    -0.000 C 
BRANCH  25  26
ATOM     26  C   UNL     1       8.930   5.312  79.412  1.00  0.00    -0.000 C 
BRANCH  26  27
ATOM     27  C   UNL     1       9.611   6.678  79.225  1.00  0.00    -0.000 C 
BRANCH  27  28
ATOM     28  C   UNL     1       8.640   7.859  79.403  1.00  0.00    -0.000 C 
BRANCH  28  29
ATOM     29  C   UNL     1       7.257   7.487  79.968  1.00  0.00    -0.003 C 
ATOM     30  C   UNL     1       6.793   8.424  81.083  1.00  0.00     0.004 C 
ENDBRANCH  28  29
ENDBRANCH  27  28
ENDBRANCH  26  27
ENDBRANCH  25  26
ENDBRANCH  24  25
ENDBRANCH  23  24
ENDBRANCH  22  23
ENDBRANCH  21  22
ENDBRANCH  20  21
ENDBRANCH  19  20
ENDBRANCH  18  19
ENDBRANCH  17  18
ENDBRANCH   1  17
TORSDOF 26
ENDMDL
MODEL 5
REMARK VINA RESULT:    -3.641      3.587      8.139
REMARK INTER + INTRA:         -14.497
REMARK INTER:                  -9.195
REMARK INTRA:                  -5.301
REMARK UNBOUND:                -5.323
REMARK SMILES CCCCCCCCCCCCCCCCCCCCCCCCCCCC(=O)[O-]
REMARK SMILES IDX 15 1 16 2 17 3 18 4 19 5 20 6 21 7 22 8 23 9 24 10 25 11
REMARK SMILES IDX 26 12 27 13 28 14 29 15 30 16 14 17 13 18 12 19 11 20 10 21
REMARK SMILES IDX 9 22 8 23 7 24 6 25 5 26 4 27 3 28 2 29 1 30
REMARK H PARENT
REMARK Flexibility Score: inf
ROOT
ATOM      1  C   UNL     1      14.778   4.122  79.587  1.00  0.00     0.000 C 
ENDROOT
BRANCH   1   2
ATOM      2  C   UNL     1      16.296   3.988  79.756  1.00  0.00     0.000 C 
BRANCH   2   3
ATOM      3  C   UNL     1      16.662   3.657  81.211  1.00  0.00     0.000 C 
BRANCH   3   4
ATOM      4  C   UNL     1      18.085   3.087  81.359  1.00  0.00     0.000 C 
BRANCH   4   5
ATOM      5  C   UNL     1      18.232   1.951  82.388  1.00  0.00     0.000 C 
BRANCH   5   6
ATOM      6  C   UNL     1      18.363   0.564  81.735  1.00  0.00     0.000 C 
BRANCH   6   7
ATOM      7  C   UNL     1      18.667   0.647  80.230  1.00  0.00     0.000 C 
BRANCH   7   8
ATOM      8  C   UNL     1      17.897  -0.399  79.408  1.00  0.00     0.000 C 
BRANCH   8   9
ATOM      9  C   UNL     1      17.683   0.084  77.968  1.00  0.00     0.000 C 
BRANCH   9  10
ATOM     10  C   UNL     1      18.438   1.397  77.712  1.00  0.00     0.000 C 
BRANCH  10  11
ATOM     11  C   UNL     1      18.137   1.993  76.328  1.00  0.00     0.000 C 
BRANCH  11  12
ATOM     12  C   UNL     1      17.472   3.379  76.412  1.00  0.00     0.006 C 
BRANCH  12  13
ATOM     13  C   UNL     1      17.882   4.288  75.246  1.00  0.00     0.053 C 
BRANCH  13  14
ATOM     14  C   UNL     1      17.206   5.623  75.320  1.00  0.00     0.041 C 
ATOM     15  O   UNL     1      17.888   6.682  75.315  1.00  0.00    -0.550 OA
ATOM     16  O   UNL     1      15.819   5.698  75.364  1.00  0.00    -0.550 OA
ENDBRANCH  13  14
ENDBRANCH  12  13
ENDBRANCH  11  12
ENDBRANCH  10  11
ENDBRANCH   9  10
ENDBRANCH   8   9
ENDBRANCH   7   8
ENDBRANCH   6   7
ENDBRANCH   5   6
ENDBRANCH   4   5
ENDBRANCH   3   4
ENDBRANCH   2   3
ENDBRANCH   1   2
BRANCH   1  17
ATOM     17  C   UNL     1      14.257   3.167  78.504  1.00  0.00     0.000 C 
BRANCH  17  18
ATOM     18  C   UNL     1      14.705   1.710  78.722  1.00  0.00     0.000 C 
BRANCH  18  19
ATOM     19  C   UNL     1      13.874   0.926  79.754  1.00  0.00     0.000 C 
BRANCH  19  20
ATOM     20  C   UNL     1      14.716   0.422  80.940  1.00  0.00     0.000 C 
BRANCH  20  21
ATOM     21  C   UNL     1      14.192   0.936  82.289  1.00  0.00     0.000 C 
BRANCH  21  22
ATOM     22  C   UNL     1      15.029   0.426  83.475  1.00  0.00    -0.000 C 
BRANCH  22  23
ATOM     23  C   UNL     1      15.631  -0.969  83.223  1.00  0.00    -0.000 C 
BRANCH  23  24
ATOM     24  C   UNL     1      14.958  -2.115  84.003  1.00  0.00    -0.000 C 
BRANCH  24  25
ATOM     25  C   UNL     1      14.472  -3.300  83.145  1.00  0.00    -0.000 C 
BRANCH  25  26
ATOM     26  C   UNL     1      13.880  -2.917  81.775  1.00  0.00    -0.000 C 
BRANCH  26  27
ATOM     27  C   UNL     1      12.354  -3.098  81.713  1.00  0.00    -0.000 C 
BRANCH  27  28
ATOM     28  C   UNL     1      11.585  -1.826  82.115  1.00  0.00    -0.000 C 
BRANCH  28  29
ATOM     29  C   UNL     1      10.993  -1.844  83.537  1.00  0.00    -0.003 C 
ATOM     30  C   UNL     1      11.666  -0.846  84.478  1.00  0.00     0.004 C 
ENDBRANCH  28  29
ENDBRANCH  27  28
ENDBRANCH  26  27
ENDBRANCH  25  26
ENDBRANCH  24  25
ENDBRANCH  23  24
ENDBRANCH  22  23
ENDBRANCH  21  22
ENDBRANCH  20  21
ENDBRANCH  19  20
ENDBRANCH  18  19
ENDBRANCH  17  18
ENDBRANCH   1  17
TORSDOF 26
ENDMDL
MODEL 6
REMARK VINA RESULT:    -3.593      2.140      7.686
REMARK INTER + INTRA:         -14.378
REMARK INTER:                  -9.397
REMARK INTRA:                  -4.981
REMARK UNBOUND:                -5.323
REMARK SMILES CCCCCCCCCCCCCCCCCCCCCCCCCCCC(=O)[O-]
REMARK SMILES IDX 15 1 16 2 17 3 18 4 19 5 20 6 21 7 22 8 23 9 24 10 25 11
REMARK SMILES IDX 26 12 27 13 28 14 29 15 30 16 14 17 13 18 12 19 11 20 10 21
REMARK SMILES IDX 9 22 8 23 7 24 6 25 5 26 4 27 3 28 2 29 1 30
REMARK H PARENT
REMARK Flexibility Score: inf
ROOT
ATOM      1  C   UNL     1      16.579   1.254  77.018  1.00  0.00     0.000 C 
ENDROOT
BRANCH   1   2
ATOM      2  C   UNL     1      17.992   1.714  76.640  1.00  0.00     0.000 C 
BRANCH   2   3
ATOM      3  C   UNL     1      17.974   3.139  76.066  1.00  0.00     0.000 C 
BRANCH   3   4
ATOM      4  C   UNL     1      16.724   3.938  76.478  1.00  0.00     0.000 C 
BRANCH   4   5
ATOM      5  C   UNL     1      16.987   5.395  76.899  1.00  0.00     0.000 C 
BRANCH   5   6
ATOM      6  C   UNL     1      18.477   5.685  77.154  1.00  0.00     0.000 C 
BRANCH   6   7
ATOM      7  C   UNL     1      18.777   5.970  78.635  1.00  0.00     0.000 C 
BRANCH   7   8
ATOM      8  C   UNL     1      17.548   6.486  79.402  1.00  0.00     0.000 C 
BRANCH   8   9
ATOM      9  C   UNL     1      17.347   5.703  80.705  1.00  0.00     0.000 C 
BRANCH   9  10
ATOM     10  C   UNL     1      17.879   4.268  80.571  1.00  0.00     0.000 C 
BRANCH  10  11
ATOM     11  C   UNL     1      16.828   3.296  80.012  1.00  0.00     0.000 C 
BRANCH  11  12
ATOM     12  C   UNL     1      15.395   3.669  80.432  1.00  0.00     0.006 C 
BRANCH  12  13
ATOM     13  C   UNL     1      14.452   3.788  79.228  1.00  0.00     0.053 C 
BRANCH  13  14
ATOM     14  C   UNL     1      13.347   2.778  79.287  1.00  0.00     0.041 C 
ATOM     15  O   UNL     1      13.613   1.553  79.407  1.00  0.00    -0.550 OA
ATOM     16  O   UNL     1      12.022   3.194  79.239  1.00  0.00    -0.550 OA
ENDBRANCH  13  14
ENDBRANCH  12  13
ENDBRANCH  11  12
ENDBRANCH  10  11
ENDBRANCH   9  10
ENDBRANCH   8   9
ENDBRANCH   7   8
ENDBRANCH   6   7
ENDBRANCH   5   6
ENDBRANCH   4   5
ENDBRANCH   3   4
ENDBRANCH   2   3
ENDBRANCH   1   2
BRANCH   1  17
ATOM     17  C   UNL     1      16.624   0.164  78.098  1.00  0.00     0.000 C 
BRANCH  17  18
ATOM     18  C   UNL     1      18.053  -0.318  78.405  1.00  0.00     0.000 C 
BRANCH  18  19
ATOM     19  C   UNL     1      18.521  -0.076  79.851  1.00  0.00     0.000 C 
BRANCH  19  20
ATOM     20  C   UNL     1      17.386  -0.233  80.880  1.00  0.00     0.000 C 
BRANCH  20  21
ATOM     21  C   UNL     1      17.729   0.410  82.232  1.00  0.00     0.000 C 
BRANCH  21  22
ATOM     22  C   UNL     1      16.507   1.071  82.892  1.00  0.00    -0.000 C 
BRANCH  22  23
ATOM     23  C   UNL     1      15.172   0.500  82.382  1.00  0.00    -0.000 C 
BRANCH  23  24
ATOM     24  C   UNL     1      13.921   1.032  83.108  1.00  0.00    -0.000 C 
BRANCH  24  25
ATOM     25  C   UNL     1      13.280   0.057  84.116  1.00  0.00    -0.000 C 
BRANCH  25  26
ATOM     26  C   UNL     1      13.760  -1.403  84.012  1.00  0.00    -0.000 C 
BRANCH  26  27
ATOM     27  C   UNL     1      12.603  -2.402  83.844  1.00  0.00    -0.000 C 
BRANCH  27  28
ATOM     28  C   UNL     1      11.302  -1.734  83.363  1.00  0.00    -0.000 C 
BRANCH  28  29
ATOM     29  C   UNL     1      10.970  -1.949  81.875  1.00  0.00    -0.003 C 
ATOM     30  C   UNL     1      12.056  -1.425  80.937  1.00  0.00     0.004 C 
ENDBRANCH  28  29
ENDBRANCH  27  28
ENDBRANCH  26  27
ENDBRANCH  25  26
ENDBRANCH  24  25
ENDBRANCH  23  24
ENDBRANCH  22  23
ENDBRANCH  21  22
ENDBRANCH  20  21
ENDBRANCH  19  20
ENDBRANCH  18  19
ENDBRANCH  17  18
ENDBRANCH   1  17
TORSDOF 26
ENDMDL
MODEL 7
REMARK VINA RESULT:    -3.593      1.227      3.408
REMARK INTER + INTRA:         -14.377
REMARK INTER:                  -9.420
REMARK INTRA:                  -4.957
REMARK UNBOUND:                -5.323
REMARK SMILES CCCCCCCCCCCCCCCCCCCCCCCCCCCC(=O)[O-]
REMARK SMILES IDX 15 1 16 2 17 3 18 4 19 5 20 6 21 7 22 8 23 9 24 10 25 11
REMARK SMILES IDX 26 12 27 13 28 14 29 15 30 16 14 17 13 18 12 19 11 20 10 21
REMARK SMILES IDX 9 22 8 23 7 24 6 25 5 26 4 27 3 28 2 29 1 30
REMARK H PARENT
REMARK Flexibility Score: inf
ROOT
ATOM      1  C   UNL     1      16.534   3.668  81.446  1.00  0.00     0.000 C 
ENDROOT
BRANCH   1   2
ATOM      2  C   UNL     1      17.995   3.205  81.409  1.00  0.00     0.000 C 
BRANCH   2   3
ATOM      3  C   UNL     1      18.217   2.005  82.341  1.00  0.00     0.000 C 
BRANCH   3   4
ATOM      4  C   UNL     1      18.314   0.666  81.586  1.00  0.00     0.000 C 
BRANCH   4   5
ATOM      5  C   UNL     1      17.454  -0.474  82.160  1.00  0.00     0.000 C 
BRANCH   5   6
ATOM      6  C   UNL     1      16.662  -0.055  83.412  1.00  0.00     0.000 C 
BRANCH   6   7
ATOM      7  C   UNL     1      15.151  -0.301  83.263  1.00  0.00     0.000 C 
BRANCH   7   8
ATOM      8  C   UNL     1      14.384   0.957  82.824  1.00  0.00     0.000 C 
BRANCH   8   9
ATOM      9  C   UNL     1      14.075   0.914  81.322  1.00  0.00     0.000 C 
BRANCH   9  10
ATOM     10  C   UNL     1      14.054  -0.533  80.808  1.00  0.00     0.000 C 
BRANCH  10  11
ATOM     11  C   UNL     1      12.674  -1.194  80.954  1.00  0.00     0.000 C 
BRANCH  11  12
ATOM     12  C   UNL     1      12.760  -2.626  81.511  1.00  0.00     0.006 C 
BRANCH  12  13
ATOM     13  C   UNL     1      12.421  -2.687  83.006  1.00  0.00     0.053 C 
BRANCH  13  14
ATOM     14  C   UNL     1      11.189  -1.897  83.327  1.00  0.00     0.041 C 
ATOM     15  O   UNL     1      11.246  -0.930  84.132  1.00  0.00    -0.550 OA
ATOM     16  O   UNL     1       9.983  -2.210  82.712  1.00  0.00    -0.550 OA
ENDBRANCH  13  14
ENDBRANCH  12  13
ENDBRANCH  11  12
ENDBRANCH  10  11
ENDBRANCH   9  10
ENDBRANCH   8   9
ENDBRANCH   7   8
ENDBRANCH   6   7
ENDBRANCH   5   6
ENDBRANCH   4   5
ENDBRANCH   3   4
ENDBRANCH   2   3
ENDBRANCH   1   2
BRANCH   1  17
ATOM     17  C   UNL     1      16.366   5.023  80.744  1.00  0.00     0.000 C 
BRANCH  17  18
ATOM     18  C   UNL     1      17.654   5.503  80.050  1.00  0.00     0.000 C 
BRANCH  18  19
ATOM     19  C   UNL     1      17.439   6.541  78.934  1.00  0.00     0.000 C 
BRANCH  19  20
ATOM     20  C   UNL     1      16.114   6.340  78.178  1.00  0.00     0.000 C 
BRANCH  20  21
ATOM     21  C   UNL     1      16.269   6.535  76.662  1.00  0.00     0.000 C 
BRANCH  21  22
ATOM     22  C   UNL     1      16.281   5.199  75.899  1.00  0.00    -0.000 C 
BRANCH  22  23
ATOM     23  C   UNL     1      17.580   4.978  75.105  1.00  0.00    -0.000 C 
BRANCH  23  24
ATOM     24  C   UNL     1      18.846   4.809  75.968  1.00  0.00    -0.000 C 
BRANCH  24  25
ATOM     25  C   UNL     1      18.843   3.587  76.909  1.00  0.00    -0.000 C 
BRANCH  25  26
ATOM     26  C   UNL     1      18.371   2.268  76.267  1.00  0.00    -0.000 C 
BRANCH  26  27
ATOM     27  C   UNL     1      17.555   1.393  77.233  1.00  0.00    -0.000 C 
BRANCH  27  28
ATOM     28  C   UNL     1      16.608   2.212  78.128  1.00  0.00    -0.000 C 
BRANCH  28  29
ATOM     29  C   UNL     1      15.119   2.135  77.743  1.00  0.00    -0.003 C 
ATOM     30  C   UNL     1      14.257   3.163  78.475  1.00  0.00     0.004 C 
ENDBRANCH  28  29
ENDBRANCH  27  28
ENDBRANCH  26  27
ENDBRANCH  25  26
ENDBRANCH  24  25
ENDBRANCH  23  24
ENDBRANCH  22  23
ENDBRANCH  21  22
ENDBRANCH  20  21
ENDBRANCH  19  20
ENDBRANCH  18  19
ENDBRANCH  17  18
ENDBRANCH   1  17
TORSDOF 26
ENDMDL
MODEL 8
REMARK VINA RESULT:    -3.554      1.360      4.413
REMARK INTER + INTRA:         -14.278
REMARK INTER:                  -9.141
REMARK INTRA:                  -5.138
REMARK UNBOUND:                -5.323
REMARK SMILES CCCCCCCCCCCCCCCCCCCCCCCCCCCC(=O)[O-]
REMARK SMILES IDX 15 1 16 2 17 3 18 4 19 5 20 6 21 7 22 8 23 9 24 10 25 11
REMARK SMILES IDX 26 12 27 13 28 14 29 15 30 16 14 17 13 18 12 19 11 20 10 21
REMARK SMILES IDX 9 22 8 23 7 24 6 25 5 26 4 27 3 28 2 29 1 30
REMARK H PARENT
REMARK Flexibility Score: inf
ROOT
ATOM      1  C   UNL     1      17.608   3.170  76.687  1.00  0.00     0.000 C 
ENDROOT
BRANCH   1   2
ATOM      2  C   UNL     1      16.154   2.810  77.016  1.00  0.00     0.000 C 
BRANCH   2   3
ATOM      3  C   UNL     1      15.952   1.287  77.024  1.00  0.00     0.000 C 
BRANCH   3   4
ATOM      4  C   UNL     1      17.244   0.506  76.721  1.00  0.00     0.000 C 
BRANCH   4   5
ATOM      5  C   UNL     1      17.627  -0.558  77.765  1.00  0.00     0.000 C 
BRANCH   5   6
ATOM      6  C   UNL     1      16.519  -0.804  78.804  1.00  0.00     0.000 C 
BRANCH   6   7
ATOM      7  C   UNL     1      16.957  -1.772  79.916  1.00  0.00     0.000 C 
BRANCH   7   8
ATOM      8  C   UNL     1      15.768  -2.430  80.635  1.00  0.00     0.000 C 
BRANCH   8   9
ATOM      9  C   UNL     1      14.941  -1.386  81.396  1.00  0.00     0.000 C 
BRANCH   9  10
ATOM     10  C   UNL     1      15.014  -1.627  82.911  1.00  0.00     0.000 C 
BRANCH  10  11
ATOM     11  C   UNL     1      14.281  -0.545  83.719  1.00  0.00     0.000 C 
BRANCH  11  12
ATOM     12  C   UNL     1      12.764  -0.535  83.455  1.00  0.00     0.006 C 
BRANCH  12  13
ATOM     13  C   UNL     1      12.122  -1.901  83.724  1.00  0.00     0.053 C 
BRANCH  13  14
ATOM     14  C   UNL     1      11.312  -1.895  84.984  1.00  0.00     0.041 C 
ATOM     15  O   UNL     1      11.063  -0.810  85.573  1.00  0.00    -0.550 OA
ATOM     16  O   UNL     1      10.805  -3.086  85.490  1.00  0.00    -0.550 OA
ENDBRANCH  13  14
ENDBRANCH  12  13
ENDBRANCH  11  12
ENDBRANCH  10  11
ENDBRANCH   9  10
ENDBRANCH   8   9
ENDBRANCH   7   8
ENDBRANCH   6   7
ENDBRANCH   5   6
ENDBRANCH   4   5
ENDBRANCH   3   4
ENDBRANCH   2   3
ENDBRANCH   1   2
BRANCH   1  17
ATOM     17  C   UNL     1      17.688   4.509  75.939  1.00  0.00     0.000 C 
BRANCH  17  18
ATOM     18  C   UNL     1      16.451   5.397  76.164  1.00  0.00     0.000 C 
BRANCH  18  19
ATOM     19  C   UNL     1      16.628   6.495  77.227  1.00  0.00     0.000 C 
BRANCH  19  20
ATOM     20  C   UNL     1      15.483   6.520  78.256  1.00  0.00     0.000 C 
BRANCH  20  21
ATOM     21  C   UNL     1      15.602   5.392  79.291  1.00  0.00     0.000 C 
BRANCH  21  22
ATOM     22  C   UNL     1      16.074   5.903  80.664  1.00  0.00    -0.000 C 
BRANCH  22  23
ATOM     23  C   UNL     1      17.562   5.611  80.929  1.00  0.00    -0.000 C 
BRANCH  23  24
ATOM     24  C   UNL     1      18.168   4.495  80.055  1.00  0.00    -0.000 C 
BRANCH  24  25
ATOM     25  C   UNL     1      18.315   3.125  80.747  1.00  0.00    -0.000 C 
BRANCH  25  26
ATOM     26  C   UNL     1      17.120   2.169  80.568  1.00  0.00    -0.000 C 
BRANCH  26  27
ATOM     27  C   UNL     1      16.212   2.111  81.807  1.00  0.00    -0.000 C 
BRANCH  27  28
ATOM     28  C   UNL     1      14.740   2.424  81.485  1.00  0.00    -0.000 C 
BRANCH  28  29
ATOM     29  C   UNL     1      14.251   1.921  80.114  1.00  0.00    -0.003 C 
ATOM     30  C   UNL     1      13.134   2.780  79.523  1.00  0.00     0.004 C 
ENDBRANCH  28  29
ENDBRANCH  27  28
ENDBRANCH  26  27
ENDBRANCH  25  26
ENDBRANCH  24  25
ENDBRANCH  23  24
ENDBRANCH  22  23
ENDBRANCH  21  22
ENDBRANCH  20  21
ENDBRANCH  19  20
ENDBRANCH  18  19
ENDBRANCH  17  18
ENDBRANCH   1  17
TORSDOF 26
ENDMDL
MODEL 9
REMARK VINA RESULT:    -3.543      3.073      7.811
REMARK INTER + INTRA:         -14.250
REMARK INTER:                  -9.442
REMARK INTRA:                  -4.808
REMARK UNBOUND:                -5.323
REMARK SMILES CCCCCCCCCCCCCCCCCCCCCCCCCCCC(=O)[O-]
REMARK SMILES IDX 15 1 16 2 17 3 18 4 19 5 20 6 21 7 22 8 23 9 24 10 25 11
REMARK SMILES IDX 26 12 27 13 28 14 29 15 30 16 14 17 13 18 12 19 11 20 10 21
REMARK SMILES IDX 9 22 8 23 7 24 6 25 5 26 4 27 3 28 2 29 1 30
REMARK H PARENT
REMARK Flexibility Score: inf
ROOT
ATOM      1  C   UNL     1      14.102   1.824  79.410  1.00  0.00     0.000 C 
ENDROOT
BRANCH   1   2
ATOM      2  C   UNL     1      14.245   3.013  78.453  1.00  0.00     0.000 C 
BRANCH   2   3
ATOM      3  C   UNL     1      15.253   2.703  77.336  1.00  0.00     0.000 C 
BRANCH   3   4
ATOM      4  C   UNL     1      16.262   1.607  77.722  1.00  0.00     0.000 C 
BRANCH   4   5
ATOM      5  C   UNL     1      17.304   1.265  76.642  1.00  0.00     0.000 C 
BRANCH   5   6
ATOM      6  C   UNL     1      18.446   2.294  76.565  1.00  0.00     0.000 C 
BRANCH   6   7
ATOM      7  C   UNL     1      19.050   2.400  75.154  1.00  0.00     0.000 C 
BRANCH   7   8
ATOM      8  C   UNL     1      18.562   3.641  74.390  1.00  0.00     0.000 C 
BRANCH   8   9
ATOM      9  C   UNL     1      18.332   4.819  75.345  1.00  0.00     0.000 C 
BRANCH   9  10
ATOM     10  C   UNL     1      16.923   5.402  75.168  1.00  0.00     0.000 C 
BRANCH  10  11
ATOM     11  C   UNL     1      16.377   6.034  76.458  1.00  0.00     0.000 C 
BRANCH  11  12
ATOM     12  C   UNL     1      17.301   5.804  77.667  1.00  0.00     0.006 C 
BRANCH  12  13
ATOM     13  C   UNL     1      16.615   6.155  78.994  1.00  0.00     0.053 C 
BRANCH  13  14
ATOM     14  C   UNL     1      17.613   6.471  80.066  1.00  0.00     0.041 C 
ATOM     15  O   UNL     1      18.845   6.473  79.807  1.00  0.00    -0.550 OA
ATOM     16  O   UNL     1      17.177   6.796  81.345  1.00  0.00    -0.550 OA
ENDBRANCH  13  14
ENDBRANCH  12  13
ENDBRANCH  11  12
ENDBRANCH  10  11
ENDBRANCH   9  10
ENDBRANCH   8   9
ENDBRANCH   7   8
ENDBRANCH   6   7
ENDBRANCH   5   6
ENDBRANCH   4   5
ENDBRANCH   3   4
ENDBRANCH   2   3
ENDBRANCH   1   2
BRANCH   1  17
ATOM     17  C   UNL     1      14.342   2.254  80.864  1.00  0.00     0.000 C 
BRANCH  17  18
ATOM     18  C   UNL     1      15.297   3.456  80.985  1.00  0.00     0.000 C 
BRANCH  18  19
ATOM     19  C   UNL     1      16.787   3.090  81.102  1.00  0.00     0.000 C 
BRANCH  19  20
ATOM     20  C   UNL     1      17.054   2.003  82.159  1.00  0.00     0.000 C 
BRANCH  20  21
ATOM     21  C   UNL     1      18.544   1.642  82.263  1.00  0.00     0.000 C 
BRANCH  21  22
ATOM     22  C   UNL     1      18.959   0.571  81.240  1.00  0.00    -0.000 C 
BRANCH  22  23
ATOM     23  C   UNL     1      18.238  -0.772  81.457  1.00  0.00    -0.000 C 
BRANCH  23  24
ATOM     24  C   UNL     1      17.609  -1.381  80.189  1.00  0.00    -0.000 C 
BRANCH  24  25
ATOM     25  C   UNL     1      16.091  -1.158  80.036  1.00  0.00    -0.000 C 
BRANCH  25  26
ATOM     26  C   UNL     1      15.204  -2.059  80.917  1.00  0.00    -0.000 C 
BRANCH  26  27
ATOM     27  C   UNL     1      14.093  -1.280  81.639  1.00  0.00    -0.000 C 
BRANCH  27  28
ATOM     28  C   UNL     1      14.538  -0.736  83.009  1.00  0.00    -0.000 C 
BRANCH  28  29
ATOM     29  C   UNL     1      13.490   0.124  83.740  1.00  0.00    -0.003 C 
ATOM     30  C   UNL     1      12.384  -0.705  84.392  1.00  0.00     0.004 C 
ENDBRANCH  28  29
ENDBRANCH  27  28
ENDBRANCH  26  27
ENDBRANCH  25  26
ENDBRANCH  24  25
ENDBRANCH  23  24
ENDBRANCH  22  23
ENDBRANCH  21  22
ENDBRANCH  20  21
ENDBRANCH  19  20
ENDBRANCH  18  19
ENDBRANCH  17  18
ENDBRANCH   1  17
TORSDOF 26
ENDMDL
