MODEL 1
REMARK VINA RESULT:    -5.819      0.000      0.000
REMARK INTER + INTRA:          -6.159
REMARK INTER:                  -6.159
REMARK INTRA:                   0.000
REMARK UNBOUND:                 0.000
REMARK SMILES O=c1ccc2cc(O)c(O)cc2o1
REMARK SMILES IDX 4 1 3 2 2 3 1 4 13 5 12 6 11 7 9 8 7 9 6 10 5 11 8 12 10 14
REMARK H PARENT 8 13 10 15
REMARK Flexibility Score: inf
ROOT
ATOM      1  C   UNL     1     -35.724  -5.099 -13.353  1.00  0.00     0.019 A 
ATOM      2  C   UNL     1     -36.323  -4.094 -12.594  1.00  0.00     0.094 A 
ATOM      3  C   UNL     1     -37.713  -4.099 -12.438  1.00  0.00     0.336 A 
ATOM      4  O   UNL     1     -38.271  -3.201 -11.756  1.00  0.00    -0.246 OA
ATOM      5  O   UNL     1     -38.451  -5.050 -13.006  1.00  0.00    -0.423 OA
ATOM      6  C   UNL     1     -37.920  -6.027 -13.738  1.00  0.00     0.142 A 
ATOM      7  C   UNL     1     -38.746  -6.999 -14.310  1.00  0.00     0.098 A 
ATOM      8  C   UNL     1     -38.196  -8.030 -15.082  1.00  0.00     0.161 A 
ATOM      9  C   UNL     1     -36.804  -8.089 -15.284  1.00  0.00     0.158 A 
ATOM     10  C   UNL     1     -35.971  -7.117 -14.711  1.00  0.00     0.062 A 
ATOM     11  C   UNL     1     -36.524  -6.085 -13.939  1.00  0.00     0.022 A 
ENDROOT
BRANCH   9  12
ATOM     12  O   UNL     1     -36.254  -9.115 -16.051  1.00  0.00    -0.504 OA
ATOM     13  H   UNL     1     -35.426  -8.970 -16.616  1.00  0.00     0.293 HD
ENDBRANCH   9  12
BRANCH   8  14
ATOM     14  O   UNL     1     -39.046  -8.984 -15.640  1.00  0.00    -0.504 OA
ATOM     15  H   UNL     1     -39.097  -9.931 -15.285  1.00  0.00     0.293 HD
ENDBRANCH   8  14
TORSDOF 2
ENDMDL
MODEL 2
REMARK VINA RESULT:    -5.534      3.266      5.066
REMARK INTER + INTRA:          -5.857
REMARK INTER:                  -5.857
REMARK INTRA:                   0.000
REMARK UNBOUND:                 0.000
REMARK SMILES O=c1ccc2cc(O)c(O)cc2o1
REMARK SMILES IDX 4 1 3 2 2 3 1 4 13 5 12 6 11 7 9 8 7 9 6 10 5 11 8 12 10 14
REMARK H PARENT 8 13 10 15
REMARK Flexibility Score: inf
ROOT
ATOM      1  C   UNL     1     -36.157  -5.863 -13.997  1.00  0.00     0.019 A 
ATOM      2  C   UNL     1     -36.247  -7.253 -14.069  1.00  0.00     0.094 A 
ATOM      3  C   UNL     1     -36.193  -7.872 -15.322  1.00  0.00     0.336 A 
ATOM      4  O   UNL     1     -36.272  -9.125 -15.407  1.00  0.00    -0.246 OA
ATOM      5  O   UNL     1     -36.057  -7.144 -16.427  1.00  0.00    -0.423 OA
ATOM      6  C   UNL     1     -35.968  -5.816 -16.404  1.00  0.00     0.142 A 
ATOM      7  C   UNL     1     -35.826  -5.103 -17.598  1.00  0.00     0.098 A 
ATOM      8  C   UNL     1     -35.732  -3.706 -17.582  1.00  0.00     0.161 A 
ATOM      9  C   UNL     1     -35.780  -3.014 -16.358  1.00  0.00     0.158 A 
ATOM     10  C   UNL     1     -35.921  -3.724 -15.156  1.00  0.00     0.062 A 
ATOM     11  C   UNL     1     -36.016  -5.123 -15.175  1.00  0.00     0.022 A 
ENDROOT
BRANCH   9  12
ATOM     12  O   UNL     1     -35.685  -1.623 -16.340  1.00  0.00    -0.504 OA
ATOM     13  H   UNL     1     -36.166  -1.067 -15.643  1.00  0.00     0.293 HD
ENDBRANCH   9  12
BRANCH   8  14
ATOM     14  O   UNL     1     -35.592  -3.024 -18.790  1.00  0.00    -0.504 OA
ATOM     15  H   UNL     1     -36.383  -2.823 -19.389  1.00  0.00     0.293 HD
ENDBRANCH   8  14
TORSDOF 2
ENDMDL
MODEL 3
REMARK VINA RESULT:    -5.505      6.317      7.650
REMARK INTER + INTRA:          -5.826
REMARK INTER:                  -5.826
REMARK INTRA:                   0.000
REMARK UNBOUND:                 0.000
REMARK SMILES O=c1ccc2cc(O)c(O)cc2o1
REMARK SMILES IDX 4 1 3 2 2 3 1 4 13 5 12 6 11 7 9 8 7 9 6 10 5 11 8 12 10 14
REMARK H PARENT 8 13 10 15
REMARK Flexibility Score: inf
ROOT
ATOM      1  C   UNL     1     -35.326  -5.791 -21.271  1.00  0.00     0.019 A 
ATOM      2  C   UNL     1     -36.460  -5.893 -22.076  1.00  0.00     0.094 A 
ATOM      3  C   UNL     1     -37.570  -5.091 -21.789  1.00  0.00     0.336 A 
ATOM      4  O   UNL     1     -38.602  -5.168 -22.505  1.00  0.00    -0.246 OA
ATOM      5  O   UNL     1     -37.542  -4.245 -20.762  1.00  0.00    -0.423 OA
ATOM      6  C   UNL     1     -36.481  -4.117 -19.969  1.00  0.00     0.142 A 
ATOM      7  C   UNL     1     -36.509  -3.211 -18.905  1.00  0.00     0.098 A 
ATOM      8  C   UNL     1     -35.397  -3.070 -18.066  1.00  0.00     0.161 A 
ATOM      9  C   UNL     1     -34.243  -3.844 -18.293  1.00  0.00     0.158 A 
ATOM     10  C   UNL     1     -34.210  -4.754 -19.359  1.00  0.00     0.062 A 
ATOM     11  C   UNL     1     -35.325  -4.894 -20.198  1.00  0.00     0.022 A 
ENDROOT
BRANCH   9  12
ATOM     12  O   UNL     1     -33.135  -3.704 -17.458  1.00  0.00    -0.504 OA
ATOM     13  H   UNL     1     -32.592  -4.505 -17.159  1.00  0.00     0.293 HD
ENDBRANCH   9  12
BRANCH   8  14
ATOM     14  O   UNL     1     -35.456  -2.157 -17.012  1.00  0.00    -0.504 OA
ATOM     15  H   UNL     1     -35.395  -1.158 -17.163  1.00  0.00     0.293 HD
ENDBRANCH   8  14
TORSDOF 2
ENDMDL
MODEL 4
REMARK VINA RESULT:    -5.458      5.413      6.339
REMARK INTER + INTRA:          -5.777
REMARK INTER:                  -5.777
REMARK INTRA:                   0.000
REMARK UNBOUND:                 0.000
REMARK SMILES O=c1ccc2cc(O)c(O)cc2o1
REMARK SMILES IDX 4 1 3 2 2 3 1 4 13 5 12 6 11 7 9 8 7 9 6 10 5 11 8 12 10 14
REMARK H PARENT 8 13 10 15
REMARK Flexibility Score: inf
ROOT
ATOM      1  C   UNL     1     -35.277  -3.952 -16.431  1.00  0.00     0.019 A 
ATOM      2  C   UNL     1     -36.471  -4.609 -16.137  1.00  0.00     0.094 A 
ATOM      3  C   UNL     1     -37.085  -5.377 -17.132  1.00  0.00     0.336 A 
ATOM      4  O   UNL     1     -38.163  -5.978 -16.885  1.00  0.00    -0.246 OA
ATOM      5  O   UNL     1     -36.537  -5.478 -18.340  1.00  0.00    -0.423 OA
ATOM      6  C   UNL     1     -35.399  -4.867 -18.663  1.00  0.00     0.142 A 
ATOM      7  C   UNL     1     -34.869  -5.010 -19.949  1.00  0.00     0.098 A 
ATOM      8  C   UNL     1     -33.673  -4.371 -20.297  1.00  0.00     0.161 A 
ATOM      9  C   UNL     1     -32.998  -3.580 -19.348  1.00  0.00     0.158 A 
ATOM     10  C   UNL     1     -33.525  -3.434 -18.056  1.00  0.00     0.062 A 
ATOM     11  C   UNL     1     -34.723  -4.075 -17.710  1.00  0.00     0.022 A 
ENDROOT
BRANCH   9  12
ATOM     12  O   UNL     1     -31.807  -2.943 -19.692  1.00  0.00    -0.504 OA
ATOM     13  H   UNL     1     -30.907  -3.311 -19.407  1.00  0.00     0.293 HD
ENDBRANCH   9  12
BRANCH   8  14
ATOM     14  O   UNL     1     -33.171  -4.532 -21.588  1.00  0.00    -0.504 OA
ATOM     15  H   UNL     1     -32.685  -5.373 -21.874  1.00  0.00     0.293 HD
ENDBRANCH   8  14
TORSDOF 2
ENDMDL
MODEL 5
REMARK VINA RESULT:    -5.329      2.355      3.360
REMARK INTER + INTRA:          -5.640
REMARK INTER:                  -5.640
REMARK INTRA:                   0.000
REMARK UNBOUND:                 0.000
REMARK SMILES O=c1ccc2cc(O)c(O)cc2o1
REMARK SMILES IDX 4 1 3 2 2 3 1 4 13 5 12 6 11 7 9 8 7 9 6 10 5 11 8 12 10 14
REMARK H PARENT 8 13 10 15
REMARK Flexibility Score: inf
ROOT
ATOM      1  C   UNL     1     -36.601  -6.738 -16.315  1.00  0.00     0.019 A 
ATOM      2  C   UNL     1     -35.967  -5.553 -16.689  1.00  0.00     0.094 A 
ATOM      3  C   UNL     1     -36.269  -4.375 -15.998  1.00  0.00     0.336 A 
ATOM      4  O   UNL     1     -35.706  -3.296 -16.321  1.00  0.00    -0.246 OA
ATOM      5  O   UNL     1     -37.149  -4.386 -15.000  1.00  0.00    -0.423 OA
ATOM      6  C   UNL     1     -37.777  -5.493 -14.612  1.00  0.00     0.142 A 
ATOM      7  C   UNL     1     -38.692  -5.444 -13.556  1.00  0.00     0.098 A 
ATOM      8  C   UNL     1     -39.357  -6.604 -13.141  1.00  0.00     0.161 A 
ATOM      9  C   UNL     1     -39.105  -7.828 -13.789  1.00  0.00     0.158 A 
ATOM     10  C   UNL     1     -38.187  -7.883 -14.849  1.00  0.00     0.062 A 
ATOM     11  C   UNL     1     -37.523  -6.720 -15.263  1.00  0.00     0.022 A 
ENDROOT
BRANCH   9  12
ATOM     12  O   UNL     1     -39.766  -8.984 -13.377  1.00  0.00    -0.504 OA
ATOM     13  H   UNL     1     -39.388  -9.906 -13.561  1.00  0.00     0.293 HD
ENDBRANCH   9  12
BRANCH   8  14
ATOM     14  O   UNL     1     -40.265  -6.522 -12.085  1.00  0.00    -0.504 OA
ATOM     15  H   UNL     1     -40.919  -7.267 -11.880  1.00  0.00     0.293 HD
ENDBRANCH   8  14
TORSDOF 2
ENDMDL
MODEL 6
REMARK VINA RESULT:    -5.320      2.384      3.375
REMARK INTER + INTRA:          -5.631
REMARK INTER:                  -5.631
REMARK INTRA:                   0.000
REMARK UNBOUND:                 0.000
REMARK SMILES O=c1ccc2cc(O)c(O)cc2o1
REMARK SMILES IDX 4 1 3 2 2 3 1 4 13 5 12 6 11 7 9 8 7 9 6 10 5 11 8 12 10 14
REMARK H PARENT 8 13 10 15
REMARK Flexibility Score: inf
ROOT
ATOM      1  C   UNL     1     -36.501  -4.347 -14.447  1.00  0.00     0.019 A 
ATOM      2  C   UNL     1     -35.613  -3.884 -15.417  1.00  0.00     0.094 A 
ATOM      3  C   UNL     1     -35.446  -4.624 -16.593  1.00  0.00     0.336 A 
ATOM      4  O   UNL     1     -34.649  -4.222 -17.480  1.00  0.00    -0.246 OA
ATOM      5  O   UNL     1     -36.126  -5.753 -16.780  1.00  0.00    -0.423 OA
ATOM      6  C   UNL     1     -36.982  -6.230 -15.880  1.00  0.00     0.142 A 
ATOM      7  C   UNL     1     -37.669  -7.422 -16.132  1.00  0.00     0.098 A 
ATOM      8  C   UNL     1     -38.572  -7.931 -15.192  1.00  0.00     0.161 A 
ATOM      9  C   UNL     1     -38.791  -7.241 -13.984  1.00  0.00     0.158 A 
ATOM     10  C   UNL     1     -38.106  -6.045 -13.727  1.00  0.00     0.062 A 
ATOM     11  C   UNL     1     -37.202  -5.537 -14.670  1.00  0.00     0.022 A 
ENDROOT
BRANCH   9  12
ATOM     12  O   UNL     1     -39.691  -7.747 -13.046  1.00  0.00    -0.504 OA
ATOM     13  H   UNL     1     -39.380  -8.099 -12.149  1.00  0.00     0.293 HD
ENDBRANCH   9  12
BRANCH   8  14
ATOM     14  O   UNL     1     -39.241  -9.122 -15.472  1.00  0.00    -0.504 OA
ATOM     15  H   UNL     1     -38.844  -9.832 -16.075  1.00  0.00     0.293 HD
ENDBRANCH   8  14
TORSDOF 2
ENDMDL
MODEL 7
REMARK VINA RESULT:    -5.261      2.454      4.175
REMARK INTER + INTRA:          -5.569
REMARK INTER:                  -5.569
REMARK INTRA:                   0.000
REMARK UNBOUND:                 0.000
REMARK SMILES O=c1ccc2cc(O)c(O)cc2o1
REMARK SMILES IDX 4 1 3 2 2 3 1 4 13 5 12 6 11 7 9 8 7 9 6 10 5 11 8 12 10 14
REMARK H PARENT 8 13 10 15
REMARK Flexibility Score: inf
ROOT
ATOM      1  C   UNL     1     -37.492  -8.284 -15.983  1.00  0.00     0.019 A 
ATOM      2  C   UNL     1     -38.486  -8.759 -15.128  1.00  0.00     0.094 A 
ATOM      3  C   UNL     1     -39.035  -7.892 -14.178  1.00  0.00     0.336 A 
ATOM      4  O   UNL     1     -39.934  -8.302 -13.398  1.00  0.00    -0.246 OA
ATOM      5  O   UNL     1     -38.614  -6.632 -14.092  1.00  0.00    -0.423 OA
ATOM      6  C   UNL     1     -37.668  -6.139 -14.888  1.00  0.00     0.142 A 
ATOM      7  C   UNL     1     -37.265  -4.807 -14.753  1.00  0.00     0.098 A 
ATOM      8  C   UNL     1     -36.271  -4.279 -15.585  1.00  0.00     0.161 A 
ATOM      9  C   UNL     1     -35.672  -5.093 -16.565  1.00  0.00     0.158 A 
ATOM     10  C   UNL     1     -36.073  -6.430 -16.706  1.00  0.00     0.062 A 
ATOM     11  C   UNL     1     -37.068  -6.956 -15.871  1.00  0.00     0.022 A 
ENDROOT
BRANCH   9  12
ATOM     12  O   UNL     1     -34.682  -4.569 -17.396  1.00  0.00    -0.504 OA
ATOM     13  H   UNL     1     -33.901  -5.132 -17.710  1.00  0.00     0.293 HD
ENDBRANCH   9  12
BRANCH   8  14
ATOM     14  O   UNL     1     -35.891  -2.947 -15.425  1.00  0.00    -0.504 OA
ATOM     15  H   UNL     1     -36.498  -2.265 -14.986  1.00  0.00     0.293 HD
ENDBRANCH   8  14
TORSDOF 2
ENDMDL
MODEL 8
REMARK VINA RESULT:    -5.224      2.359      4.007
REMARK INTER + INTRA:          -5.530
REMARK INTER:                  -5.530
REMARK INTRA:                   0.000
REMARK UNBOUND:                 0.000
REMARK SMILES O=c1ccc2cc(O)c(O)cc2o1
REMARK SMILES IDX 4 1 3 2 2 3 1 4 13 5 12 6 11 7 9 8 7 9 6 10 5 11 8 12 10 14
REMARK H PARENT 8 13 10 15
REMARK Flexibility Score: inf
ROOT
ATOM      1  C   UNL     1     -38.977  -5.753 -13.271  1.00  0.00     0.019 A 
ATOM      2  C   UNL     1     -39.752  -6.894 -13.071  1.00  0.00     0.094 A 
ATOM      3  C   UNL     1     -39.580  -7.989 -13.926  1.00  0.00     0.336 A 
ATOM      4  O   UNL     1     -40.270  -9.028 -13.761  1.00  0.00    -0.246 OA
ATOM      5  O   UNL     1     -38.690  -7.939 -14.913  1.00  0.00    -0.423 OA
ATOM      6  C   UNL     1     -37.931  -6.869 -15.139  1.00  0.00     0.142 A 
ATOM      7  C   UNL     1     -37.011  -6.874 -16.192  1.00  0.00     0.098 A 
ATOM      8  C   UNL     1     -36.209  -5.753 -16.436  1.00  0.00     0.161 A 
ATOM      9  C   UNL     1     -36.326  -4.614 -15.618  1.00  0.00     0.158 A 
ATOM     10  C   UNL     1     -37.246  -4.604 -14.560  1.00  0.00     0.062 A 
ATOM     11  C   UNL     1     -38.049  -5.727 -14.317  1.00  0.00     0.022 A 
ENDROOT
BRANCH   9  12
ATOM     12  O   UNL     1     -35.527  -3.497 -15.859  1.00  0.00    -0.504 OA
ATOM     13  H   UNL     1     -35.872  -2.700 -16.380  1.00  0.00     0.293 HD
ENDBRANCH   9  12
BRANCH   8  14
ATOM     14  O   UNL     1     -35.301  -5.789 -17.495  1.00  0.00    -0.504 OA
ATOM     15  H   UNL     1     -35.035  -6.656 -17.945  1.00  0.00     0.293 HD
ENDBRANCH   8  14
TORSDOF 2
ENDMDL
