MODEL 1
REMARK VINA RESULT:    -3.707      0.000      0.000
REMARK INTER + INTRA:          -9.101
REMARK INTER:                  -7.173
REMARK INTRA:                  -1.928
REMARK UNBOUND:                -1.928
REMARK SMILES CCCCCCCCCCCCCCCCCC(=O)[O-]
REMARK SMILES IDX 10 1 11 2 12 3 13 4 14 5 15 6 16 7 17 8 18 9 19 10 20 11
REMARK SMILES IDX 9 12 8 13 7 14 6 15 5 16 4 17 3 18 2 19 1 20
REMARK H PARENT
REMARK Flexibility Score: inf
ROOT
ATOM      1  C   UNL     1      29.099 -10.515  31.339  1.00  0.00     0.000 C 
ENDROOT
BRANCH   1   2
ATOM      2  C   UNL     1      28.031  -9.518  30.873  1.00  0.00     0.000 C 
BRANCH   2   3
ATOM      3  C   UNL     1      27.604  -9.805  29.428  1.00  0.00     0.000 C 
BRANCH   3   4
ATOM      4  C   UNL     1      26.127  -9.457  29.212  1.00  0.00     0.000 C 
BRANCH   4   5
ATOM      5  C   UNL     1      25.253 -10.043  30.332  1.00  0.00     0.000 C 
BRANCH   5   6
ATOM      6  C   UNL     1      24.414  -8.977  31.059  1.00  0.00     0.000 C 
BRANCH   6   7
ATOM      7  C   UNL     1      24.726  -8.813  32.561  1.00  0.00     0.006 C 
BRANCH   7   8
ATOM      8  C   UNL     1      25.086 -10.120  33.284  1.00  0.00     0.053 C 
BRANCH   8   9
ATOM      9  C   UNL     1      24.173 -10.393  34.440  1.00  0.00     0.041 C 
ATOM     10  O   UNL     1      24.424  -9.907  35.573  1.00  0.00    -0.550 OA
ATOM     11  O   UNL     1      23.065 -11.213  34.272  1.00  0.00    -0.550 OA
ENDBRANCH   8   9
ENDBRANCH   7   8
ENDBRANCH   6   7
ENDBRANCH   5   6
ENDBRANCH   4   5
ENDBRANCH   3   4
ENDBRANCH   2   3
ENDBRANCH   1   2
BRANCH   1  12
ATOM     12  C   UNL     1      29.614 -11.358  30.166  1.00  0.00     0.000 C 
BRANCH  12  13
ATOM     13  C   UNL     1      31.125 -11.592  30.278  1.00  0.00    -0.000 C 
BRANCH  13  14
ATOM     14  C   UNL     1      31.774 -10.553  31.204  1.00  0.00    -0.000 C 
BRANCH  14  15
ATOM     15  C   UNL     1      32.643  -9.534  30.445  1.00  0.00    -0.000 C 
BRANCH  15  16
ATOM     16  C   UNL     1      32.582  -8.094  30.988  1.00  0.00    -0.000 C 
BRANCH  16  17
ATOM     17  C   UNL     1      31.169  -7.590  31.341  1.00  0.00    -0.000 C 
BRANCH  17  18
ATOM     18  C   UNL     1      31.012  -7.161  32.815  1.00  0.00    -0.000 C 
BRANCH  18  19
ATOM     19  C   UNL     1      31.661  -8.156  33.789  1.00  0.00    -0.003 C 
ATOM     20  C   UNL     1      32.682  -7.463  34.686  1.00  0.00     0.004 C 
ENDBRANCH  18  19
ENDBRANCH  17  18
ENDBRANCH  16  17
ENDBRANCH  15  16
ENDBRANCH  14  15
ENDBRANCH  13  14
ENDBRANCH  12  13
ENDBRANCH   1  12
TORSDOF 16
ENDMDL
MODEL 2
REMARK VINA RESULT:    -3.594      2.511      3.070
REMARK INTER + INTRA:          -8.884
REMARK INTER:                  -7.216
REMARK INTRA:                  -1.668
REMARK UNBOUND:                -1.928
REMARK SMILES CCCCCCCCCCCCCCCCCC(=O)[O-]
REMARK SMILES IDX 10 1 11 2 12 3 13 4 14 5 15 6 16 7 17 8 18 9 19 10 20 11
REMARK SMILES IDX 9 12 8 13 7 14 6 15 5 16 4 17 3 18 2 19 1 20
REMARK H PARENT
REMARK Flexibility Score: inf
ROOT
ATOM      1  C   UNL     1      29.664 -11.048  31.568  1.00  0.00     0.000 C 
ENDROOT
BRANCH   1   2
ATOM      2  C   UNL     1      28.630 -10.165  30.860  1.00  0.00     0.000 C 
BRANCH   2   3
ATOM      3  C   UNL     1      28.118 -10.838  29.580  1.00  0.00     0.000 C 
BRANCH   3   4
ATOM      4  C   UNL     1      27.429  -9.821  28.662  1.00  0.00     0.000 C 
BRANCH   4   5
ATOM      5  C   UNL     1      26.181  -9.228  29.335  1.00  0.00     0.000 C 
BRANCH   5   6
ATOM      6  C   UNL     1      25.066 -10.267  29.554  1.00  0.00     0.000 C 
BRANCH   6   7
ATOM      7  C   UNL     1      23.886 -10.175  28.564  1.00  0.00     0.006 C 
BRANCH   7   8
ATOM      8  C   UNL     1      23.565  -8.750  28.085  1.00  0.00     0.053 C 
BRANCH   8   9
ATOM      9  C   UNL     1      22.489  -8.110  28.907  1.00  0.00     0.041 C 
ATOM     10  O   UNL     1      22.726  -7.745  30.088  1.00  0.00    -0.550 OA
ATOM     11  O   UNL     1      21.213  -7.950  28.380  1.00  0.00    -0.550 OA
ENDBRANCH   8   9
ENDBRANCH   7   8
ENDBRANCH   6   7
ENDBRANCH   5   6
ENDBRANCH   4   5
ENDBRANCH   3   4
ENDBRANCH   2   3
ENDBRANCH   1   2
BRANCH   1  12
ATOM     12  C   UNL     1      30.310 -12.035  30.587  1.00  0.00     0.000 C 
BRANCH  12  13
ATOM     13  C   UNL     1      31.714 -11.569  30.183  1.00  0.00    -0.000 C 
BRANCH  13  14
ATOM     14  C   UNL     1      32.226 -10.478  31.135  1.00  0.00    -0.000 C 
BRANCH  14  15
ATOM     15  C   UNL     1      32.915  -9.314  30.398  1.00  0.00    -0.000 C 
BRANCH  15  16
ATOM     16  C   UNL     1      32.635  -7.917  30.982  1.00  0.00    -0.000 C 
BRANCH  16  17
ATOM     17  C   UNL     1      31.169  -7.657  31.377  1.00  0.00    -0.000 C 
BRANCH  17  18
ATOM     18  C   UNL     1      30.989  -7.222  32.847  1.00  0.00    -0.000 C 
BRANCH  18  19
ATOM     19  C   UNL     1      31.675  -8.180  33.832  1.00  0.00    -0.003 C 
ATOM     20  C   UNL     1      32.697  -7.445  34.693  1.00  0.00     0.004 C 
ENDBRANCH  18  19
ENDBRANCH  17  18
ENDBRANCH  16  17
ENDBRANCH  15  16
ENDBRANCH  14  15
ENDBRANCH  13  14
ENDBRANCH  12  13
ENDBRANCH   1  12
TORSDOF 16
ENDMDL
MODEL 3
REMARK VINA RESULT:    -3.576      2.746      7.144
REMARK INTER + INTRA:          -8.850
REMARK INTER:                  -6.993
REMARK INTRA:                  -1.857
REMARK UNBOUND:                -1.928
REMARK SMILES CCCCCCCCCCCCCCCCCC(=O)[O-]
REMARK SMILES IDX 10 1 11 2 12 3 13 4 14 5 15 6 16 7 17 8 18 9 19 10 20 11
REMARK SMILES IDX 9 12 8 13 7 14 6 15 5 16 4 17 3 18 2 19 1 20
REMARK H PARENT
REMARK Flexibility Score: inf
ROOT
ATOM      1  C   UNL     1      26.175  -9.264  29.295  1.00  0.00     0.000 C 
ENDROOT
BRANCH   1   2
ATOM      2  C   UNL     1      27.586  -9.862  29.310  1.00  0.00     0.000 C 
BRANCH   2   3
ATOM      3  C   UNL     1      28.114  -9.991  30.745  1.00  0.00     0.000 C 
BRANCH   3   4
ATOM      4  C   UNL     1      28.812 -11.339  30.956  1.00  0.00     0.000 C 
BRANCH   4   5
ATOM      5  C   UNL     1      30.339 -11.172  30.969  1.00  0.00     0.000 C 
BRANCH   5   6
ATOM      6  C   UNL     1      30.806  -9.987  31.834  1.00  0.00     0.000 C 
BRANCH   6   7
ATOM      7  C   UNL     1      31.927  -9.128  31.212  1.00  0.00     0.006 C 
BRANCH   7   8
ATOM      8  C   UNL     1      31.658  -7.615  31.237  1.00  0.00     0.053 C 
BRANCH   8   9
ATOM      9  C   UNL     1      31.141  -7.158  32.567  1.00  0.00     0.041 C 
ATOM     10  O   UNL     1      30.017  -6.599  32.651  1.00  0.00    -0.550 OA
ATOM     11  O   UNL     1      31.918  -7.318  33.707  1.00  0.00    -0.550 OA
ENDBRANCH   8   9
ENDBRANCH   7   8
ENDBRANCH   6   7
ENDBRANCH   5   6
ENDBRANCH   4   5
ENDBRANCH   3   4
ENDBRANCH   2   3
ENDBRANCH   1   2
BRANCH   1  12
ATOM     12  C   UNL     1      25.372  -9.777  28.093  1.00  0.00     0.000 C 
BRANCH  12  13
ATOM     13  C   UNL     1      23.940  -9.232  28.114  1.00  0.00    -0.000 C 
BRANCH  13  14
ATOM     14  C   UNL     1      23.875  -7.888  28.853  1.00  0.00    -0.000 C 
BRANCH  14  15
ATOM     15  C   UNL     1      22.918  -7.912  30.059  1.00  0.00    -0.000 C 
BRANCH  15  16
ATOM     16  C   UNL     1      22.403  -9.310  30.453  1.00  0.00    -0.000 C 
BRANCH  16  17
ATOM     17  C   UNL     1      23.242 -10.036  31.522  1.00  0.00    -0.000 C 
BRANCH  17  18
ATOM     18  C   UNL     1      24.161  -9.098  32.333  1.00  0.00    -0.000 C 
BRANCH  18  19
ATOM     19  C   UNL     1      25.051  -9.860  33.326  1.00  0.00    -0.003 C 
ATOM     20  C   UNL     1      25.324 -11.281  32.843  1.00  0.00     0.004 C 
ENDBRANCH  18  19
ENDBRANCH  17  18
ENDBRANCH  16  17
ENDBRANCH  15  16
ENDBRANCH  14  15
ENDBRANCH  13  14
ENDBRANCH  12  13
ENDBRANCH   1  12
TORSDOF 16
ENDMDL
MODEL 4
REMARK VINA RESULT:    -3.570      1.310      2.584
REMARK INTER + INTRA:          -8.837
REMARK INTER:                  -6.613
REMARK INTRA:                  -2.224
REMARK UNBOUND:                -1.928
REMARK SMILES CCCCCCCCCCCCCCCCCC(=O)[O-]
REMARK SMILES IDX 10 1 11 2 12 3 13 4 14 5 15 6 16 7 17 8 18 9 19 10 20 11
REMARK SMILES IDX 9 12 8 13 7 14 6 15 5 16 4 17 3 18 2 19 1 20
REMARK H PARENT
REMARK Flexibility Score: inf
ROOT
ATOM      1  C   UNL     1      27.110  -9.570  29.169  1.00  0.00     0.000 C 
ENDROOT
BRANCH   1   2
ATOM      2  C   UNL     1      25.680  -9.677  28.627  1.00  0.00     0.000 C 
BRANCH   2   3
ATOM      3  C   UNL     1      24.808  -8.527  29.146  1.00  0.00     0.000 C 
BRANCH   3   4
ATOM      4  C   UNL     1      23.477  -9.051  29.698  1.00  0.00     0.000 C 
BRANCH   4   5
ATOM      5  C   UNL     1      23.576 -10.544  30.048  1.00  0.00     0.000 C 
BRANCH   5   6
ATOM      6  C   UNL     1      23.556 -10.809  31.564  1.00  0.00     0.000 C 
BRANCH   6   7
ATOM      7  C   UNL     1      23.356  -9.556  32.442  1.00  0.00     0.006 C 
BRANCH   7   8
ATOM      8  C   UNL     1      24.589  -9.152  33.266  1.00  0.00     0.053 C 
BRANCH   8   9
ATOM      9  C   UNL     1      24.487  -9.606  34.690  1.00  0.00     0.041 C 
ATOM     10  O   UNL     1      24.732 -10.803  34.991  1.00  0.00    -0.550 OA
ATOM     11  O   UNL     1      24.089  -8.715  35.678  1.00  0.00    -0.550 OA
ENDBRANCH   8   9
ENDBRANCH   7   8
ENDBRANCH   6   7
ENDBRANCH   5   6
ENDBRANCH   4   5
ENDBRANCH   3   4
ENDBRANCH   2   3
ENDBRANCH   1   2
BRANCH   1  12
ATOM     12  C   UNL     1      27.116  -9.528  30.702  1.00  0.00     0.000 C 
BRANCH  12  13
ATOM     13  C   UNL     1      27.229 -10.939  31.291  1.00  0.00    -0.000 C 
BRANCH  13  14
ATOM     14  C   UNL     1      28.341 -11.737  30.595  1.00  0.00    -0.000 C 
BRANCH  14  15
ATOM     15  C   UNL     1      29.685 -11.671  31.345  1.00  0.00    -0.000 C 
BRANCH  15  16
ATOM     16  C   UNL     1      30.637 -10.553  30.879  1.00  0.00    -0.000 C 
BRANCH  16  17
ATOM     17  C   UNL     1      31.120  -9.604  31.992  1.00  0.00    -0.000 C 
BRANCH  17  18
ATOM     18  C   UNL     1      30.389  -8.245  32.011  1.00  0.00    -0.000 C 
BRANCH  18  19
ATOM     19  C   UNL     1      31.134  -7.186  32.838  1.00  0.00    -0.003 C 
ATOM     20  C   UNL     1      31.930  -7.830  33.969  1.00  0.00     0.004 C 
ENDBRANCH  18  19
ENDBRANCH  17  18
ENDBRANCH  16  17
ENDBRANCH  15  16
ENDBRANCH  14  15
ENDBRANCH  13  14
ENDBRANCH  12  13
ENDBRANCH   1  12
TORSDOF 16
ENDMDL
MODEL 5
REMARK VINA RESULT:    -3.497      2.813      7.027
REMARK INTER + INTRA:          -8.696
REMARK INTER:                  -6.517
REMARK INTRA:                  -2.178
REMARK UNBOUND:                -1.928
REMARK SMILES CCCCCCCCCCCCCCCCCC(=O)[O-]
REMARK SMILES IDX 10 1 11 2 12 3 13 4 14 5 15 6 16 7 17 8 18 9 19 10 20 11
REMARK SMILES IDX 9 12 8 13 7 14 6 15 5 16 4 17 3 18 2 19 1 20
REMARK H PARENT
REMARK Flexibility Score: inf
ROOT
ATOM      1  C   UNL     1      25.505  -8.730  29.740  1.00  0.00     0.000 C 
ENDROOT
BRANCH   1   2
ATOM      2  C   UNL     1      26.015  -9.554  28.551  1.00  0.00     0.000 C 
BRANCH   2   3
ATOM      3  C   UNL     1      27.477  -9.970  28.756  1.00  0.00     0.000 C 
BRANCH   3   4
ATOM      4  C   UNL     1      27.870  -9.885  30.235  1.00  0.00     0.000 C 
BRANCH   4   5
ATOM      5  C   UNL     1      28.643 -11.139  30.673  1.00  0.00     0.000 C 
BRANCH   5   6
ATOM      6  C   UNL     1      29.909 -10.812  31.484  1.00  0.00     0.000 C 
BRANCH   6   7
ATOM      7  C   UNL     1      30.473  -9.392  31.270  1.00  0.00     0.006 C 
BRANCH   7   8
ATOM      8  C   UNL     1      31.661  -9.034  32.177  1.00  0.00     0.053 C 
BRANCH   8   9
ATOM      9  C   UNL     1      31.297  -7.999  33.197  1.00  0.00     0.041 C 
ATOM     10  O   UNL     1      31.789  -8.049  34.354  1.00  0.00    -0.550 OA
ATOM     11  O   UNL     1      30.387  -6.998  32.878  1.00  0.00    -0.550 OA
ENDBRANCH   8   9
ENDBRANCH   7   8
ENDBRANCH   6   7
ENDBRANCH   5   6
ENDBRANCH   4   5
ENDBRANCH   3   4
ENDBRANCH   2   3
ENDBRANCH   1   2
BRANCH   1  12
ATOM     12  C   UNL     1      24.218  -7.979  29.377  1.00  0.00     0.000 C 
BRANCH  12  13
ATOM     13  C   UNL     1      23.038  -8.469  30.224  1.00  0.00    -0.000 C 
BRANCH  13  14
ATOM     14  C   UNL     1      22.279  -9.597  29.510  1.00  0.00    -0.000 C 
BRANCH  14  15
ATOM     15  C   UNL     1      22.623 -10.993  30.061  1.00  0.00    -0.000 C 
BRANCH  15  16
ATOM     16  C   UNL     1      23.157 -11.009  31.506  1.00  0.00    -0.000 C 
BRANCH  16  17
ATOM     17  C   UNL     1      24.575 -11.590  31.670  1.00  0.00    -0.000 C 
BRANCH  17  18
ATOM     18  C   UNL     1      25.357 -10.993  32.859  1.00  0.00    -0.000 C 
BRANCH  18  19
ATOM     19  C   UNL     1      24.886  -9.577  33.222  1.00  0.00    -0.003 C 
ATOM     20  C   UNL     1      24.444  -9.500  34.680  1.00  0.00     0.004 C 
ENDBRANCH  18  19
ENDBRANCH  17  18
ENDBRANCH  16  17
ENDBRANCH  15  16
ENDBRANCH  14  15
ENDBRANCH  13  14
ENDBRANCH  12  13
ENDBRANCH   1  12
TORSDOF 16
ENDMDL
MODEL 6
REMARK VINA RESULT:    -3.430      1.366      2.341
REMARK INTER + INTRA:          -8.567
REMARK INTER:                  -7.012
REMARK INTRA:                  -1.555
REMARK UNBOUND:                -1.928
REMARK SMILES CCCCCCCCCCCCCCCCCC(=O)[O-]
REMARK SMILES IDX 10 1 11 2 12 3 13 4 14 5 15 6 16 7 17 8 18 9 19 10 20 11
REMARK SMILES IDX 9 12 8 13 7 14 6 15 5 16 4 17 3 18 2 19 1 20
REMARK H PARENT
REMARK Flexibility Score: inf
ROOT
ATOM      1  C   UNL     1      27.209  -9.843  28.171  1.00  0.00     0.000 C 
ENDROOT
BRANCH   1   2
ATOM      2  C   UNL     1      25.841 -10.062  28.828  1.00  0.00     0.000 C 
BRANCH   2   3
ATOM      3  C   UNL     1      25.252  -8.737  29.327  1.00  0.00     0.000 C 
BRANCH   3   4
ATOM      4  C   UNL     1      24.597  -8.909  30.702  1.00  0.00     0.000 C 
BRANCH   4   5
ATOM      5  C   UNL     1      25.627  -9.361  31.749  1.00  0.00     0.000 C 
BRANCH   5   6
ATOM      6  C   UNL     1      25.232 -10.670  32.455  1.00  0.00     0.000 C 
BRANCH   6   7
ATOM      7  C   UNL     1      24.872 -10.525  33.949  1.00  0.00     0.006 C 
BRANCH   7   8
ATOM      8  C   UNL     1      24.228  -9.180  34.321  1.00  0.00     0.053 C 
BRANCH   8   9
ATOM      9  C   UNL     1      23.928  -9.087  35.785  1.00  0.00     0.041 C 
ATOM     10  O   UNL     1      24.391  -8.136  36.467  1.00  0.00    -0.550 OA
ATOM     11  O   UNL     1      23.166 -10.071  36.403  1.00  0.00    -0.550 OA
ENDBRANCH   8   9
ENDBRANCH   7   8
ENDBRANCH   6   7
ENDBRANCH   5   6
ENDBRANCH   4   5
ENDBRANCH   3   4
ENDBRANCH   2   3
ENDBRANCH   1   2
BRANCH   1  12
ATOM     12  C   UNL     1      28.177 -10.980  28.522  1.00  0.00     0.000 C 
BRANCH  12  13
ATOM     13  C   UNL     1      27.733 -11.706  29.797  1.00  0.00    -0.000 C 
BRANCH  13  14
ATOM     14  C   UNL     1      28.669 -11.380  30.969  1.00  0.00    -0.000 C 
BRANCH  14  15
ATOM     15  C   UNL     1      29.754 -10.351  30.602  1.00  0.00    -0.000 C 
BRANCH  15  16
ATOM     16  C   UNL     1      29.901  -9.180  31.592  1.00  0.00    -0.000 C 
BRANCH  16  17
ATOM     17  C   UNL     1      31.168  -8.323  31.404  1.00  0.00    -0.000 C 
BRANCH  17  18
ATOM     18  C   UNL     1      31.477  -7.399  32.601  1.00  0.00    -0.000 C 
BRANCH  18  19
ATOM     19  C   UNL     1      31.779  -8.183  33.887  1.00  0.00    -0.003 C 
ATOM     20  C   UNL     1      32.813  -7.460  34.744  1.00  0.00     0.004 C 
ENDBRANCH  18  19
ENDBRANCH  17  18
ENDBRANCH  16  17
ENDBRANCH  15  16
ENDBRANCH  14  15
ENDBRANCH  13  14
ENDBRANCH  12  13
ENDBRANCH   1  12
TORSDOF 16
ENDMDL
MODEL 7
REMARK VINA RESULT:    -3.426      2.770      6.994
REMARK INTER + INTRA:          -8.559
REMARK INTER:                  -6.508
REMARK INTRA:                  -2.051
REMARK UNBOUND:                -1.928
REMARK SMILES CCCCCCCCCCCCCCCCCC(=O)[O-]
REMARK SMILES IDX 10 1 11 2 12 3 13 4 14 5 15 6 16 7 17 8 18 9 19 10 20 11
REMARK SMILES IDX 9 12 8 13 7 14 6 15 5 16 4 17 3 18 2 19 1 20
REMARK H PARENT
REMARK Flexibility Score: inf
ROOT
ATOM      1  C   UNL     1      24.648  -8.234  30.130  1.00  0.00     0.000 C 
ENDROOT
BRANCH   1   2
ATOM      2  C   UNL     1      25.019  -9.031  28.874  1.00  0.00     0.000 C 
BRANCH   2   3
ATOM      3  C   UNL     1      26.358  -9.754  29.057  1.00  0.00     0.000 C 
BRANCH   3   4
ATOM      4  C   UNL     1      26.994  -9.402  30.407  1.00  0.00     0.000 C 
BRANCH   4   5
ATOM      5  C   UNL     1      27.977 -10.495  30.855  1.00  0.00     0.000 C 
BRANCH   5   6
ATOM      6  C   UNL     1      29.434 -10.190  30.462  1.00  0.00     0.000 C 
BRANCH   6   7
ATOM      7  C   UNL     1      30.418 -10.077  31.645  1.00  0.00     0.006 C 
BRANCH   7   8
ATOM      8  C   UNL     1      31.230  -8.773  31.675  1.00  0.00     0.053 C 
BRANCH   8   9
ATOM      9  C   UNL     1      30.916  -7.944  32.883  1.00  0.00     0.041 C 
ATOM     10  O   UNL     1      30.052  -7.031  32.818  1.00  0.00    -0.550 OA
ATOM     11  O   UNL     1      31.604  -8.158  34.071  1.00  0.00    -0.550 OA
ENDBRANCH   8   9
ENDBRANCH   7   8
ENDBRANCH   6   7
ENDBRANCH   5   6
ENDBRANCH   4   5
ENDBRANCH   3   4
ENDBRANCH   2   3
ENDBRANCH   1   2
BRANCH   1  12
ATOM     12  C   UNL     1      23.182  -8.466  30.516  1.00  0.00     0.000 C 
BRANCH  12  13
ATOM     13  C   UNL     1      22.849  -9.962  30.538  1.00  0.00    -0.000 C 
BRANCH  13  14
ATOM     14  C   UNL     1      22.884 -10.512  31.972  1.00  0.00    -0.000 C 
BRANCH  14  15
ATOM     15  C   UNL     1      24.229 -11.169  32.329  1.00  0.00    -0.000 C 
BRANCH  15  16
ATOM     16  C   UNL     1      25.120 -10.351  33.283  1.00  0.00    -0.000 C 
BRANCH  16  17
ATOM     17  C   UNL     1      24.419  -9.165  33.973  1.00  0.00    -0.000 C 
BRANCH  17  18
ATOM     18  C   UNL     1      24.227  -9.355  35.493  1.00  0.00    -0.000 C 
BRANCH  18  19
ATOM     19  C   UNL     1      23.139 -10.387  35.824  1.00  0.00    -0.003 C 
ATOM     20  C   UNL     1      23.735 -11.623  36.488  1.00  0.00     0.004 C 
ENDBRANCH  18  19
ENDBRANCH  17  18
ENDBRANCH  16  17
ENDBRANCH  15  16
ENDBRANCH  14  15
ENDBRANCH  13  14
ENDBRANCH  12  13
ENDBRANCH   1  12
TORSDOF 16
ENDMDL
MODEL 8
REMARK VINA RESULT:    -3.330      2.720      7.246
REMARK INTER + INTRA:          -8.372
REMARK INTER:                  -6.320
REMARK INTRA:                  -2.052
REMARK UNBOUND:                -1.928
REMARK SMILES CCCCCCCCCCCCCCCCCC(=O)[O-]
REMARK SMILES IDX 10 1 11 2 12 3 13 4 14 5 15 6 16 7 17 8 18 9 19 10 20 11
REMARK SMILES IDX 9 12 8 13 7 14 6 15 5 16 4 17 3 18 2 19 1 20
REMARK H PARENT
REMARK Flexibility Score: inf
ROOT
ATOM      1  C   UNL     1      27.610  -9.498  30.936  1.00  0.00     0.000 C 
ENDROOT
BRANCH   1   2
ATOM      2  C   UNL     1      28.436 -10.195  29.849  1.00  0.00     0.000 C 
BRANCH   2   3
ATOM      3  C   UNL     1      28.731 -11.651  30.230  1.00  0.00     0.000 C 
BRANCH   3   4
ATOM      4  C   UNL     1      29.898 -11.734  31.221  1.00  0.00     0.000 C 
BRANCH   4   5
ATOM      5  C   UNL     1      31.241 -11.842  30.483  1.00  0.00     0.000 C 
BRANCH   5   6
ATOM      6  C   UNL     1      32.100 -10.571  30.611  1.00  0.00     0.000 C 
BRANCH   6   7
ATOM      7  C   UNL     1      31.859  -9.745  31.891  1.00  0.00     0.006 C 
BRANCH   7   8
ATOM      8  C   UNL     1      31.500  -8.272  31.642  1.00  0.00     0.053 C 
BRANCH   8   9
ATOM      9  C   UNL     1      30.958  -7.609  32.871  1.00  0.00     0.041 C 
ATOM     10  O   UNL     1      31.421  -7.902  34.004  1.00  0.00    -0.550 OA
ATOM     11  O   UNL     1      29.918  -6.694  32.766  1.00  0.00    -0.550 OA
ENDBRANCH   8   9
ENDBRANCH   7   8
ENDBRANCH   6   7
ENDBRANCH   5   6
ENDBRANCH   4   5
ENDBRANCH   3   4
ENDBRANCH   2   3
ENDBRANCH   1   2
BRANCH   1  12
ATOM     12  C   UNL     1      26.514 -10.426  31.475  1.00  0.00     0.000 C 
BRANCH  12  13
ATOM     13  C   UNL     1      25.558  -9.669  32.402  1.00  0.00    -0.000 C 
BRANCH  13  14
ATOM     14  C   UNL     1      24.546 -10.627  33.049  1.00  0.00    -0.000 C 
BRANCH  14  15
ATOM     15  C   UNL     1      23.335 -10.920  32.145  1.00  0.00    -0.000 C 
BRANCH  15  16
ATOM     16  C   UNL     1      22.575  -9.674  31.651  1.00  0.00    -0.000 C 
BRANCH  16  17
ATOM     17  C   UNL     1      22.517  -9.510  30.120  1.00  0.00    -0.000 C 
BRANCH  17  18
ATOM     18  C   UNL     1      23.025  -8.140  29.623  1.00  0.00    -0.000 C 
BRANCH  18  19
ATOM     19  C   UNL     1      24.513  -8.167  29.244  1.00  0.00    -0.003 C 
ATOM     20  C   UNL     1      24.820  -9.323  28.297  1.00  0.00     0.004 C 
ENDBRANCH  18  19
ENDBRANCH  17  18
ENDBRANCH  16  17
ENDBRANCH  15  16
ENDBRANCH  14  15
ENDBRANCH  13  14
ENDBRANCH  12  13
ENDBRANCH   1  12
TORSDOF 16
ENDMDL
MODEL 9
REMARK VINA RESULT:    -3.316      2.684      6.909
REMARK INTER + INTRA:          -8.347
REMARK INTER:                  -6.915
REMARK INTRA:                  -1.431
REMARK UNBOUND:                -1.928
REMARK SMILES CCCCCCCCCCCCCCCCCC(=O)[O-]
REMARK SMILES IDX 10 1 11 2 12 3 13 4 14 5 15 6 16 7 17 8 18 9 19 10 20 11
REMARK SMILES IDX 9 12 8 13 7 14 6 15 5 16 4 17 3 18 2 19 1 20
REMARK H PARENT
REMARK Flexibility Score: inf
ROOT
ATOM      1  C   UNL     1      27.011  -9.916  28.570  1.00  0.00     0.000 C 
ENDROOT
BRANCH   1   2
ATOM      2  C   UNL     1      27.485  -9.503  29.968  1.00  0.00     0.000 C 
BRANCH   2   3
ATOM      3  C   UNL     1      28.026 -10.709  30.745  1.00  0.00     0.000 C 
BRANCH   3   4
ATOM      4  C   UNL     1      28.931 -11.573  29.860  1.00  0.00     0.000 C 
BRANCH   4   5
ATOM      5  C   UNL     1      30.412 -11.352  30.204  1.00  0.00     0.000 C 
BRANCH   5   6
ATOM      6  C   UNL     1      30.614 -10.469  31.449  1.00  0.00     0.000 C 
BRANCH   6   7
ATOM      7  C   UNL     1      31.837  -9.531  31.393  1.00  0.00     0.006 C 
BRANCH   7   8
ATOM      8  C   UNL     1      31.492  -8.034  31.373  1.00  0.00     0.053 C 
BRANCH   8   9
ATOM      9  C   UNL     1      31.047  -7.541  32.716  1.00  0.00     0.041 C 
ATOM     10  O   UNL     1      31.645  -7.915  33.757  1.00  0.00    -0.550 OA
ATOM     11  O   UNL     1      29.949  -6.696  32.817  1.00  0.00    -0.550 OA
ENDBRANCH   8   9
ENDBRANCH   7   8
ENDBRANCH   6   7
ENDBRANCH   5   6
ENDBRANCH   4   5
ENDBRANCH   3   4
ENDBRANCH   2   3
ENDBRANCH   1   2
BRANCH   1  12
ATOM     12  C   UNL     1      25.507  -9.669  28.403  1.00  0.00     0.000 C 
BRANCH  12  13
ATOM     13  C   UNL     1      25.019  -8.576  29.361  1.00  0.00    -0.000 C 
BRANCH  13  14
ATOM     14  C   UNL     1      23.551  -8.802  29.750  1.00  0.00    -0.000 C 
BRANCH  14  15
ATOM     15  C   UNL     1      23.361  -9.043  31.259  1.00  0.00    -0.000 C 
BRANCH  15  16
ATOM     16  C   UNL     1      24.659  -9.306  32.045  1.00  0.00    -0.000 C 
BRANCH  16  17
ATOM     17  C   UNL     1      24.700  -8.698  33.460  1.00  0.00    -0.000 C 
BRANCH  17  18
ATOM     18  C   UNL     1      24.305  -9.690  34.574  1.00  0.00    -0.000 C 
BRANCH  18  19
ATOM     19  C   UNL     1      23.011  -9.283  35.294  1.00  0.00    -0.003 C 
ATOM     20  C   UNL     1      23.289  -8.262  36.393  1.00  0.00     0.004 C 
ENDBRANCH  18  19
ENDBRANCH  17  18
ENDBRANCH  16  17
ENDBRANCH  15  16
ENDBRANCH  14  15
ENDBRANCH  13  14
ENDBRANCH  12  13
ENDBRANCH   1  12
TORSDOF 16
ENDMDL
