MODEL 1
REMARK VINA RESULT:    32.545      0.000      0.000
REMARK INTER + INTRA:          47.128
REMARK INTER:                  46.815
REMARK INTRA:                   0.313
REMARK UNBOUND:                 0.313
REMARK SMILES O=c1c(O[C@@H]2O[C@H](CO)[C@H](O)[C@H](O)[C@H]2O)c(-c2ccc(O)cc2)oc2cc(O)cc(O)c12
REMARK SMILES IDX 4 1 3 2 16 3 24 4 2 5 25 6 1 7 32 8 26 9 30 10 27 11 29 12
REMARK SMILES IDX 17 13 18 14 19 15 20 16 23 17 22 18 21 19 31 21 28 23 5 25
REMARK SMILES IDX 14 26 6 27 12 28 7 29 10 30 15 31 13 33 8 35 9 36 11 38
REMARK H PARENT 21 20 31 22 28 24 15 32 13 34 9 37 11 39
REMARK Flexibility Score: inf
ROOT
ATOM      1  O   UNL     1     -17.692   2.397  15.126  1.00  0.00    -0.454 OA
ENDROOT
BRANCH   1   2
ATOM      2  C   UNL     1     -16.493   1.757  15.498  1.00  0.00     0.214 A 
ATOM      3  C   UNL     1     -16.319   0.405  15.152  1.00  0.00     0.180 A 
ATOM      4  O   UNL     1     -15.172  -0.208  15.412  1.00  0.00    -0.452 OA
ATOM      5  C   UNL     1     -15.443   2.416  16.178  1.00  0.00     0.239 A 
ATOM      6  C   UNL     1     -14.160   0.372  16.042  1.00  0.00     0.146 A 
ATOM      7  O   UNL     1     -15.565   3.631  16.474  1.00  0.00    -0.285 OA
ATOM      8  C   UNL     1     -14.259   1.708  16.502  1.00  0.00     0.111 A 
ATOM      9  C   UNL     1     -12.988  -0.363  16.237  1.00  0.00     0.094 A 
ATOM     10  C   UNL     1     -13.156   2.262  17.222  1.00  0.00     0.134 A 
ATOM     11  C   UNL     1     -11.895   0.207  16.885  1.00  0.00     0.123 A 
ATOM     12  C   UNL     1     -11.982   1.514  17.370  1.00  0.00     0.093 A 
BRANCH   3  13
ATOM     13  C   UNL     1     -17.369  -0.359  14.446  1.00  0.00     0.021 A 
ATOM     14  C   UNL     1     -18.728  -0.185  14.756  1.00  0.00     0.016 A 
ATOM     15  C   UNL     1     -19.707  -0.922  14.082  1.00  0.00     0.047 A 
ATOM     16  C   UNL     1     -19.339  -1.851  13.105  1.00  0.00     0.115 A 
ATOM     17  C   UNL     1     -17.003  -1.310  13.480  1.00  0.00     0.016 A 
ATOM     18  C   UNL     1     -17.983  -2.046  12.808  1.00  0.00     0.047 A 
BRANCH  16  19
ATOM     19  O   UNL     1     -20.325  -2.576  12.440  1.00  0.00    -0.508 OA
ATOM     20  H   UNL     1     -20.453  -3.568  12.603  1.00  0.00     0.293 HD
ENDBRANCH  16  19
ENDBRANCH   3  13
BRANCH  10  21
ATOM     21  O   UNL     1     -13.173   3.521  17.832  1.00  0.00    -0.507 OA
ATOM     22  H   UNL     1     -13.767   4.287  17.551  1.00  0.00     0.293 HD
ENDBRANCH  10  21
BRANCH  11  23
ATOM     23  O   UNL     1     -10.728  -0.536  17.049  1.00  0.00    -0.508 OA
ATOM     24  H   UNL     1     -10.552  -1.373  16.505  1.00  0.00     0.293 HD
ENDBRANCH  11  23
ENDBRANCH   1   2
BRANCH   1  25
ATOM     25  C   UNL     1     -17.914   3.810  15.085  1.00  0.00     0.339 C 
ATOM     26  C   UNL     1     -17.751   4.336  13.649  1.00  0.00     0.214 C 
ATOM     27  O   UNL     1     -19.156   4.171  15.679  1.00  0.00    -0.332 OA
ATOM     28  C   UNL     1     -18.932   3.906  12.766  1.00  0.00     0.180 C 
ATOM     29  C   UNL     1     -20.309   3.814  14.921  1.00  0.00     0.179 C 
ATOM     30  C   UNL     1     -20.249   4.295  13.448  1.00  0.00     0.177 C 
BRANCH  26  31
ATOM     31  O   UNL     1     -17.659   5.737  13.682  1.00  0.00    -0.384 OA
ATOM     32  H   UNL     1     -18.576   6.083  13.845  1.00  0.00     0.211 HD
ENDBRANCH  26  31
BRANCH  28  33
ATOM     33  O   UNL     1     -18.897   2.523  12.522  1.00  0.00    -0.387 OA
ATOM     34  H   UNL     1     -19.635   2.119  13.050  1.00  0.00     0.211 HD
ENDBRANCH  28  33
BRANCH  29  35
ATOM     35  C   UNL     1     -20.703   2.334  15.102  1.00  0.00     0.191 C 
BRANCH  35  36
ATOM     36  O   UNL     1     -21.551   1.925  14.061  1.00  0.00    -0.394 OA
ATOM     37  H   UNL     1     -21.566   2.660  13.395  1.00  0.00     0.210 HD
ENDBRANCH  35  36
ENDBRANCH  29  35
BRANCH  30  38
ATOM     38  O   UNL     1     -21.347   3.802  12.723  1.00  0.00    -0.387 OA
ATOM     39  H   UNL     1     -21.078   2.917  12.359  1.00  0.00     0.211 HD
ENDBRANCH  30  38
ENDBRANCH   1  25
TORSDOF 11
ENDMDL
MODEL 2
REMARK VINA RESULT:    33.181      2.485      4.798
REMARK INTER + INTRA:          48.043
REMARK INTER:                  46.578
REMARK INTRA:                   1.466
REMARK UNBOUND:                 0.313
REMARK SMILES O=c1c(O[C@@H]2O[C@H](CO)[C@H](O)[C@H](O)[C@H]2O)c(-c2ccc(O)cc2)oc2cc(O)cc(O)c12
REMARK SMILES IDX 4 1 3 2 16 3 24 4 2 5 25 6 1 7 32 8 26 9 30 10 27 11 29 12
REMARK SMILES IDX 17 13 18 14 19 15 20 16 23 17 22 18 21 19 31 21 28 23 5 25
REMARK SMILES IDX 14 26 6 27 12 28 7 29 10 30 15 31 13 33 8 35 9 36 11 38
REMARK H PARENT 21 20 31 22 28 24 15 32 13 34 9 37 11 39
REMARK Flexibility Score: inf
ROOT
ATOM      1  O   UNL     1     -18.338   3.290  16.131  1.00  0.00    -0.454 OA
ENDROOT
BRANCH   1   2
ATOM      2  C   UNL     1     -17.013   2.858  16.340  1.00  0.00     0.214 A 
ATOM      3  C   UNL     1     -16.330   3.318  17.480  1.00  0.00     0.180 A 
ATOM      4  O   UNL     1     -15.112   2.871  17.755  1.00  0.00    -0.452 OA
ATOM      5  C   UNL     1     -16.346   1.962  15.475  1.00  0.00     0.239 A 
ATOM      6  C   UNL     1     -14.451   2.026  16.975  1.00  0.00     0.146 A 
ATOM      7  O   UNL     1     -16.945   1.517  14.464  1.00  0.00    -0.285 OA
ATOM      8  C   UNL     1     -15.018   1.560  15.762  1.00  0.00     0.111 A 
ATOM      9  C   UNL     1     -13.183   1.600  17.378  1.00  0.00     0.094 A 
ATOM     10  C   UNL     1     -14.237   0.694  14.937  1.00  0.00     0.134 A 
ATOM     11  C   UNL     1     -12.456   0.706  16.596  1.00  0.00     0.123 A 
ATOM     12  C   UNL     1     -12.985   0.256  15.385  1.00  0.00     0.093 A 
BRANCH   3  13
ATOM     13  C   UNL     1     -16.953   4.261  18.433  1.00  0.00     0.021 A 
ATOM     14  C   UNL     1     -16.345   5.488  18.744  1.00  0.00     0.016 A 
ATOM     15  C   UNL     1     -16.946   6.365  19.653  1.00  0.00     0.047 A 
ATOM     16  C   UNL     1     -18.149   6.018  20.273  1.00  0.00     0.115 A 
ATOM     17  C   UNL     1     -18.149   3.907  19.077  1.00  0.00     0.016 A 
ATOM     18  C   UNL     1     -18.748   4.784  19.987  1.00  0.00     0.047 A 
BRANCH  16  19
ATOM     19  O   UNL     1     -18.738   6.901  21.176  1.00  0.00    -0.508 OA
ATOM     20  H   UNL     1     -19.738   7.061  21.184  1.00  0.00     0.293 HD
ENDBRANCH  16  19
ENDBRANCH   3  13
BRANCH  10  21
ATOM     21  O   UNL     1     -14.629   0.263  13.665  1.00  0.00    -0.507 OA
ATOM     22  H   UNL     1     -14.890  -0.684  13.436  1.00  0.00     0.293 HD
ENDBRANCH  10  21
BRANCH  11  23
ATOM     23  O   UNL     1     -11.203   0.277  17.029  1.00  0.00    -0.508 OA
ATOM     24  H   UNL     1     -10.916   0.369  17.996  1.00  0.00     0.293 HD
ENDBRANCH  11  23
ENDBRANCH   1   2
BRANCH   1  25
ATOM     25  C   UNL     1     -18.736   4.493  15.466  1.00  0.00     0.339 C 
ATOM     26  C   UNL     1     -18.102   4.566  14.067  1.00  0.00     0.214 C 
ATOM     27  O   UNL     1     -20.150   4.650  15.451  1.00  0.00    -0.332 OA
ATOM     28  C   UNL     1     -18.760   3.562  13.109  1.00  0.00     0.180 C 
ATOM     29  C   UNL     1     -20.843   3.760  14.581  1.00  0.00     0.179 C 
ATOM     30  C   UNL     1     -20.281   3.752  13.136  1.00  0.00     0.177 C 
BRANCH  26  31
ATOM     31  O   UNL     1     -18.242   5.872  13.568  1.00  0.00    -0.384 OA
ATOM     32  H   UNL     1     -17.647   5.943  12.776  1.00  0.00     0.211 HD
ENDBRANCH  26  31
BRANCH  28  33
ATOM     33  O   UNL     1     -18.424   2.244  13.458  1.00  0.00    -0.387 OA
ATOM     34  H   UNL     1     -18.065   2.273  14.383  1.00  0.00     0.211 HD
ENDBRANCH  28  33
BRANCH  29  35
ATOM     35  C   UNL     1     -21.049   2.363  15.203  1.00  0.00     0.191 C 
BRANCH  35  36
ATOM     36  O   UNL     1     -20.208   1.426  14.584  1.00  0.00    -0.394 OA
ATOM     37  H   UNL     1     -19.341   1.452  15.066  1.00  0.00     0.210 HD
ENDBRANCH  35  36
ENDBRANCH  29  35
BRANCH  30  38
ATOM     38  O   UNL     1     -20.916   2.763  12.365  1.00  0.00    -0.387 OA
ATOM     39  H   UNL     1     -21.894   2.893  12.479  1.00  0.00     0.211 HD
ENDBRANCH  30  38
ENDBRANCH   1  25
TORSDOF 11
ENDMDL
MODEL 3
REMARK VINA RESULT:    33.354      1.934      6.796
REMARK INTER + INTRA:          48.292
REMARK INTER:                  48.088
REMARK INTRA:                   0.203
REMARK UNBOUND:                 0.313
REMARK SMILES O=c1c(O[C@@H]2O[C@H](CO)[C@H](O)[C@H](O)[C@H]2O)c(-c2ccc(O)cc2)oc2cc(O)cc(O)c12
REMARK SMILES IDX 4 1 3 2 16 3 24 4 2 5 25 6 1 7 32 8 26 9 30 10 27 11 29 12
REMARK SMILES IDX 17 13 18 14 19 15 20 16 23 17 22 18 21 19 31 21 28 23 5 25
REMARK SMILES IDX 14 26 6 27 12 28 7 29 10 30 15 31 13 33 8 35 9 36 11 38
REMARK H PARENT 21 20 31 22 28 24 15 32 13 34 9 37 11 39
REMARK Flexibility Score: inf
ROOT
ATOM      1  O   UNL     1     -17.375   2.475  14.564  1.00  0.00    -0.454 OA
ENDROOT
BRANCH   1   2
ATOM      2  C   UNL     1     -18.671   2.561  14.014  1.00  0.00     0.214 A 
ATOM      3  C   UNL     1     -19.272   1.386  13.531  1.00  0.00     0.180 A 
ATOM      4  O   UNL     1     -20.520   1.410  13.082  1.00  0.00    -0.452 OA
ATOM      5  C   UNL     1     -19.406   3.766  13.951  1.00  0.00     0.239 A 
ATOM      6  C   UNL     1     -21.249   2.516  13.010  1.00  0.00     0.146 A 
ATOM      7  O   UNL     1     -18.899   4.824  14.401  1.00  0.00    -0.285 OA
ATOM      8  C   UNL     1     -20.711   3.768  13.400  1.00  0.00     0.111 A 
ATOM      9  C   UNL     1     -22.563   2.418  12.546  1.00  0.00     0.094 A 
ATOM     10  C   UNL     1     -21.525   4.932  13.249  1.00  0.00     0.134 A 
ATOM     11  C   UNL     1     -23.369   3.551  12.462  1.00  0.00     0.123 A 
ATOM     12  C   UNL     1     -22.850   4.798  12.816  1.00  0.00     0.093 A 
BRANCH   3  13
ATOM     13  C   UNL     1     -18.570   0.085  13.554  1.00  0.00     0.021 A 
ATOM     14  C   UNL     1     -17.213  -0.016  13.204  1.00  0.00     0.016 A 
ATOM     15  C   UNL     1     -16.567  -1.256  13.225  1.00  0.00     0.047 A 
ATOM     16  C   UNL     1     -17.273  -2.409  13.580  1.00  0.00     0.115 A 
ATOM     17  C   UNL     1     -19.279  -1.080  13.886  1.00  0.00     0.016 A 
ATOM     18  C   UNL     1     -18.633  -2.319  13.907  1.00  0.00     0.047 A 
BRANCH  16  19
ATOM     19  O   UNL     1     -16.616  -3.638  13.599  1.00  0.00    -0.508 OA
ATOM     20  H   UNL     1     -15.675  -3.730  13.963  1.00  0.00     0.293 HD
ENDBRANCH  16  19
ENDBRANCH   3  13
BRANCH  10  21
ATOM     21  O   UNL     1     -21.075   6.236  13.481  1.00  0.00    -0.507 OA
ATOM     22  H   UNL     1     -20.213   6.471  13.950  1.00  0.00     0.293 HD
ENDBRANCH  10  21
BRANCH  11  23
ATOM     23  O   UNL     1     -24.683   3.427  12.018  1.00  0.00    -0.508 OA
ATOM     24  H   UNL     1     -24.918   3.490  11.034  1.00  0.00     0.293 HD
ENDBRANCH  11  23
ENDBRANCH   1   2
BRANCH   1  25
ATOM     25  C   UNL     1     -16.766   3.434  15.434  1.00  0.00     0.339 C 
ATOM     26  C   UNL     1     -16.925   3.003  16.901  1.00  0.00     0.214 C 
ATOM     27  O   UNL     1     -15.416   3.701  15.069  1.00  0.00    -0.332 OA
ATOM     28  C   UNL     1     -16.017   1.807  17.227  1.00  0.00     0.180 C 
ATOM     29  C   UNL     1     -14.501   2.643  15.343  1.00  0.00     0.179 C 
ATOM     30  C   UNL     1     -14.579   2.127  16.803  1.00  0.00     0.177 C 
BRANCH  26  31
ATOM     31  O   UNL     1     -16.610   4.089  17.735  1.00  0.00    -0.384 OA
ATOM     32  H   UNL     1     -15.632   4.049  17.902  1.00  0.00     0.211 HD
ENDBRANCH  26  31
BRANCH  28  33
ATOM     33  O   UNL     1     -16.471   0.644  16.583  1.00  0.00    -0.387 OA
ATOM     34  H   UNL     1     -17.103   0.199  17.205  1.00  0.00     0.211 HD
ENDBRANCH  28  33
BRANCH  29  35
ATOM     35  C   UNL     1     -14.528   1.540  14.265  1.00  0.00     0.191 C 
BRANCH  35  36
ATOM     36  O   UNL     1     -14.073   0.326  14.800  1.00  0.00    -0.394 OA
ATOM     37  H   UNL     1     -14.525   0.207  15.674  1.00  0.00     0.210 HD
ENDBRANCH  35  36
ENDBRANCH  29  35
BRANCH  30  38
ATOM     38  O   UNL     1     -13.752   1.004  16.974  1.00  0.00    -0.387 OA
ATOM     39  H   UNL     1     -12.881   1.337  17.317  1.00  0.00     0.211 HD
ENDBRANCH  30  38
ENDBRANCH   1  25
TORSDOF 11
ENDMDL
MODEL 4
REMARK VINA RESULT:    34.111      8.072     11.816
REMARK INTER + INTRA:          49.381
REMARK INTER:                  43.242
REMARK INTRA:                   6.139
REMARK UNBOUND:                 0.313
REMARK SMILES O=c1c(O[C@@H]2O[C@H](CO)[C@H](O)[C@H](O)[C@H]2O)c(-c2ccc(O)cc2)oc2cc(O)cc(O)c12
REMARK SMILES IDX 4 1 3 2 16 3 24 4 2 5 25 6 1 7 32 8 26 9 30 10 27 11 29 12
REMARK SMILES IDX 17 13 18 14 19 15 20 16 23 17 22 18 21 19 31 21 28 23 5 25
REMARK SMILES IDX 14 26 6 27 12 28 7 29 10 30 15 31 13 33 8 35 9 36 11 38
REMARK H PARENT 21 20 31 22 28 24 15 32 13 34 9 37 11 39
REMARK Flexibility Score: inf
ROOT
ATOM      1  O   UNL     1     -20.429  -8.497  10.880  1.00  0.00    -0.454 OA
ENDROOT
BRANCH   1   2
ATOM      2  C   UNL     1     -19.752  -8.372  12.110  1.00  0.00     0.214 A 
ATOM      3  C   UNL     1     -19.391  -7.086  12.549  1.00  0.00     0.180 A 
ATOM      4  O   UNL     1     -18.826  -6.919  13.737  1.00  0.00    -0.452 OA
ATOM      5  C   UNL     1     -19.442  -9.474  12.938  1.00  0.00     0.239 A 
ATOM      6  C   UNL     1     -18.523  -7.923  14.549  1.00  0.00     0.146 A 
ATOM      7  O   UNL     1     -19.778 -10.631  12.580  1.00  0.00    -0.285 OA
ATOM      8  C   UNL     1     -18.774  -9.266  14.170  1.00  0.00     0.111 A 
ATOM      9  C   UNL     1     -17.954  -7.627  15.790  1.00  0.00     0.094 A 
ATOM     10  C   UNL     1     -18.376 -10.308  15.063  1.00  0.00     0.134 A 
ATOM     11  C   UNL     1     -17.628  -8.648  16.679  1.00  0.00     0.123 A 
ATOM     12  C   UNL     1     -17.843  -9.979  16.315  1.00  0.00     0.093 A 
BRANCH   3  13
ATOM     13  C   UNL     1     -19.673  -5.880  11.740  1.00  0.00     0.021 A 
ATOM     14  C   UNL     1     -19.269  -5.794  10.398  1.00  0.00     0.016 A 
ATOM     15  C   UNL     1     -19.539  -4.643   9.650  1.00  0.00     0.047 A 
ATOM     16  C   UNL     1     -20.198  -3.561  10.241  1.00  0.00     0.115 A 
ATOM     17  C   UNL     1     -20.313  -4.781  12.335  1.00  0.00     0.016 A 
ATOM     18  C   UNL     1     -20.581  -3.631  11.587  1.00  0.00     0.047 A 
BRANCH  16  19
ATOM     19  O   UNL     1     -20.461  -2.421   9.484  1.00  0.00    -0.508 OA
ATOM     20  H   UNL     1     -20.974  -2.471   8.612  1.00  0.00     0.293 HD
ENDBRANCH  16  19
ENDBRANCH   3  13
BRANCH  10  21
ATOM     21  O   UNL     1     -18.456 -11.671  14.759  1.00  0.00    -0.507 OA
ATOM     22  H   UNL     1     -17.670 -12.248  14.499  1.00  0.00     0.293 HD
ENDBRANCH  10  21
BRANCH  11  23
ATOM     23  O   UNL     1     -17.083  -8.329  17.921  1.00  0.00    -0.508 OA
ATOM     24  H   UNL     1     -16.166  -7.906  18.004  1.00  0.00     0.293 HD
ENDBRANCH  11  23
ENDBRANCH   1   2
BRANCH   1  25
ATOM     25  C   UNL     1     -19.836  -8.412   9.581  1.00  0.00     0.339 C 
ATOM     26  C   UNL     1     -18.303  -8.394   9.692  1.00  0.00     0.214 C 
ATOM     27  O   UNL     1     -20.325  -9.423   8.706  1.00  0.00    -0.332 OA
ATOM     28  C   UNL     1     -17.761  -9.776  10.087  1.00  0.00     0.180 C 
ATOM     29  C   UNL     1     -19.865 -10.740   8.997  1.00  0.00     0.179 C 
ATOM     30  C   UNL     1     -18.324 -10.837   9.134  1.00  0.00     0.177 C 
BRANCH  26  31
ATOM     31  O   UNL     1     -17.759  -7.997   8.459  1.00  0.00    -0.384 OA
ATOM     32  H   UNL     1     -17.550  -8.826   7.955  1.00  0.00     0.211 HD
ENDBRANCH  26  31
BRANCH  28  33
ATOM     33  O   UNL     1     -18.096 -10.083  11.416  1.00  0.00    -0.387 OA
ATOM     34  H   UNL     1     -17.555 -10.875  11.673  1.00  0.00     0.211 HD
ENDBRANCH  28  33
BRANCH  29  35
ATOM     35  C   UNL     1     -20.659 -11.407  10.139  1.00  0.00     0.191 C 
BRANCH  35  36
ATOM     36  O   UNL     1     -21.739 -10.596  10.519  1.00  0.00    -0.394 OA
ATOM     37  H   UNL     1     -21.523 -10.227  11.413  1.00  0.00     0.210 HD
ENDBRANCH  35  36
ENDBRANCH  29  35
BRANCH  30  38
ATOM     38  O   UNL     1     -17.945 -12.125   9.548  1.00  0.00    -0.387 OA
ATOM     39  H   UNL     1     -17.715 -12.636   8.728  1.00  0.00     0.211 HD
ENDBRANCH  30  38
ENDBRANCH   1  25
TORSDOF 11
ENDMDL
MODEL 5
REMARK VINA RESULT:    34.194      1.866      6.637
REMARK INTER + INTRA:          49.499
REMARK INTER:                  48.933
REMARK INTRA:                   0.566
REMARK UNBOUND:                 0.313
REMARK SMILES O=c1c(O[C@@H]2O[C@H](CO)[C@H](O)[C@H](O)[C@H]2O)c(-c2ccc(O)cc2)oc2cc(O)cc(O)c12
REMARK SMILES IDX 4 1 3 2 16 3 24 4 2 5 25 6 1 7 32 8 26 9 30 10 27 11 29 12
REMARK SMILES IDX 17 13 18 14 19 15 20 16 23 17 22 18 21 19 31 21 28 23 5 25
REMARK SMILES IDX 14 26 6 27 12 28 7 29 10 30 15 31 13 33 8 35 9 36 11 38
REMARK H PARENT 21 20 31 22 28 24 15 32 13 34 9 37 11 39
REMARK Flexibility Score: inf
ROOT
ATOM      1  O   UNL     1     -17.016   2.380  14.497  1.00  0.00    -0.454 OA
ENDROOT
BRANCH   1   2
ATOM      2  C   UNL     1     -18.336   2.496  14.014  1.00  0.00     0.214 A 
ATOM      3  C   UNL     1     -18.995   1.333  13.577  1.00  0.00     0.180 A 
ATOM      4  O   UNL     1     -20.263   1.389  13.193  1.00  0.00    -0.452 OA
ATOM      5  C   UNL     1     -19.039   3.721  13.974  1.00  0.00     0.239 A 
ATOM      6  C   UNL     1     -20.963   2.514  13.145  1.00  0.00     0.146 A 
ATOM      7  O   UNL     1     -18.480   4.769  14.383  1.00  0.00    -0.285 OA
ATOM      8  C   UNL     1     -20.370   3.755  13.491  1.00  0.00     0.111 A 
ATOM      9  C   UNL     1     -22.302   2.450  12.751  1.00  0.00     0.094 A 
ATOM     10  C   UNL     1     -21.158   4.940  13.368  1.00  0.00     0.134 A 
ATOM     11  C   UNL     1     -23.078   3.604  12.695  1.00  0.00     0.123 A 
ATOM     12  C   UNL     1     -22.507   4.839  13.006  1.00  0.00     0.093 A 
BRANCH   3  13
ATOM     13  C   UNL     1     -18.329   0.013  13.581  1.00  0.00     0.021 A 
ATOM     14  C   UNL     1     -17.122  -0.194  12.892  1.00  0.00     0.016 A 
ATOM     15  C   UNL     1     -16.511  -1.452  12.902  1.00  0.00     0.047 A 
ATOM     16  C   UNL     1     -17.105  -2.518  13.583  1.00  0.00     0.115 A 
ATOM     17  C   UNL     1     -18.934  -1.066  14.243  1.00  0.00     0.016 A 
ATOM     18  C   UNL     1     -18.322  -2.323  14.251  1.00  0.00     0.047 A 
BRANCH  16  19
ATOM     19  O   UNL     1     -16.484  -3.765  13.585  1.00  0.00    -0.508 OA
ATOM     20  H   UNL     1     -16.089  -4.161  12.740  1.00  0.00     0.293 HD
ENDBRANCH  16  19
ENDBRANCH   3  13
BRANCH  10  21
ATOM     21  O   UNL     1     -20.660   6.233  13.560  1.00  0.00    -0.507 OA
ATOM     22  H   UNL     1     -20.562   6.683  14.457  1.00  0.00     0.293 HD
ENDBRANCH  10  21
BRANCH  11  23
ATOM     23  O   UNL     1     -24.418   3.513  12.321  1.00  0.00    -0.508 OA
ATOM     24  H   UNL     1     -25.136   3.251  12.985  1.00  0.00     0.293 HD
ENDBRANCH  11  23
ENDBRANCH   1   2
BRANCH   1  25
ATOM     25  C   UNL     1     -16.515   1.330  15.329  1.00  0.00     0.339 C 
ATOM     26  C   UNL     1     -15.030   1.070  15.029  1.00  0.00     0.214 C 
ATOM     27  O   UNL     1     -16.776   1.573  16.708  1.00  0.00    -0.332 OA
ATOM     28  C   UNL     1     -14.150   2.209  15.565  1.00  0.00     0.180 C 
ATOM     29  C   UNL     1     -15.996   2.614  17.289  1.00  0.00     0.179 C 
ATOM     30  C   UNL     1     -14.474   2.452  17.044  1.00  0.00     0.177 C 
BRANCH  26  31
ATOM     31  O   UNL     1     -14.650  -0.149  15.615  1.00  0.00    -0.384 OA
ATOM     32  H   UNL     1     -14.012  -0.583  14.989  1.00  0.00     0.211 HD
ENDBRANCH  26  31
BRANCH  28  33
ATOM     33  O   UNL     1     -14.345   3.384  14.820  1.00  0.00    -0.387 OA
ATOM     34  H   UNL     1     -13.685   4.048  15.151  1.00  0.00     0.211 HD
ENDBRANCH  28  33
BRANCH  29  35
ATOM     35  C   UNL     1     -16.555   4.018  16.981  1.00  0.00     0.191 C 
BRANCH  35  36
ATOM     36  O   UNL     1     -17.277   4.507  18.080  1.00  0.00    -0.394 OA
ATOM     37  H   UNL     1     -17.420   3.743  18.695  1.00  0.00     0.210 HD
ENDBRANCH  35  36
ENDBRANCH  29  35
BRANCH  30  38
ATOM     38  O   UNL     1     -13.774   3.572  17.525  1.00  0.00    -0.387 OA
ATOM     39  H   UNL     1     -14.335   3.978  18.238  1.00  0.00     0.211 HD
ENDBRANCH  30  38
ENDBRANCH   1  25
TORSDOF 11
ENDMDL
MODEL 6
REMARK VINA RESULT:    34.296      0.969      1.781
REMARK INTER + INTRA:          49.647
REMARK INTER:                  50.404
REMARK INTRA:                  -0.757
REMARK UNBOUND:                 0.313
REMARK SMILES O=c1c(O[C@@H]2O[C@H](CO)[C@H](O)[C@H](O)[C@H]2O)c(-c2ccc(O)cc2)oc2cc(O)cc(O)c12
REMARK SMILES IDX 4 1 3 2 16 3 24 4 2 5 25 6 1 7 32 8 26 9 30 10 27 11 29 12
REMARK SMILES IDX 17 13 18 14 19 15 20 16 23 17 22 18 21 19 31 21 28 23 5 25
REMARK SMILES IDX 14 26 6 27 12 28 7 29 10 30 15 31 13 33 8 35 9 36 11 38
REMARK H PARENT 21 20 31 22 28 24 15 32 13 34 9 37 11 39
REMARK Flexibility Score: inf
ROOT
ATOM      1  O   UNL     1     -18.060   2.267  14.649  1.00  0.00    -0.454 OA
ENDROOT
BRANCH   1   2
ATOM      2  C   UNL     1     -16.889   1.675  15.166  1.00  0.00     0.214 A 
ATOM      3  C   UNL     1     -16.699   0.294  14.982  1.00  0.00     0.180 A 
ATOM      4  O   UNL     1     -15.574  -0.284  15.381  1.00  0.00    -0.452 OA
ATOM      5  C   UNL     1     -15.884   2.407  15.838  1.00  0.00     0.239 A 
ATOM      6  C   UNL     1     -14.603   0.364  16.009  1.00  0.00     0.146 A 
ATOM      7  O   UNL     1     -16.020   3.646  15.991  1.00  0.00    -0.285 OA
ATOM      8  C   UNL     1     -14.727   1.743  16.314  1.00  0.00     0.111 A 
ATOM      9  C   UNL     1     -13.449  -0.342  16.360  1.00  0.00     0.094 A 
ATOM     10  C   UNL     1     -13.671   2.375  17.040  1.00  0.00     0.134 A 
ATOM     11  C   UNL     1     -12.399   0.299  17.011  1.00  0.00     0.123 A 
ATOM     12  C   UNL     1     -12.512   1.651  17.344  1.00  0.00     0.093 A 
BRANCH   3  13
ATOM     13  C   UNL     1     -17.704  -0.546  14.296  1.00  0.00     0.021 A 
ATOM     14  C   UNL     1     -18.995  -0.711  14.823  1.00  0.00     0.016 A 
ATOM     15  C   UNL     1     -19.931  -1.515  14.164  1.00  0.00     0.047 A 
ATOM     16  C   UNL     1     -19.581  -2.174  12.982  1.00  0.00     0.115 A 
ATOM     17  C   UNL     1     -17.351  -1.229  13.122  1.00  0.00     0.016 A 
ATOM     18  C   UNL     1     -18.287  -2.033  12.464  1.00  0.00     0.047 A 
BRANCH  16  19
ATOM     19  O   UNL     1     -20.524  -2.970  12.334  1.00  0.00    -0.508 OA
ATOM     20  H   UNL     1     -20.320  -3.417  11.448  1.00  0.00     0.293 HD
ENDBRANCH  16  19
ENDBRANCH   3  13
BRANCH  10  21
ATOM     21  O   UNL     1     -13.722   3.692  17.506  1.00  0.00    -0.507 OA
ATOM     22  H   UNL     1     -14.569   4.178  17.761  1.00  0.00     0.293 HD
ENDBRANCH  10  21
BRANCH  11  23
ATOM     23  O   UNL     1     -11.248  -0.418  17.332  1.00  0.00    -0.508 OA
ATOM     24  H   UNL     1     -10.496  -0.539  16.664  1.00  0.00     0.293 HD
ENDBRANCH  11  23
ENDBRANCH   1   2
BRANCH   1  25
ATOM     25  C   UNL     1     -18.294   2.609  13.280  1.00  0.00     0.339 C 
ATOM     26  C   UNL     1     -19.492   1.819  12.728  1.00  0.00     0.214 C 
ATOM     27  O   UNL     1     -18.416   4.016  13.097  1.00  0.00    -0.332 OA
ATOM     28  C   UNL     1     -20.814   2.340  13.310  1.00  0.00     0.180 C 
ATOM     29  C   UNL     1     -19.620   4.584  13.604  1.00  0.00     0.179 C 
ATOM     30  C   UNL     1     -20.898   3.858  13.110  1.00  0.00     0.177 C 
BRANCH  26  31
ATOM     31  O   UNL     1     -19.506   1.927  11.327  1.00  0.00    -0.384 OA
ATOM     32  H   UNL     1     -20.245   1.350  11.001  1.00  0.00     0.211 HD
ENDBRANCH  26  31
BRANCH  28  33
ATOM     33  O   UNL     1     -20.921   2.019  14.674  1.00  0.00    -0.387 OA
ATOM     34  H   UNL     1     -19.995   1.963  15.030  1.00  0.00     0.211 HD
ENDBRANCH  28  33
BRANCH  29  35
ATOM     35  C   UNL     1     -19.565   4.832  15.125  1.00  0.00     0.191 C 
BRANCH  35  36
ATOM     36  O   UNL     1     -18.234   4.824  15.571  1.00  0.00    -0.394 OA
ATOM     37  H   UNL     1     -17.778   4.076  15.108  1.00  0.00     0.210 HD
ENDBRANCH  35  36
ENDBRANCH  29  35
BRANCH  30  38
ATOM     38  O   UNL     1     -22.038   4.378  13.745  1.00  0.00    -0.387 OA
ATOM     39  H   UNL     1     -22.671   4.646  13.027  1.00  0.00     0.211 HD
ENDBRANCH  30  38
ENDBRANCH   1  25
TORSDOF 11
ENDMDL
MODEL 7
REMARK VINA RESULT:    34.609      7.429     12.138
REMARK INTER + INTRA:          50.097
REMARK INTER:                  42.547
REMARK INTRA:                   7.550
REMARK UNBOUND:                 0.313
REMARK SMILES O=c1c(O[C@@H]2O[C@H](CO)[C@H](O)[C@H](O)[C@H]2O)c(-c2ccc(O)cc2)oc2cc(O)cc(O)c12
REMARK SMILES IDX 4 1 3 2 16 3 24 4 2 5 25 6 1 7 32 8 26 9 30 10 27 11 29 12
REMARK SMILES IDX 17 13 18 14 19 15 20 16 23 17 22 18 21 19 31 21 28 23 5 25
REMARK SMILES IDX 14 26 6 27 12 28 7 29 10 30 15 31 13 33 8 35 9 36 11 38
REMARK H PARENT 21 20 31 22 28 24 15 32 13 34 9 37 11 39
REMARK Flexibility Score: inf
ROOT
ATOM      1  O   UNL     1     -18.086  -9.470  10.392  1.00  0.00    -0.454 OA
ENDROOT
BRANCH   1   2
ATOM      2  C   UNL     1     -18.524  -8.155  10.649  1.00  0.00     0.214 A 
ATOM      3  C   UNL     1     -19.512  -7.603   9.814  1.00  0.00     0.180 A 
ATOM      4  O   UNL     1     -20.009  -6.401  10.071  1.00  0.00    -0.452 OA
ATOM      5  C   UNL     1     -18.040  -7.374  11.722  1.00  0.00     0.239 A 
ATOM      6  C   UNL     1     -19.589  -5.635  11.070  1.00  0.00     0.146 A 
ATOM      7  O   UNL     1     -17.177  -7.856  12.497  1.00  0.00    -0.285 OA
ATOM      8  C   UNL     1     -18.543  -6.065  11.926  1.00  0.00     0.111 A 
ATOM      9  C   UNL     1     -20.204  -4.397  11.265  1.00  0.00     0.094 A 
ATOM     10  C   UNL     1     -18.097  -5.176  12.950  1.00  0.00     0.134 A 
ATOM     11  C   UNL     1     -19.804  -3.564  12.306  1.00  0.00     0.123 A 
ATOM     12  C   UNL     1     -18.758  -3.957  13.144  1.00  0.00     0.093 A 
BRANCH   3  13
ATOM     13  C   UNL     1     -20.067  -8.350   8.665  1.00  0.00     0.021 A 
ATOM     14  C   UNL     1     -19.443  -9.513   8.184  1.00  0.00     0.016 A 
ATOM     15  C   UNL     1     -19.980 -10.203   7.092  1.00  0.00     0.047 A 
ATOM     16  C   UNL     1     -21.134  -9.730   6.460  1.00  0.00     0.115 A 
ATOM     17  C   UNL     1     -21.212  -7.867   8.012  1.00  0.00     0.016 A 
ATOM     18  C   UNL     1     -21.747  -8.557   6.920  1.00  0.00     0.047 A 
BRANCH  16  19
ATOM     19  O   UNL     1     -21.658 -10.429   5.375  1.00  0.00    -0.508 OA
ATOM     20  H   UNL     1     -22.359 -11.150   5.498  1.00  0.00     0.293 HD
ENDBRANCH  16  19
ENDBRANCH   3  13
BRANCH  10  21
ATOM     21  O   UNL     1     -16.999  -5.427  13.780  1.00  0.00    -0.507 OA
ATOM     22  H   UNL     1     -16.594  -4.756  14.415  1.00  0.00     0.293 HD
ENDBRANCH  10  21
BRANCH  11  23
ATOM     23  O   UNL     1     -20.446  -2.342  12.495  1.00  0.00    -0.508 OA
ATOM     24  H   UNL     1     -20.031  -1.472  12.185  1.00  0.00     0.293 HD
ENDBRANCH  11  23
ENDBRANCH   1   2
BRANCH   1  25
ATOM     25  C   UNL     1     -17.876 -10.493  11.371  1.00  0.00     0.339 C 
ATOM     26  C   UNL     1     -18.275  -9.988  12.767  1.00  0.00     0.214 C 
ATOM     27  O   UNL     1     -18.515 -11.713  11.010  1.00  0.00    -0.332 OA
ATOM     28  C   UNL     1     -19.801  -9.873  12.898  1.00  0.00     0.180 C 
ATOM     29  C   UNL     1     -19.936 -11.697  11.109  1.00  0.00     0.179 C 
ATOM     30  C   UNL     1     -20.451 -11.199  12.484  1.00  0.00     0.177 C 
BRANCH  26  31
ATOM     31  O   UNL     1     -17.773 -10.874  13.735  1.00  0.00    -0.384 OA
ATOM     32  H   UNL     1     -17.000 -11.343  13.324  1.00  0.00     0.211 HD
ENDBRANCH  26  31
BRANCH  28  33
ATOM     33  O   UNL     1     -20.293  -8.819  12.111  1.00  0.00    -0.387 OA
ATOM     34  H   UNL     1     -19.742  -8.020  12.322  1.00  0.00     0.211 HD
ENDBRANCH  28  33
BRANCH  29  35
ATOM     35  C   UNL     1     -20.609 -11.036   9.889  1.00  0.00     0.191 C 
BRANCH  35  36
ATOM     36  O   UNL     1     -21.692 -10.244  10.299  1.00  0.00    -0.394 OA
ATOM     37  H   UNL     1     -22.244 -10.069   9.494  1.00  0.00     0.210 HD
ENDBRANCH  35  36
ENDBRANCH  29  35
BRANCH  30  38
ATOM     38  O   UNL     1     -21.851 -11.081  12.474  1.00  0.00    -0.387 OA
ATOM     39  H   UNL     1     -22.162 -11.418  11.593  1.00  0.00     0.211 HD
ENDBRANCH  30  38
ENDBRANCH   1  25
TORSDOF 11
ENDMDL
MODEL 8
REMARK VINA RESULT:    34.706      3.079      6.785
REMARK INTER + INTRA:          50.237
REMARK INTER:                  50.434
REMARK INTRA:                  -0.197
REMARK UNBOUND:                 0.313
REMARK SMILES O=c1c(O[C@@H]2O[C@H](CO)[C@H](O)[C@H](O)[C@H]2O)c(-c2ccc(O)cc2)oc2cc(O)cc(O)c12
REMARK SMILES IDX 4 1 3 2 16 3 24 4 2 5 25 6 1 7 32 8 26 9 30 10 27 11 29 12
REMARK SMILES IDX 17 13 18 14 19 15 20 16 23 17 22 18 21 19 31 21 28 23 5 25
REMARK SMILES IDX 14 26 6 27 12 28 7 29 10 30 15 31 13 33 8 35 9 36 11 38
REMARK H PARENT 21 20 31 22 28 24 15 32 13 34 9 37 11 39
REMARK Flexibility Score: inf
ROOT
ATOM      1  O   UNL     1     -17.466   3.637  17.850  1.00  0.00    -0.454 OA
ENDROOT
BRANCH   1   2
ATOM      2  C   UNL     1     -17.835   3.340  16.522  1.00  0.00     0.214 A 
ATOM      3  C   UNL     1     -16.961   2.562  15.742  1.00  0.00     0.180 A 
ATOM      4  O   UNL     1     -17.308   2.192  14.517  1.00  0.00    -0.452 OA
ATOM      5  C   UNL     1     -19.053   3.762  15.944  1.00  0.00     0.239 A 
ATOM      6  C   UNL     1     -18.443   2.561  13.937  1.00  0.00     0.146 A 
ATOM      7  O   UNL     1     -19.862   4.437  16.630  1.00  0.00    -0.285 OA
ATOM      8  C   UNL     1     -19.360   3.409  14.607  1.00  0.00     0.111 A 
ATOM      9  C   UNL     1     -18.718   2.089  12.652  1.00  0.00     0.094 A 
ATOM     10  C   UNL     1     -20.540   3.815  13.912  1.00  0.00     0.134 A 
ATOM     11  C   UNL     1     -19.901   2.440  12.008  1.00  0.00     0.123 A 
ATOM     12  C   UNL     1     -20.806   3.296  12.639  1.00  0.00     0.093 A 
BRANCH   3  13
ATOM     13  C   UNL     1     -15.664   2.084  16.268  1.00  0.00     0.021 A 
ATOM     14  C   UNL     1     -14.736   2.975  16.832  1.00  0.00     0.016 A 
ATOM     15  C   UNL     1     -13.511   2.505  17.318  1.00  0.00     0.047 A 
ATOM     16  C   UNL     1     -13.195   1.147  17.231  1.00  0.00     0.115 A 
ATOM     17  C   UNL     1     -15.331   0.724  16.161  1.00  0.00     0.016 A 
ATOM     18  C   UNL     1     -14.107   0.257  16.647  1.00  0.00     0.047 A 
BRANCH  16  19
ATOM     19  O   UNL     1     -11.972   0.692  17.721  1.00  0.00    -0.508 OA
ATOM     20  H   UNL     1     -11.806  -0.291  17.900  1.00  0.00     0.293 HD
ENDBRANCH  16  19
ENDBRANCH   3  13
BRANCH  10  21
ATOM     21  O   UNL     1     -21.462   4.741  14.412  1.00  0.00    -0.507 OA
ATOM     22  H   UNL     1     -21.910   4.676  15.313  1.00  0.00     0.293 HD
ENDBRANCH  10  21
BRANCH  11  23
ATOM     23  O   UNL     1     -20.166   1.940  10.734  1.00  0.00    -0.508 OA
ATOM     24  H   UNL     1     -21.114   1.795  10.409  1.00  0.00     0.293 HD
ENDBRANCH  11  23
ENDBRANCH   1   2
BRANCH   1  25
ATOM     25  C   UNL     1     -16.803   4.825  18.293  1.00  0.00     0.339 C 
ATOM     26  C   UNL     1     -17.753   6.031  18.212  1.00  0.00     0.214 C 
ATOM     27  O   UNL     1     -16.214   4.658  19.578  1.00  0.00    -0.332 OA
ATOM     28  C   UNL     1     -18.828   5.963  19.307  1.00  0.00     0.180 C 
ATOM     29  C   UNL     1     -17.143   4.590  20.658  1.00  0.00     0.179 C 
ATOM     30  C   UNL     1     -18.155   5.764  20.671  1.00  0.00     0.177 C 
BRANCH  26  31
ATOM     31  O   UNL     1     -17.005   7.213  18.343  1.00  0.00    -0.384 OA
ATOM     32  H   UNL     1     -16.234   7.137  17.723  1.00  0.00     0.211 HD
ENDBRANCH  26  31
BRANCH  28  33
ATOM     33  O   UNL     1     -19.736   4.922  19.052  1.00  0.00    -0.387 OA
ATOM     34  H   UNL     1     -19.293   4.078  19.331  1.00  0.00     0.211 HD
ENDBRANCH  28  33
BRANCH  29  35
ATOM     35  C   UNL     1     -17.772   3.191  20.812  1.00  0.00     0.191 C 
BRANCH  35  36
ATOM     36  O   UNL     1     -18.191   2.989  22.137  1.00  0.00    -0.394 OA
ATOM     37  H   UNL     1     -17.704   3.647  22.697  1.00  0.00     0.210 HD
ENDBRANCH  35  36
ENDBRANCH  29  35
BRANCH  30  38
ATOM     38  O   UNL     1     -19.121   5.572  21.674  1.00  0.00    -0.387 OA
ATOM     39  H   UNL     1     -19.997   5.472  21.216  1.00  0.00     0.211 HD
ENDBRANCH  30  38
ENDBRANCH   1  25
TORSDOF 11
ENDMDL
