MODEL 1
REMARK VINA RESULT:    -4.778      0.000      0.000
REMARK INTER + INTRA:         -12.500
REMARK INTER:                 -10.365
REMARK INTRA:                  -2.135
REMARK UNBOUND:                -2.135
REMARK SMILES CCCCCCCCCCCCCCCCCCCCCC(=O)[O-]
REMARK SMILES IDX 12 1 11 2 10 3 9 4 8 5 7 6 6 7 5 8 4 9 3 10 2 11 1 12 13 13
REMARK SMILES IDX 14 14 15 15 16 16 17 17 18 18 19 19 20 20 21 21 22 22 23 23
REMARK SMILES IDX 24 24
REMARK H PARENT
REMARK Flexibility Score: inf
ROOT
ATOM      1  C   UNL     1       3.106  79.445  66.530  1.00  0.00     0.000 C 
ENDROOT
BRANCH   1   2
ATOM      2  C   UNL     1       3.833  79.756  67.852  1.00  0.00     0.000 C 
BRANCH   2   3
ATOM      3  C   UNL     1       3.946  78.536  68.778  1.00  0.00     0.000 C 
BRANCH   3   4
ATOM      4  C   UNL     1       5.111  77.629  68.351  1.00  0.00    -0.000 C 
BRANCH   4   5
ATOM      5  C   UNL     1       6.383  78.431  68.004  1.00  0.00    -0.000 C 
BRANCH   5   6
ATOM      6  C   UNL     1       7.108  77.925  66.744  1.00  0.00    -0.000 C 
BRANCH   6   7
ATOM      7  C   UNL     1       6.276  76.912  65.945  1.00  0.00    -0.000 C 
BRANCH   7   8
ATOM      8  C   UNL     1       6.005  77.381  64.505  1.00  0.00    -0.000 C 
BRANCH   8   9
ATOM      9  C   UNL     1       7.014  78.438  64.031  1.00  0.00    -0.000 C 
BRANCH   9  10
ATOM     10  C   UNL     1       6.730  78.858  62.582  1.00  0.00    -0.000 C 
BRANCH  10  11
ATOM     11  C   UNL     1       5.258  79.240  62.354  1.00  0.00    -0.003 C 
ATOM     12  C   UNL     1       5.092  80.660  61.809  1.00  0.00     0.004 C 
ENDBRANCH  10  11
ENDBRANCH   9  10
ENDBRANCH   8   9
ENDBRANCH   7   8
ENDBRANCH   6   7
ENDBRANCH   5   6
ENDBRANCH   4   5
ENDBRANCH   3   4
ENDBRANCH   2   3
ENDBRANCH   1   2
BRANCH   1  13
ATOM     13  C   UNL     1       3.497  80.347  65.345  1.00  0.00     0.000 C 
BRANCH  13  14
ATOM     14  C   UNL     1       2.884  81.752  65.430  1.00  0.00     0.000 C 
BRANCH  14  15
ATOM     15  C   UNL     1       3.539  82.699  64.413  1.00  0.00     0.000 C 
BRANCH  15  16
ATOM     16  C   UNL     1       3.058  84.151  64.554  1.00  0.00     0.000 C 
BRANCH  16  17
ATOM     17  C   UNL     1       4.125  85.174  64.130  1.00  0.00     0.000 C 
BRANCH  17  18
ATOM     18  C   UNL     1       4.844  84.761  62.826  1.00  0.00     0.000 C 
BRANCH  18  19
ATOM     19  C   UNL     1       4.741  85.812  61.703  1.00  0.00     0.000 C 
BRANCH  19  20
ATOM     20  C   UNL     1       4.055  87.127  62.112  1.00  0.00     0.006 C 
BRANCH  20  21
ATOM     21  C   UNL     1       4.171  88.217  61.036  1.00  0.00     0.053 C 
BRANCH  21  22
ATOM     22  C   UNL     1       3.223  89.340  61.318  1.00  0.00     0.041 C 
ATOM     23  O   UNL     1       2.944  90.177  60.419  1.00  0.00    -0.550 OA
ATOM     24  O   UNL     1       2.646  89.465  62.578  1.00  0.00    -0.550 OA
ENDBRANCH  21  22
ENDBRANCH  20  21
ENDBRANCH  19  20
ENDBRANCH  18  19
ENDBRANCH  17  18
ENDBRANCH  16  17
ENDBRANCH  15  16
ENDBRANCH  14  15
ENDBRANCH  13  14
ENDBRANCH   1  13
TORSDOF 20
ENDMDL
MODEL 2
REMARK VINA RESULT:    -4.741      3.447      7.474
REMARK INTER + INTRA:         -12.419
REMARK INTER:                  -9.595
REMARK INTRA:                  -2.823
REMARK UNBOUND:                -2.135
REMARK SMILES CCCCCCCCCCCCCCCCCCCCCC(=O)[O-]
REMARK SMILES IDX 12 1 11 2 10 3 9 4 8 5 7 6 6 7 5 8 4 9 3 10 2 11 1 12 13 13
REMARK SMILES IDX 14 14 15 15 16 16 17 17 18 18 19 19 20 20 21 21 22 22 23 23
REMARK SMILES IDX 24 24
REMARK H PARENT
REMARK Flexibility Score: inf
ROOT
ATOM      1  C   UNL     1       3.344  79.354  67.090  1.00  0.00     0.000 C 
ENDROOT
BRANCH   1   2
ATOM      2  C   UNL     1       3.859  79.963  65.772  1.00  0.00     0.000 C 
BRANCH   2   3
ATOM      3  C   UNL     1       2.784  80.027  64.678  1.00  0.00     0.000 C 
BRANCH   3   4
ATOM      4  C   UNL     1       3.316  79.466  63.351  1.00  0.00    -0.000 C 
BRANCH   4   5
ATOM      5  C   UNL     1       3.177  80.471  62.189  1.00  0.00    -0.000 C 
BRANCH   5   6
ATOM      6  C   UNL     1       4.504  81.140  61.787  1.00  0.00    -0.000 C 
BRANCH   6   7
ATOM      7  C   UNL     1       4.433  82.674  61.831  1.00  0.00    -0.000 C 
BRANCH   7   8
ATOM      8  C   UNL     1       3.424  83.186  62.872  1.00  0.00    -0.000 C 
BRANCH   8   9
ATOM      9  C   UNL     1       4.109  83.734  64.135  1.00  0.00    -0.000 C 
BRANCH   9  10
ATOM     10  C   UNL     1       4.210  85.265  64.084  1.00  0.00    -0.000 C 
BRANCH  10  11
ATOM     11  C   UNL     1       3.379  85.876  62.943  1.00  0.00    -0.003 C 
ATOM     12  C   UNL     1       4.130  86.973  62.186  1.00  0.00     0.004 C 
ENDBRANCH  10  11
ENDBRANCH   9  10
ENDBRANCH   8   9
ENDBRANCH   7   8
ENDBRANCH   6   7
ENDBRANCH   5   6
ENDBRANCH   4   5
ENDBRANCH   3   4
ENDBRANCH   2   3
ENDBRANCH   1   2
BRANCH   1  13
ATOM     13  C   UNL     1       4.291  79.510  68.293  1.00  0.00     0.000 C 
BRANCH  13  14
ATOM     14  C   UNL     1       5.182  78.280  68.522  1.00  0.00     0.000 C 
BRANCH  14  15
ATOM     15  C   UNL     1       6.567  78.482  67.891  1.00  0.00     0.000 C 
BRANCH  15  16
ATOM     16  C   UNL     1       7.021  77.278  67.051  1.00  0.00     0.000 C 
BRANCH  16  17
ATOM     17  C   UNL     1       5.863  76.621  66.281  1.00  0.00     0.000 C 
BRANCH  17  18
ATOM     18  C   UNL     1       5.793  77.098  64.813  1.00  0.00     0.000 C 
BRANCH  18  19
ATOM     19  C   UNL     1       7.108  77.719  64.302  1.00  0.00     0.000 C 
BRANCH  19  20
ATOM     20  C   UNL     1       6.930  78.962  63.413  1.00  0.00     0.006 C 
BRANCH  20  21
ATOM     21  C   UNL     1       8.182  79.285  62.583  1.00  0.00     0.053 C 
BRANCH  21  22
ATOM     22  C   UNL     1       7.820  79.526  61.152  1.00  0.00     0.041 C 
ATOM     23  O   UNL     1       6.990  78.777  60.572  1.00  0.00    -0.550 OA
ATOM     24  O   UNL     1       8.400  80.581  60.455  1.00  0.00    -0.550 OA
ENDBRANCH  21  22
ENDBRANCH  20  21
ENDBRANCH  19  20
ENDBRANCH  18  19
ENDBRANCH  17  18
ENDBRANCH  16  17
ENDBRANCH  15  16
ENDBRANCH  14  15
ENDBRANCH  13  14
ENDBRANCH   1  13
TORSDOF 20
ENDMDL
MODEL 3
REMARK VINA RESULT:    -4.667      1.040      3.481
REMARK INTER + INTRA:         -12.259
REMARK INTER:                 -10.093
REMARK INTRA:                  -2.167
REMARK UNBOUND:                -2.135
REMARK SMILES CCCCCCCCCCCCCCCCCCCCCC(=O)[O-]
REMARK SMILES IDX 12 1 11 2 10 3 9 4 8 5 7 6 6 7 5 8 4 9 3 10 2 11 1 12 13 13
REMARK SMILES IDX 14 14 15 15 16 16 17 17 18 18 19 19 20 20 21 21 22 22 23 23
REMARK SMILES IDX 24 24
REMARK H PARENT
REMARK Flexibility Score: inf
ROOT
ATOM      1  C   UNL     1       3.531  80.106  64.308  1.00  0.00     0.000 C 
ENDROOT
BRANCH   1   2
ATOM      2  C   UNL     1       4.118  80.126  62.884  1.00  0.00     0.000 C 
BRANCH   2   3
ATOM      3  C   UNL     1       4.984  78.896  62.573  1.00  0.00     0.000 C 
BRANCH   3   4
ATOM      4  C   UNL     1       6.460  79.167  62.900  1.00  0.00    -0.000 C 
BRANCH   4   5
ATOM      5  C   UNL     1       6.999  78.233  64.004  1.00  0.00    -0.000 C 
BRANCH   5   6
ATOM      6  C   UNL     1       5.970  77.201  64.498  1.00  0.00    -0.000 C 
BRANCH   6   7
ATOM      7  C   UNL     1       6.035  76.977  66.017  1.00  0.00    -0.000 C 
BRANCH   7   8
ATOM      8  C   UNL     1       7.014  77.939  66.711  1.00  0.00    -0.000 C 
BRANCH   8   9
ATOM      9  C   UNL     1       6.444  78.518  68.015  1.00  0.00    -0.000 C 
BRANCH   9  10
ATOM     10  C   UNL     1       4.909  78.509  67.995  1.00  0.00    -0.000 C 
BRANCH  10  11
ATOM     11  C   UNL     1       4.301  79.827  68.500  1.00  0.00    -0.003 C 
ATOM     12  C   UNL     1       2.787  79.901  68.291  1.00  0.00     0.004 C 
ENDBRANCH  10  11
ENDBRANCH   9  10
ENDBRANCH   8   9
ENDBRANCH   7   8
ENDBRANCH   6   7
ENDBRANCH   5   6
ENDBRANCH   4   5
ENDBRANCH   3   4
ENDBRANCH   2   3
ENDBRANCH   1   2
BRANCH   1  13
ATOM     13  C   UNL     1       3.643  81.435  65.076  1.00  0.00     0.000 C 
BRANCH  13  14
ATOM     14  C   UNL     1       2.466  82.385  64.810  1.00  0.00     0.000 C 
BRANCH  14  15
ATOM     15  C   UNL     1       2.891  83.850  64.994  1.00  0.00     0.000 C 
BRANCH  15  16
ATOM     16  C   UNL     1       4.175  84.198  64.226  1.00  0.00     0.000 C 
BRANCH  16  17
ATOM     17  C   UNL     1       3.943  84.337  62.712  1.00  0.00     0.000 C 
BRANCH  17  18
ATOM     18  C   UNL     1       5.108  85.066  62.007  1.00  0.00     0.000 C 
BRANCH  18  19
ATOM     19  C   UNL     1       4.780  86.519  61.610  1.00  0.00     0.000 C 
BRANCH  19  20
ATOM     20  C   UNL     1       3.401  87.018  62.076  1.00  0.00     0.006 C 
BRANCH  20  21
ATOM     21  C   UNL     1       3.234  88.538  61.919  1.00  0.00     0.053 C 
BRANCH  21  22
ATOM     22  C   UNL     1       1.832  88.877  61.522  1.00  0.00     0.041 C 
ATOM     23  O   UNL     1       1.468  88.766  60.321  1.00  0.00    -0.550 OA
ATOM     24  O   UNL     1       0.924  89.317  62.479  1.00  0.00    -0.550 OA
ENDBRANCH  21  22
ENDBRANCH  20  21
ENDBRANCH  19  20
ENDBRANCH  18  19
ENDBRANCH  17  18
ENDBRANCH  16  17
ENDBRANCH  15  16
ENDBRANCH  14  15
ENDBRANCH  13  14
ENDBRANCH   1  13
TORSDOF 20
ENDMDL
MODEL 4
REMARK VINA RESULT:    -4.649      3.204      8.371
REMARK INTER + INTRA:         -12.220
REMARK INTER:                 -10.280
REMARK INTRA:                  -1.940
REMARK UNBOUND:                -2.135
REMARK SMILES CCCCCCCCCCCCCCCCCCCCCC(=O)[O-]
REMARK SMILES IDX 12 1 11 2 10 3 9 4 8 5 7 6 6 7 5 8 4 9 3 10 2 11 1 12 13 13
REMARK SMILES IDX 14 14 15 15 16 16 17 17 18 18 19 19 20 20 21 21 22 22 23 23
REMARK SMILES IDX 24 24
REMARK H PARENT
REMARK Flexibility Score: inf
ROOT
ATOM      1  C   UNL     1       4.899  79.390  63.896  1.00  0.00     0.000 C 
ENDROOT
BRANCH   1   2
ATOM      2  C   UNL     1       3.626  79.416  63.028  1.00  0.00     0.000 C 
BRANCH   2   3
ATOM      3  C   UNL     1       2.585  80.433  63.518  1.00  0.00     0.000 C 
BRANCH   3   4
ATOM      4  C   UNL     1       2.996  81.865  63.141  1.00  0.00    -0.000 C 
BRANCH   4   5
ATOM      5  C   UNL     1       3.646  82.619  64.319  1.00  0.00    -0.000 C 
BRANCH   5   6
ATOM      6  C   UNL     1       3.117  84.052  64.504  1.00  0.00    -0.000 C 
BRANCH   6   7
ATOM      7  C   UNL     1       4.184  85.121  64.222  1.00  0.00    -0.000 C 
BRANCH   7   8
ATOM      8  C   UNL     1       4.950  84.855  62.915  1.00  0.00    -0.000 C 
BRANCH   8   9
ATOM      9  C   UNL     1       4.536  85.810  61.785  1.00  0.00    -0.000 C 
BRANCH   9  10
ATOM     10  C   UNL     1       3.855  87.066  62.350  1.00  0.00    -0.000 C 
BRANCH  10  11
ATOM     11  C   UNL     1       3.876  88.245  61.364  1.00  0.00    -0.003 C 
ATOM     12  C   UNL     1       3.091  89.456  61.873  1.00  0.00     0.004 C 
ENDBRANCH  10  11
ENDBRANCH   9  10
ENDBRANCH   8   9
ENDBRANCH   7   8
ENDBRANCH   6   7
ENDBRANCH   5   6
ENDBRANCH   4   5
ENDBRANCH   3   4
ENDBRANCH   2   3
ENDBRANCH   1   2
BRANCH   1  13
ATOM     13  C   UNL     1       6.206  79.131  63.125  1.00  0.00     0.000 C 
BRANCH  13  14
ATOM     14  C   UNL     1       7.093  78.065  63.784  1.00  0.00     0.000 C 
BRANCH  14  15
ATOM     15  C   UNL     1       6.351  77.370  64.936  1.00  0.00     0.000 C 
BRANCH  15  16
ATOM     16  C   UNL     1       7.086  77.495  66.279  1.00  0.00     0.000 C 
BRANCH  16  17
ATOM     17  C   UNL     1       6.535  76.538  67.349  1.00  0.00     0.000 C 
BRANCH  17  18
ATOM     18  C   UNL     1       5.640  77.265  68.377  1.00  0.00     0.000 C 
BRANCH  18  19
ATOM     19  C   UNL     1       5.803  78.798  68.365  1.00  0.00     0.000 C 
BRANCH  19  20
ATOM     20  C   UNL     1       4.495  79.583  68.170  1.00  0.00     0.006 C 
BRANCH  20  21
ATOM     21  C   UNL     1       3.431  78.786  67.401  1.00  0.00     0.053 C 
BRANCH  21  22
ATOM     22  C   UNL     1       2.289  79.670  67.009  1.00  0.00     0.041 C 
ATOM     23  O   UNL     1       2.377  80.919  67.145  1.00  0.00    -0.550 OA
ATOM     24  O   UNL     1       1.122  79.114  66.495  1.00  0.00    -0.550 OA
ENDBRANCH  21  22
ENDBRANCH  20  21
ENDBRANCH  19  20
ENDBRANCH  18  19
ENDBRANCH  17  18
ENDBRANCH  16  17
ENDBRANCH  15  16
ENDBRANCH  14  15
ENDBRANCH  13  14
ENDBRANCH   1  13
TORSDOF 20
ENDMDL
MODEL 5
REMARK VINA RESULT:    -4.621      3.373      8.449
REMARK INTER + INTRA:         -12.160
REMARK INTER:                 -10.147
REMARK INTRA:                  -2.013
REMARK UNBOUND:                -2.135
REMARK SMILES CCCCCCCCCCCCCCCCCCCCCC(=O)[O-]
REMARK SMILES IDX 12 1 11 2 10 3 9 4 8 5 7 6 6 7 5 8 4 9 3 10 2 11 1 12 13 13
REMARK SMILES IDX 14 14 15 15 16 16 17 17 18 18 19 19 20 20 21 21 22 22 23 23
REMARK SMILES IDX 24 24
REMARK H PARENT
REMARK Flexibility Score: inf
ROOT
ATOM      1  C   UNL     1       3.425  80.720  65.776  1.00  0.00     0.000 C 
ENDROOT
BRANCH   1   2
ATOM      2  C   UNL     1       2.153  81.572  65.607  1.00  0.00     0.000 C 
BRANCH   2   3
ATOM      3  C   UNL     1       2.278  82.626  64.497  1.00  0.00     0.000 C 
BRANCH   3   4
ATOM      4  C   UNL     1       2.649  83.997  65.082  1.00  0.00    -0.000 C 
BRANCH   4   5
ATOM      5  C   UNL     1       3.942  84.569  64.463  1.00  0.00    -0.000 C 
BRANCH   5   6
ATOM      6  C   UNL     1       4.234  84.048  63.045  1.00  0.00    -0.000 C 
BRANCH   6   7
ATOM      7  C   UNL     1       5.045  85.042  62.201  1.00  0.00    -0.000 C 
BRANCH   7   8
ATOM      8  C   UNL     1       4.379  86.427  62.125  1.00  0.00    -0.000 C 
BRANCH   8   9
ATOM      9  C   UNL     1       2.994  86.377  61.461  1.00  0.00    -0.000 C 
BRANCH   9  10
ATOM     10  C   UNL     1       2.462  87.793  61.195  1.00  0.00    -0.000 C 
BRANCH  10  11
ATOM     11  C   UNL     1       3.286  88.879  61.907  1.00  0.00    -0.003 C 
ATOM     12  C   UNL     1       3.376  90.177  61.102  1.00  0.00     0.004 C 
ENDBRANCH  10  11
ENDBRANCH   9  10
ENDBRANCH   8   9
ENDBRANCH   7   8
ENDBRANCH   6   7
ENDBRANCH   5   6
ENDBRANCH   4   5
ENDBRANCH   3   4
ENDBRANCH   2   3
ENDBRANCH   1   2
BRANCH   1  13
ATOM     13  C   UNL     1       3.319  79.592  66.819  1.00  0.00     0.000 C 
BRANCH  13  14
ATOM     14  C   UNL     1       3.894  79.982  68.188  1.00  0.00     0.000 C 
BRANCH  14  15
ATOM     15  C   UNL     1       4.216  78.734  69.024  1.00  0.00     0.000 C 
BRANCH  15  16
ATOM     16  C   UNL     1       5.164  77.763  68.303  1.00  0.00     0.000 C 
BRANCH  16  17
ATOM     17  C   UNL     1       6.516  78.406  67.949  1.00  0.00     0.000 C 
BRANCH  17  18
ATOM     18  C   UNL     1       7.042  77.936  66.574  1.00  0.00     0.000 C 
BRANCH  18  19
ATOM     19  C   UNL     1       6.052  77.039  65.806  1.00  0.00     0.000 C 
BRANCH  19  20
ATOM     20  C   UNL     1       6.054  77.235  64.280  1.00  0.00     0.006 C 
BRANCH  20  21
ATOM     21  C   UNL     1       5.913  78.709  63.870  1.00  0.00     0.053 C 
BRANCH  21  22
ATOM     22  C   UNL     1       7.056  79.127  62.999  1.00  0.00     0.041 C 
ATOM     23  O   UNL     1       6.839  79.683  61.890  1.00  0.00    -0.550 OA
ATOM     24  O   UNL     1       8.365  78.901  63.411  1.00  0.00    -0.550 OA
ENDBRANCH  21  22
ENDBRANCH  20  21
ENDBRANCH  19  20
ENDBRANCH  18  19
ENDBRANCH  17  18
ENDBRANCH  16  17
ENDBRANCH  15  16
ENDBRANCH  14  15
ENDBRANCH  13  14
ENDBRANCH   1  13
TORSDOF 20
ENDMDL
MODEL 6
REMARK VINA RESULT:    -4.607      4.816      9.225
REMARK INTER + INTRA:         -12.129
REMARK INTER:                 -10.225
REMARK INTRA:                  -1.903
REMARK UNBOUND:                -2.135
REMARK SMILES CCCCCCCCCCCCCCCCCCCCCC(=O)[O-]
REMARK SMILES IDX 12 1 11 2 10 3 9 4 8 5 7 6 6 7 5 8 4 9 3 10 2 11 1 12 13 13
REMARK SMILES IDX 14 14 15 15 16 16 17 17 18 18 19 19 20 20 21 21 22 22 23 23
REMARK SMILES IDX 24 24
REMARK H PARENT
REMARK Flexibility Score: inf
ROOT
ATOM      1  C   UNL     1       5.564  78.054  64.015  1.00  0.00     0.000 C 
ENDROOT
BRANCH   1   2
ATOM      2  C   UNL     1       4.984  79.328  63.372  1.00  0.00     0.000 C 
BRANCH   2   3
ATOM      3  C   UNL     1       3.585  79.684  63.895  1.00  0.00     0.000 C 
BRANCH   3   4
ATOM      4  C   UNL     1       2.840  80.588  62.901  1.00  0.00    -0.000 C 
BRANCH   4   5
ATOM      5  C   UNL     1       3.392  82.029  62.890  1.00  0.00    -0.000 C 
BRANCH   5   6
ATOM      6  C   UNL     1       3.740  82.570  64.288  1.00  0.00    -0.000 C 
BRANCH   6   7
ATOM      7  C   UNL     1       3.166  83.972  64.542  1.00  0.00    -0.000 C 
BRANCH   7   8
ATOM      8  C   UNL     1       4.227  85.076  64.397  1.00  0.00    -0.000 C 
BRANCH   8   9
ATOM      9  C   UNL     1       4.433  85.505  62.936  1.00  0.00    -0.000 C 
BRANCH   9  10
ATOM     10  C   UNL     1       3.212  86.276  62.413  1.00  0.00    -0.000 C 
BRANCH  10  11
ATOM     11  C   UNL     1       3.510  87.764  62.169  1.00  0.00    -0.003 C 
ATOM     12  C   UNL     1       4.350  88.001  60.912  1.00  0.00     0.004 C 
ENDBRANCH  10  11
ENDBRANCH   9  10
ENDBRANCH   8   9
ENDBRANCH   7   8
ENDBRANCH   6   7
ENDBRANCH   5   6
ENDBRANCH   4   5
ENDBRANCH   3   4
ENDBRANCH   2   3
ENDBRANCH   1   2
BRANCH   1  13
ATOM     13  C   UNL     1       7.090  78.061  64.213  1.00  0.00     0.000 C 
BRANCH  13  14
ATOM     14  C   UNL     1       7.506  78.013  65.690  1.00  0.00     0.000 C 
BRANCH  14  15
ATOM     15  C   UNL     1       6.307  77.672  66.587  1.00  0.00     0.000 C 
BRANCH  15  16
ATOM     16  C   UNL     1       6.496  78.140  68.039  1.00  0.00     0.000 C 
BRANCH  16  17
ATOM     17  C   UNL     1       5.425  79.152  68.481  1.00  0.00     0.000 C 
BRANCH  17  18
ATOM     18  C   UNL     1       4.380  79.416  67.373  1.00  0.00     0.000 C 
BRANCH  18  19
ATOM     19  C   UNL     1       3.093  78.583  67.526  1.00  0.00     0.000 C 
BRANCH  19  20
ATOM     20  C   UNL     1       2.960  77.842  68.869  1.00  0.00     0.006 C 
BRANCH  20  21
ATOM     21  C   UNL     1       2.114  76.564  68.762  1.00  0.00     0.053 C 
BRANCH  21  22
ATOM     22  C   UNL     1       2.971  75.392  68.397  1.00  0.00     0.041 C 
ATOM     23  O   UNL     1       4.194  75.383  68.696  1.00  0.00    -0.550 OA
ATOM     24  O   UNL     1       2.418  74.307  67.726  1.00  0.00    -0.550 OA
ENDBRANCH  21  22
ENDBRANCH  20  21
ENDBRANCH  19  20
ENDBRANCH  18  19
ENDBRANCH  17  18
ENDBRANCH  16  17
ENDBRANCH  15  16
ENDBRANCH  14  15
ENDBRANCH  13  14
ENDBRANCH   1  13
TORSDOF 20
ENDMDL
MODEL 7
REMARK VINA RESULT:    -4.600      1.252      2.981
REMARK INTER + INTRA:         -12.112
REMARK INTER:                  -9.852
REMARK INTRA:                  -2.260
REMARK UNBOUND:                -2.135
REMARK SMILES CCCCCCCCCCCCCCCCCCCCCC(=O)[O-]
REMARK SMILES IDX 12 1 11 2 10 3 9 4 8 5 7 6 6 7 5 8 4 9 3 10 2 11 1 12 13 13
REMARK SMILES IDX 14 14 15 15 16 16 17 17 18 18 19 19 20 20 21 21 22 22 23 23
REMARK SMILES IDX 24 24
REMARK H PARENT
REMARK Flexibility Score: inf
ROOT
ATOM      1  C   UNL     1       4.547  80.090  63.071  1.00  0.00     0.000 C 
ENDROOT
BRANCH   1   2
ATOM      2  C   UNL     1       3.717  79.480  64.216  1.00  0.00     0.000 C 
BRANCH   2   3
ATOM      3  C   UNL     1       3.860  80.247  65.538  1.00  0.00     0.000 C 
BRANCH   3   4
ATOM      4  C   UNL     1       3.547  79.339  66.738  1.00  0.00    -0.000 C 
BRANCH   4   5
ATOM      5  C   UNL     1       4.337  79.741  68.001  1.00  0.00    -0.000 C 
BRANCH   5   6
ATOM      6  C   UNL     1       4.796  78.544  68.851  1.00  0.00    -0.000 C 
BRANCH   6   7
ATOM      7  C   UNL     1       4.247  77.204  68.338  1.00  0.00    -0.000 C 
BRANCH   7   8
ATOM      8  C   UNL     1       5.338  76.126  68.229  1.00  0.00    -0.000 C 
BRANCH   8   9
ATOM      9  C   UNL     1       6.638  76.665  67.611  1.00  0.00    -0.000 C 
BRANCH   9  10
ATOM     10  C   UNL     1       6.452  76.966  66.117  1.00  0.00    -0.000 C 
BRANCH  10  11
ATOM     11  C   UNL     1       7.334  78.128  65.633  1.00  0.00    -0.003 C 
ATOM     12  C   UNL     1       7.452  78.186  64.108  1.00  0.00     0.004 C 
ENDBRANCH  10  11
ENDBRANCH   9  10
ENDBRANCH   8   9
ENDBRANCH   7   8
ENDBRANCH   6   7
ENDBRANCH   5   6
ENDBRANCH   4   5
ENDBRANCH   3   4
ENDBRANCH   2   3
ENDBRANCH   1   2
BRANCH   1  13
ATOM     13  C   UNL     1       3.734  80.856  62.013  1.00  0.00     0.000 C 
BRANCH  13  14
ATOM     14  C   UNL     1       4.077  82.352  61.956  1.00  0.00     0.000 C 
BRANCH  14  15
ATOM     15  C   UNL     1       3.226  83.148  62.957  1.00  0.00     0.000 C 
BRANCH  15  16
ATOM     16  C   UNL     1       4.027  83.614  64.183  1.00  0.00     0.000 C 
BRANCH  16  17
ATOM     17  C   UNL     1       4.162  85.144  64.258  1.00  0.00     0.000 C 
BRANCH  17  18
ATOM     18  C   UNL     1       3.424  85.852  63.100  1.00  0.00     0.000 C 
BRANCH  18  19
ATOM     19  C   UNL     1       4.358  86.645  62.164  1.00  0.00     0.000 C 
BRANCH  19  20
ATOM     20  C   UNL     1       3.639  87.439  61.059  1.00  0.00     0.006 C 
BRANCH  20  21
ATOM     21  C   UNL     1       3.155  88.817  61.536  1.00  0.00     0.053 C 
BRANCH  21  22
ATOM     22  C   UNL     1       1.660  88.885  61.521  1.00  0.00     0.041 C 
ATOM     23  O   UNL     1       1.031  89.251  62.549  1.00  0.00    -0.550 OA
ATOM     24  O   UNL     1       0.958  88.543  60.370  1.00  0.00    -0.550 OA
ENDBRANCH  21  22
ENDBRANCH  20  21
ENDBRANCH  19  20
ENDBRANCH  18  19
ENDBRANCH  17  18
ENDBRANCH  16  17
ENDBRANCH  15  16
ENDBRANCH  14  15
ENDBRANCH  13  14
ENDBRANCH   1  13
TORSDOF 20
ENDMDL
MODEL 8
REMARK VINA RESULT:    -4.591      4.451     10.167
REMARK INTER + INTRA:         -12.093
REMARK INTER:                  -9.993
REMARK INTRA:                  -2.100
REMARK UNBOUND:                -2.135
REMARK SMILES CCCCCCCCCCCCCCCCCCCCCC(=O)[O-]
REMARK SMILES IDX 12 1 11 2 10 3 9 4 8 5 7 6 6 7 5 8 4 9 3 10 2 11 1 12 13 13
REMARK SMILES IDX 14 14 15 15 16 16 17 17 18 18 19 19 20 20 21 21 22 22 23 23
REMARK SMILES IDX 24 24
REMARK H PARENT
REMARK Flexibility Score: inf
ROOT
ATOM      1  C   UNL     1       4.418  84.985  64.242  1.00  0.00     0.000 C 
ENDROOT
BRANCH   1   2
ATOM      2  C   UNL     1       3.738  85.887  63.194  1.00  0.00     0.000 C 
BRANCH   2   3
ATOM      3  C   UNL     1       4.481  85.913  61.851  1.00  0.00     0.000 C 
BRANCH   3   4
ATOM      4  C   UNL     1       4.396  87.303  61.203  1.00  0.00    -0.000 C 
BRANCH   4   5
ATOM      5  C   UNL     1       3.598  88.305  62.063  1.00  0.00    -0.000 C 
BRANCH   5   6
ATOM      6  C   UNL     1       3.161  89.567  61.300  1.00  0.00    -0.000 C 
BRANCH   6   7
ATOM      7  C   UNL     1       1.635  89.683  61.166  1.00  0.00    -0.000 C 
BRANCH   7   8
ATOM      8  C   UNL     1       0.889  88.689  62.073  1.00  0.00    -0.000 C 
BRANCH   8   9
ATOM      9  C   UNL     1       0.022  87.702  61.276  1.00  0.00    -0.000 C 
BRANCH   9  10
ATOM     10  C   UNL     1       0.309  86.254  61.699  1.00  0.00    -0.000 C 
BRANCH  10  11
ATOM     11  C   UNL     1       0.246  86.059  63.223  1.00  0.00    -0.003 C 
ATOM     12  C   UNL     1       0.091  84.590  63.625  1.00  0.00     0.004 C 
ENDBRANCH  10  11
ENDBRANCH   9  10
ENDBRANCH   8   9
ENDBRANCH   7   8
ENDBRANCH   6   7
ENDBRANCH   5   6
ENDBRANCH   4   5
ENDBRANCH   3   4
ENDBRANCH   2   3
ENDBRANCH   1   2
BRANCH   1  13
ATOM     13  C   UNL     1       3.620  83.730  64.637  1.00  0.00     0.000 C 
BRANCH  13  14
ATOM     14  C   UNL     1       3.776  82.577  63.635  1.00  0.00     0.000 C 
BRANCH  14  15
ATOM     15  C   UNL     1       2.632  81.562  63.784  1.00  0.00     0.000 C 
BRANCH  15  16
ATOM     16  C   UNL     1       3.120  80.175  64.231  1.00  0.00     0.000 C 
BRANCH  16  17
ATOM     17  C   UNL     1       2.783  79.872  65.701  1.00  0.00     0.000 C 
BRANCH  17  18
ATOM     18  C   UNL     1       4.042  79.530  66.529  1.00  0.00     0.000 C 
BRANCH  18  19
ATOM     19  C   UNL     1       3.727  78.956  67.925  1.00  0.00     0.000 C 
BRANCH  19  20
ATOM     20  C   UNL     1       4.915  78.272  68.623  1.00  0.00     0.006 C 
BRANCH  20  21
ATOM     21  C   UNL     1       6.267  78.639  67.992  1.00  0.00     0.053 C 
BRANCH  21  22
ATOM     22  C   UNL     1       6.906  77.435  67.375  1.00  0.00     0.041 C 
ATOM     23  O   UNL     1       7.719  77.566  66.421  1.00  0.00    -0.550 OA
ATOM     24  O   UNL     1       6.604  76.164  67.852  1.00  0.00    -0.550 OA
ENDBRANCH  21  22
ENDBRANCH  20  21
ENDBRANCH  19  20
ENDBRANCH  18  19
ENDBRANCH  17  18
ENDBRANCH  16  17
ENDBRANCH  15  16
ENDBRANCH  14  15
ENDBRANCH  13  14
ENDBRANCH   1  13
TORSDOF 20
ENDMDL
MODEL 9
REMARK VINA RESULT:    -4.557      3.694      9.122
REMARK INTER + INTRA:         -12.020
REMARK INTER:                 -10.088
REMARK INTRA:                  -1.932
REMARK UNBOUND:                -2.135
REMARK SMILES CCCCCCCCCCCCCCCCCCCCCC(=O)[O-]
REMARK SMILES IDX 12 1 11 2 10 3 9 4 8 5 7 6 6 7 5 8 4 9 3 10 2 11 1 12 13 13
REMARK SMILES IDX 14 14 15 15 16 16 17 17 18 18 19 19 20 20 21 21 22 22 23 23
REMARK SMILES IDX 24 24
REMARK H PARENT
REMARK Flexibility Score: inf
ROOT
ATOM      1  C   UNL     1       3.741  81.384  63.592  1.00  0.00     0.000 C 
ENDROOT
BRANCH   1   2
ATOM      2  C   UNL     1       3.517  82.887  63.340  1.00  0.00     0.000 C 
BRANCH   2   3
ATOM      3  C   UNL     1       3.704  83.743  64.602  1.00  0.00     0.000 C 
BRANCH   3   4
ATOM      4  C   UNL     1       4.374  85.083  64.262  1.00  0.00    -0.000 C 
BRANCH   4   5
ATOM      5  C   UNL     1       3.607  85.865  63.176  1.00  0.00    -0.000 C 
BRANCH   5   6
ATOM      6  C   UNL     1       4.490  86.322  62.001  1.00  0.00    -0.000 C 
BRANCH   6   7
ATOM      7  C   UNL     1       3.843  87.439  61.170  1.00  0.00    -0.000 C 
BRANCH   7   8
ATOM      8  C   UNL     1       3.334  88.600  62.042  1.00  0.00    -0.000 C 
BRANCH   8   9
ATOM      9  C   UNL     1       1.816  88.806  61.918  1.00  0.00    -0.000 C 
BRANCH   9  10
ATOM     10  C   UNL     1       1.214  87.846  60.882  1.00  0.00    -0.000 C 
BRANCH  10  11
ATOM     11  C   UNL     1       0.135  86.929  61.481  1.00  0.00    -0.003 C 
ATOM     12  C   UNL     1      -0.186  87.267  62.939  1.00  0.00     0.004 C 
ENDBRANCH  10  11
ENDBRANCH   9  10
ENDBRANCH   8   9
ENDBRANCH   7   8
ENDBRANCH   6   7
ENDBRANCH   5   6
ENDBRANCH   4   5
ENDBRANCH   3   4
ENDBRANCH   2   3
ENDBRANCH   1   2
BRANCH   1  13
ATOM     13  C   UNL     1       2.474  80.590  63.959  1.00  0.00     0.000 C 
BRANCH  13  14
ATOM     14  C   UNL     1       2.447  80.145  65.428  1.00  0.00     0.000 C 
BRANCH  14  15
ATOM     15  C   UNL     1       3.795  79.537  65.843  1.00  0.00     0.000 C 
BRANCH  15  16
ATOM     16  C   UNL     1       4.162  79.839  67.304  1.00  0.00     0.000 C 
BRANCH  16  17
ATOM     17  C   UNL     1       4.488  78.569  68.109  1.00  0.00     0.000 C 
BRANCH  17  18
ATOM     18  C   UNL     1       6.007  78.390  68.325  1.00  0.00     0.000 C 
BRANCH  18  19
ATOM     19  C   UNL     1       6.647  77.349  67.385  1.00  0.00     0.000 C 
BRANCH  19  20
ATOM     20  C   UNL     1       7.375  77.943  66.167  1.00  0.00     0.006 C 
BRANCH  20  21
ATOM     21  C   UNL     1       6.740  77.525  64.832  1.00  0.00     0.053 C 
BRANCH  21  22
ATOM     22  C   UNL     1       7.102  78.492  63.749  1.00  0.00     0.041 C 
ATOM     23  O   UNL     1       8.263  78.979  63.695  1.00  0.00    -0.550 OA
ATOM     24  O   UNL     1       6.157  78.858  62.797  1.00  0.00    -0.550 OA
ENDBRANCH  21  22
ENDBRANCH  20  21
ENDBRANCH  19  20
ENDBRANCH  18  19
ENDBRANCH  17  18
ENDBRANCH  16  17
ENDBRANCH  15  16
ENDBRANCH  14  15
ENDBRANCH  13  14
ENDBRANCH   1  13
TORSDOF 20
ENDMDL
