MODEL 1
REMARK VINA RESULT:    -3.795      0.000      0.000
REMARK INTER + INTRA:          -5.187
REMARK INTER:                  -4.904
REMARK INTRA:                  -0.282
REMARK UNBOUND:                -0.282
REMARK SMILES CCOC(=O)C=Cc1ccc(O)c(O)c1
REMARK SMILES IDX 6 1 7 2 4 3 5 4 3 5 2 6 1 7 8 8 15 9 9 10 13 11 10 12 11 13
REMARK SMILES IDX 14 14 12 16
REMARK H PARENT 14 15 12 17
REMARK Flexibility Score: inf
ROOT
ATOM      1  C   UNL     1      26.985  20.551  14.981  1.00  0.00     0.094 C 
ATOM      2  C   UNL     1      27.888  21.475  14.624  1.00  0.00     0.016 C 
ENDROOT
BRANCH   1   3
ATOM      3  C   UNL     1      26.452  20.458  16.350  1.00  0.00     0.330 C 
ATOM      4  O   UNL     1      27.210  20.605  17.349  1.00  0.00    -0.247 OA
BRANCH   3   5
ATOM      5  O   UNL     1      25.090  20.204  16.529  1.00  0.00    -0.463 OA
BRANCH   5   6
ATOM      6  C   UNL     1      24.221  19.876  15.450  1.00  0.00     0.230 C 
ATOM      7  C   UNL     1      22.911  20.632  15.602  1.00  0.00     0.049 C 
ENDBRANCH   5   6
ENDBRANCH   3   5
ENDBRANCH   1   3
BRANCH   2   8
ATOM      8  C   UNL     1      28.454  21.589  13.257  1.00  0.00    -0.021 A 
ATOM      9  C   UNL     1      27.819  20.906  12.207  1.00  0.00     0.058 A 
ATOM     10  C   UNL     1      29.623  22.326  12.980  1.00  0.00     0.012 A 
ATOM     11  C   UNL     1      28.321  20.973  10.899  1.00  0.00     0.157 A 
ATOM     12  C   UNL     1      30.124  22.393  11.677  1.00  0.00     0.051 A 
ATOM     13  C   UNL     1      29.478  21.724  10.634  1.00  0.00     0.157 A 
BRANCH  11  14
ATOM     14  O   UNL     1      27.675  20.298   9.865  1.00  0.00    -0.504 OA
ATOM     15  H   UNL     1      28.051  20.283   8.925  1.00  0.00     0.293 HD
ENDBRANCH  11  14
BRANCH  13  16
ATOM     16  O   UNL     1      30.002  21.812   9.345  1.00  0.00    -0.504 OA
ATOM     17  H   UNL     1      29.684  22.507   8.680  1.00  0.00     0.293 HD
ENDBRANCH  13  16
ENDBRANCH   2   8
TORSDOF 6
ENDMDL
MODEL 2
REMARK VINA RESULT:    -3.484      2.347      6.063
REMARK INTER + INTRA:          -4.784
REMARK INTER:                  -4.496
REMARK INTRA:                  -0.289
REMARK UNBOUND:                -0.282
REMARK SMILES CCOC(=O)C=Cc1ccc(O)c(O)c1
REMARK SMILES IDX 6 1 7 2 4 3 5 4 3 5 2 6 1 7 8 8 15 9 9 10 13 11 10 12 11 13
REMARK SMILES IDX 14 14 12 16
REMARK H PARENT 14 15 12 17
REMARK Flexibility Score: inf
ROOT
ATOM      1  C   UNL     1      27.913  20.810  13.624  1.00  0.00     0.094 C 
ATOM      2  C   UNL     1      27.250  19.875  14.320  1.00  0.00     0.016 C 
ENDROOT
BRANCH   1   3
ATOM      3  C   UNL     1      29.374  20.775  13.454  1.00  0.00     0.330 C 
ATOM      4  O   UNL     1      30.125  20.393  14.394  1.00  0.00    -0.247 OA
BRANCH   3   5
ATOM      5  O   UNL     1      29.921  21.172  12.231  1.00  0.00    -0.463 OA
BRANCH   5   6
ATOM      6  C   UNL     1      29.268  22.087  11.357  1.00  0.00     0.230 C 
ATOM      7  C   UNL     1      29.769  23.496  11.626  1.00  0.00     0.049 C 
ENDBRANCH   5   6
ENDBRANCH   3   5
ENDBRANCH   1   3
BRANCH   2   8
ATOM      8  C   UNL     1      25.779  19.886  14.521  1.00  0.00    -0.021 A 
ATOM      9  C   UNL     1      24.945  19.887  13.390  1.00  0.00     0.058 A 
ATOM     10  C   UNL     1      25.189  19.934  15.800  1.00  0.00     0.012 A 
ATOM     11  C   UNL     1      23.550  19.908  13.527  1.00  0.00     0.157 A 
ATOM     12  C   UNL     1      23.799  19.955  15.937  1.00  0.00     0.051 A 
ATOM     13  C   UNL     1      22.975  19.939  14.809  1.00  0.00     0.157 A 
BRANCH  11  14
ATOM     14  O   UNL     1      22.735  19.898  12.397  1.00  0.00    -0.504 OA
ATOM     15  H   UNL     1      22.447  19.033  11.957  1.00  0.00     0.293 HD
ENDBRANCH  11  14
BRANCH  13  16
ATOM     16  O   UNL     1      21.591  19.959  14.978  1.00  0.00    -0.504 OA
ATOM     17  H   UNL     1      21.162  20.051  15.891  1.00  0.00     0.293 HD
ENDBRANCH  13  16
ENDBRANCH   2   8
TORSDOF 6
ENDMDL
MODEL 3
REMARK VINA RESULT:    -2.981     12.893     18.067
REMARK INTER + INTRA:          -4.135
REMARK INTER:                  -3.862
REMARK INTRA:                  -0.272
REMARK UNBOUND:                -0.282
REMARK SMILES CCOC(=O)C=Cc1ccc(O)c(O)c1
REMARK SMILES IDX 6 1 7 2 4 3 5 4 3 5 2 6 1 7 8 8 15 9 9 10 13 11 10 12 11 13
REMARK SMILES IDX 14 14 12 16
REMARK H PARENT 14 15 12 17
REMARK Flexibility Score: inf
ROOT
ATOM      1  C   UNL     1      12.341  20.814  18.047  1.00  0.00     0.094 C 
ATOM      2  C   UNL     1      11.250  21.344  18.619  1.00  0.00     0.016 C 
ENDROOT
BRANCH   1   3
ATOM      3  C   UNL     1      12.645  20.992  16.618  1.00  0.00     0.330 C 
ATOM      4  O   UNL     1      11.920  21.724  15.890  1.00  0.00    -0.247 OA
BRANCH   3   5
ATOM      5  O   UNL     1      13.754  20.335  16.078  1.00  0.00    -0.463 OA
BRANCH   5   6
ATOM      6  C   UNL     1      14.924  20.050  16.836  1.00  0.00     0.230 C 
ATOM      7  C   UNL     1      16.020  21.041  16.478  1.00  0.00     0.049 C 
ENDBRANCH   5   6
ENDBRANCH   3   5
ENDBRANCH   1   3
BRANCH   2   8
ATOM      8  C   UNL     1      10.907  21.175  20.053  1.00  0.00    -0.021 A 
ATOM      9  C   UNL     1      11.198  22.223  20.943  1.00  0.00     0.058 A 
ATOM     10  C   UNL     1      10.336  19.991  20.562  1.00  0.00     0.012 A 
ATOM     11  C   UNL     1      10.902  22.108  22.309  1.00  0.00     0.157 A 
ATOM     12  C   UNL     1      10.041  19.876  21.923  1.00  0.00     0.051 A 
ATOM     13  C   UNL     1      10.318  20.928  22.799  1.00  0.00     0.157 A 
BRANCH  11  14
ATOM     14  O   UNL     1      11.187  23.160  23.178  1.00  0.00    -0.504 OA
ATOM     15  H   UNL     1      12.089  23.622  23.175  1.00  0.00     0.293 HD
ENDBRANCH  11  14
BRANCH  13  16
ATOM     16  O   UNL     1      10.012  20.784  24.152  1.00  0.00    -0.504 OA
ATOM     17  H   UNL     1      10.388  21.405  24.859  1.00  0.00     0.293 HD
ENDBRANCH  13  16
ENDBRANCH   2   8
TORSDOF 6
ENDMDL
MODEL 4
REMARK VINA RESULT:    -2.856     14.681     18.148
REMARK INTER + INTRA:          -3.974
REMARK INTER:                  -3.613
REMARK INTRA:                  -0.361
REMARK UNBOUND:                -0.282
REMARK SMILES CCOC(=O)C=Cc1ccc(O)c(O)c1
REMARK SMILES IDX 6 1 7 2 4 3 5 4 3 5 2 6 1 7 8 8 15 9 9 10 13 11 10 12 11 13
REMARK SMILES IDX 14 14 12 16
REMARK H PARENT 14 15 12 17
REMARK Flexibility Score: inf
ROOT
ATOM      1  C   UNL     1      12.841  20.959  18.146  1.00  0.00     0.094 C 
ATOM      2  C   UNL     1      11.562  21.023  18.542  1.00  0.00     0.016 C 
ENDROOT
BRANCH   1   3
ATOM      3  C   UNL     1      13.229  20.994  16.726  1.00  0.00     0.330 C 
ATOM      4  O   UNL     1      14.445  20.991  16.388  1.00  0.00    -0.247 OA
BRANCH   3   5
ATOM      5  O   UNL     1      12.226  21.031  15.754  1.00  0.00    -0.463 OA
BRANCH   5   6
ATOM      6  C   UNL     1      11.890  22.215  15.039  1.00  0.00     0.230 C 
ATOM      7  C   UNL     1      10.432  22.566  15.288  1.00  0.00     0.049 C 
ENDBRANCH   5   6
ENDBRANCH   3   5
ENDBRANCH   1   3
BRANCH   2   8
ATOM      8  C   UNL     1      11.136  20.977  19.963  1.00  0.00    -0.021 A 
ATOM      9  C   UNL     1      11.462  22.059  20.798  1.00  0.00     0.058 A 
ATOM     10  C   UNL     1      10.451  19.876  20.514  1.00  0.00     0.012 A 
ATOM     11  C   UNL     1      11.091  22.059  22.150  1.00  0.00     0.157 A 
ATOM     12  C   UNL     1      10.082  19.875  21.862  1.00  0.00     0.051 A 
ATOM     13  C   UNL     1      10.394  20.962  22.683  1.00  0.00     0.157 A 
BRANCH  11  14
ATOM     14  O   UNL     1      11.412  23.144  22.965  1.00  0.00    -0.504 OA
ATOM     15  H   UNL     1      10.699  23.762  23.331  1.00  0.00     0.293 HD
ENDBRANCH  11  14
BRANCH  13  16
ATOM     16  O   UNL     1      10.011  20.932  24.023  1.00  0.00    -0.504 OA
ATOM     17  H   UNL     1      10.668  21.102  24.775  1.00  0.00     0.293 HD
ENDBRANCH  13  16
ENDBRANCH   2   8
TORSDOF 6
ENDMDL
MODEL 5
REMARK VINA RESULT:    -2.849      2.667      6.120
REMARK INTER + INTRA:          -3.965
REMARK INTER:                  -3.714
REMARK INTRA:                  -0.251
REMARK UNBOUND:                -0.282
REMARK SMILES CCOC(=O)C=Cc1ccc(O)c(O)c1
REMARK SMILES IDX 6 1 7 2 4 3 5 4 3 5 2 6 1 7 8 8 15 9 9 10 13 11 10 12 11 13
REMARK SMILES IDX 14 14 12 16
REMARK H PARENT 14 15 12 17
REMARK Flexibility Score: inf
ROOT
ATOM      1  C   UNL     1      27.169  20.343  14.763  1.00  0.00     0.094 C 
ATOM      2  C   UNL     1      26.016  20.186  15.429  1.00  0.00     0.016 C 
ENDROOT
BRANCH   1   3
ATOM      3  C   UNL     1      28.475  20.358  15.444  1.00  0.00     0.330 C 
ATOM      4  O   UNL     1      28.550  20.519  16.693  1.00  0.00    -0.247 OA
BRANCH   3   5
ATOM      5  O   UNL     1      29.634  20.189  14.683  1.00  0.00    -0.463 OA
BRANCH   5   6
ATOM      6  C   UNL     1      29.831  20.832  13.428  1.00  0.00     0.230 C 
ATOM      7  C   UNL     1      29.849  22.339  13.623  1.00  0.00     0.049 C 
ENDBRANCH   5   6
ENDBRANCH   3   5
ENDBRANCH   1   3
BRANCH   2   8
ATOM      8  C   UNL     1      24.683  20.179  14.776  1.00  0.00    -0.021 A 
ATOM      9  C   UNL     1      23.547  20.434  15.563  1.00  0.00     0.058 A 
ATOM     10  C   UNL     1      24.509  19.889  13.408  1.00  0.00     0.012 A 
ATOM     11  C   UNL     1      22.265  20.428  14.997  1.00  0.00     0.157 A 
ATOM     12  C   UNL     1      23.232  19.883  12.843  1.00  0.00     0.051 A 
ATOM     13  C   UNL     1      22.108  20.154  13.628  1.00  0.00     0.157 A 
BRANCH  11  14
ATOM     14  O   UNL     1      21.148  20.693  15.788  1.00  0.00    -0.504 OA
ATOM     15  H   UNL     1      21.214  21.252  16.630  1.00  0.00     0.293 HD
ENDBRANCH  11  14
BRANCH  13  16
ATOM     16  O   UNL     1      20.847  20.141  13.035  1.00  0.00    -0.504 OA
ATOM     17  H   UNL     1      20.596  20.780  12.289  1.00  0.00     0.293 HD
ENDBRANCH  13  16
ENDBRANCH   2   8
TORSDOF 6
ENDMDL
MODEL 6
REMARK VINA RESULT:    -1.704      3.015      5.907
REMARK INTER + INTRA:          -2.484
REMARK INTER:                  -2.244
REMARK INTRA:                  -0.240
REMARK UNBOUND:                -0.282
REMARK SMILES CCOC(=O)C=Cc1ccc(O)c(O)c1
REMARK SMILES IDX 6 1 7 2 4 3 5 4 3 5 2 6 1 7 8 8 15 9 9 10 13 11 10 12 11 13
REMARK SMILES IDX 14 14 12 16
REMARK H PARENT 14 15 12 17
REMARK Flexibility Score: inf
ROOT
ATOM      1  C   UNL     1      25.962  20.801  16.123  1.00  0.00     0.094 C 
ATOM      2  C   UNL     1      24.936  19.939  16.138  1.00  0.00     0.016 C 
ENDROOT
BRANCH   1   3
ATOM      3  C   UNL     1      27.115  20.668  17.029  1.00  0.00     0.330 C 
ATOM      4  O   UNL     1      26.947  20.521  18.271  1.00  0.00    -0.247 OA
BRANCH   3   5
ATOM      5  O   UNL     1      28.404  20.706  16.490  1.00  0.00    -0.463 OA
BRANCH   5   6
ATOM      6  C   UNL     1      28.688  20.330  15.147  1.00  0.00     0.230 C 
ATOM      7  C   UNL     1      28.835  21.575  14.288  1.00  0.00     0.049 C 
ENDBRANCH   5   6
ENDBRANCH   3   5
ENDBRANCH   1   3
BRANCH   2   8
ATOM      8  C   UNL     1      23.753  20.050  15.248  1.00  0.00    -0.021 A 
ATOM      9  C   UNL     1      23.939  19.915  13.862  1.00  0.00     0.058 A 
ATOM     10  C   UNL     1      22.460  20.324  15.736  1.00  0.00     0.012 A 
ATOM     11  C   UNL     1      22.855  20.022  12.979  1.00  0.00     0.157 A 
ATOM     12  C   UNL     1      21.380  20.431  14.857  1.00  0.00     0.051 A 
ATOM     13  C   UNL     1      21.569  20.279  13.481  1.00  0.00     0.157 A 
BRANCH  11  14
ATOM     14  O   UNL     1      23.053  19.875  11.606  1.00  0.00    -0.504 OA
ATOM     15  H   UNL     1      22.438  19.304  11.040  1.00  0.00     0.293 HD
ENDBRANCH  11  14
BRANCH  13  16
ATOM     16  O   UNL     1      20.471  20.390  12.628  1.00  0.00    -0.504 OA
ATOM     17  H   UNL     1      20.492  20.966  11.795  1.00  0.00     0.293 HD
ENDBRANCH  13  16
ENDBRANCH   2   8
TORSDOF 6
ENDMDL
