MODEL 1
REMARK VINA RESULT:    -4.367      0.000      0.000
REMARK INTER + INTRA:         -13.279
REMARK INTER:                 -11.004
REMARK INTRA:                  -2.275
REMARK UNBOUND:                -2.275
REMARK SMILES CCCCCCCCCCCCCCCCCCCCCCCCCCCC(=O)[O-]
REMARK SMILES IDX 15 1 16 2 17 3 18 4 19 5 20 6 21 7 22 8 23 9 24 10 25 11
REMARK SMILES IDX 26 12 27 13 28 14 29 15 30 16 14 17 13 18 12 19 11 20 10 21
REMARK SMILES IDX 9 22 8 23 7 24 6 25 5 26 4 27 3 28 2 29 1 30
REMARK H PARENT
REMARK Flexibility Score: inf
ROOT
ATOM      1  C   UNL     1      15.382   5.365  -6.968  1.00  0.00     0.000 C 
ENDROOT
BRANCH   1   2
ATOM      2  C   UNL     1      15.585   4.303  -5.867  1.00  0.00     0.000 C 
BRANCH   2   3
ATOM      3  C   UNL     1      15.606   2.852  -6.388  1.00  0.00     0.000 C 
BRANCH   3   4
ATOM      4  C   UNL     1      16.819   2.013  -5.946  1.00  0.00     0.000 C 
BRANCH   4   5
ATOM      5  C   UNL     1      17.519   2.495  -4.657  1.00  0.00     0.000 C 
BRANCH   5   6
ATOM      6  C   UNL     1      19.023   2.793  -4.798  1.00  0.00     0.000 C 
BRANCH   6   7
ATOM      7  C   UNL     1      19.547   3.753  -3.717  1.00  0.00     0.000 C 
BRANCH   7   8
ATOM      8  C   UNL     1      20.107   3.015  -2.490  1.00  0.00     0.000 C 
BRANCH   8   9
ATOM      9  C   UNL     1      19.496   3.510  -1.167  1.00  0.00     0.000 C 
BRANCH   9  10
ATOM     10  C   UNL     1      18.879   4.914  -1.299  1.00  0.00     0.000 C 
BRANCH  10  11
ATOM     11  C   UNL     1      18.205   5.423  -0.011  1.00  0.00     0.000 C 
BRANCH  11  12
ATOM     12  C   UNL     1      18.625   4.612   1.228  1.00  0.00     0.006 C 
BRANCH  12  13
ATOM     13  C   UNL     1      18.004   5.160   2.519  1.00  0.00     0.053 C 
BRANCH  13  14
ATOM     14  C   UNL     1      17.321   4.084   3.308  1.00  0.00     0.041 C 
ATOM     15  O   UNL     1      16.879   3.057   2.729  1.00  0.00    -0.550 OA
ATOM     16  O   UNL     1      17.203   4.203   4.688  1.00  0.00    -0.550 OA
ENDBRANCH  13  14
ENDBRANCH  12  13
ENDBRANCH  11  12
ENDBRANCH  10  11
ENDBRANCH   9  10
ENDBRANCH   8   9
ENDBRANCH   7   8
ENDBRANCH   6   7
ENDBRANCH   5   6
ENDBRANCH   4   5
ENDBRANCH   3   4
ENDBRANCH   2   3
ENDBRANCH   1   2
BRANCH   1  17
ATOM     17  C   UNL     1      16.681   6.105  -7.326  1.00  0.00     0.000 C 
BRANCH  17  18
ATOM     18  C   UNL     1      17.741   5.134  -7.860  1.00  0.00     0.000 C 
BRANCH  18  19
ATOM     19  C   UNL     1      19.092   5.370  -7.170  1.00  0.00     0.000 C 
BRANCH  19  20
ATOM     20  C   UNL     1      19.909   6.499  -7.824  1.00  0.00     0.000 C 
BRANCH  20  21
ATOM     21  C   UNL     1      20.125   7.741  -6.935  1.00  0.00     0.000 C 
BRANCH  21  22
ATOM     22  C   UNL     1      19.943   9.098  -7.644  1.00  0.00    -0.000 C 
BRANCH  22  23
ATOM     23  C   UNL     1      19.509  10.262  -6.734  1.00  0.00    -0.000 C 
BRANCH  23  24
ATOM     24  C   UNL     1      18.481  11.190  -7.402  1.00  0.00    -0.000 C 
BRANCH  24  25
ATOM     25  C   UNL     1      18.581  12.647  -6.915  1.00  0.00    -0.000 C 
BRANCH  25  26
ATOM     26  C   UNL     1      17.679  13.000  -5.719  1.00  0.00    -0.000 C 
BRANCH  26  27
ATOM     27  C   UNL     1      16.406  13.757  -6.132  1.00  0.00    -0.000 C 
BRANCH  27  28
ATOM     28  C   UNL     1      15.298  12.819  -6.636  1.00  0.00    -0.000 C 
BRANCH  28  29
ATOM     29  C   UNL     1      14.638  13.326  -7.927  1.00  0.00    -0.003 C 
ATOM     30  C   UNL     1      15.572  13.160  -9.122  1.00  0.00     0.004 C 
ENDBRANCH  28  29
ENDBRANCH  27  28
ENDBRANCH  26  27
ENDBRANCH  25  26
ENDBRANCH  24  25
ENDBRANCH  23  24
ENDBRANCH  22  23
ENDBRANCH  21  22
ENDBRANCH  20  21
ENDBRANCH  19  20
ENDBRANCH  18  19
ENDBRANCH  17  18
ENDBRANCH   1  17
TORSDOF 26
ENDMDL
MODEL 2
REMARK VINA RESULT:    -4.171      4.066     10.545
REMARK INTER + INTRA:         -12.785
REMARK INTER:                 -10.586
REMARK INTRA:                  -2.199
REMARK UNBOUND:                -2.275
REMARK SMILES CCCCCCCCCCCCCCCCCCCCCCCCCCCC(=O)[O-]
REMARK SMILES IDX 15 1 16 2 17 3 18 4 19 5 20 6 21 7 22 8 23 9 24 10 25 11
REMARK SMILES IDX 26 12 27 13 28 14 29 15 30 16 14 17 13 18 12 19 11 20 10 21
REMARK SMILES IDX 9 22 8 23 7 24 6 25 5 26 4 27 3 28 2 29 1 30
REMARK H PARENT
REMARK Flexibility Score: inf
ROOT
ATOM      1  C   UNL     1      19.287   8.094  -7.129  1.00  0.00     0.000 C 
ENDROOT
BRANCH   1   2
ATOM      2  C   UNL     1      20.106   9.323  -7.580  1.00  0.00     0.000 C 
BRANCH   2   3
ATOM      3  C   UNL     1      19.411  10.673  -7.316  1.00  0.00     0.000 C 
BRANCH   3   4
ATOM      4  C   UNL     1      19.526  11.200  -5.874  1.00  0.00     0.000 C 
BRANCH   4   5
ATOM      5  C   UNL     1      18.413  12.176  -5.437  1.00  0.00     0.000 C 
BRANCH   5   6
ATOM      6  C   UNL     1      18.846  13.260  -4.433  1.00  0.00     0.000 C 
BRANCH   6   7
ATOM      7  C   UNL     1      18.110  14.595  -4.639  1.00  0.00     0.000 C 
BRANCH   7   8
ATOM      8  C   UNL     1      17.619  14.784  -6.083  1.00  0.00     0.000 C 
BRANCH   8   9
ATOM      9  C   UNL     1      18.734  15.252  -7.036  1.00  0.00     0.000 C 
BRANCH   9  10
ATOM     10  C   UNL     1      18.295  15.205  -8.511  1.00  0.00     0.000 C 
BRANCH  10  11
ATOM     11  C   UNL     1      18.742  13.931  -9.254  1.00  0.00     0.000 C 
BRANCH  11  12
ATOM     12  C   UNL     1      17.549  13.076  -9.717  1.00  0.00     0.006 C 
BRANCH  12  13
ATOM     13  C   UNL     1      16.212  13.808  -9.553  1.00  0.00     0.053 C 
BRANCH  13  14
ATOM     14  C   UNL     1      15.406  13.250  -8.419  1.00  0.00     0.041 C 
ATOM     15  O   UNL     1      15.846  12.281  -7.747  1.00  0.00    -0.550 OA
ATOM     16  O   UNL     1      14.185  13.823  -8.085  1.00  0.00    -0.550 OA
ENDBRANCH  13  14
ENDBRANCH  12  13
ENDBRANCH  11  12
ENDBRANCH  10  11
ENDBRANCH   9  10
ENDBRANCH   8   9
ENDBRANCH   7   8
ENDBRANCH   6   7
ENDBRANCH   5   6
ENDBRANCH   4   5
ENDBRANCH   3   4
ENDBRANCH   2   3
ENDBRANCH   1   2
BRANCH   1  17
ATOM     17  C   UNL     1      20.121   6.804  -7.097  1.00  0.00     0.000 C 
BRANCH  17  18
ATOM     18  C   UNL     1      19.579   5.771  -8.092  1.00  0.00     0.000 C 
BRANCH  18  19
ATOM     19  C   UNL     1      18.632   4.785  -7.392  1.00  0.00     0.000 C 
BRANCH  19  20
ATOM     20  C   UNL     1      17.147   5.110  -7.632  1.00  0.00     0.000 C 
BRANCH  20  21
ATOM     21  C   UNL     1      16.168   4.438  -6.646  1.00  0.00     0.000 C 
BRANCH  21  22
ATOM     22  C   UNL     1      16.130   2.897  -6.703  1.00  0.00    -0.000 C 
BRANCH  22  23
ATOM     23  C   UNL     1      16.680   2.180  -5.457  1.00  0.00    -0.000 C 
BRANCH  23  24
ATOM     24  C   UNL     1      17.082   3.153  -4.336  1.00  0.00    -0.000 C 
BRANCH  24  25
ATOM     25  C   UNL     1      18.441   2.810  -3.701  1.00  0.00    -0.000 C 
BRANCH  25  26
ATOM     26  C   UNL     1      18.454   2.783  -2.162  1.00  0.00    -0.000 C 
BRANCH  26  27
ATOM     27  C   UNL     1      17.294   3.579  -1.540  1.00  0.00    -0.000 C 
BRANCH  27  28
ATOM     28  C   UNL     1      17.650   4.165  -0.165  1.00  0.00    -0.000 C 
BRANCH  28  29
ATOM     29  C   UNL     1      18.107   5.629  -0.249  1.00  0.00    -0.003 C 
ATOM     30  C   UNL     1      18.388   6.197   1.139  1.00  0.00     0.004 C 
ENDBRANCH  28  29
ENDBRANCH  27  28
ENDBRANCH  26  27
ENDBRANCH  25  26
ENDBRANCH  24  25
ENDBRANCH  23  24
ENDBRANCH  22  23
ENDBRANCH  21  22
ENDBRANCH  20  21
ENDBRANCH  19  20
ENDBRANCH  18  19
ENDBRANCH  17  18
ENDBRANCH   1  17
TORSDOF 26
ENDMDL
MODEL 3
REMARK VINA RESULT:    -4.133      3.693      9.228
REMARK INTER + INTRA:         -12.689
REMARK INTER:                  -9.809
REMARK INTRA:                  -2.880
REMARK UNBOUND:                -2.275
REMARK SMILES CCCCCCCCCCCCCCCCCCCCCCCCCCCC(=O)[O-]
REMARK SMILES IDX 15 1 16 2 17 3 18 4 19 5 20 6 21 7 22 8 23 9 24 10 25 11
REMARK SMILES IDX 26 12 27 13 28 14 29 15 30 16 14 17 13 18 12 19 11 20 10 21
REMARK SMILES IDX 9 22 8 23 7 24 6 25 5 26 4 27 3 28 2 29 1 30
REMARK H PARENT
REMARK Flexibility Score: inf
ROOT
ATOM      1  C   UNL     1      15.469   4.356  -6.268  1.00  0.00     0.000 C 
ENDROOT
BRANCH   1   2
ATOM      2  C   UNL     1      16.184   5.543  -6.946  1.00  0.00     0.000 C 
BRANCH   2   3
ATOM      3  C   UNL     1      17.193   5.131  -8.036  1.00  0.00     0.000 C 
BRANCH   3   4
ATOM      4  C   UNL     1      18.675   5.228  -7.631  1.00  0.00     0.000 C 
BRANCH   4   5
ATOM      5  C   UNL     1      19.069   6.514  -6.875  1.00  0.00     0.000 C 
BRANCH   5   6
ATOM      6  C   UNL     1      20.018   7.459  -7.636  1.00  0.00     0.000 C 
BRANCH   6   7
ATOM      7  C   UNL     1      20.122   8.851  -6.990  1.00  0.00     0.000 C 
BRANCH   7   8
ATOM      8  C   UNL     1      18.869   9.709  -7.226  1.00  0.00     0.000 C 
BRANCH   8   9
ATOM      9  C   UNL     1      19.080  11.188  -6.858  1.00  0.00     0.000 C 
BRANCH   9  10
ATOM     10  C   UNL     1      18.442  12.141  -7.885  1.00  0.00     0.000 C 
BRANCH  10  11
ATOM     11  C   UNL     1      17.184  12.863  -7.367  1.00  0.00     0.000 C 
BRANCH  11  12
ATOM     12  C   UNL     1      16.971  12.655  -5.856  1.00  0.00     0.006 C 
BRANCH  12  13
ATOM     13  C   UNL     1      17.137  13.957  -5.063  1.00  0.00     0.053 C 
BRANCH  13  14
ATOM     14  C   UNL     1      18.568  14.205  -4.691  1.00  0.00     0.041 C 
ATOM     15  O   UNL     1      19.222  13.327  -4.069  1.00  0.00    -0.550 OA
ATOM     16  O   UNL     1      19.188  15.392  -5.063  1.00  0.00    -0.550 OA
ENDBRANCH  13  14
ENDBRANCH  12  13
ENDBRANCH  11  12
ENDBRANCH  10  11
ENDBRANCH   9  10
ENDBRANCH   8   9
ENDBRANCH   7   8
ENDBRANCH   6   7
ENDBRANCH   5   6
ENDBRANCH   4   5
ENDBRANCH   3   4
ENDBRANCH   2   3
ENDBRANCH   1   2
BRANCH   1  17
ATOM     17  C   UNL     1      15.968   2.993  -6.775  1.00  0.00     0.000 C 
BRANCH  17  18
ATOM     18  C   UNL     1      16.625   2.190  -5.646  1.00  0.00     0.000 C 
BRANCH  18  19
ATOM     19  C   UNL     1      17.146   3.125  -4.544  1.00  0.00     0.000 C 
BRANCH  19  20
ATOM     20  C   UNL     1      18.638   2.910  -4.233  1.00  0.00     0.000 C 
BRANCH  20  21
ATOM     21  C   UNL     1      19.413   4.189  -3.859  1.00  0.00     0.000 C 
BRANCH  21  22
ATOM     22  C   UNL     1      20.050   4.187  -2.454  1.00  0.00    -0.000 C 
BRANCH  22  23
ATOM     23  C   UNL     1      20.013   2.835  -1.719  1.00  0.00    -0.000 C 
BRANCH  23  24
ATOM     24  C   UNL     1      19.264   2.904  -0.378  1.00  0.00    -0.000 C 
BRANCH  24  25
ATOM     25  C   UNL     1      17.738   2.774  -0.534  1.00  0.00    -0.000 C 
BRANCH  25  26
ATOM     26  C   UNL     1      16.922   3.957   0.017  1.00  0.00    -0.000 C 
BRANCH  26  27
ATOM     27  C   UNL     1      17.794   5.009   0.721  1.00  0.00    -0.000 C 
BRANCH  27  28
ATOM     28  C   UNL     1      17.833   4.821   2.245  1.00  0.00    -0.000 C 
BRANCH  28  29
ATOM     29  C   UNL     1      19.137   5.338   2.870  1.00  0.00    -0.003 C 
ATOM     30  C   UNL     1      20.061   5.925   1.807  1.00  0.00     0.004 C 
ENDBRANCH  28  29
ENDBRANCH  27  28
ENDBRANCH  26  27
ENDBRANCH  25  26
ENDBRANCH  24  25
ENDBRANCH  23  24
ENDBRANCH  22  23
ENDBRANCH  21  22
ENDBRANCH  20  21
ENDBRANCH  19  20
ENDBRANCH  18  19
ENDBRANCH  17  18
ENDBRANCH   1  17
TORSDOF 26
ENDMDL
MODEL 4
REMARK VINA RESULT:    -4.040      1.374      1.895
REMARK INTER + INTRA:         -12.456
REMARK INTER:                 -10.355
REMARK INTRA:                  -2.101
REMARK UNBOUND:                -2.275
REMARK SMILES CCCCCCCCCCCCCCCCCCCCCCCCCCCC(=O)[O-]
REMARK SMILES IDX 15 1 16 2 17 3 18 4 19 5 20 6 21 7 22 8 23 9 24 10 25 11
REMARK SMILES IDX 26 12 27 13 28 14 29 15 30 16 14 17 13 18 12 19 11 20 10 21
REMARK SMILES IDX 9 22 8 23 7 24 6 25 5 26 4 27 3 28 2 29 1 30
REMARK H PARENT
REMARK Flexibility Score: inf
ROOT
ATOM      1  C   UNL     1      15.820   4.260  -6.617  1.00  0.00     0.000 C 
ENDROOT
BRANCH   1   2
ATOM      2  C   UNL     1      16.206   2.779  -6.820  1.00  0.00     0.000 C 
BRANCH   2   3
ATOM      3  C   UNL     1      16.570   2.040  -5.516  1.00  0.00     0.000 C 
BRANCH   3   4
ATOM      4  C   UNL     1      17.988   2.310  -4.983  1.00  0.00     0.000 C 
BRANCH   4   5
ATOM      5  C   UNL     1      18.083   3.381  -3.875  1.00  0.00     0.000 C 
BRANCH   5   6
ATOM      6  C   UNL     1      19.447   3.476  -3.167  1.00  0.00     0.000 C 
BRANCH   6   7
ATOM      7  C   UNL     1      19.351   3.248  -1.649  1.00  0.00     0.000 C 
BRANCH   7   8
ATOM      8  C   UNL     1      17.985   2.689  -1.219  1.00  0.00     0.000 C 
BRANCH   8   9
ATOM      9  C   UNL     1      17.920   2.361   0.283  1.00  0.00     0.000 C 
BRANCH   9  10
ATOM     10  C   UNL     1      16.571   2.759   0.908  1.00  0.00     0.000 C 
BRANCH  10  11
ATOM     11  C   UNL     1      16.634   3.000   2.428  1.00  0.00     0.000 C 
BRANCH  11  12
ATOM     12  C   UNL     1      17.575   4.162   2.796  1.00  0.00     0.006 C 
BRANCH  12  13
ATOM     13  C   UNL     1      18.715   3.714   3.721  1.00  0.00     0.053 C 
BRANCH  13  14
ATOM     14  C   UNL     1      19.289   4.863   4.492  1.00  0.00     0.041 C 
ATOM     15  O   UNL     1      19.835   5.823   3.887  1.00  0.00    -0.550 OA
ATOM     16  O   UNL     1      19.192   4.888   5.879  1.00  0.00    -0.550 OA
ENDBRANCH  13  14
ENDBRANCH  12  13
ENDBRANCH  11  12
ENDBRANCH  10  11
ENDBRANCH   9  10
ENDBRANCH   8   9
ENDBRANCH   7   8
ENDBRANCH   6   7
ENDBRANCH   5   6
ENDBRANCH   4   5
ENDBRANCH   3   4
ENDBRANCH   2   3
ENDBRANCH   1   2
BRANCH   1  17
ATOM     17  C   UNL     1      16.551   5.202  -7.586  1.00  0.00     0.000 C 
BRANCH  17  18
ATOM     18  C   UNL     1      18.066   4.967  -7.548  1.00  0.00     0.000 C 
BRANCH  18  19
ATOM     19  C   UNL     1      18.731   5.870  -6.500  1.00  0.00     0.000 C 
BRANCH  19  20
ATOM     20  C   UNL     1      20.122   6.366  -6.934  1.00  0.00     0.000 C 
BRANCH  20  21
ATOM     21  C   UNL     1      20.119   7.672  -7.754  1.00  0.00     0.000 C 
BRANCH  21  22
ATOM     22  C   UNL     1      20.045   8.971  -6.925  1.00  0.00    -0.000 C 
BRANCH  22  23
ATOM     23  C   UNL     1      19.096  10.050  -7.479  1.00  0.00    -0.000 C 
BRANCH  23  24
ATOM     24  C   UNL     1      19.101  11.338  -6.639  1.00  0.00    -0.000 C 
BRANCH  24  25
ATOM     25  C   UNL     1      17.733  11.648  -6.005  1.00  0.00    -0.000 C 
BRANCH  25  26
ATOM     26  C   UNL     1      17.557  13.093  -5.507  1.00  0.00    -0.000 C 
BRANCH  26  27
ATOM     27  C   UNL     1      16.503  13.878  -6.306  1.00  0.00    -0.000 C 
BRANCH  27  28
ATOM     28  C   UNL     1      15.341  12.993  -6.779  1.00  0.00    -0.000 C 
BRANCH  28  29
ATOM     29  C   UNL     1      15.126  13.066  -8.298  1.00  0.00    -0.003 C 
ATOM     30  C   UNL     1      16.421  13.426  -9.020  1.00  0.00     0.004 C 
ENDBRANCH  28  29
ENDBRANCH  27  28
ENDBRANCH  26  27
ENDBRANCH  25  26
ENDBRANCH  24  25
ENDBRANCH  23  24
ENDBRANCH  22  23
ENDBRANCH  21  22
ENDBRANCH  20  21
ENDBRANCH  19  20
ENDBRANCH  18  19
ENDBRANCH  17  18
ENDBRANCH   1  17
TORSDOF 26
ENDMDL
MODEL 5
REMARK VINA RESULT:    -3.938      4.495     10.058
REMARK INTER + INTRA:         -12.198
REMARK INTER:                  -9.985
REMARK INTRA:                  -2.212
REMARK UNBOUND:                -2.275
REMARK SMILES CCCCCCCCCCCCCCCCCCCCCCCCCCCC(=O)[O-]
REMARK SMILES IDX 15 1 16 2 17 3 18 4 19 5 20 6 21 7 22 8 23 9 24 10 25 11
REMARK SMILES IDX 26 12 27 13 28 14 29 15 30 16 14 17 13 18 12 19 11 20 10 21
REMARK SMILES IDX 9 22 8 23 7 24 6 25 5 26 4 27 3 28 2 29 1 30
REMARK H PARENT
REMARK Flexibility Score: inf
ROOT
ATOM      1  C   UNL     1      16.069   5.738  -7.142  1.00  0.00     0.000 C 
ENDROOT
BRANCH   1   2
ATOM      2  C   UNL     1      17.098   5.064  -8.075  1.00  0.00     0.000 C 
BRANCH   2   3
ATOM      3  C   UNL     1      18.565   5.406  -7.745  1.00  0.00     0.000 C 
BRANCH   3   4
ATOM      4  C   UNL     1      18.793   6.799  -7.131  1.00  0.00     0.000 C 
BRANCH   4   5
ATOM      5  C   UNL     1      20.125   7.478  -7.513  1.00  0.00     0.000 C 
BRANCH   5   6
ATOM      6  C   UNL     1      20.058   9.006  -7.686  1.00  0.00     0.000 C 
BRANCH   6   7
ATOM      7  C   UNL     1      18.875   9.642  -6.937  1.00  0.00     0.000 C 
BRANCH   7   8
ATOM      8  C   UNL     1      18.843  11.173  -7.071  1.00  0.00     0.000 C 
BRANCH   8   9
ATOM      9  C   UNL     1      17.697  11.819  -6.271  1.00  0.00     0.000 C 
BRANCH   9  10
ATOM     10  C   UNL     1      18.217  12.719  -5.135  1.00  0.00     0.000 C 
BRANCH  10  11
ATOM     11  C   UNL     1      17.523  14.092  -5.061  1.00  0.00     0.000 C 
BRANCH  11  12
ATOM     12  C   UNL     1      16.869  14.489  -6.397  1.00  0.00     0.006 C 
BRANCH  12  13
ATOM     13  C   UNL     1      17.884  15.068  -7.391  1.00  0.00     0.053 C 
BRANCH  13  14
ATOM     14  C   UNL     1      17.533  14.728  -8.807  1.00  0.00     0.041 C 
ATOM     15  O   UNL     1      18.194  15.221  -9.759  1.00  0.00    -0.550 OA
ATOM     16  O   UNL     1      16.497  13.841  -9.074  1.00  0.00    -0.550 OA
ENDBRANCH  13  14
ENDBRANCH  12  13
ENDBRANCH  11  12
ENDBRANCH  10  11
ENDBRANCH   9  10
ENDBRANCH   8   9
ENDBRANCH   7   8
ENDBRANCH   6   7
ENDBRANCH   5   6
ENDBRANCH   4   5
ENDBRANCH   3   4
ENDBRANCH   2   3
ENDBRANCH   1   2
BRANCH   1  17
ATOM     17  C   UNL     1      15.463   4.761  -6.122  1.00  0.00     0.000 C 
BRANCH  17  18
ATOM     18  C   UNL     1      15.934   3.325  -6.385  1.00  0.00     0.000 C 
BRANCH  18  19
ATOM     19  C   UNL     1      16.682   2.765  -5.167  1.00  0.00     0.000 C 
BRANCH  19  20
ATOM     20  C   UNL     1      18.211   2.897  -5.291  1.00  0.00     0.000 C 
BRANCH  20  21
ATOM     21  C   UNL     1      18.874   3.792  -4.224  1.00  0.00     0.000 C 
BRANCH  21  22
ATOM     22  C   UNL     1      19.683   3.044  -3.146  1.00  0.00    -0.000 C 
BRANCH  22  23
ATOM     23  C   UNL     1      19.126   3.150  -1.715  1.00  0.00    -0.000 C 
BRANCH  23  24
ATOM     24  C   UNL     1      17.656   3.600  -1.678  1.00  0.00    -0.000 C 
BRANCH  24  25
ATOM     25  C   UNL     1      17.255   4.235  -0.334  1.00  0.00    -0.000 C 
BRANCH  25  26
ATOM     26  C   UNL     1      16.685   3.254   0.706  1.00  0.00    -0.000 C 
BRANCH  26  27
ATOM     27  C   UNL     1      17.477   3.253   2.025  1.00  0.00    -0.000 C 
BRANCH  27  28
ATOM     28  C   UNL     1      17.503   4.632   2.700  1.00  0.00    -0.000 C 
BRANCH  28  29
ATOM     29  C   UNL     1      18.931   5.139   2.951  1.00  0.00    -0.003 C 
ATOM     30  C   UNL     1      19.393   6.058   1.825  1.00  0.00     0.004 C 
ENDBRANCH  28  29
ENDBRANCH  27  28
ENDBRANCH  26  27
ENDBRANCH  25  26
ENDBRANCH  24  25
ENDBRANCH  23  24
ENDBRANCH  22  23
ENDBRANCH  21  22
ENDBRANCH  20  21
ENDBRANCH  19  20
ENDBRANCH  18  19
ENDBRANCH  17  18
ENDBRANCH   1  17
TORSDOF 26
ENDMDL
MODEL 6
REMARK VINA RESULT:    -3.861      3.795     10.227
REMARK INTER + INTRA:         -12.005
REMARK INTER:                  -9.025
REMARK INTRA:                  -2.980
REMARK UNBOUND:                -2.275
REMARK SMILES CCCCCCCCCCCCCCCCCCCCCCCCCCCC(=O)[O-]
REMARK SMILES IDX 15 1 16 2 17 3 18 4 19 5 20 6 21 7 22 8 23 9 24 10 25 11
REMARK SMILES IDX 26 12 27 13 28 14 29 15 30 16 14 17 13 18 12 19 11 20 10 21
REMARK SMILES IDX 9 22 8 23 7 24 6 25 5 26 4 27 3 28 2 29 1 30
REMARK H PARENT
REMARK Flexibility Score: inf
ROOT
ATOM      1  C   UNL     1      18.866  11.182  -6.108  1.00  0.00     0.000 C 
ENDROOT
BRANCH   1   2
ATOM      2  C   UNL     1      17.361  11.264  -6.440  1.00  0.00     0.000 C 
BRANCH   2   3
ATOM      3  C   UNL     1      16.784  12.694  -6.399  1.00  0.00     0.000 C 
BRANCH   3   4
ATOM      4  C   UNL     1      15.271  12.799  -6.661  1.00  0.00     0.000 C 
BRANCH   4   5
ATOM      5  C   UNL     1      14.879  13.340  -8.052  1.00  0.00     0.000 C 
BRANCH   5   6
ATOM      6  C   UNL     1      15.730  12.818  -9.224  1.00  0.00     0.000 C 
BRANCH   6   7
ATOM      7  C   UNL     1      16.842  13.797  -9.639  1.00  0.00     0.000 C 
BRANCH   7   8
ATOM      8  C   UNL     1      18.219  13.121  -9.739  1.00  0.00     0.000 C 
BRANCH   8   9
ATOM      9  C   UNL     1      19.384  14.112  -9.572  1.00  0.00     0.000 C 
BRANCH   9  10
ATOM     10  C   UNL     1      18.993  15.332  -8.718  1.00  0.00     0.000 C 
BRANCH  10  11
ATOM     11  C   UNL     1      19.975  15.629  -7.569  1.00  0.00     0.000 C 
BRANCH  11  12
ATOM     12  C   UNL     1      19.956  14.536  -6.486  1.00  0.00     0.006 C 
BRANCH  12  13
ATOM     13  C   UNL     1      20.125  15.115  -5.075  1.00  0.00     0.053 C 
BRANCH  13  14
ATOM     14  C   UNL     1      19.082  14.597  -4.132  1.00  0.00     0.041 C 
ATOM     15  O   UNL     1      17.906  15.046  -4.180  1.00  0.00    -0.550 OA
ATOM     16  O   UNL     1      19.400  13.594  -3.224  1.00  0.00    -0.550 OA
ENDBRANCH  13  14
ENDBRANCH  12  13
ENDBRANCH  11  12
ENDBRANCH  10  11
ENDBRANCH   9  10
ENDBRANCH   8   9
ENDBRANCH   7   8
ENDBRANCH   6   7
ENDBRANCH   5   6
ENDBRANCH   4   5
ENDBRANCH   3   4
ENDBRANCH   2   3
ENDBRANCH   1   2
BRANCH   1  17
ATOM     17  C   UNL     1      19.656  10.352  -7.132  1.00  0.00     0.000 C 
BRANCH  17  18
ATOM     18  C   UNL     1      19.030   8.964  -7.319  1.00  0.00     0.000 C 
BRANCH  18  19
ATOM     19  C   UNL     1      20.117   7.883  -7.404  1.00  0.00     0.000 C 
BRANCH  19  20
ATOM     20  C   UNL     1      19.585   6.473  -7.092  1.00  0.00     0.000 C 
BRANCH  20  21
ATOM     21  C   UNL     1      18.048   6.359  -7.029  1.00  0.00     0.000 C 
BRANCH  21  22
ATOM     22  C   UNL     1      17.434   5.238  -7.893  1.00  0.00    -0.000 C 
BRANCH  22  23
ATOM     23  C   UNL     1      18.401   4.104  -8.280  1.00  0.00    -0.000 C 
BRANCH  23  24
ATOM     24  C   UNL     1      18.509   3.016  -7.199  1.00  0.00    -0.000 C 
BRANCH  24  25
ATOM     25  C   UNL     1      17.221   2.186  -7.051  1.00  0.00    -0.000 C 
BRANCH  25  26
ATOM     26  C   UNL     1      16.739   1.983  -5.604  1.00  0.00    -0.000 C 
BRANCH  26  27
ATOM     27  C   UNL     1      17.096   3.161  -4.683  1.00  0.00    -0.000 C 
BRANCH  27  28
ATOM     28  C   UNL     1      18.312   2.867  -3.791  1.00  0.00    -0.000 C 
BRANCH  28  29
ATOM     29  C   UNL     1      19.272   4.061  -3.692  1.00  0.00    -0.003 C 
ATOM     30  C   UNL     1      19.047   4.841  -2.400  1.00  0.00     0.004 C 
ENDBRANCH  28  29
ENDBRANCH  27  28
ENDBRANCH  26  27
ENDBRANCH  25  26
ENDBRANCH  24  25
ENDBRANCH  23  24
ENDBRANCH  22  23
ENDBRANCH  21  22
ENDBRANCH  20  21
ENDBRANCH  19  20
ENDBRANCH  18  19
ENDBRANCH  17  18
ENDBRANCH   1  17
TORSDOF 26
ENDMDL
MODEL 7
REMARK VINA RESULT:    -3.854      1.426      2.381
REMARK INTER + INTRA:         -11.986
REMARK INTER:                  -9.383
REMARK INTRA:                  -2.604
REMARK UNBOUND:                -2.275
REMARK SMILES CCCCCCCCCCCCCCCCCCCCCCCCCCCC(=O)[O-]
REMARK SMILES IDX 15 1 16 2 17 3 18 4 19 5 20 6 21 7 22 8 23 9 24 10 25 11
REMARK SMILES IDX 26 12 27 13 28 14 29 15 30 16 14 17 13 18 12 19 11 20 10 21
REMARK SMILES IDX 9 22 8 23 7 24 6 25 5 26 4 27 3 28 2 29 1 30
REMARK H PARENT
REMARK Flexibility Score: inf
ROOT
ATOM      1  C   UNL     1      15.823   2.893  -6.764  1.00  0.00     0.000 C 
ENDROOT
BRANCH   1   2
ATOM      2  C   UNL     1      17.086   2.006  -6.780  1.00  0.00     0.000 C 
BRANCH   2   3
ATOM      3  C   UNL     1      17.818   1.977  -8.137  1.00  0.00     0.000 C 
BRANCH   3   4
ATOM      4  C   UNL     1      19.205   2.644  -8.149  1.00  0.00     0.000 C 
BRANCH   4   5
ATOM      5  C   UNL     1      20.098   2.332  -6.929  1.00  0.00     0.000 C 
BRANCH   5   6
ATOM      6  C   UNL     1      20.122   3.417  -5.837  1.00  0.00     0.000 C 
BRANCH   6   7
ATOM      7  C   UNL     1      19.903   2.850  -4.425  1.00  0.00     0.000 C 
BRANCH   7   8
ATOM      8  C   UNL     1      19.095   3.798  -3.524  1.00  0.00     0.000 C 
BRANCH   8   9
ATOM      9  C   UNL     1      17.800   3.157  -2.992  1.00  0.00     0.000 C 
BRANCH   9  10
ATOM     10  C   UNL     1      17.737   3.166  -1.454  1.00  0.00     0.000 C 
BRANCH  10  11
ATOM     11  C   UNL     1      17.245   4.499  -0.858  1.00  0.00     0.000 C 
BRANCH  11  12
ATOM     12  C   UNL     1      18.281   5.135   0.086  1.00  0.00     0.006 C 
BRANCH  12  13
ATOM     13  C   UNL     1      18.753   4.159   1.172  1.00  0.00     0.053 C 
BRANCH  13  14
ATOM     14  C   UNL     1      18.138   4.468   2.503  1.00  0.00     0.041 C 
ATOM     15  O   UNL     1      17.121   3.836   2.893  1.00  0.00    -0.550 OA
ATOM     16  O   UNL     1      18.710   5.430   3.327  1.00  0.00    -0.550 OA
ENDBRANCH  13  14
ENDBRANCH  12  13
ENDBRANCH  11  12
ENDBRANCH  10  11
ENDBRANCH   9  10
ENDBRANCH   8   9
ENDBRANCH   7   8
ENDBRANCH   6   7
ENDBRANCH   5   6
ENDBRANCH   4   5
ENDBRANCH   3   4
ENDBRANCH   2   3
ENDBRANCH   1   2
BRANCH   1  17
ATOM     17  C   UNL     1      16.005   4.171  -5.930  1.00  0.00     0.000 C 
BRANCH  17  18
ATOM     18  C   UNL     1      15.782   5.425  -6.784  1.00  0.00     0.000 C 
BRANCH  18  19
ATOM     19  C   UNL     1      16.973   5.663  -7.724  1.00  0.00     0.000 C 
BRANCH  19  20
ATOM     20  C   UNL     1      18.304   5.836  -6.972  1.00  0.00     0.000 C 
BRANCH  20  21
ATOM     21  C   UNL     1      19.396   6.598  -7.752  1.00  0.00     0.000 C 
BRANCH  21  22
ATOM     22  C   UNL     1      20.118   7.707  -6.961  1.00  0.00    -0.000 C 
BRANCH  22  23
ATOM     23  C   UNL     1      20.120   9.095  -7.628  1.00  0.00    -0.000 C 
BRANCH  23  24
ATOM     24  C   UNL     1      18.870   9.922  -7.288  1.00  0.00    -0.000 C 
BRANCH  24  25
ATOM     25  C   UNL     1      19.203  11.269  -6.621  1.00  0.00    -0.000 C 
BRANCH  25  26
ATOM     26  C   UNL     1      19.327  12.462  -7.585  1.00  0.00    -0.000 C 
BRANCH  26  27
ATOM     27  C   UNL     1      19.307  13.820  -6.863  1.00  0.00    -0.000 C 
BRANCH  27  28
ATOM     28  C   UNL     1      17.948  14.526  -6.970  1.00  0.00    -0.000 C 
BRANCH  28  29
ATOM     29  C   UNL     1      17.127  14.425  -5.676  1.00  0.00    -0.003 C 
ATOM     30  C   UNL     1      16.431  15.746  -5.363  1.00  0.00     0.004 C 
ENDBRANCH  28  29
ENDBRANCH  27  28
ENDBRANCH  26  27
ENDBRANCH  25  26
ENDBRANCH  24  25
ENDBRANCH  23  24
ENDBRANCH  22  23
ENDBRANCH  21  22
ENDBRANCH  20  21
ENDBRANCH  19  20
ENDBRANCH  18  19
ENDBRANCH  17  18
ENDBRANCH   1  17
TORSDOF 26
ENDMDL
MODEL 8
REMARK VINA RESULT:    -3.831      1.761      3.971
REMARK INTER + INTRA:         -11.930
REMARK INTER:                  -9.418
REMARK INTRA:                  -2.511
REMARK UNBOUND:                -2.275
REMARK SMILES CCCCCCCCCCCCCCCCCCCCCCCCCCCC(=O)[O-]
REMARK SMILES IDX 15 1 16 2 17 3 18 4 19 5 20 6 21 7 22 8 23 9 24 10 25 11
REMARK SMILES IDX 26 12 27 13 28 14 29 15 30 16 14 17 13 18 12 19 11 20 10 21
REMARK SMILES IDX 9 22 8 23 7 24 6 25 5 26 4 27 3 28 2 29 1 30
REMARK H PARENT
REMARK Flexibility Score: inf
ROOT
ATOM      1  C   UNL     1      20.125   8.458  -6.905  1.00  0.00     0.000 C 
ENDROOT
BRANCH   1   2
ATOM      2  C   UNL     1      20.091   7.145  -7.716  1.00  0.00     0.000 C 
BRANCH   2   3
ATOM      3  C   UNL     1      18.943   6.193  -7.323  1.00  0.00     0.000 C 
BRANCH   3   4
ATOM      4  C   UNL     1      19.207   4.700  -7.591  1.00  0.00     0.000 C 
BRANCH   4   5
ATOM      5  C   UNL     1      19.979   3.957  -6.479  1.00  0.00     0.000 C 
BRANCH   5   6
ATOM      6  C   UNL     1      19.724   4.467  -5.049  1.00  0.00     0.000 C 
BRANCH   6   7
ATOM      7  C   UNL     1      18.490   3.823  -4.395  1.00  0.00     0.000 C 
BRANCH   7   8
ATOM      8  C   UNL     1      18.836   2.557  -3.595  1.00  0.00     0.000 C 
BRANCH   8   9
ATOM      9  C   UNL     1      19.526   2.867  -2.255  1.00  0.00     0.000 C 
BRANCH   9  10
ATOM     10  C   UNL     1      18.680   2.421  -1.048  1.00  0.00     0.000 C 
BRANCH  10  11
ATOM     11  C   UNL     1      17.251   2.995  -1.042  1.00  0.00     0.000 C 
BRANCH  11  12
ATOM     12  C   UNL     1      17.096   4.166  -0.054  1.00  0.00     0.006 C 
BRANCH  12  13
ATOM     13  C   UNL     1      17.104   3.697   1.406  1.00  0.00     0.053 C 
BRANCH  13  14
ATOM     14  C   UNL     1      17.767   4.694   2.307  1.00  0.00     0.041 C 
ATOM     15  O   UNL     1      17.983   4.411   3.515  1.00  0.00    -0.550 OA
ATOM     16  O   UNL     1      18.175   5.924   1.804  1.00  0.00    -0.550 OA
ENDBRANCH  13  14
ENDBRANCH  12  13
ENDBRANCH  11  12
ENDBRANCH  10  11
ENDBRANCH   9  10
ENDBRANCH   8   9
ENDBRANCH   7   8
ENDBRANCH   6   7
ENDBRANCH   5   6
ENDBRANCH   4   5
ENDBRANCH   3   4
ENDBRANCH   2   3
ENDBRANCH   1   2
BRANCH   1  17
ATOM     17  C   UNL     1      19.649   9.671  -7.719  1.00  0.00     0.000 C 
BRANCH  17  18
ATOM     18  C   UNL     1      20.010  10.985  -7.015  1.00  0.00     0.000 C 
BRANCH  18  19
ATOM     19  C   UNL     1      19.362  11.054  -5.625  1.00  0.00     0.000 C 
BRANCH  19  20
ATOM     20  C   UNL     1      18.062  11.878  -5.612  1.00  0.00     0.000 C 
BRANCH  20  21
ATOM     21  C   UNL     1      18.139  13.200  -4.821  1.00  0.00     0.000 C 
BRANCH  21  22
ATOM     22  C   UNL     1      17.128  14.283  -5.247  1.00  0.00    -0.000 C 
BRANCH  22  23
ATOM     23  C   UNL     1      17.596  15.208  -6.386  1.00  0.00    -0.000 C 
BRANCH  23  24
ATOM     24  C   UNL     1      19.110  15.121  -6.641  1.00  0.00    -0.000 C 
BRANCH  24  25
ATOM     25  C   UNL     1      19.481  15.304  -8.124  1.00  0.00    -0.000 C 
BRANCH  25  26
ATOM     26  C   UNL     1      18.338  15.036  -9.120  1.00  0.00    -0.000 C 
BRANCH  26  27
ATOM     27  C   UNL     1      17.975  13.546  -9.229  1.00  0.00    -0.000 C 
BRANCH  27  28
ATOM     28  C   UNL     1      16.480  13.320  -9.502  1.00  0.00    -0.000 C 
BRANCH  28  29
ATOM     29  C   UNL     1      15.781  12.561  -8.365  1.00  0.00    -0.003 C 
ATOM     30  C   UNL     1      14.539  13.309  -7.888  1.00  0.00     0.004 C 
ENDBRANCH  28  29
ENDBRANCH  27  28
ENDBRANCH  26  27
ENDBRANCH  25  26
ENDBRANCH  24  25
ENDBRANCH  23  24
ENDBRANCH  22  23
ENDBRANCH  21  22
ENDBRANCH  20  21
ENDBRANCH  19  20
ENDBRANCH  18  19
ENDBRANCH  17  18
ENDBRANCH   1  17
TORSDOF 26
ENDMDL
MODEL 9
REMARK VINA RESULT:    -3.738      1.802      4.977
REMARK INTER + INTRA:         -11.695
REMARK INTER:                 -10.127
REMARK INTRA:                  -1.569
REMARK UNBOUND:                -2.275
REMARK SMILES CCCCCCCCCCCCCCCCCCCCCCCCCCCC(=O)[O-]
REMARK SMILES IDX 15 1 16 2 17 3 18 4 19 5 20 6 21 7 22 8 23 9 24 10 25 11
REMARK SMILES IDX 26 12 27 13 28 14 29 15 30 16 14 17 13 18 12 19 11 20 10 21
REMARK SMILES IDX 9 22 8 23 7 24 6 25 5 26 4 27 3 28 2 29 1 30
REMARK H PARENT
REMARK Flexibility Score: inf
ROOT
ATOM      1  C   UNL     1      19.801   9.498  -7.548  1.00  0.00     0.000 C 
ENDROOT
BRANCH   1   2
ATOM      2  C   UNL     1      20.123   8.087  -7.012  1.00  0.00     0.000 C 
BRANCH   2   3
ATOM      3  C   UNL     1      19.127   7.000  -7.465  1.00  0.00     0.000 C 
BRANCH   3   4
ATOM      4  C   UNL     1      19.642   5.553  -7.363  1.00  0.00     0.000 C 
BRANCH   4   5
ATOM      5  C   UNL     1      18.869   4.517  -8.206  1.00  0.00     0.000 C 
BRANCH   5   6
ATOM      6  C   UNL     1      18.543   3.195  -7.486  1.00  0.00     0.000 C 
BRANCH   6   7
ATOM      7  C   UNL     1      17.084   2.750  -7.681  1.00  0.00     0.000 C 
BRANCH   7   8
ATOM      8  C   UNL     1      16.402   2.360  -6.360  1.00  0.00     0.000 C 
BRANCH   8   9
ATOM      9  C   UNL     1      16.724   3.332  -5.211  1.00  0.00     0.000 C 
BRANCH   9  10
ATOM     10  C   UNL     1      17.757   2.750  -4.229  1.00  0.00     0.000 C 
BRANCH  10  11
ATOM     11  C   UNL     1      17.450   3.052  -2.750  1.00  0.00     0.000 C 
BRANCH  11  12
ATOM     12  C   UNL     1      18.560   2.551  -1.809  1.00  0.00     0.006 C 
BRANCH  12  13
ATOM     13  C   UNL     1      19.189   3.690  -0.996  1.00  0.00     0.053 C 
BRANCH  13  14
ATOM     14  C   UNL     1      18.151   4.612  -0.434  1.00  0.00     0.041 C 
ATOM     15  O   UNL     1      18.198   5.846  -0.681  1.00  0.00    -0.550 OA
ATOM     16  O   UNL     1      17.111   4.104   0.336  1.00  0.00    -0.550 OA
ENDBRANCH  13  14
ENDBRANCH  12  13
ENDBRANCH  11  12
ENDBRANCH  10  11
ENDBRANCH   9  10
ENDBRANCH   8   9
ENDBRANCH   7   8
ENDBRANCH   6   7
ENDBRANCH   5   6
ENDBRANCH   4   5
ENDBRANCH   3   4
ENDBRANCH   2   3
ENDBRANCH   1   2
BRANCH   1  17
ATOM     17  C   UNL     1      19.370  10.470  -6.438  1.00  0.00     0.000 C 
BRANCH  17  18
ATOM     18  C   UNL     1      19.907  11.882  -6.702  1.00  0.00     0.000 C 
BRANCH  18  19
ATOM     19  C   UNL     1      19.927  12.186  -8.207  1.00  0.00     0.000 C 
BRANCH  19  20
ATOM     20  C   UNL     1      18.517  12.316  -8.809  1.00  0.00     0.000 C 
BRANCH  20  21
ATOM     21  C   UNL     1      18.385  13.369  -9.929  1.00  0.00     0.000 C 
BRANCH  21  22
ATOM     22  C   UNL     1      17.279  14.424  -9.715  1.00  0.00    -0.000 C 
BRANCH  22  23
ATOM     23  C   UNL     1      15.843  13.931  -9.974  1.00  0.00    -0.000 C 
BRANCH  23  24
ATOM     24  C   UNL     1      15.394  12.849  -8.979  1.00  0.00    -0.000 C 
BRANCH  24  25
ATOM     25  C   UNL     1      14.901  13.430  -7.641  1.00  0.00    -0.000 C 
BRANCH  25  26
ATOM     26  C   UNL     1      15.855  13.229  -6.451  1.00  0.00    -0.000 C 
BRANCH  26  27
ATOM     27  C   UNL     1      16.855  14.385  -6.283  1.00  0.00    -0.000 C 
BRANCH  27  28
ATOM     28  C   UNL     1      17.093  14.752  -4.810  1.00  0.00    -0.000 C 
BRANCH  28  29
ATOM     29  C   UNL     1      18.566  15.065  -4.511  1.00  0.00    -0.003 C 
ATOM     30  C   UNL     1      19.220  13.931  -3.726  1.00  0.00     0.004 C 
ENDBRANCH  28  29
ENDBRANCH  27  28
ENDBRANCH  26  27
ENDBRANCH  25  26
ENDBRANCH  24  25
ENDBRANCH  23  24
ENDBRANCH  22  23
ENDBRANCH  21  22
ENDBRANCH  20  21
ENDBRANCH  19  20
ENDBRANCH  18  19
ENDBRANCH  17  18
ENDBRANCH   1  17
TORSDOF 26
ENDMDL
