MODEL 1
REMARK VINA RESULT:    -4.455      0.000      0.000
REMARK INTER + INTRA:         -13.345
REMARK INTER:                  -9.664
REMARK INTRA:                  -3.681
REMARK UNBOUND:                -3.681
REMARK SMILES CCCCCCCCCCCCCCCCCCCCCC(=O)[O-]
REMARK SMILES IDX 12 1 11 2 10 3 9 4 8 5 7 6 6 7 5 8 4 9 3 10 2 11 1 12 13 13
REMARK SMILES IDX 14 14 15 15 16 16 17 17 18 18 19 19 20 20 21 21 22 22 23 23
REMARK SMILES IDX 24 24
REMARK H PARENT
REMARK Flexibility Score: inf
ROOT
ATOM      1  C   UNL     1     -52.947  14.315 -31.313  1.00  0.00     0.000 C 
ENDROOT
BRANCH   1   2
ATOM      2  C   UNL     1     -51.741  13.556 -30.728  1.00  0.00     0.000 C 
BRANCH   2   3
ATOM      3  C   UNL     1     -51.406  13.977 -29.287  1.00  0.00     0.000 C 
BRANCH   3   4
ATOM      4  C   UNL     1     -50.692  12.871 -28.489  1.00  0.00    -0.000 C 
BRANCH   4   5
ATOM      5  C   UNL     1     -50.771  11.463 -29.106  1.00  0.00    -0.000 C 
BRANCH   5   6
ATOM      6  C   UNL     1     -49.397  10.899 -29.497  1.00  0.00    -0.000 C 
BRANCH   6   7
ATOM      7  C   UNL     1     -49.508   9.996 -30.736  1.00  0.00    -0.000 C 
BRANCH   7   8
ATOM      8  C   UNL     1     -50.946   9.894 -31.270  1.00  0.00    -0.000 C 
BRANCH   8   9
ATOM      9  C   UNL     1     -51.413   8.437 -31.432  1.00  0.00    -0.000 C 
BRANCH   9  10
ATOM     10  C   UNL     1     -52.835   8.326 -32.015  1.00  0.00    -0.000 C 
BRANCH  10  11
ATOM     11  C   UNL     1     -52.897   8.029 -33.525  1.00  0.00    -0.003 C 
ATOM     12  C   UNL     1     -54.290   8.236 -34.118  1.00  0.00     0.004 C 
ENDBRANCH  10  11
ENDBRANCH   9  10
ENDBRANCH   8   9
ENDBRANCH   7   8
ENDBRANCH   6   7
ENDBRANCH   5   6
ENDBRANCH   4   5
ENDBRANCH   3   4
ENDBRANCH   2   3
ENDBRANCH   1   2
BRANCH   1  13
ATOM     13  C   UNL     1     -53.838  13.500 -32.268  1.00  0.00     0.000 C 
BRANCH  13  14
ATOM     14  C   UNL     1     -53.714  11.984 -32.062  1.00  0.00     0.000 C 
BRANCH  14  15
ATOM     15  C   UNL     1     -54.865  11.449 -31.202  1.00  0.00     0.000 C 
BRANCH  15  16
ATOM     16  C   UNL     1     -54.347  10.917 -29.858  1.00  0.00     0.000 C 
BRANCH  16  17
ATOM     17  C   UNL     1     -54.424  11.960 -28.728  1.00  0.00     0.000 C 
BRANCH  17  18
ATOM     18  C   UNL     1     -55.441  13.094 -28.957  1.00  0.00     0.000 C 
BRANCH  18  19
ATOM     19  C   UNL     1     -55.255  14.271 -27.988  1.00  0.00     0.000 C 
BRANCH  19  20
ATOM     20  C   UNL     1     -55.780  15.576 -28.603  1.00  0.00     0.006 C 
BRANCH  20  21
ATOM     21  C   UNL     1     -54.646  16.536 -28.985  1.00  0.00     0.053 C 
BRANCH  21  22
ATOM     22  C   UNL     1     -54.682  17.793 -28.169  1.00  0.00     0.041 C 
ATOM     23  O   UNL     1     -55.197  17.787 -27.021  1.00  0.00    -0.550 OA
ATOM     24  O   UNL     1     -54.165  18.974 -28.687  1.00  0.00    -0.550 OA
ENDBRANCH  21  22
ENDBRANCH  20  21
ENDBRANCH  19  20
ENDBRANCH  18  19
ENDBRANCH  17  18
ENDBRANCH  16  17
ENDBRANCH  15  16
ENDBRANCH  14  15
ENDBRANCH  13  14
ENDBRANCH   1  13
TORSDOF 20
ENDMDL
MODEL 2
REMARK VINA RESULT:    -4.320      3.463      7.064
REMARK INTER + INTRA:         -13.052
REMARK INTER:                  -9.472
REMARK INTRA:                  -3.580
REMARK UNBOUND:                -3.681
REMARK SMILES CCCCCCCCCCCCCCCCCCCCCC(=O)[O-]
REMARK SMILES IDX 12 1 11 2 10 3 9 4 8 5 7 6 6 7 5 8 4 9 3 10 2 11 1 12 13 13
REMARK SMILES IDX 14 14 15 15 16 16 17 17 18 18 19 19 20 20 21 21 22 22 23 23
REMARK SMILES IDX 24 24
REMARK H PARENT
REMARK Flexibility Score: inf
ROOT
ATOM      1  C   UNL     1     -55.135  15.494 -28.058  1.00  0.00     0.000 C 
ENDROOT
BRANCH   1   2
ATOM      2  C   UNL     1     -55.197  16.901 -27.433  1.00  0.00     0.000 C 
BRANCH   2   3
ATOM      3  C   UNL     1     -56.017  17.895 -28.273  1.00  0.00     0.000 C 
BRANCH   3   4
ATOM      4  C   UNL     1     -55.257  19.201 -28.566  1.00  0.00    -0.000 C 
BRANCH   4   5
ATOM      5  C   UNL     1     -54.852  19.409 -30.036  1.00  0.00    -0.000 C 
BRANCH   5   6
ATOM      6  C   UNL     1     -53.507  18.756 -30.389  1.00  0.00    -0.000 C 
BRANCH   6   7
ATOM      7  C   UNL     1     -53.720  17.468 -31.200  1.00  0.00    -0.000 C 
BRANCH   7   8
ATOM      8  C   UNL     1     -52.468  16.578 -31.243  1.00  0.00    -0.000 C 
BRANCH   8   9
ATOM      9  C   UNL     1     -52.799  15.108 -31.554  1.00  0.00    -0.000 C 
BRANCH   9  10
ATOM     10  C   UNL     1     -51.913  14.117 -30.775  1.00  0.00    -0.000 C 
BRANCH  10  11
ATOM     11  C   UNL     1     -51.870  14.339 -29.252  1.00  0.00    -0.003 C 
ATOM     12  C   UNL     1     -51.188  13.197 -28.500  1.00  0.00     0.004 C 
ENDBRANCH  10  11
ENDBRANCH   9  10
ENDBRANCH   8   9
ENDBRANCH   7   8
ENDBRANCH   6   7
ENDBRANCH   5   6
ENDBRANCH   4   5
ENDBRANCH   3   4
ENDBRANCH   2   3
ENDBRANCH   1   2
BRANCH   1  13
ATOM     13  C   UNL     1     -55.983  15.300 -29.329  1.00  0.00     0.000 C 
BRANCH  13  14
ATOM     14  C   UNL     1     -55.819  13.908 -29.956  1.00  0.00     0.000 C 
BRANCH  14  15
ATOM     15  C   UNL     1     -55.398  12.876 -28.903  1.00  0.00     0.000 C 
BRANCH  15  16
ATOM     16  C   UNL     1     -54.531  11.774 -29.529  1.00  0.00     0.000 C 
BRANCH  16  17
ATOM     17  C   UNL     1     -54.612  11.745 -31.066  1.00  0.00     0.000 C 
BRANCH  17  18
ATOM     18  C   UNL     1     -53.921  10.541 -31.732  1.00  0.00     0.000 C 
BRANCH  18  19
ATOM     19  C   UNL     1     -52.759  10.949 -32.651  1.00  0.00     0.000 C 
BRANCH  19  20
ATOM     20  C   UNL     1     -51.497  10.135 -32.332  1.00  0.00     0.006 C 
BRANCH  20  21
ATOM     21  C   UNL     1     -51.026  10.338 -30.886  1.00  0.00     0.053 C 
BRANCH  21  22
ATOM     22  C   UNL     1     -49.689   9.704 -30.643  1.00  0.00     0.041 C 
ATOM     23  O   UNL     1     -48.706  10.002 -31.369  1.00  0.00    -0.550 OA
ATOM     24  O   UNL     1     -49.537   8.769 -29.626  1.00  0.00    -0.550 OA
ENDBRANCH  21  22
ENDBRANCH  20  21
ENDBRANCH  19  20
ENDBRANCH  18  19
ENDBRANCH  17  18
ENDBRANCH  16  17
ENDBRANCH  15  16
ENDBRANCH  14  15
ENDBRANCH  13  14
ENDBRANCH   1  13
TORSDOF 20
ENDMDL
MODEL 3
REMARK VINA RESULT:    -4.300      1.614      2.513
REMARK INTER + INTRA:         -13.009
REMARK INTER:                  -9.892
REMARK INTRA:                  -3.117
REMARK UNBOUND:                -3.681
REMARK SMILES CCCCCCCCCCCCCCCCCCCCCC(=O)[O-]
REMARK SMILES IDX 12 1 11 2 10 3 9 4 8 5 7 6 6 7 5 8 4 9 3 10 2 11 1 12 13 13
REMARK SMILES IDX 14 14 15 15 16 16 17 17 18 18 19 19 20 20 21 21 22 22 23 23
REMARK SMILES IDX 24 24
REMARK H PARENT
REMARK Flexibility Score: inf
ROOT
ATOM      1  C   UNL     1     -51.419  14.314 -29.613  1.00  0.00     0.000 C 
ENDROOT
BRANCH   1   2
ATOM      2  C   UNL     1     -51.636  12.895 -29.051  1.00  0.00     0.000 C 
BRANCH   2   3
ATOM      3  C   UNL     1     -50.326  12.214 -28.619  1.00  0.00     0.000 C 
BRANCH   3   4
ATOM      4  C   UNL     1     -50.142  10.819 -29.242  1.00  0.00    -0.000 C 
BRANCH   4   5
ATOM      5  C   UNL     1     -48.784  10.581 -29.929  1.00  0.00    -0.000 C 
BRANCH   5   6
ATOM      6  C   UNL     1     -48.873   9.616 -31.120  1.00  0.00    -0.000 C 
BRANCH   6   7
ATOM      7  C   UNL     1     -50.325   9.171 -31.357  1.00  0.00    -0.000 C 
BRANCH   7   8
ATOM      8  C   UNL     1     -50.938   9.791 -32.623  1.00  0.00    -0.000 C 
BRANCH   8   9
ATOM      9  C   UNL     1     -52.059  10.796 -32.306  1.00  0.00    -0.000 C 
BRANCH   9  10
ATOM     10  C   UNL     1     -53.457  10.273 -32.686  1.00  0.00    -0.000 C 
BRANCH  10  11
ATOM     11  C   UNL     1     -54.416  10.058 -31.501  1.00  0.00    -0.003 C 
ATOM     12  C   UNL     1     -53.706  10.063 -30.147  1.00  0.00     0.004 C 
ENDBRANCH  10  11
ENDBRANCH   9  10
ENDBRANCH   8   9
ENDBRANCH   7   8
ENDBRANCH   6   7
ENDBRANCH   5   6
ENDBRANCH   4   5
ENDBRANCH   3   4
ENDBRANCH   2   3
ENDBRANCH   1   2
BRANCH   1  13
ATOM     13  C   UNL     1     -52.491  14.799 -30.607  1.00  0.00     0.000 C 
BRANCH  13  14
ATOM     14  C   UNL     1     -53.476  13.695 -31.017  1.00  0.00     0.000 C 
BRANCH  14  15
ATOM     15  C   UNL     1     -54.926  14.131 -30.767  1.00  0.00     0.000 C 
BRANCH  15  16
ATOM     16  C   UNL     1     -55.549  13.331 -29.614  1.00  0.00     0.000 C 
BRANCH  16  17
ATOM     17  C   UNL     1     -55.074  13.805 -28.228  1.00  0.00     0.000 C 
BRANCH  17  18
ATOM     18  C   UNL     1     -55.705  15.121 -27.738  1.00  0.00     0.000 C 
BRANCH  18  19
ATOM     19  C   UNL     1     -54.750  16.320 -27.842  1.00  0.00     0.000 C 
BRANCH  19  20
ATOM     20  C   UNL     1     -55.486  17.562 -28.366  1.00  0.00     0.006 C 
BRANCH  20  21
ATOM     21  C   UNL     1     -54.529  18.729 -28.643  1.00  0.00     0.053 C 
BRANCH  21  22
ATOM     22  C   UNL     1     -53.974  18.676 -30.034  1.00  0.00     0.041 C 
ATOM     23  O   UNL     1     -53.049  19.457 -30.376  1.00  0.00    -0.550 OA
ATOM     24  O   UNL     1     -54.494  17.777 -30.957  1.00  0.00    -0.550 OA
ENDBRANCH  21  22
ENDBRANCH  20  21
ENDBRANCH  19  20
ENDBRANCH  18  19
ENDBRANCH  17  18
ENDBRANCH  16  17
ENDBRANCH  15  16
ENDBRANCH  14  15
ENDBRANCH  13  14
ENDBRANCH   1  13
TORSDOF 20
ENDMDL
MODEL 4
REMARK VINA RESULT:    -4.250      3.478      7.031
REMARK INTER + INTRA:         -12.900
REMARK INTER:                  -9.822
REMARK INTRA:                  -3.078
REMARK UNBOUND:                -3.681
REMARK SMILES CCCCCCCCCCCCCCCCCCCCCC(=O)[O-]
REMARK SMILES IDX 12 1 11 2 10 3 9 4 8 5 7 6 6 7 5 8 4 9 3 10 2 11 1 12 13 13
REMARK SMILES IDX 14 14 15 15 16 16 17 17 18 18 19 19 20 20 21 21 22 22 23 23
REMARK SMILES IDX 24 24
REMARK H PARENT
REMARK Flexibility Score: inf
ROOT
ATOM      1  C   UNL     1     -55.403  12.736 -29.413  1.00  0.00     0.000 C 
ENDROOT
BRANCH   1   2
ATOM      2  C   UNL     1     -55.014  13.689 -28.266  1.00  0.00     0.000 C 
BRANCH   2   3
ATOM      3  C   UNL     1     -55.688  15.067 -28.376  1.00  0.00     0.000 C 
BRANCH   3   4
ATOM      4  C   UNL     1     -54.712  16.232 -28.132  1.00  0.00    -0.000 C 
BRANCH   4   5
ATOM      5  C   UNL     1     -54.508  17.180 -29.328  1.00  0.00    -0.000 C 
BRANCH   5   6
ATOM      6  C   UNL     1     -54.354  16.438 -30.664  1.00  0.00    -0.000 C 
BRANCH   6   7
ATOM      7  C   UNL     1     -53.107  16.924 -31.420  1.00  0.00    -0.000 C 
BRANCH   7   8
ATOM      8  C   UNL     1     -51.972  15.887 -31.425  1.00  0.00    -0.000 C 
BRANCH   8   9
ATOM      9  C   UNL     1     -52.394  14.549 -30.795  1.00  0.00    -0.000 C 
BRANCH   9  10
ATOM     10  C   UNL     1     -51.538  14.166 -29.572  1.00  0.00    -0.000 C 
BRANCH  10  11
ATOM     11  C   UNL     1     -51.573  12.674 -29.194  1.00  0.00    -0.003 C 
ATOM     12  C   UNL     1     -50.239  12.164 -28.649  1.00  0.00     0.004 C 
ENDBRANCH  10  11
ENDBRANCH   9  10
ENDBRANCH   8   9
ENDBRANCH   7   8
ENDBRANCH   6   7
ENDBRANCH   5   6
ENDBRANCH   4   5
ENDBRANCH   3   4
ENDBRANCH   2   3
ENDBRANCH   1   2
BRANCH   1  13
ATOM     13  C   UNL     1     -54.935  11.278 -29.246  1.00  0.00     0.000 C 
BRANCH  13  14
ATOM     14  C   UNL     1     -55.118  10.437 -30.517  1.00  0.00     0.000 C 
BRANCH  14  15
ATOM     15  C   UNL     1     -53.869   9.596 -30.806  1.00  0.00     0.000 C 
BRANCH  15  16
ATOM     16  C   UNL     1     -53.370   9.826 -32.239  1.00  0.00     0.000 C 
BRANCH  16  17
ATOM     17  C   UNL     1     -52.354  10.979 -32.344  1.00  0.00     0.000 C 
BRANCH  17  18
ATOM     18  C   UNL     1     -50.901  10.545 -32.610  1.00  0.00     0.000 C 
BRANCH  18  19
ATOM     19  C   UNL     1     -50.764   9.037 -32.873  1.00  0.00     0.000 C 
BRANCH  19  20
ATOM     20  C   UNL     1     -49.538   8.464 -32.149  1.00  0.00     0.006 C 
BRANCH  20  21
ATOM     21  C   UNL     1     -48.956   9.448 -31.125  1.00  0.00     0.053 C 
BRANCH  21  22
ATOM     22  C   UNL     1     -49.112   8.946 -29.721  1.00  0.00     0.041 C 
ATOM     23  O   UNL     1     -48.169   9.070 -28.897  1.00  0.00    -0.550 OA
ATOM     24  O   UNL     1     -50.291   8.324 -29.331  1.00  0.00    -0.550 OA
ENDBRANCH  21  22
ENDBRANCH  20  21
ENDBRANCH  19  20
ENDBRANCH  18  19
ENDBRANCH  17  18
ENDBRANCH  16  17
ENDBRANCH  15  16
ENDBRANCH  14  15
ENDBRANCH  13  14
ENDBRANCH   1  13
TORSDOF 20
ENDMDL
MODEL 5
REMARK VINA RESULT:    -4.180      1.146      3.819
REMARK INTER + INTRA:         -12.748
REMARK INTER:                  -9.994
REMARK INTRA:                  -2.754
REMARK UNBOUND:                -3.681
REMARK SMILES CCCCCCCCCCCCCCCCCCCCCC(=O)[O-]
REMARK SMILES IDX 12 1 11 2 10 3 9 4 8 5 7 6 6 7 5 8 4 9 3 10 2 11 1 12 13 13
REMARK SMILES IDX 14 14 15 15 16 16 17 17 18 18 19 19 20 20 21 21 22 22 23 23
REMARK SMILES IDX 24 24
REMARK H PARENT
REMARK Flexibility Score: inf
ROOT
ATOM      1  C   UNL     1     -52.763  10.786 -32.099  1.00  0.00     0.000 C 
ENDROOT
BRANCH   1   2
ATOM      2  C   UNL     1     -53.275   9.606 -32.947  1.00  0.00     0.000 C 
BRANCH   2   3
ATOM      3  C   UNL     1     -52.266   8.448 -33.036  1.00  0.00     0.000 C 
BRANCH   3   4
ATOM      4  C   UNL     1     -50.805   8.915 -32.909  1.00  0.00    -0.000 C 
BRANCH   4   5
ATOM      5  C   UNL     1     -49.856   7.922 -32.214  1.00  0.00    -0.000 C 
BRANCH   5   6
ATOM      6  C   UNL     1     -49.016   8.568 -31.102  1.00  0.00    -0.000 C 
BRANCH   6   7
ATOM      7  C   UNL     1     -49.289  10.078 -31.018  1.00  0.00    -0.000 C 
BRANCH   7   8
ATOM      8  C   UNL     1     -49.268  10.606 -29.574  1.00  0.00    -0.000 C 
BRANCH   8   9
ATOM      9  C   UNL     1     -50.618  11.207 -29.146  1.00  0.00    -0.000 C 
BRANCH   9  10
ATOM     10  C   UNL     1     -50.500  12.668 -28.672  1.00  0.00    -0.000 C 
BRANCH  10  11
ATOM     11  C   UNL     1     -51.749  13.534 -28.914  1.00  0.00    -0.003 C 
ATOM     12  C   UNL     1     -51.628  14.428 -30.149  1.00  0.00     0.004 C 
ENDBRANCH  10  11
ENDBRANCH   9  10
ENDBRANCH   8   9
ENDBRANCH   7   8
ENDBRANCH   6   7
ENDBRANCH   5   6
ENDBRANCH   4   5
ENDBRANCH   3   4
ENDBRANCH   2   3
ENDBRANCH   1   2
BRANCH   1  13
ATOM     13  C   UNL     1     -53.463  12.134 -32.356  1.00  0.00     0.000 C 
BRANCH  13  14
ATOM     14  C   UNL     1     -54.651  12.384 -31.416  1.00  0.00     0.000 C 
BRANCH  14  15
ATOM     15  C   UNL     1     -54.647  11.391 -30.247  1.00  0.00     0.000 C 
BRANCH  15  16
ATOM     16  C   UNL     1     -55.096  12.071 -28.946  1.00  0.00     0.000 C 
BRANCH  16  17
ATOM     17  C   UNL     1     -55.433  13.563 -29.132  1.00  0.00     0.000 C 
BRANCH  17  18
ATOM     18  C   UNL     1     -55.515  14.379 -27.829  1.00  0.00     0.000 C 
BRANCH  18  19
ATOM     19  C   UNL     1     -55.909  15.845 -28.063  1.00  0.00     0.000 C 
BRANCH  19  20
ATOM     20  C   UNL     1     -54.665  16.740 -28.147  1.00  0.00     0.006 C 
BRANCH  20  21
ATOM     21  C   UNL     1     -54.501  17.379 -29.533  1.00  0.00     0.053 C 
BRANCH  21  22
ATOM     22  C   UNL     1     -54.332  18.865 -29.444  1.00  0.00     0.041 C 
ATOM     23  O   UNL     1     -55.153  19.557 -28.788  1.00  0.00    -0.550 OA
ATOM     24  O   UNL     1     -53.280  19.487 -30.104  1.00  0.00    -0.550 OA
ENDBRANCH  21  22
ENDBRANCH  20  21
ENDBRANCH  19  20
ENDBRANCH  18  19
ENDBRANCH  17  18
ENDBRANCH  16  17
ENDBRANCH  15  16
ENDBRANCH  14  15
ENDBRANCH  13  14
ENDBRANCH   1  13
TORSDOF 20
ENDMDL
MODEL 6
REMARK VINA RESULT:    -4.139      3.157      7.602
REMARK INTER + INTRA:         -12.659
REMARK INTER:                 -10.054
REMARK INTRA:                  -2.606
REMARK UNBOUND:                -3.681
REMARK SMILES CCCCCCCCCCCCCCCCCCCCCC(=O)[O-]
REMARK SMILES IDX 12 1 11 2 10 3 9 4 8 5 7 6 6 7 5 8 4 9 3 10 2 11 1 12 13 13
REMARK SMILES IDX 14 14 15 15 16 16 17 17 18 18 19 19 20 20 21 21 22 22 23 23
REMARK SMILES IDX 24 24
REMARK H PARENT
REMARK Flexibility Score: inf
ROOT
ATOM      1  C   UNL     1     -52.145  13.521 -30.775  1.00  0.00     0.000 C 
ENDROOT
BRANCH   1   2
ATOM      2  C   UNL     1     -52.436  14.078 -29.368  1.00  0.00     0.000 C 
BRANCH   2   3
ATOM      3  C   UNL     1     -53.211  13.090 -28.479  1.00  0.00     0.000 C 
BRANCH   3   4
ATOM      4  C   UNL     1     -54.625  13.585 -28.125  1.00  0.00    -0.000 C 
BRANCH   4   5
ATOM      5  C   UNL     1     -55.009  14.954 -28.717  1.00  0.00    -0.000 C 
BRANCH   5   6
ATOM      6  C   UNL     1     -55.790  15.838 -27.733  1.00  0.00    -0.000 C 
BRANCH   6   7
ATOM      7  C   UNL     1     -54.964  17.069 -27.329  1.00  0.00    -0.000 C 
BRANCH   7   8
ATOM      8  C   UNL     1     -55.421  18.352 -28.044  1.00  0.00    -0.000 C 
BRANCH   8   9
ATOM      9  C   UNL     1     -54.254  19.110 -28.699  1.00  0.00    -0.000 C 
BRANCH   9  10
ATOM     10  C   UNL     1     -54.384  19.200 -30.231  1.00  0.00    -0.000 C 
BRANCH  10  11
ATOM     11  C   UNL     1     -54.518  17.848 -30.954  1.00  0.00    -0.003 C 
ATOM     12  C   UNL     1     -53.173  17.167 -31.207  1.00  0.00     0.004 C 
ENDBRANCH  10  11
ENDBRANCH   9  10
ENDBRANCH   8   9
ENDBRANCH   7   8
ENDBRANCH   6   7
ENDBRANCH   5   6
ENDBRANCH   4   5
ENDBRANCH   3   4
ENDBRANCH   2   3
ENDBRANCH   1   2
BRANCH   1  13
ATOM     13  C   UNL     1     -53.363  13.431 -31.713  1.00  0.00     0.000 C 
BRANCH  13  14
ATOM     14  C   UNL     1     -53.615  12.011 -32.239  1.00  0.00     0.000 C 
BRANCH  14  15
ATOM     15  C   UNL     1     -54.239  11.124 -31.154  1.00  0.00     0.000 C 
BRANCH  15  16
ATOM     16  C   UNL     1     -53.817   9.659 -31.331  1.00  0.00     0.000 C 
BRANCH  16  17
ATOM     17  C   UNL     1     -53.069   9.403 -32.653  1.00  0.00     0.000 C 
BRANCH  17  18
ATOM     18  C   UNL     1     -52.326   8.057 -32.731  1.00  0.00     0.000 C 
BRANCH  18  19
ATOM     19  C   UNL     1     -50.877   8.199 -33.224  1.00  0.00     0.000 C 
BRANCH  19  20
ATOM     20  C   UNL     1     -50.282   9.547 -32.794  1.00  0.00     0.006 C 
BRANCH  20  21
ATOM     21  C   UNL     1     -49.121   9.380 -31.805  1.00  0.00     0.053 C 
BRANCH  21  22
ATOM     22  C   UNL     1     -49.355  10.145 -30.538  1.00  0.00     0.041 C 
ATOM     23  O   UNL     1     -50.495  10.611 -30.281  1.00  0.00    -0.550 OA
ATOM     24  O   UNL     1     -48.307  10.359 -29.651  1.00  0.00    -0.550 OA
ENDBRANCH  21  22
ENDBRANCH  20  21
ENDBRANCH  19  20
ENDBRANCH  18  19
ENDBRANCH  17  18
ENDBRANCH  16  17
ENDBRANCH  15  16
ENDBRANCH  14  15
ENDBRANCH  13  14
ENDBRANCH   1  13
TORSDOF 20
ENDMDL
MODEL 7
REMARK VINA RESULT:    -4.084      2.507      4.346
REMARK INTER + INTRA:         -12.541
REMARK INTER:                  -9.819
REMARK INTRA:                  -2.722
REMARK UNBOUND:                -3.681
REMARK SMILES CCCCCCCCCCCCCCCCCCCCCC(=O)[O-]
REMARK SMILES IDX 12 1 11 2 10 3 9 4 8 5 7 6 6 7 5 8 4 9 3 10 2 11 1 12 13 13
REMARK SMILES IDX 14 14 15 15 16 16 17 17 18 18 19 19 20 20 21 21 22 22 23 23
REMARK SMILES IDX 24 24
REMARK H PARENT
REMARK Flexibility Score: inf
ROOT
ATOM      1  C   UNL     1     -52.740  16.722 -31.827  1.00  0.00     0.000 C 
ENDROOT
BRANCH   1   2
ATOM      2  C   UNL     1     -52.440  15.226 -31.615  1.00  0.00     0.000 C 
BRANCH   2   3
ATOM      3  C   UNL     1     -51.544  14.960 -30.394  1.00  0.00     0.000 C 
BRANCH   3   4
ATOM      4  C   UNL     1     -51.561  13.488 -29.947  1.00  0.00    -0.000 C 
BRANCH   4   5
ATOM      5  C   UNL     1     -50.704  13.168 -28.708  1.00  0.00    -0.000 C 
BRANCH   5   6
ATOM      6  C   UNL     1     -50.479  11.662 -28.504  1.00  0.00    -0.000 C 
BRANCH   6   7
ATOM      7  C   UNL     1     -49.298  11.166 -29.354  1.00  0.00    -0.000 C 
BRANCH   7   8
ATOM      8  C   UNL     1     -49.598   9.842 -30.073  1.00  0.00    -0.000 C 
BRANCH   8   9
ATOM      9  C   UNL     1     -48.977   9.780 -31.480  1.00  0.00    -0.000 C 
BRANCH   9  10
ATOM     10  C   UNL     1     -50.034   9.764 -32.601  1.00  0.00    -0.000 C 
BRANCH  10  11
ATOM     11  C   UNL     1     -51.399  10.365 -32.218  1.00  0.00    -0.003 C 
ATOM     12  C   UNL     1     -52.578   9.483 -32.628  1.00  0.00     0.004 C 
ENDBRANCH  10  11
ENDBRANCH   9  10
ENDBRANCH   8   9
ENDBRANCH   7   8
ENDBRANCH   6   7
ENDBRANCH   5   6
ENDBRANCH   4   5
ENDBRANCH   3   4
ENDBRANCH   2   3
ENDBRANCH   1   2
BRANCH   1  13
ATOM     13  C   UNL     1     -53.867  17.299 -30.950  1.00  0.00     0.000 C 
BRANCH  13  14
ATOM     14  C   UNL     1     -53.518  18.664 -30.341  1.00  0.00     0.000 C 
BRANCH  14  15
ATOM     15  C   UNL     1     -54.234  18.868 -29.000  1.00  0.00     0.000 C 
BRANCH  15  16
ATOM     16  C   UNL     1     -55.503  18.008 -28.917  1.00  0.00     0.000 C 
BRANCH  16  17
ATOM     17  C   UNL     1     -55.629  17.249 -27.584  1.00  0.00     0.000 C 
BRANCH  17  18
ATOM     18  C   UNL     1     -55.867  15.733 -27.717  1.00  0.00     0.000 C 
BRANCH  18  19
ATOM     19  C   UNL     1     -54.679  14.994 -28.352  1.00  0.00     0.000 C 
BRANCH  19  20
ATOM     20  C   UNL     1     -55.107  13.614 -28.872  1.00  0.00     0.006 C 
BRANCH  20  21
ATOM     21  C   UNL     1     -55.486  13.647 -30.359  1.00  0.00     0.053 C 
BRANCH  21  22
ATOM     22  C   UNL     1     -55.056  12.400 -31.070  1.00  0.00     0.041 C 
ATOM     23  O   UNL     1     -54.328  12.474 -32.094  1.00  0.00    -0.550 OA
ATOM     24  O   UNL     1     -55.476  11.157 -30.612  1.00  0.00    -0.550 OA
ENDBRANCH  21  22
ENDBRANCH  20  21
ENDBRANCH  19  20
ENDBRANCH  18  19
ENDBRANCH  17  18
ENDBRANCH  16  17
ENDBRANCH  15  16
ENDBRANCH  14  15
ENDBRANCH  13  14
ENDBRANCH   1  13
TORSDOF 20
ENDMDL
MODEL 8
REMARK VINA RESULT:    -4.043      1.867      3.707
REMARK INTER + INTRA:         -12.452
REMARK INTER:                  -9.763
REMARK INTRA:                  -2.689
REMARK UNBOUND:                -3.681
REMARK SMILES CCCCCCCCCCCCCCCCCCCCCC(=O)[O-]
REMARK SMILES IDX 12 1 11 2 10 3 9 4 8 5 7 6 6 7 5 8 4 9 3 10 2 11 1 12 13 13
REMARK SMILES IDX 14 14 15 15 16 16 17 17 18 18 19 19 20 20 21 21 22 22 23 23
REMARK SMILES IDX 24 24
REMARK H PARENT
REMARK Flexibility Score: inf
ROOT
ATOM      1  C   UNL     1     -51.986  14.325 -31.080  1.00  0.00     0.000 C 
ENDROOT
BRANCH   1   2
ATOM      2  C   UNL     1     -51.566  14.269 -29.598  1.00  0.00     0.000 C 
BRANCH   2   3
ATOM      3  C   UNL     1     -52.179  13.077 -28.844  1.00  0.00     0.000 C 
BRANCH   3   4
ATOM      4  C   UNL     1     -51.960  11.735 -29.567  1.00  0.00    -0.000 C 
BRANCH   4   5
ATOM      5  C   UNL     1     -53.245  10.990 -29.971  1.00  0.00    -0.000 C 
BRANCH   5   6
ATOM      6  C   UNL     1     -53.071  10.127 -31.229  1.00  0.00    -0.000 C 
BRANCH   6   7
ATOM      7  C   UNL     1     -52.059  10.766 -32.195  1.00  0.00    -0.000 C 
BRANCH   7   8
ATOM      8  C   UNL     1     -51.275   9.724 -33.009  1.00  0.00    -0.000 C 
BRANCH   8   9
ATOM      9  C   UNL     1     -49.779   9.702 -32.654  1.00  0.00    -0.000 C 
BRANCH   9  10
ATOM     10  C   UNL     1     -49.499   9.069 -31.278  1.00  0.00    -0.000 C 
BRANCH  10  11
ATOM     11  C   UNL     1     -48.755   9.978 -30.282  1.00  0.00    -0.003 C 
ATOM     12  C   UNL     1     -48.246   9.227 -29.051  1.00  0.00     0.004 C 
ENDBRANCH  10  11
ENDBRANCH   9  10
ENDBRANCH   8   9
ENDBRANCH   7   8
ENDBRANCH   6   7
ENDBRANCH   5   6
ENDBRANCH   4   5
ENDBRANCH   3   4
ENDBRANCH   2   3
ENDBRANCH   1   2
BRANCH   1  13
ATOM     13  C   UNL     1     -53.496  14.501 -31.329  1.00  0.00     0.000 C 
BRANCH  13  14
ATOM     14  C   UNL     1     -54.083  15.735 -30.627  1.00  0.00     0.000 C 
BRANCH  14  15
ATOM     15  C   UNL     1     -55.536  15.488 -30.206  1.00  0.00     0.000 C 
BRANCH  15  16
ATOM     16  C   UNL     1     -55.603  14.814 -28.827  1.00  0.00     0.000 C 
BRANCH  16  17
ATOM     17  C   UNL     1     -55.185  15.752 -27.679  1.00  0.00     0.000 C 
BRANCH  17  18
ATOM     18  C   UNL     1     -55.947  17.088 -27.620  1.00  0.00     0.000 C 
BRANCH  18  19
ATOM     19  C   UNL     1     -55.028  18.310 -27.772  1.00  0.00     0.000 C 
BRANCH  19  20
ATOM     20  C   UNL     1     -55.692  19.391 -28.636  1.00  0.00     0.006 C 
BRANCH  20  21
ATOM     21  C   UNL     1     -55.535  19.113 -30.137  1.00  0.00     0.053 C 
BRANCH  21  22
ATOM     22  C   UNL     1     -54.341  19.814 -30.711  1.00  0.00     0.041 C 
ATOM     23  O   UNL     1     -54.495  20.792 -31.487  1.00  0.00    -0.550 OA
ATOM     24  O   UNL     1     -53.060  19.373 -30.403  1.00  0.00    -0.550 OA
ENDBRANCH  21  22
ENDBRANCH  20  21
ENDBRANCH  19  20
ENDBRANCH  18  19
ENDBRANCH  17  18
ENDBRANCH  16  17
ENDBRANCH  15  16
ENDBRANCH  14  15
ENDBRANCH  13  14
ENDBRANCH   1  13
TORSDOF 20
ENDMDL
MODEL 9
REMARK VINA RESULT:    -4.012      1.506      3.673
REMARK INTER + INTRA:         -12.383
REMARK INTER:                  -9.173
REMARK INTRA:                  -3.210
REMARK UNBOUND:                -3.681
REMARK SMILES CCCCCCCCCCCCCCCCCCCCCC(=O)[O-]
REMARK SMILES IDX 12 1 11 2 10 3 9 4 8 5 7 6 6 7 5 8 4 9 3 10 2 11 1 12 13 13
REMARK SMILES IDX 14 14 15 15 16 16 17 17 18 18 19 19 20 20 21 21 22 22 23 23
REMARK SMILES IDX 24 24
REMARK H PARENT
REMARK Flexibility Score: inf
ROOT
ATOM      1  C   UNL     1     -52.857  11.739 -32.034  1.00  0.00     0.000 C 
ENDROOT
BRANCH   1   2
ATOM      2  C   UNL     1     -54.312  11.547 -31.566  1.00  0.00     0.000 C 
BRANCH   2   3
ATOM      3  C   UNL     1     -54.618  10.102 -31.135  1.00  0.00     0.000 C 
BRANCH   3   4
ATOM      4  C   UNL     1     -53.464   9.454 -30.350  1.00  0.00    -0.000 C 
BRANCH   4   5
ATOM      5  C   UNL     1     -52.932   8.134 -30.937  1.00  0.00    -0.000 C 
BRANCH   5   6
ATOM      6  C   UNL     1     -53.413   7.875 -32.372  1.00  0.00    -0.000 C 
BRANCH   6   7
ATOM      7  C   UNL     1     -52.326   8.254 -33.391  1.00  0.00    -0.000 C 
BRANCH   7   8
ATOM      8  C   UNL     1     -50.904   8.004 -32.863  1.00  0.00    -0.000 C 
BRANCH   8   9
ATOM      9  C   UNL     1     -50.101   9.305 -32.693  1.00  0.00    -0.000 C 
BRANCH   9  10
ATOM     10  C   UNL     1     -49.042   9.215 -31.578  1.00  0.00    -0.000 C 
BRANCH  10  11
ATOM     11  C   UNL     1     -49.041  10.391 -30.584  1.00  0.00    -0.003 C 
ATOM     12  C   UNL     1     -49.911  10.135 -29.353  1.00  0.00     0.004 C 
ENDBRANCH  10  11
ENDBRANCH   9  10
ENDBRANCH   8   9
ENDBRANCH   7   8
ENDBRANCH   6   7
ENDBRANCH   5   6
ENDBRANCH   4   5
ENDBRANCH   3   4
ENDBRANCH   2   3
ENDBRANCH   1   2
BRANCH   1  13
ATOM     13  C   UNL     1     -51.998  12.664 -31.152  1.00  0.00     0.000 C 
BRANCH  13  14
ATOM     14  C   UNL     1     -52.776  13.870 -30.606  1.00  0.00     0.000 C 
BRANCH  14  15
ATOM     15  C   UNL     1     -52.555  14.030 -29.097  1.00  0.00     0.000 C 
BRANCH  15  16
ATOM     16  C   UNL     1     -53.498  13.116 -28.303  1.00  0.00     0.000 C 
BRANCH  16  17
ATOM     17  C   UNL     1     -54.981  13.504 -28.454  1.00  0.00     0.000 C 
BRANCH  17  18
ATOM     18  C   UNL     1     -55.379  14.830 -27.779  1.00  0.00     0.000 C 
BRANCH  18  19
ATOM     19  C   UNL     1     -55.863  15.890 -28.779  1.00  0.00     0.000 C 
BRANCH  19  20
ATOM     20  C   UNL     1     -54.803  16.984 -28.974  1.00  0.00     0.006 C 
BRANCH  20  21
ATOM     21  C   UNL     1     -54.749  17.489 -30.421  1.00  0.00     0.053 C 
BRANCH  21  22
ATOM     22  C   UNL     1     -54.320  18.923 -30.494  1.00  0.00     0.041 C 
ATOM     23  O   UNL     1     -53.168  19.259 -30.117  1.00  0.00    -0.550 OA
ATOM     24  O   UNL     1     -55.202  19.891 -30.960  1.00  0.00    -0.550 OA
ENDBRANCH  21  22
ENDBRANCH  20  21
ENDBRANCH  19  20
ENDBRANCH  18  19
ENDBRANCH  17  18
ENDBRANCH  16  17
ENDBRANCH  15  16
ENDBRANCH  14  15
ENDBRANCH  13  14
ENDBRANCH   1  13
TORSDOF 20
ENDMDL
