MODEL 1
REMARK VINA RESULT:    -6.681      0.000      0.000
REMARK INTER + INTRA:          -7.613
REMARK INTER:                  -8.048
REMARK INTRA:                   0.434
REMARK UNBOUND:                 0.434
REMARK SMILES O=c1c(O)c(-c2ccc(O)c(O)c2)oc2cc(O)cc(O)c12
REMARK SMILES IDX 5 1 3 2 2 3 1 4 22 5 20 6 19 7 17 8 16 9 15 10 14 11 6 12
REMARK SMILES IDX 7 13 8 14 9 15 13 16 11 17 10 18 12 20 4 22 21 24 18 26
REMARK H PARENT 10 19 12 21 4 23 21 25 18 27
REMARK Flexibility Score: inf
ROOT
ATOM      1  C   UNL     1      23.516  51.071  -0.804  1.00  0.00     0.180 A 
ATOM      2  C   UNL     1      23.832  50.505   0.447  1.00  0.00     0.208 A 
ATOM      3  C   UNL     1      24.668  51.216   1.321  1.00  0.00     0.238 A 
ATOM      4  O   UNL     1      24.966  50.715   2.441  1.00  0.00    -0.285 OA
ATOM      5  C   UNL     1      25.155  52.484   0.943  1.00  0.00     0.111 A 
ATOM      6  C   UNL     1      25.999  53.266   1.768  1.00  0.00     0.134 A 
ATOM      7  C   UNL     1      26.435  54.523   1.322  1.00  0.00     0.093 A 
ATOM      8  C   UNL     1      26.044  55.011   0.071  1.00  0.00     0.123 A 
ATOM      9  C   UNL     1      25.213  54.242  -0.746  1.00  0.00     0.094 A 
ATOM     10  C   UNL     1      24.768  52.987  -0.321  1.00  0.00     0.146 A 
ATOM     11  O   UNL     1      23.982  52.275  -1.121  1.00  0.00    -0.452 OA
ENDROOT
BRANCH   1  12
ATOM     12  C   UNL     1      22.657  50.374  -1.788  1.00  0.00     0.025 A 
ATOM     13  C   UNL     1      21.922  49.228  -1.438  1.00  0.00     0.016 A 
ATOM     14  C   UNL     1      21.137  48.573  -2.390  1.00  0.00     0.051 A 
ATOM     15  C   UNL     1      21.086  49.044  -3.709  1.00  0.00     0.157 A 
ATOM     16  C   UNL     1      22.619  50.829  -3.117  1.00  0.00     0.062 A 
ATOM     17  C   UNL     1      21.834  50.176  -4.073  1.00  0.00     0.158 A 
BRANCH  15  18
ATOM     18  O   UNL     1      20.300  48.390  -4.657  1.00  0.00    -0.504 OA
ATOM     19  H   UNL     1      20.374  48.602  -5.645  1.00  0.00     0.293 HD
ENDBRANCH  15  18
BRANCH  17  20
ATOM     20  O   UNL     1      21.810  50.667  -5.379  1.00  0.00    -0.504 OA
ATOM     21  H   UNL     1      20.955  50.715  -5.919  1.00  0.00     0.293 HD
ENDBRANCH  17  20
ENDBRANCH   1  12
BRANCH   2  22
ATOM     22  O   UNL     1      23.295  49.269   0.819  1.00  0.00    -0.502 OA
ATOM     23  H   UNL     1      22.329  49.160   1.099  1.00  0.00     0.293 HD
ENDBRANCH   2  22
BRANCH   6  24
ATOM     24  O   UNL     1      26.405  52.808   3.021  1.00  0.00    -0.507 OA
ATOM     25  H   UNL     1      26.660  51.839   3.179  1.00  0.00     0.293 HD
ENDBRANCH   6  24
BRANCH   8  26
ATOM     26  O   UNL     1      26.477  56.260  -0.371  1.00  0.00    -0.508 OA
ATOM     27  H   UNL     1      26.642  57.022   0.274  1.00  0.00     0.293 HD
ENDBRANCH   8  26
TORSDOF 6
ENDMDL
MODEL 2
REMARK VINA RESULT:    -6.162      2.421      6.716
REMARK INTER + INTRA:          -6.988
REMARK INTER:                  -7.064
REMARK INTRA:                   0.075
REMARK UNBOUND:                 0.434
REMARK SMILES O=c1c(O)c(-c2ccc(O)c(O)c2)oc2cc(O)cc(O)c12
REMARK SMILES IDX 5 1 3 2 2 3 1 4 22 5 20 6 19 7 17 8 16 9 15 10 14 11 6 12
REMARK SMILES IDX 7 13 8 14 9 15 13 16 11 17 10 18 12 20 4 22 21 24 18 26
REMARK H PARENT 10 19 12 21 4 23 21 25 18 27
REMARK Flexibility Score: inf
ROOT
ATOM      1  C   UNL     1      23.546  51.606   0.324  1.00  0.00     0.180 A 
ATOM      2  C   UNL     1      23.378  50.790  -0.812  1.00  0.00     0.208 A 
ATOM      3  C   UNL     1      22.360  49.824  -0.808  1.00  0.00     0.238 A 
ATOM      4  O   UNL     1      22.207  49.081  -1.817  1.00  0.00    -0.285 OA
ATOM      5  C   UNL     1      21.517  49.704   0.316  1.00  0.00     0.111 A 
ATOM      6  C   UNL     1      20.466  48.759   0.396  1.00  0.00     0.134 A 
ATOM      7  C   UNL     1      19.665  48.708   1.547  1.00  0.00     0.093 A 
ATOM      8  C   UNL     1      19.895  49.582   2.615  1.00  0.00     0.123 A 
ATOM      9  C   UNL     1      20.931  50.514   2.540  1.00  0.00     0.094 A 
ATOM     10  C   UNL     1      21.741  50.581   1.403  1.00  0.00     0.146 A 
ATOM     11  O   UNL     1      22.722  51.474   1.360  1.00  0.00    -0.452 OA
ENDROOT
BRANCH   1  12
ATOM     12  C   UNL     1      24.608  52.634   0.404  1.00  0.00     0.025 A 
ATOM     13  C   UNL     1      25.408  52.773   1.552  1.00  0.00     0.016 A 
ATOM     14  C   UNL     1      26.390  53.766   1.613  1.00  0.00     0.051 A 
ATOM     15  C   UNL     1      26.576  54.643   0.537  1.00  0.00     0.157 A 
ATOM     16  C   UNL     1      24.786  53.529  -0.664  1.00  0.00     0.062 A 
ATOM     17  C   UNL     1      25.768  54.524  -0.606  1.00  0.00     0.158 A 
BRANCH  15  18
ATOM     18  O   UNL     1      27.558  55.631   0.600  1.00  0.00    -0.504 OA
ATOM     19  H   UNL     1      28.472  55.447   0.997  1.00  0.00     0.293 HD
ENDBRANCH  15  18
BRANCH  17  20
ATOM     20  O   UNL     1      25.924  55.385  -1.692  1.00  0.00    -0.504 OA
ATOM     21  H   UNL     1      25.439  55.238  -2.569  1.00  0.00     0.293 HD
ENDBRANCH  17  20
ENDBRANCH   1  12
BRANCH   2  22
ATOM     22  O   UNL     1      24.195  50.963  -1.933  1.00  0.00    -0.502 OA
ATOM     23  H   UNL     1      24.494  50.188  -2.510  1.00  0.00     0.293 HD
ENDBRANCH   2  22
BRANCH   6  24
ATOM     24  O   UNL     1      20.211  47.875  -0.652  1.00  0.00    -0.507 OA
ATOM     25  H   UNL     1      20.401  48.122  -1.617  1.00  0.00     0.293 HD
ENDBRANCH   6  24
BRANCH   8  26
ATOM     26  O   UNL     1      19.099  49.531   3.758  1.00  0.00    -0.508 OA
ATOM     27  H   UNL     1      18.197  49.069   3.756  1.00  0.00     0.293 HD
ENDBRANCH   8  26
TORSDOF 6
ENDMDL
MODEL 3
REMARK VINA RESULT:    -6.046      3.643      5.614
REMARK INTER + INTRA:          -6.848
REMARK INTER:                  -6.738
REMARK INTRA:                  -0.110
REMARK UNBOUND:                 0.434
REMARK SMILES O=c1c(O)c(-c2ccc(O)c(O)c2)oc2cc(O)cc(O)c12
REMARK SMILES IDX 5 1 3 2 2 3 1 4 22 5 20 6 19 7 17 8 16 9 15 10 14 11 6 12
REMARK SMILES IDX 7 13 8 14 9 15 13 16 11 17 10 18 12 20 4 22 21 24 18 26
REMARK H PARENT 10 19 12 21 4 23 21 25 18 27
REMARK Flexibility Score: inf
ROOT
ATOM      1  C   UNL     1      22.183  50.187   1.267  1.00  0.00     0.180 A 
ATOM      2  C   UNL     1      23.271  50.242   2.161  1.00  0.00     0.208 A 
ATOM      3  C   UNL     1      23.038  50.012   3.525  1.00  0.00     0.238 A 
ATOM      4  O   UNL     1      24.003  50.068   4.337  1.00  0.00    -0.285 OA
ATOM      5  C   UNL     1      21.734  49.714   3.970  1.00  0.00     0.111 A 
ATOM      6  C   UNL     1      21.417  49.466   5.327  1.00  0.00     0.134 A 
ATOM      7  C   UNL     1      20.095  49.167   5.689  1.00  0.00     0.093 A 
ATOM      8  C   UNL     1      19.086  49.111   4.721  1.00  0.00     0.123 A 
ATOM      9  C   UNL     1      19.395  49.355   3.382  1.00  0.00     0.094 A 
ATOM     10  C   UNL     1      20.705  49.656   3.001  1.00  0.00     0.146 A 
ATOM     11  O   UNL     1      20.969  49.888   1.720  1.00  0.00    -0.452 OA
ENDROOT
BRANCH   1  12
ATOM     12  C   UNL     1      22.344  50.436  -0.184  1.00  0.00     0.025 A 
ATOM     13  C   UNL     1      22.894  51.638  -0.664  1.00  0.00     0.016 A 
ATOM     14  C   UNL     1      23.014  51.860  -2.039  1.00  0.00     0.051 A 
ATOM     15  C   UNL     1      22.574  50.894  -2.952  1.00  0.00     0.157 A 
ATOM     16  C   UNL     1      21.885  49.480  -1.105  1.00  0.00     0.062 A 
ATOM     17  C   UNL     1      22.004  49.699  -2.482  1.00  0.00     0.158 A 
BRANCH  15  18
ATOM     18  O   UNL     1      22.697  51.118  -4.323  1.00  0.00    -0.504 OA
ATOM     19  H   UNL     1      22.546  50.377  -4.997  1.00  0.00     0.293 HD
ENDBRANCH  15  18
BRANCH  17  20
ATOM     20  O   UNL     1      21.550  48.720  -3.365  1.00  0.00    -0.504 OA
ATOM     21  H   UNL     1      21.922  48.627  -4.302  1.00  0.00     0.293 HD
ENDBRANCH  17  20
ENDBRANCH   1  12
BRANCH   2  22
ATOM     22  O   UNL     1      24.562  50.490   1.687  1.00  0.00    -0.502 OA
ATOM     23  H   UNL     1      25.048  49.846   1.076  1.00  0.00     0.293 HD
ENDBRANCH   2  22
BRANCH   6  24
ATOM     24  O   UNL     1      22.400  49.514   6.316  1.00  0.00    -0.507 OA
ATOM     25  H   UNL     1      23.358  49.239   6.130  1.00  0.00     0.293 HD
ENDBRANCH   6  24
BRANCH   8  26
ATOM     26  O   UNL     1      17.773  48.813   5.080  1.00  0.00    -0.508 OA
ATOM     27  H   UNL     1      17.431  48.976   6.019  1.00  0.00     0.293 HD
ENDBRANCH   8  26
TORSDOF 6
ENDMDL
MODEL 4
REMARK VINA RESULT:    -5.969      3.596      7.536
REMARK INTER + INTRA:          -6.756
REMARK INTER:                  -6.424
REMARK INTRA:                  -0.332
REMARK UNBOUND:                 0.434
REMARK SMILES O=c1c(O)c(-c2ccc(O)c(O)c2)oc2cc(O)cc(O)c12
REMARK SMILES IDX 5 1 3 2 2 3 1 4 22 5 20 6 19 7 17 8 16 9 15 10 14 11 6 12
REMARK SMILES IDX 7 13 8 14 9 15 13 16 11 17 10 18 12 20 4 22 21 24 18 26
REMARK H PARENT 10 19 12 21 4 23 21 25 18 27
REMARK Flexibility Score: inf
ROOT
ATOM      1  C   UNL     1      25.529  50.592   3.574  1.00  0.00     0.180 A 
ATOM      2  C   UNL     1      24.625  49.602   3.138  1.00  0.00     0.208 A 
ATOM      3  C   UNL     1      23.961  49.782   1.916  1.00  0.00     0.238 A 
ATOM      4  O   UNL     1      23.142  48.907   1.520  1.00  0.00    -0.285 OA
ATOM      5  C   UNL     1      24.223  50.931   1.141  1.00  0.00     0.111 A 
ATOM      6  C   UNL     1      23.598  51.184  -0.103  1.00  0.00     0.134 A 
ATOM      7  C   UNL     1      23.920  52.348  -0.818  1.00  0.00     0.093 A 
ATOM      8  C   UNL     1      24.852  53.260  -0.313  1.00  0.00     0.123 A 
ATOM      9  C   UNL     1      25.470  53.014   0.914  1.00  0.00     0.094 A 
ATOM     10  C   UNL     1      25.163  51.861   1.643  1.00  0.00     0.146 A 
ATOM     11  O   UNL     1      25.762  51.656   2.810  1.00  0.00    -0.452 OA
ENDROOT
BRANCH   1  12
ATOM     12  C   UNL     1      26.253  50.484   4.860  1.00  0.00     0.025 A 
ATOM     13  C   UNL     1      25.717  51.009   6.049  1.00  0.00     0.016 A 
ATOM     14  C   UNL     1      26.430  50.916   7.248  1.00  0.00     0.051 A 
ATOM     15  C   UNL     1      27.694  50.313   7.273  1.00  0.00     0.157 A 
ATOM     16  C   UNL     1      27.530  49.899   4.888  1.00  0.00     0.062 A 
ATOM     17  C   UNL     1      28.247  49.804   6.086  1.00  0.00     0.158 A 
BRANCH  15  18
ATOM     18  O   UNL     1      28.402  50.220   8.470  1.00  0.00    -0.504 OA
ATOM     19  H   UNL     1      29.066  49.473   8.638  1.00  0.00     0.293 HD
ENDBRANCH  15  18
BRANCH  17  20
ATOM     20  O   UNL     1      29.505  49.203   6.075  1.00  0.00    -0.504 OA
ATOM     21  H   UNL     1      29.787  48.557   5.348  1.00  0.00     0.293 HD
ENDBRANCH  17  20
ENDBRANCH   1  12
BRANCH   2  22
ATOM     22  O   UNL     1      24.421  48.449   3.900  1.00  0.00    -0.502 OA
ATOM     23  H   UNL     1      24.575  48.426   4.901  1.00  0.00     0.293 HD
ENDBRANCH   2  22
BRANCH   6  24
ATOM     24  O   UNL     1      22.665  50.293  -0.634  1.00  0.00    -0.507 OA
ATOM     25  H   UNL     1      21.693  50.304  -0.346  1.00  0.00     0.293 HD
ENDBRANCH   6  24
BRANCH   8  26
ATOM     26  O   UNL     1      25.172  54.415  -1.023  1.00  0.00    -0.508 OA
ATOM     27  H   UNL     1      25.213  55.321  -0.572  1.00  0.00     0.293 HD
ENDBRANCH   8  26
TORSDOF 6
ENDMDL
MODEL 5
REMARK VINA RESULT:    -5.964      1.166      6.419
REMARK INTER + INTRA:          -6.750
REMARK INTER:                  -7.211
REMARK INTRA:                   0.461
REMARK UNBOUND:                 0.434
REMARK SMILES O=c1c(O)c(-c2ccc(O)c(O)c2)oc2cc(O)cc(O)c12
REMARK SMILES IDX 5 1 3 2 2 3 1 4 22 5 20 6 19 7 17 8 16 9 15 10 14 11 6 12
REMARK SMILES IDX 7 13 8 14 9 15 13 16 11 17 10 18 12 20 4 22 21 24 18 26
REMARK H PARENT 10 19 12 21 4 23 21 25 18 27
REMARK Flexibility Score: inf
ROOT
ATOM      1  C   UNL     1      24.281  51.948   0.117  1.00  0.00     0.180 A 
ATOM      2  C   UNL     1      24.016  51.178   1.267  1.00  0.00     0.208 A 
ATOM      3  C   UNL     1      23.134  50.091   1.165  1.00  0.00     0.238 A 
ATOM      4  O   UNL     1      22.881  49.400   2.191  1.00  0.00    -0.285 OA
ATOM      5  C   UNL     1      22.550  49.780  -0.080  1.00  0.00     0.111 A 
ATOM      6  C   UNL     1      21.655  48.700  -0.267  1.00  0.00     0.134 A 
ATOM      7  C   UNL     1      21.123  48.450  -1.541  1.00  0.00     0.093 A 
ATOM      8  C   UNL     1      21.470  49.259  -2.629  1.00  0.00     0.123 A 
ATOM      9  C   UNL     1      22.351  50.325  -2.449  1.00  0.00     0.094 A 
ATOM     10  C   UNL     1      22.892  50.592  -1.187  1.00  0.00     0.146 A 
ATOM     11  O   UNL     1      23.724  51.616  -1.044  1.00  0.00    -0.452 OA
ENDROOT
BRANCH   1  12
ATOM     12  C   UNL     1      25.184  53.121   0.147  1.00  0.00     0.025 A 
ATOM     13  C   UNL     1      25.813  53.531   1.336  1.00  0.00     0.016 A 
ATOM     14  C   UNL     1      26.643  54.655   1.345  1.00  0.00     0.051 A 
ATOM     15  C   UNL     1      26.844  55.395   0.173  1.00  0.00     0.157 A 
ATOM     16  C   UNL     1      25.373  53.879  -1.021  1.00  0.00     0.062 A 
ATOM     17  C   UNL     1      26.203  55.005  -1.015  1.00  0.00     0.158 A 
BRANCH  15  18
ATOM     18  O   UNL     1      27.674  56.516   0.185  1.00  0.00    -0.504 OA
ATOM     19  H   UNL     1      28.188  56.804  -0.640  1.00  0.00     0.293 HD
ENDBRANCH  15  18
BRANCH  17  20
ATOM     20  O   UNL     1      26.377  55.723  -2.198  1.00  0.00    -0.504 OA
ATOM     21  H   UNL     1      26.941  56.564  -2.238  1.00  0.00     0.293 HD
ENDBRANCH  17  20
ENDBRANCH   1  12
BRANCH   2  22
ATOM     22  O   UNL     1      24.646  51.477   2.478  1.00  0.00    -0.502 OA
ATOM     23  H   UNL     1      25.653  51.528   2.566  1.00  0.00     0.293 HD
ENDBRANCH   2  22
BRANCH   6  24
ATOM     24  O   UNL     1      21.292  47.875   0.798  1.00  0.00    -0.507 OA
ATOM     25  H   UNL     1      20.421  48.006   1.302  1.00  0.00     0.293 HD
ENDBRANCH   6  24
BRANCH   8  26
ATOM     26  O   UNL     1      20.942  49.010  -3.894  1.00  0.00    -0.508 OA
ATOM     27  H   UNL     1      21.519  48.660  -4.650  1.00  0.00     0.293 HD
ENDBRANCH   8  26
TORSDOF 6
ENDMDL
MODEL 6
REMARK VINA RESULT:    -5.941      6.826      9.083
REMARK INTER + INTRA:          -6.722
REMARK INTER:                  -6.411
REMARK INTRA:                  -0.311
REMARK UNBOUND:                 0.434
REMARK SMILES O=c1c(O)c(-c2ccc(O)c(O)c2)oc2cc(O)cc(O)c12
REMARK SMILES IDX 5 1 3 2 2 3 1 4 22 5 20 6 19 7 17 8 16 9 15 10 14 11 6 12
REMARK SMILES IDX 7 13 8 14 9 15 13 16 11 17 10 18 12 20 4 22 21 24 18 26
REMARK H PARENT 10 19 12 21 4 23 21 25 18 27
REMARK Flexibility Score: inf
ROOT
ATOM      1  C   UNL     1      19.627  49.293   5.299  1.00  0.00     0.180 A 
ATOM      2  C   UNL     1      18.933  49.000   4.108  1.00  0.00     0.208 A 
ATOM      3  C   UNL     1      19.607  49.119   2.884  1.00  0.00     0.238 A 
ATOM      4  O   UNL     1      18.992  48.869   1.810  1.00  0.00    -0.285 OA
ATOM      5  C   UNL     1      20.963  49.508   2.869  1.00  0.00     0.111 A 
ATOM      6  C   UNL     1      21.714  49.647   1.677  1.00  0.00     0.134 A 
ATOM      7  C   UNL     1      23.062  50.030   1.747  1.00  0.00     0.093 A 
ATOM      8  C   UNL     1      23.671  50.274   2.983  1.00  0.00     0.123 A 
ATOM      9  C   UNL     1      22.933  50.138   4.160  1.00  0.00     0.094 A 
ATOM     10  C   UNL     1      21.588  49.759   4.112  1.00  0.00     0.146 A 
ATOM     11  O   UNL     1      20.909  49.643   5.247  1.00  0.00    -0.452 OA
ENDROOT
BRANCH   1  12
ATOM     12  C   UNL     1      18.980  49.210   6.628  1.00  0.00     0.025 A 
ATOM     13  C   UNL     1      18.863  47.987   7.311  1.00  0.00     0.016 A 
ATOM     14  C   UNL     1      18.227  47.929   8.554  1.00  0.00     0.051 A 
ATOM     15  C   UNL     1      17.685  49.087   9.125  1.00  0.00     0.157 A 
ATOM     16  C   UNL     1      18.416  50.365   7.196  1.00  0.00     0.062 A 
ATOM     17  C   UNL     1      17.778  50.311   8.440  1.00  0.00     0.158 A 
BRANCH  15  18
ATOM     18  O   UNL     1      17.052  49.027  10.366  1.00  0.00    -0.504 OA
ATOM     19  H   UNL     1      17.521  48.652  11.183  1.00  0.00     0.293 HD
ENDBRANCH  15  18
BRANCH  17  20
ATOM     20  O   UNL     1      17.244  51.481   8.978  1.00  0.00    -0.504 OA
ATOM     21  H   UNL     1      17.533  51.839   9.880  1.00  0.00     0.293 HD
ENDBRANCH  17  20
ENDBRANCH   1  12
BRANCH   2  22
ATOM     22  O   UNL     1      17.604  48.569   4.154  1.00  0.00    -0.502 OA
ATOM     23  H   UNL     1      17.234  48.035   4.930  1.00  0.00     0.293 HD
ENDBRANCH   2  22
BRANCH   6  24
ATOM     24  O   UNL     1      21.136  49.410   0.430  1.00  0.00    -0.507 OA
ATOM     25  H   UNL     1      20.375  49.980   0.077  1.00  0.00     0.293 HD
ENDBRANCH   6  24
BRANCH   8  26
ATOM     26  O   UNL     1      25.010  50.653   3.052  1.00  0.00    -0.508 OA
ATOM     27  H   UNL     1      25.565  50.791   2.216  1.00  0.00     0.293 HD
ENDBRANCH   8  26
TORSDOF 6
ENDMDL
MODEL 7
REMARK VINA RESULT:    -5.897      2.594      4.566
REMARK INTER + INTRA:          -6.669
REMARK INTER:                  -6.679
REMARK INTRA:                   0.010
REMARK UNBOUND:                 0.434
REMARK SMILES O=c1c(O)c(-c2ccc(O)c(O)c2)oc2cc(O)cc(O)c12
REMARK SMILES IDX 5 1 3 2 2 3 1 4 22 5 20 6 19 7 17 8 16 9 15 10 14 11 6 12
REMARK SMILES IDX 7 13 8 14 9 15 13 16 11 17 10 18 12 20 4 22 21 24 18 26
REMARK H PARENT 10 19 12 21 4 23 21 25 18 27
REMARK Flexibility Score: inf
ROOT
ATOM      1  C   UNL     1      22.419  50.172  -0.522  1.00  0.00     0.180 A 
ATOM      2  C   UNL     1      23.664  50.488   0.057  1.00  0.00     0.208 A 
ATOM      3  C   UNL     1      23.778  50.495   1.456  1.00  0.00     0.238 A 
ATOM      4  O   UNL     1      24.886  50.786   1.986  1.00  0.00    -0.285 OA
ATOM      5  C   UNL     1      22.659  50.168   2.249  1.00  0.00     0.111 A 
ATOM      6  C   UNL     1      22.692  50.148   3.663  1.00  0.00     0.134 A 
ATOM      7  C   UNL     1      21.537  49.803   4.381  1.00  0.00     0.093 A 
ATOM      8  C   UNL     1      20.353  49.478   3.711  1.00  0.00     0.123 A 
ATOM      9  C   UNL     1      20.316  49.497   2.316  1.00  0.00     0.094 A 
ATOM     10  C   UNL     1      21.455  49.839   1.583  1.00  0.00     0.146 A 
ATOM     11  O   UNL     1      21.389  49.854   0.256  1.00  0.00    -0.452 OA
ENDROOT
BRANCH   1  12
ATOM     12  C   UNL     1      22.214  50.162  -1.989  1.00  0.00     0.025 A 
ATOM     13  C   UNL     1      22.661  51.221  -2.798  1.00  0.00     0.016 A 
ATOM     14  C   UNL     1      22.436  51.201  -4.177  1.00  0.00     0.051 A 
ATOM     15  C   UNL     1      21.747  50.132  -4.765  1.00  0.00     0.157 A 
ATOM     16  C   UNL     1      21.507  49.103  -2.581  1.00  0.00     0.062 A 
ATOM     17  C   UNL     1      21.279  49.079  -3.961  1.00  0.00     0.158 A 
BRANCH  15  18
ATOM     18  O   UNL     1      21.525  50.114  -6.141  1.00  0.00    -0.504 OA
ATOM     19  H   UNL     1      21.141  49.300  -6.606  1.00  0.00     0.293 HD
ENDBRANCH  15  18
BRANCH  17  20
ATOM     20  O   UNL     1      20.585  48.003  -4.514  1.00  0.00    -0.504 OA
ATOM     21  H   UNL     1      20.079  48.082  -5.388  1.00  0.00     0.293 HD
ENDBRANCH  17  20
ENDBRANCH   1  12
BRANCH   2  22
ATOM     22  O   UNL     1      24.771  50.760  -0.752  1.00  0.00    -0.502 OA
ATOM     23  H   UNL     1      24.745  51.450  -1.492  1.00  0.00     0.293 HD
ENDBRANCH   2  22
BRANCH   6  24
ATOM     24  O   UNL     1      23.859  50.466   4.360  1.00  0.00    -0.507 OA
ATOM     25  H   UNL     1      24.770  50.150   4.048  1.00  0.00     0.293 HD
ENDBRANCH   6  24
BRANCH   8  26
ATOM     26  O   UNL     1      19.206  49.134   4.424  1.00  0.00    -0.508 OA
ATOM     27  H   UNL     1      19.014  49.523   5.340  1.00  0.00     0.293 HD
ENDBRANCH   8  26
TORSDOF 6
ENDMDL
MODEL 8
REMARK VINA RESULT:    -5.847      4.056      7.124
REMARK INTER + INTRA:          -6.608
REMARK INTER:                  -7.142
REMARK INTRA:                   0.533
REMARK UNBOUND:                 0.434
REMARK SMILES O=c1c(O)c(-c2ccc(O)c(O)c2)oc2cc(O)cc(O)c12
REMARK SMILES IDX 5 1 3 2 2 3 1 4 22 5 20 6 19 7 17 8 16 9 15 10 14 11 6 12
REMARK SMILES IDX 7 13 8 14 9 15 13 16 11 17 10 18 12 20 4 22 21 24 18 26
REMARK H PARENT 10 19 12 21 4 23 21 25 18 27
REMARK Flexibility Score: inf
ROOT
ATOM      1  C   UNL     1      22.063  50.631   2.255  1.00  0.00     0.180 A 
ATOM      2  C   UNL     1      22.368  50.224   3.570  1.00  0.00     0.208 A 
ATOM      3  C   UNL     1      21.389  49.549   4.314  1.00  0.00     0.238 A 
ATOM      4  O   UNL     1      21.647  49.188   5.496  1.00  0.00    -0.285 OA
ATOM      5  C   UNL     1      20.134  49.274   3.731  1.00  0.00     0.111 A 
ATOM      6  C   UNL     1      19.097  48.596   4.413  1.00  0.00     0.134 A 
ATOM      7  C   UNL     1      17.879  48.353   3.760  1.00  0.00     0.093 A 
ATOM      8  C   UNL     1      17.681  48.775   2.441  1.00  0.00     0.123 A 
ATOM      9  C   UNL     1      18.702  49.445   1.766  1.00  0.00     0.094 A 
ATOM     10  C   UNL     1      19.922  49.698   2.399  1.00  0.00     0.146 A 
ATOM     11  O   UNL     1      20.874  50.342   1.733  1.00  0.00    -0.452 OA
ENDROOT
BRANCH   1  12
ATOM     12  C   UNL     1      23.035  51.364   1.414  1.00  0.00     0.025 A 
ATOM     13  C   UNL     1      22.787  51.609   0.052  1.00  0.00     0.016 A 
ATOM     14  C   UNL     1      23.730  52.283  -0.729  1.00  0.00     0.051 A 
ATOM     15  C   UNL     1      24.940  52.708  -0.165  1.00  0.00     0.157 A 
ATOM     16  C   UNL     1      24.259  51.775   1.969  1.00  0.00     0.062 A 
ATOM     17  C   UNL     1      25.206  52.450   1.190  1.00  0.00     0.158 A 
BRANCH  15  18
ATOM     18  O   UNL     1      25.878  53.382  -0.945  1.00  0.00    -0.504 OA
ATOM     19  H   UNL     1      26.283  54.262  -0.648  1.00  0.00     0.293 HD
ENDBRANCH  15  18
BRANCH  17  20
ATOM     20  O   UNL     1      26.403  52.854   1.781  1.00  0.00    -0.504 OA
ATOM     21  H   UNL     1      26.482  53.019   2.777  1.00  0.00     0.293 HD
ENDBRANCH  17  20
ENDBRANCH   1  12
BRANCH   2  22
ATOM     22  O   UNL     1      23.636  50.464   4.106  1.00  0.00    -0.502 OA
ATOM     23  H   UNL     1      24.455  49.946   3.814  1.00  0.00     0.293 HD
ENDBRANCH   2  22
BRANCH   6  24
ATOM     24  O   UNL     1      19.263  48.162   5.729  1.00  0.00    -0.507 OA
ATOM     25  H   UNL     1      18.773  48.598   6.501  1.00  0.00     0.293 HD
ENDBRANCH   6  24
BRANCH   8  26
ATOM     26  O   UNL     1      16.472  48.533   1.792  1.00  0.00    -0.508 OA
ATOM     27  H   UNL     1      15.674  49.146   1.912  1.00  0.00     0.293 HD
ENDBRANCH   8  26
TORSDOF 6
ENDMDL
MODEL 9
REMARK VINA RESULT:    -5.836      3.485      5.216
REMARK INTER + INTRA:          -6.596
REMARK INTER:                  -6.361
REMARK INTRA:                  -0.235
REMARK UNBOUND:                 0.434
REMARK SMILES O=c1c(O)c(-c2ccc(O)c(O)c2)oc2cc(O)cc(O)c12
REMARK SMILES IDX 5 1 3 2 2 3 1 4 22 5 20 6 19 7 17 8 16 9 15 10 14 11 6 12
REMARK SMILES IDX 7 13 8 14 9 15 13 16 11 17 10 18 12 20 4 22 21 24 18 26
REMARK H PARENT 10 19 12 21 4 23 21 25 18 27
REMARK Flexibility Score: inf
ROOT
ATOM      1  C   UNL     1      23.932  50.434   2.660  1.00  0.00     0.180 A 
ATOM      2  C   UNL     1      22.843  50.121   3.496  1.00  0.00     0.208 A 
ATOM      3  C   UNL     1      23.074  49.928   4.867  1.00  0.00     0.238 A 
ATOM      4  O   UNL     1      22.107  49.638   5.624  1.00  0.00    -0.285 OA
ATOM      5  C   UNL     1      24.379  50.069   5.381  1.00  0.00     0.111 A 
ATOM      6  C   UNL     1      24.695  49.895   6.749  1.00  0.00     0.134 A 
ATOM      7  C   UNL     1      26.019  50.062   7.184  1.00  0.00     0.093 A 
ATOM      8  C   UNL     1      27.029  50.400   6.277  1.00  0.00     0.123 A 
ATOM      9  C   UNL     1      26.722  50.571   4.927  1.00  0.00     0.094 A 
ATOM     10  C   UNL     1      25.410  50.409   4.473  1.00  0.00     0.146 A 
ATOM     11  O   UNL     1      25.147  50.574   3.182  1.00  0.00    -0.452 OA
ENDROOT
BRANCH   1  12
ATOM     12  C   UNL     1      23.773  50.633   1.201  1.00  0.00     0.025 A 
ATOM     13  C   UNL     1      23.458  49.563   0.346  1.00  0.00     0.016 A 
ATOM     14  C   UNL     1      23.335  49.771  -1.031  1.00  0.00     0.051 A 
ATOM     15  C   UNL     1      23.540  51.046  -1.574  1.00  0.00     0.157 A 
ATOM     16  C   UNL     1      23.997  51.905   0.649  1.00  0.00     0.062 A 
ATOM     17  C   UNL     1      23.875  52.117  -0.729  1.00  0.00     0.158 A 
BRANCH  15  18
ATOM     18  O   UNL     1      23.415  51.251  -2.947  1.00  0.00    -0.504 OA
ATOM     19  H   UNL     1      24.120  50.926  -3.599  1.00  0.00     0.293 HD
ENDBRANCH  15  18
BRANCH  17  20
ATOM     20  O   UNL     1      24.091  53.397  -1.238  1.00  0.00    -0.504 OA
ATOM     21  H   UNL     1      24.092  53.587  -2.233  1.00  0.00     0.293 HD
ENDBRANCH  17  20
ENDBRANCH   1  12
BRANCH   2  22
ATOM     22  O   UNL     1      21.551  50.036   2.970  1.00  0.00    -0.502 OA
ATOM     23  H   UNL     1      20.784  49.617   3.482  1.00  0.00     0.293 HD
ENDBRANCH   2  22
BRANCH   6  24
ATOM     24  O   UNL     1      23.709  49.559   7.678  1.00  0.00    -0.507 OA
ATOM     25  H   UNL     1      23.562  48.602   7.978  1.00  0.00     0.293 HD
ENDBRANCH   6  24
BRANCH   8  26
ATOM     26  O   UNL     1      28.344  50.566   6.709  1.00  0.00    -0.508 OA
ATOM     27  H   UNL     1      28.675  51.453   7.069  1.00  0.00     0.293 HD
ENDBRANCH   8  26
TORSDOF 6
ENDMDL
