MODEL 1
REMARK VINA RESULT:    -5.319      0.000      0.000
REMARK INTER + INTRA:         -10.041
REMARK INTER:                  -9.051
REMARK INTRA:                  -0.990
REMARK UNBOUND:                -0.990
REMARK SMILES CCCCCCCCCCCCCC(=O)[O-]
REMARK SMILES IDX 8 1 9 2 10 3 11 4 12 5 13 6 14 7 15 8 16 9 7 10 6 11 5 12
REMARK SMILES IDX 4 13 3 14 2 15 1 16
REMARK H PARENT
REMARK Flexibility Score: inf
ROOT
ATOM      1  C   UNL     1     -23.740  -9.745   6.362  1.00  0.00     0.000 C 
ENDROOT
BRANCH   1   2
ATOM      2  C   UNL     1     -22.748  -9.788   5.191  1.00  0.00     0.000 C 
BRANCH   2   3
ATOM      3  C   UNL     1     -23.112 -10.907   4.204  1.00  0.00     0.000 C 
BRANCH   3   4
ATOM      4  C   UNL     1     -24.221 -11.836   4.729  1.00  0.00     0.000 C 
BRANCH   4   5
ATOM      5  C   UNL     1     -24.182 -13.273   4.176  1.00  0.00     0.006 C 
BRANCH   5   6
ATOM      6  C   UNL     1     -25.480 -14.049   4.433  1.00  0.00     0.053 C 
BRANCH   6   7
ATOM      7  C   UNL     1     -25.223 -15.212   5.338  1.00  0.00     0.041 C 
ATOM      8  O   UNL     1     -25.204 -15.051   6.587  1.00  0.00    -0.550 OA
ATOM      9  O   UNL     1     -24.956 -16.464   4.801  1.00  0.00    -0.550 OA
ENDBRANCH   6   7
ENDBRANCH   5   6
ENDBRANCH   4   5
ENDBRANCH   3   4
ENDBRANCH   2   3
ENDBRANCH   1   2
BRANCH   1  10
ATOM     10  C   UNL     1     -23.106  -9.206   7.655  1.00  0.00     0.000 C 
BRANCH  10  11
ATOM     11  C   UNL     1     -23.707  -9.845   8.920  1.00  0.00    -0.000 C 
BRANCH  11  12
ATOM     12  C   UNL     1     -24.663 -11.003   8.598  1.00  0.00    -0.000 C 
BRANCH  12  13
ATOM     13  C   UNL     1     -24.347 -12.272   9.403  1.00  0.00    -0.000 C 
BRANCH  13  14
ATOM     14  C   UNL     1     -23.285 -11.994  10.474  1.00  0.00    -0.000 C 
BRANCH  14  15
ATOM     15  C   UNL     1     -22.201 -13.077  10.468  1.00  0.00    -0.003 C 
ATOM     16  C   UNL     1     -22.752 -14.406   9.958  1.00  0.00     0.004 C 
ENDBRANCH  14  15
ENDBRANCH  13  14
ENDBRANCH  12  13
ENDBRANCH  11  12
ENDBRANCH  10  11
ENDBRANCH   1  10
TORSDOF 12
ENDMDL
MODEL 2
REMARK VINA RESULT:    -5.091      2.965      4.920
REMARK INTER + INTRA:          -9.653
REMARK INTER:                  -8.589
REMARK INTRA:                  -1.064
REMARK UNBOUND:                -0.990
REMARK SMILES CCCCCCCCCCCCCC(=O)[O-]
REMARK SMILES IDX 8 1 9 2 10 3 11 4 12 5 13 6 14 7 15 8 16 9 7 10 6 11 5 12
REMARK SMILES IDX 4 13 3 14 2 15 1 16
REMARK H PARENT
REMARK Flexibility Score: inf
ROOT
ATOM      1  C   UNL     1     -25.292 -14.071   4.343  1.00  0.00     0.000 C 
ENDROOT
BRANCH   1   2
ATOM      2  C   UNL     1     -23.952 -13.484   3.875  1.00  0.00     0.000 C 
BRANCH   2   3
ATOM      3  C   UNL     1     -23.894 -11.971   4.134  1.00  0.00     0.000 C 
BRANCH   3   4
ATOM      4  C   UNL     1     -24.362 -11.584   5.548  1.00  0.00     0.000 C 
BRANCH   4   5
ATOM      5  C   UNL     1     -24.062 -10.130   5.958  1.00  0.00     0.006 C 
BRANCH   5   6
ATOM      6  C   UNL     1     -24.159  -9.902   7.472  1.00  0.00     0.053 C 
BRANCH   6   7
ATOM      7  C   UNL     1     -23.270  -8.773   7.887  1.00  0.00     0.041 C 
ATOM      8  O   UNL     1     -22.044  -8.794   7.604  1.00  0.00    -0.550 OA
ATOM      9  O   UNL     1     -23.786  -7.720   8.630  1.00  0.00    -0.550 OA
ENDBRANCH   6   7
ENDBRANCH   5   6
ENDBRANCH   4   5
ENDBRANCH   3   4
ENDBRANCH   2   3
ENDBRANCH   1   2
BRANCH   1  10
ATOM     10  C   UNL     1     -25.117 -15.190   5.383  1.00  0.00     0.000 C 
BRANCH  10  11
ATOM     11  C   UNL     1     -25.620 -14.782   6.779  1.00  0.00    -0.000 C 
BRANCH  11  12
ATOM     12  C   UNL     1     -24.507 -14.810   7.838  1.00  0.00    -0.000 C 
BRANCH  12  13
ATOM     13  C   UNL     1     -24.478 -13.538   8.698  1.00  0.00    -0.000 C 
BRANCH  13  14
ATOM     14  C   UNL     1     -23.513 -13.694   9.880  1.00  0.00    -0.000 C 
BRANCH  14  15
ATOM     15  C   UNL     1     -23.327 -12.365  10.618  1.00  0.00    -0.003 C 
ATOM     16  C   UNL     1     -21.848 -12.012  10.752  1.00  0.00     0.004 C 
ENDBRANCH  14  15
ENDBRANCH  13  14
ENDBRANCH  12  13
ENDBRANCH  11  12
ENDBRANCH  10  11
ENDBRANCH   1  10
TORSDOF 12
ENDMDL
MODEL 3
REMARK VINA RESULT:    -5.091      1.535      5.038
REMARK INTER + INTRA:          -9.653
REMARK INTER:                  -8.873
REMARK INTRA:                  -0.779
REMARK UNBOUND:                -0.990
REMARK SMILES CCCCCCCCCCCCCC(=O)[O-]
REMARK SMILES IDX 8 1 9 2 10 3 11 4 12 5 13 6 14 7 15 8 16 9 7 10 6 11 5 12
REMARK SMILES IDX 4 13 3 14 2 15 1 16
REMARK H PARENT
REMARK Flexibility Score: inf
ROOT
ATOM      1  C   UNL     1     -23.746  -9.437   7.147  1.00  0.00     0.000 C 
ENDROOT
BRANCH   1   2
ATOM      2  C   UNL     1     -24.669  -9.658   8.354  1.00  0.00     0.000 C 
BRANCH   2   3
ATOM      3  C   UNL     1     -24.389 -11.013   9.019  1.00  0.00     0.000 C 
BRANCH   3   4
ATOM      4  C   UNL     1     -22.923 -11.177   9.458  1.00  0.00     0.000 C 
BRANCH   4   5
ATOM      5  C   UNL     1     -22.706 -12.098  10.673  1.00  0.00     0.006 C 
BRANCH   5   6
ATOM      6  C   UNL     1     -23.652 -13.305  10.686  1.00  0.00     0.053 C 
BRANCH   6   7
ATOM      7  C   UNL     1     -23.249 -14.296   9.640  1.00  0.00     0.041 C 
ATOM      8  O   UNL     1     -23.987 -14.499   8.640  1.00  0.00    -0.550 OA
ATOM      9  O   UNL     1     -22.080 -15.031   9.792  1.00  0.00    -0.550 OA
ENDBRANCH   6   7
ENDBRANCH   5   6
ENDBRANCH   4   5
ENDBRANCH   3   4
ENDBRANCH   2   3
ENDBRANCH   1   2
BRANCH   1  10
ATOM     10  C   UNL     1     -24.240 -10.162   5.884  1.00  0.00     0.000 C 
BRANCH  10  11
ATOM     11  C   UNL     1     -23.084 -10.652   4.994  1.00  0.00    -0.000 C 
BRANCH  11  12
ATOM     12  C   UNL     1     -23.556 -11.598   3.880  1.00  0.00    -0.000 C 
BRANCH  12  13
ATOM     13  C   UNL     1     -24.747 -12.468   4.308  1.00  0.00    -0.000 C 
BRANCH  13  14
ATOM     14  C   UNL     1     -24.396 -13.958   4.232  1.00  0.00    -0.000 C 
BRANCH  14  15
ATOM     15  C   UNL     1     -25.234 -14.773   5.223  1.00  0.00    -0.003 C 
ATOM     16  C   UNL     1     -25.081 -16.271   4.972  1.00  0.00     0.004 C 
ENDBRANCH  14  15
ENDBRANCH  13  14
ENDBRANCH  12  13
ENDBRANCH  11  12
ENDBRANCH  10  11
ENDBRANCH   1  10
TORSDOF 12
ENDMDL
MODEL 4
REMARK VINA RESULT:    -4.993      1.641      4.340
REMARK INTER + INTRA:          -9.486
REMARK INTER:                  -8.485
REMARK INTRA:                  -1.001
REMARK UNBOUND:                -0.990
REMARK SMILES CCCCCCCCCCCCCC(=O)[O-]
REMARK SMILES IDX 8 1 9 2 10 3 11 4 12 5 13 6 14 7 15 8 16 9 7 10 6 11 5 12
REMARK SMILES IDX 4 13 3 14 2 15 1 16
REMARK H PARENT
REMARK Flexibility Score: inf
ROOT
ATOM      1  C   UNL     1     -22.809 -13.799  10.102  1.00  0.00     0.000 C 
ENDROOT
BRANCH   1   2
ATOM      2  C   UNL     1     -23.380 -14.937   9.243  1.00  0.00     0.000 C 
BRANCH   2   3
ATOM      3  C   UNL     1     -24.728 -14.537   8.626  1.00  0.00     0.000 C 
BRANCH   3   4
ATOM      4  C   UNL     1     -24.632 -14.227   7.121  1.00  0.00     0.000 C 
BRANCH   4   5
ATOM      5  C   UNL     1     -25.398 -15.202   6.206  1.00  0.00     0.006 C 
BRANCH   5   6
ATOM      6  C   UNL     1     -24.959 -15.116   4.739  1.00  0.00     0.053 C 
BRANCH   6   7
ATOM      7  C   UNL     1     -25.262 -13.761   4.182  1.00  0.00     0.041 C 
ATOM      8  O   UNL     1     -26.444 -13.451   3.876  1.00  0.00    -0.550 OA
ATOM      9  O   UNL     1     -24.233 -12.857   3.953  1.00  0.00    -0.550 OA
ENDBRANCH   6   7
ENDBRANCH   5   6
ENDBRANCH   4   5
ENDBRANCH   3   4
ENDBRANCH   2   3
ENDBRANCH   1   2
BRANCH   1  10
ATOM     10  C   UNL     1     -23.825 -12.669  10.339  1.00  0.00     0.000 C 
BRANCH  10  11
ATOM     11  C   UNL     1     -23.322 -11.306   9.831  1.00  0.00    -0.000 C 
BRANCH  11  12
ATOM     12  C   UNL     1     -24.353 -10.589   8.947  1.00  0.00    -0.000 C 
BRANCH  12  13
ATOM     13  C   UNL     1     -23.700  -9.673   7.901  1.00  0.00    -0.000 C 
BRANCH  13  14
ATOM     14  C   UNL     1     -24.092 -10.093   6.480  1.00  0.00    -0.000 C 
BRANCH  14  15
ATOM     15  C   UNL     1     -23.049  -9.623   5.460  1.00  0.00    -0.003 C 
ATOM     16  C   UNL     1     -22.098  -8.600   6.075  1.00  0.00     0.004 C 
ENDBRANCH  14  15
ENDBRANCH  13  14
ENDBRANCH  12  13
ENDBRANCH  11  12
ENDBRANCH  10  11
ENDBRANCH   1  10
TORSDOF 12
ENDMDL
MODEL 5
REMARK VINA RESULT:    -4.979      3.591      6.570
REMARK INTER + INTRA:          -9.463
REMARK INTER:                  -8.702
REMARK INTRA:                  -0.761
REMARK UNBOUND:                -0.990
REMARK SMILES CCCCCCCCCCCCCC(=O)[O-]
REMARK SMILES IDX 8 1 9 2 10 3 11 4 12 5 13 6 14 7 15 8 16 9 7 10 6 11 5 12
REMARK SMILES IDX 4 13 3 14 2 15 1 16
REMARK H PARENT
REMARK Flexibility Score: inf
ROOT
ATOM      1  C   UNL     1     -22.874 -14.147   9.843  1.00  0.00     0.000 C 
ENDROOT
BRANCH   1   2
ATOM      2  C   UNL     1     -23.474 -13.002  10.672  1.00  0.00     0.000 C 
BRANCH   2   3
ATOM      3  C   UNL     1     -23.105 -11.638  10.071  1.00  0.00     0.000 C 
BRANCH   3   4
ATOM      4  C   UNL     1     -24.261 -10.996   9.282  1.00  0.00     0.000 C 
BRANCH   4   5
ATOM      5  C   UNL     1     -23.921  -9.655   8.605  1.00  0.00     0.006 C 
BRANCH   5   6
ATOM      6  C   UNL     1     -25.159  -8.793   8.328  1.00  0.00     0.053 C 
BRANCH   6   7
ATOM      7  C   UNL     1     -24.911  -7.376   8.740  1.00  0.00     0.041 C 
ATOM      8  O   UNL     1     -25.856  -6.670   9.181  1.00  0.00    -0.550 OA
ATOM      9  O   UNL     1     -23.648  -6.820   8.591  1.00  0.00    -0.550 OA
ENDBRANCH   6   7
ENDBRANCH   5   6
ENDBRANCH   4   5
ENDBRANCH   3   4
ENDBRANCH   2   3
ENDBRANCH   1   2
BRANCH   1  10
ATOM     10  C   UNL     1     -23.942 -14.946   9.078  1.00  0.00     0.000 C 
BRANCH  10  11
ATOM     11  C   UNL     1     -24.405 -14.235   7.794  1.00  0.00    -0.000 C 
BRANCH  11  12
ATOM     12  C   UNL     1     -25.548 -14.979   7.087  1.00  0.00    -0.000 C 
BRANCH  12  13
ATOM     13  C   UNL     1     -25.180 -15.406   5.658  1.00  0.00    -0.000 C 
BRANCH  13  14
ATOM     14  C   UNL     1     -25.538 -14.311   4.646  1.00  0.00    -0.000 C 
BRANCH  14  15
ATOM     15  C   UNL     1     -24.277 -13.644   4.087  1.00  0.00    -0.003 C 
ATOM     16  C   UNL     1     -24.161 -12.199   4.562  1.00  0.00     0.004 C 
ENDBRANCH  14  15
ENDBRANCH  13  14
ENDBRANCH  12  13
ENDBRANCH  11  12
ENDBRANCH  10  11
ENDBRANCH   1  10
TORSDOF 12
ENDMDL
MODEL 6
REMARK VINA RESULT:    -4.954      2.989      6.313
REMARK INTER + INTRA:          -9.420
REMARK INTER:                  -8.452
REMARK INTRA:                  -0.969
REMARK UNBOUND:                -0.990
REMARK SMILES CCCCCCCCCCCCCC(=O)[O-]
REMARK SMILES IDX 8 1 9 2 10 3 11 4 12 5 13 6 14 7 15 8 16 9 7 10 6 11 5 12
REMARK SMILES IDX 4 13 3 14 2 15 1 16
REMARK H PARENT
REMARK Flexibility Score: inf
ROOT
ATOM      1  C   UNL     1     -23.073 -14.246   9.599  1.00  0.00     0.000 C 
ENDROOT
BRANCH   1   2
ATOM      2  C   UNL     1     -23.684 -13.329  10.669  1.00  0.00     0.000 C 
BRANCH   2   3
ATOM      3  C   UNL     1     -22.907 -12.009  10.770  1.00  0.00     0.000 C 
BRANCH   3   4
ATOM      4  C   UNL     1     -22.870 -11.229   9.443  1.00  0.00     0.000 C 
BRANCH   4   5
ATOM      5  C   UNL     1     -24.236 -10.717   8.951  1.00  0.00     0.006 C 
BRANCH   5   6
ATOM      6  C   UNL     1     -24.132  -9.850   7.690  1.00  0.00     0.053 C 
BRANCH   6   7
ATOM      7  C   UNL     1     -23.184  -8.715   7.914  1.00  0.00     0.041 C 
ATOM      8  O   UNL     1     -21.992  -8.798   7.518  1.00  0.00    -0.550 OA
ATOM      9  O   UNL     1     -23.603  -7.585   8.602  1.00  0.00    -0.550 OA
ENDBRANCH   6   7
ENDBRANCH   5   6
ENDBRANCH   4   5
ENDBRANCH   3   4
ENDBRANCH   2   3
ENDBRANCH   1   2
BRANCH   1  10
ATOM     10  C   UNL     1     -24.138 -15.024   8.808  1.00  0.00     0.000 C 
BRANCH  10  11
ATOM     11  C   UNL     1     -24.658 -14.241   7.589  1.00  0.00    -0.000 C 
BRANCH  11  12
ATOM     12  C   UNL     1     -25.629 -15.065   6.729  1.00  0.00    -0.000 C 
BRANCH  12  13
ATOM     13  C   UNL     1     -25.123 -15.265   5.293  1.00  0.00    -0.000 C 
BRANCH  13  14
ATOM     14  C   UNL     1     -25.340 -14.001   4.452  1.00  0.00    -0.000 C 
BRANCH  14  15
ATOM     15  C   UNL     1     -24.008 -13.447   3.937  1.00  0.00    -0.003 C 
ATOM     16  C   UNL     1     -23.889 -11.951   4.216  1.00  0.00     0.004 C 
ENDBRANCH  14  15
ENDBRANCH  13  14
ENDBRANCH  12  13
ENDBRANCH  11  12
ENDBRANCH  10  11
ENDBRANCH   1  10
TORSDOF 12
ENDMDL
MODEL 7
REMARK VINA RESULT:    -4.938      2.853      5.934
REMARK INTER + INTRA:          -9.392
REMARK INTER:                  -8.385
REMARK INTRA:                  -1.008
REMARK UNBOUND:                -0.990
REMARK SMILES CCCCCCCCCCCCCC(=O)[O-]
REMARK SMILES IDX 8 1 9 2 10 3 11 4 12 5 13 6 14 7 15 8 16 9 7 10 6 11 5 12
REMARK SMILES IDX 4 13 3 14 2 15 1 16
REMARK H PARENT
REMARK Flexibility Score: inf
ROOT
ATOM      1  C   UNL     1     -23.755 -13.379  10.636  1.00  0.00     0.000 C 
ENDROOT
BRANCH   1   2
ATOM      2  C   UNL     1     -22.940 -12.091  10.820  1.00  0.00     0.000 C 
BRANCH   2   3
ATOM      3  C   UNL     1     -22.974 -11.232   9.547  1.00  0.00     0.000 C 
BRANCH   3   4
ATOM      4  C   UNL     1     -24.402 -10.852   9.117  1.00  0.00     0.000 C 
BRANCH   4   5
ATOM      5  C   UNL     1     -24.495  -9.648   8.161  1.00  0.00     0.006 C 
BRANCH   5   6
ATOM      6  C   UNL     1     -23.866  -9.922   6.789  1.00  0.00     0.053 C 
BRANCH   6   7
ATOM      7  C   UNL     1     -22.687  -9.028   6.567  1.00  0.00     0.041 C 
ATOM      8  O   UNL     1     -22.204  -8.892   5.413  1.00  0.00    -0.550 OA
ATOM      9  O   UNL     1     -22.091  -8.384   7.643  1.00  0.00    -0.550 OA
ENDBRANCH   6   7
ENDBRANCH   5   6
ENDBRANCH   4   5
ENDBRANCH   3   4
ENDBRANCH   2   3
ENDBRANCH   1   2
BRANCH   1  10
ATOM     10  C   UNL     1     -23.201 -14.275   9.517  1.00  0.00     0.000 C 
BRANCH  10  11
ATOM     11  C   UNL     1     -24.313 -14.969   8.710  1.00  0.00    -0.000 C 
BRANCH  11  12
ATOM     12  C   UNL     1     -24.623 -14.247   7.390  1.00  0.00    -0.000 C 
BRANCH  12  13
ATOM     13  C   UNL     1     -25.461 -15.104   6.430  1.00  0.00    -0.000 C 
BRANCH  13  14
ATOM     14  C   UNL     1     -24.917 -15.019   4.999  1.00  0.00    -0.000 C 
BRANCH  14  15
ATOM     15  C   UNL     1     -25.442 -13.769   4.285  1.00  0.00    -0.003 C 
ATOM     16  C   UNL     1     -24.370 -12.684   4.213  1.00  0.00     0.004 C 
ENDBRANCH  14  15
ENDBRANCH  13  14
ENDBRANCH  12  13
ENDBRANCH  11  12
ENDBRANCH  10  11
ENDBRANCH   1  10
TORSDOF 12
ENDMDL
MODEL 8
REMARK VINA RESULT:    -4.924      1.744      4.315
REMARK INTER + INTRA:          -9.368
REMARK INTER:                  -8.330
REMARK INTRA:                  -1.038
REMARK UNBOUND:                -0.990
REMARK SMILES CCCCCCCCCCCCCC(=O)[O-]
REMARK SMILES IDX 8 1 9 2 10 3 11 4 12 5 13 6 14 7 15 8 16 9 7 10 6 11 5 12
REMARK SMILES IDX 4 13 3 14 2 15 1 16
REMARK H PARENT
REMARK Flexibility Score: inf
ROOT
ATOM      1  C   UNL     1     -22.420 -12.821  10.599  1.00  0.00     0.000 C 
ENDROOT
BRANCH   1   2
ATOM      2  C   UNL     1     -23.545 -13.863  10.530  1.00  0.00     0.000 C 
BRANCH   2   3
ATOM      3  C   UNL     1     -23.340 -14.816   9.344  1.00  0.00     0.000 C 
BRANCH   3   4
ATOM      4  C   UNL     1     -24.637 -15.087   8.559  1.00  0.00     0.000 C 
BRANCH   4   5
ATOM      5  C   UNL     1     -24.707 -14.425   7.171  1.00  0.00     0.006 C 
BRANCH   5   6
ATOM      6  C   UNL     1     -25.379 -15.314   6.116  1.00  0.00     0.053 C 
BRANCH   6   7
ATOM      7  C   UNL     1     -25.077 -14.811   4.740  1.00  0.00     0.041 C 
ATOM      8  O   UNL     1     -24.209 -15.385   4.032  1.00  0.00    -0.550 OA
ATOM      9  O   UNL     1     -25.719 -13.678   4.258  1.00  0.00    -0.550 OA
ENDBRANCH   6   7
ENDBRANCH   5   6
ENDBRANCH   4   5
ENDBRANCH   3   4
ENDBRANCH   2   3
ENDBRANCH   1   2
BRANCH   1  10
ATOM     10  C   UNL     1     -22.918 -11.393  10.321  1.00  0.00     0.000 C 
BRANCH  10  11
ATOM     11  C   UNL     1     -24.227 -11.371   9.512  1.00  0.00    -0.000 C 
BRANCH  11  12
ATOM     12  C   UNL     1     -24.106 -10.556   8.215  1.00  0.00    -0.000 C 
BRANCH  12  13
ATOM     13  C   UNL     1     -24.464  -9.075   8.412  1.00  0.00    -0.000 C 
BRANCH  13  14
ATOM     14  C   UNL     1     -23.217  -8.189   8.311  1.00  0.00    -0.000 C 
BRANCH  14  15
ATOM     15  C   UNL     1     -22.101  -8.895   7.533  1.00  0.00    -0.003 C 
ATOM     16  C   UNL     1     -22.000  -8.360   6.107  1.00  0.00     0.004 C 
ENDBRANCH  14  15
ENDBRANCH  13  14
ENDBRANCH  12  13
ENDBRANCH  11  12
ENDBRANCH  10  11
ENDBRANCH   1  10
TORSDOF 12
ENDMDL
MODEL 9
REMARK VINA RESULT:    -4.873      2.534      5.455
REMARK INTER + INTRA:          -9.281
REMARK INTER:                  -8.222
REMARK INTRA:                  -1.059
REMARK UNBOUND:                -0.990
REMARK SMILES CCCCCCCCCCCCCC(=O)[O-]
REMARK SMILES IDX 8 1 9 2 10 3 11 4 12 5 13 6 14 7 15 8 16 9 7 10 6 11 5 12
REMARK SMILES IDX 4 13 3 14 2 15 1 16
REMARK H PARENT
REMARK Flexibility Score: inf
ROOT
ATOM      1  C   UNL     1     -25.406 -14.304   4.518  1.00  0.00     0.000 C 
ENDROOT
BRANCH   1   2
ATOM      2  C   UNL     1     -25.150 -15.329   5.633  1.00  0.00     0.000 C 
BRANCH   2   3
ATOM      3  C   UNL     1     -25.596 -14.781   6.996  1.00  0.00     0.000 C 
BRANCH   3   4
ATOM      4  C   UNL     1     -24.517 -14.923   8.084  1.00  0.00     0.000 C 
BRANCH   4   5
ATOM      5  C   UNL     1     -24.322 -13.682   8.974  1.00  0.00     0.006 C 
BRANCH   5   6
ATOM      6  C   UNL     1     -23.035 -13.737   9.806  1.00  0.00     0.053 C 
BRANCH   6   7
ATOM      7  C   UNL     1     -22.764 -12.408  10.437  1.00  0.00     0.041 C 
ATOM      8  O   UNL     1     -23.642 -11.506  10.417  1.00  0.00    -0.550 OA
ATOM      9  O   UNL     1     -21.524 -12.149  11.005  1.00  0.00    -0.550 OA
ENDBRANCH   6   7
ENDBRANCH   5   6
ENDBRANCH   4   5
ENDBRANCH   3   4
ENDBRANCH   2   3
ENDBRANCH   1   2
BRANCH   1  10
ATOM     10  C   UNL     1     -24.123 -13.584   4.071  1.00  0.00     0.000 C 
BRANCH  10  11
ATOM     11  C   UNL     1     -24.195 -12.061   4.286  1.00  0.00    -0.000 C 
BRANCH  11  12
ATOM     12  C   UNL     1     -24.273 -11.678   5.771  1.00  0.00    -0.000 C 
BRANCH  12  13
ATOM     13  C   UNL     1     -24.146 -10.165   5.999  1.00  0.00    -0.000 C 
BRANCH  13  14
ATOM     14  C   UNL     1     -24.425  -9.803   7.463  1.00  0.00    -0.000 C 
BRANCH  14  15
ATOM     15  C   UNL     1     -23.340  -8.873   8.016  1.00  0.00    -0.003 C 
ATOM     16  C   UNL     1     -22.196  -8.706   7.019  1.00  0.00     0.004 C 
ENDBRANCH  14  15
ENDBRANCH  13  14
ENDBRANCH  12  13
ENDBRANCH  11  12
ENDBRANCH  10  11
ENDBRANCH   1  10
TORSDOF 12
ENDMDL
