MODEL 1
REMARK VINA RESULT:    -4.934      0.000      0.000
REMARK INTER + INTRA:          -6.454
REMARK INTER:                  -6.088
REMARK INTRA:                  -0.366
REMARK UNBOUND:                -0.366
REMARK SMILES Oc1cc(O)c2cc(O)c(-c3cc(O)c(O)c(O)c3)[o+]c2c1
REMARK SMILES IDX 10 1 20 2 21 3 22 4 2 5 3 6 4 7 6 8 7 9 8 10 11 11 12 12
REMARK SMILES IDX 13 13 19 14 15 15 17 16 14 17 16 19 18 21 9 23 1 25 5 27
REMARK H PARENT 14 18 16 20 18 22 9 24 1 26 5 28
REMARK Flexibility Score: inf
ROOT
ATOM      1  C   UNL     1      23.861  71.986  13.116  1.00  0.00     0.402 A 
ATOM      2  O   UNL     1      25.054  71.972  13.705  1.00  0.00    -0.202 OA
ATOM      3  C   UNL     1      26.200  71.959  13.033  1.00  0.00     0.368 A 
ATOM      4  C   UNL     1      27.405  71.941  13.741  1.00  0.00     0.162 A 
ATOM      5  C   UNL     1      28.624  71.923  13.058  1.00  0.00     0.128 A 
ATOM      6  C   UNL     1      28.639  71.922  11.661  1.00  0.00     0.093 A 
ATOM      7  C   UNL     1      27.446  71.939  10.928  1.00  0.00     0.136 A 
ATOM      8  C   UNL     1      26.205  71.960  11.617  1.00  0.00     0.125 A 
ATOM      9  C   UNL     1      24.962  71.991  10.966  1.00  0.00     0.078 A 
ATOM     10  C   UNL     1      23.780  72.015  11.712  1.00  0.00     0.223 A 
ENDROOT
BRANCH   1  11
ATOM     11  C   UNL     1      22.655  71.990  13.975  1.00  0.00     0.091 A 
ATOM     12  C   UNL     1      22.134  70.800  14.511  1.00  0.00     0.068 A 
ATOM     13  C   UNL     1      21.004  70.828  15.342  1.00  0.00     0.162 A 
ATOM     14  C   UNL     1      22.051  73.212  14.309  1.00  0.00     0.068 A 
ATOM     15  C   UNL     1      20.393  72.054  15.652  1.00  0.00     0.200 A 
ATOM     16  C   UNL     1      20.921  73.245  15.137  1.00  0.00     0.162 A 
BRANCH  13  17
ATOM     17  O   UNL     1      20.491  69.641  15.863  1.00  0.00    -0.504 OA
ATOM     18  H   UNL     1      20.366  68.817  15.286  1.00  0.00     0.293 HD
ENDBRANCH  13  17
BRANCH  15  19
ATOM     19  O   UNL     1      19.266  72.106  16.472  1.00  0.00    -0.502 OA
ATOM     20  H   UNL     1      18.342  72.303  16.107  1.00  0.00     0.293 HD
ENDBRANCH  15  19
BRANCH  16  21
ATOM     21  O   UNL     1      20.316  74.460  15.455  1.00  0.00    -0.504 OA
ATOM     22  H   UNL     1      20.756  75.346  15.233  1.00  0.00     0.293 HD
ENDBRANCH  16  21
ENDBRANCH   1  11
BRANCH  10  23
ATOM     23  O   UNL     1      22.545  72.096  11.066  1.00  0.00    -0.500 OA
ATOM     24  H   UNL     1      22.477  72.196  10.060  1.00  0.00     0.294 HD
ENDBRANCH  10  23
BRANCH   5  25
ATOM     25  O   UNL     1      29.829  71.906  13.758  1.00  0.00    -0.507 OA
ATOM     26  H   UNL     1      30.554  71.231  13.548  1.00  0.00     0.293 HD
ENDBRANCH   5  25
BRANCH   7  27
ATOM     27  O   UNL     1      27.548  71.932   9.534  1.00  0.00    -0.507 OA
ATOM     28  H   UNL     1      28.363  72.237   9.021  1.00  0.00     0.293 HD
ENDBRANCH   7  27
TORSDOF 7
ENDMDL
MODEL 2
REMARK VINA RESULT:    -4.925      0.082      1.789
REMARK INTER + INTRA:          -6.443
REMARK INTER:                  -6.070
REMARK INTRA:                  -0.372
REMARK UNBOUND:                -0.366
REMARK SMILES Oc1cc(O)c2cc(O)c(-c3cc(O)c(O)c(O)c3)[o+]c2c1
REMARK SMILES IDX 10 1 20 2 21 3 22 4 2 5 3 6 4 7 6 8 7 9 8 10 11 11 12 12
REMARK SMILES IDX 13 13 19 14 15 15 17 16 14 17 16 19 18 21 9 23 1 25 5 27
REMARK H PARENT 14 18 16 20 18 22 9 24 1 26 5 28
REMARK Flexibility Score: inf
ROOT
ATOM      1  C   UNL     1      23.873  72.014  13.132  1.00  0.00     0.402 A 
ATOM      2  O   UNL     1      25.068  71.988  13.715  1.00  0.00    -0.202 OA
ATOM      3  C   UNL     1      26.212  71.968  13.037  1.00  0.00     0.368 A 
ATOM      4  C   UNL     1      27.419  71.937  13.740  1.00  0.00     0.162 A 
ATOM      5  C   UNL     1      28.635  71.912  13.051  1.00  0.00     0.128 A 
ATOM      6  C   UNL     1      28.644  71.916  11.654  1.00  0.00     0.093 A 
ATOM      7  C   UNL     1      27.447  71.946  10.927  1.00  0.00     0.136 A 
ATOM      8  C   UNL     1      26.210  71.974  11.621  1.00  0.00     0.125 A 
ATOM      9  C   UNL     1      24.964  72.018  10.976  1.00  0.00     0.078 A 
ATOM     10  C   UNL     1      23.786  72.048  11.728  1.00  0.00     0.223 A 
ENDROOT
BRANCH   1  11
ATOM     11  C   UNL     1      22.671  72.024  13.996  1.00  0.00     0.091 A 
ATOM     12  C   UNL     1      22.042  73.227  14.360  1.00  0.00     0.068 A 
ATOM     13  C   UNL     1      20.891  73.214  15.162  1.00  0.00     0.162 A 
ATOM     14  C   UNL     1      22.114  70.807  14.416  1.00  0.00     0.068 A 
ATOM     15  C   UNL     1      20.353  71.991  15.596  1.00  0.00     0.200 A 
ATOM     16  C   UNL     1      20.964  70.788  15.218  1.00  0.00     0.162 A 
BRANCH  13  17
ATOM     17  O   UNL     1      20.278  74.414  15.523  1.00  0.00    -0.504 OA
ATOM     18  H   UNL     1      19.890  75.042  14.828  1.00  0.00     0.293 HD
ENDBRANCH  13  17
BRANCH  15  19
ATOM     19  O   UNL     1      19.212  71.954  16.397  1.00  0.00    -0.502 OA
ATOM     20  H   UNL     1      19.190  71.462  17.282  1.00  0.00     0.293 HD
ENDBRANCH  15  19
BRANCH  16  21
ATOM     21  O   UNL     1      20.423  69.577  15.644  1.00  0.00    -0.504 OA
ATOM     22  H   UNL     1      21.005  68.838  16.019  1.00  0.00     0.293 HD
ENDBRANCH  16  21
ENDBRANCH   1  11
BRANCH  10  23
ATOM     23  O   UNL     1      22.549  72.142  11.088  1.00  0.00    -0.500 OA
ATOM     24  H   UNL     1      22.088  71.328  10.700  1.00  0.00     0.294 HD
ENDBRANCH  10  23
BRANCH   5  25
ATOM     25  O   UNL     1      29.843  71.883  13.746  1.00  0.00    -0.507 OA
ATOM     26  H   UNL     1      30.539  72.611  13.630  1.00  0.00     0.293 HD
ENDBRANCH   5  25
BRANCH   7  27
ATOM     27  O   UNL     1      27.543  71.944   9.532  1.00  0.00    -0.507 OA
ATOM     28  H   UNL     1      26.841  72.321   8.912  1.00  0.00     0.293 HD
ENDBRANCH   7  27
TORSDOF 7
ENDMDL
MODEL 3
REMARK VINA RESULT:    -4.901      1.336      7.081
REMARK INTER + INTRA:          -6.413
REMARK INTER:                  -6.033
REMARK INTRA:                  -0.380
REMARK UNBOUND:                -0.366
REMARK SMILES Oc1cc(O)c2cc(O)c(-c3cc(O)c(O)c(O)c3)[o+]c2c1
REMARK SMILES IDX 10 1 20 2 21 3 22 4 2 5 3 6 4 7 6 8 7 9 8 10 11 11 12 12
REMARK SMILES IDX 13 13 19 14 15 15 17 16 14 17 16 19 18 21 9 23 1 25 5 27
REMARK H PARENT 14 18 16 20 18 22 9 24 1 26 5 28
REMARK Flexibility Score: inf
ROOT
ATOM      1  C   UNL     1      23.988  72.172  13.062  1.00  0.00     0.402 A 
ATOM      2  O   UNL     1      23.435  71.312  13.913  1.00  0.00    -0.202 OA
ATOM      3  C   UNL     1      22.351  71.589  14.630  1.00  0.00     0.368 A 
ATOM      4  C   UNL     1      21.845  70.620  15.501  1.00  0.00     0.162 A 
ATOM      5  C   UNL     1      20.708  70.887  16.269  1.00  0.00     0.128 A 
ATOM      6  C   UNL     1      20.075  72.129  16.167  1.00  0.00     0.093 A 
ATOM      7  C   UNL     1      20.563  73.116  15.302  1.00  0.00     0.136 A 
ATOM      8  C   UNL     1      21.715  72.849  14.518  1.00  0.00     0.125 A 
ATOM      9  C   UNL     1      22.266  73.773  13.615  1.00  0.00     0.078 A 
ATOM     10  C   UNL     1      23.401  73.437  12.873  1.00  0.00     0.223 A 
ENDROOT
BRANCH   1  11
ATOM     11  C   UNL     1      25.202  71.749  12.327  1.00  0.00     0.091 A 
ATOM     12  C   UNL     1      26.486  71.928  12.870  1.00  0.00     0.068 A 
ATOM     13  C   UNL     1      27.622  71.499  12.168  1.00  0.00     0.162 A 
ATOM     14  C   UNL     1      25.068  71.103  11.089  1.00  0.00     0.068 A 
ATOM     15  C   UNL     1      27.479  70.875  10.918  1.00  0.00     0.200 A 
ATOM     16  C   UNL     1      26.200  70.674  10.382  1.00  0.00     0.162 A 
BRANCH  13  17
ATOM     17  O   UNL     1      28.892  71.688  12.713  1.00  0.00    -0.504 OA
ATOM     18  H   UNL     1      29.100  71.440  13.673  1.00  0.00     0.293 HD
ENDBRANCH  13  17
BRANCH  15  19
ATOM     19  O   UNL     1      28.595  70.444  10.200  1.00  0.00    -0.502 OA
ATOM     20  H   UNL     1      29.382  71.052  10.011  1.00  0.00     0.293 HD
ENDBRANCH  15  19
BRANCH  16  21
ATOM     21  O   UNL     1      26.062  70.046   9.146  1.00  0.00    -0.504 OA
ATOM     22  H   UNL     1      26.373  70.488   8.288  1.00  0.00     0.293 HD
ENDBRANCH  16  21
ENDBRANCH   1  11
BRANCH  10  23
ATOM     23  O   UNL     1      23.920  74.336  11.940  1.00  0.00    -0.500 OA
ATOM     24  H   UNL     1      23.840  75.338  12.066  1.00  0.00     0.294 HD
ENDBRANCH  10  23
BRANCH   5  25
ATOM     25  O   UNL     1      20.198  69.926  17.139  1.00  0.00    -0.507 OA
ATOM     26  H   UNL     1      19.300  70.045  17.593  1.00  0.00     0.293 HD
ENDBRANCH   5  25
BRANCH   7  27
ATOM     27  O   UNL     1      19.874  74.332  15.261  1.00  0.00    -0.507 OA
ATOM     28  H   UNL     1      19.770  74.901  14.433  1.00  0.00     0.293 HD
ENDBRANCH   7  27
TORSDOF 7
ENDMDL
MODEL 4
REMARK VINA RESULT:    -4.818      1.329      7.035
REMARK INTER + INTRA:          -6.311
REMARK INTER:                  -5.932
REMARK INTRA:                  -0.379
REMARK UNBOUND:                -0.366
REMARK SMILES Oc1cc(O)c2cc(O)c(-c3cc(O)c(O)c(O)c3)[o+]c2c1
REMARK SMILES IDX 10 1 20 2 21 3 22 4 2 5 3 6 4 7 6 8 7 9 8 10 11 11 12 12
REMARK SMILES IDX 13 13 19 14 15 15 17 16 14 17 16 19 18 21 9 23 1 25 5 27
REMARK H PARENT 14 18 16 20 18 22 9 24 1 26 5 28
REMARK Flexibility Score: inf
ROOT
ATOM      1  C   UNL     1      24.000  72.125  12.986  1.00  0.00     0.402 A 
ATOM      2  O   UNL     1      23.417  71.276  13.828  1.00  0.00    -0.202 OA
ATOM      3  C   UNL     1      22.341  71.582  14.547  1.00  0.00     0.368 A 
ATOM      4  C   UNL     1      21.802  70.623  15.408  1.00  0.00     0.162 A 
ATOM      5  C   UNL     1      20.673  70.920  16.177  1.00  0.00     0.128 A 
ATOM      6  C   UNL     1      20.083  72.183  16.086  1.00  0.00     0.093 A 
ATOM      7  C   UNL     1      20.605  73.162  15.231  1.00  0.00     0.136 A 
ATOM      8  C   UNL     1      21.748  72.864  14.446  1.00  0.00     0.125 A 
ATOM      9  C   UNL     1      22.331  73.778  13.553  1.00  0.00     0.078 A 
ATOM     10  C   UNL     1      23.456  73.411  12.809  1.00  0.00     0.223 A 
ENDROOT
BRANCH   1  11
ATOM     11  C   UNL     1      25.200  71.669  12.249  1.00  0.00     0.091 A 
ATOM     12  C   UNL     1      25.097  71.073  10.980  1.00  0.00     0.068 A 
ATOM     13  C   UNL     1      26.248  70.668  10.289  1.00  0.00     0.162 A 
ATOM     14  C   UNL     1      26.471  71.885  12.801  1.00  0.00     0.068 A 
ATOM     15  C   UNL     1      27.516  70.868  10.860  1.00  0.00     0.200 A 
ATOM     16  C   UNL     1      27.625  71.481  12.116  1.00  0.00     0.162 A 
BRANCH  13  17
ATOM     17  O   UNL     1      26.135  70.072   9.033  1.00  0.00    -0.504 OA
ATOM     18  H   UNL     1      26.710  70.367   8.252  1.00  0.00     0.293 HD
ENDBRANCH  13  17
BRANCH  15  19
ATOM     19  O   UNL     1      28.674  70.470  10.193  1.00  0.00    -0.502 OA
ATOM     20  H   UNL     1      29.598  70.742  10.506  1.00  0.00     0.293 HD
ENDBRANCH  15  19
BRANCH  16  21
ATOM     21  O   UNL     1      28.885  71.686  12.675  1.00  0.00    -0.504 OA
ATOM     22  H   UNL     1      29.714  71.768  12.098  1.00  0.00     0.293 HD
ENDBRANCH  16  21
ENDBRANCH   1  11
BRANCH  10  23
ATOM     23  O   UNL     1      24.006  74.301  11.886  1.00  0.00    -0.500 OA
ATOM     24  H   UNL     1      23.682  75.258  11.811  1.00  0.00     0.294 HD
ENDBRANCH  10  23
BRANCH   5  25
ATOM     25  O   UNL     1      20.130  69.968  17.036  1.00  0.00    -0.507 OA
ATOM     26  H   UNL     1      20.718  69.381  17.617  1.00  0.00     0.293 HD
ENDBRANCH   5  25
BRANCH   7  27
ATOM     27  O   UNL     1      19.957  74.400  15.202  1.00  0.00    -0.507 OA
ATOM     28  H   UNL     1      20.431  75.292  15.209  1.00  0.00     0.293 HD
ENDBRANCH   7  27
TORSDOF 7
ENDMDL
MODEL 5
REMARK VINA RESULT:    -4.770      1.646      6.983
REMARK INTER + INTRA:          -6.252
REMARK INTER:                  -5.888
REMARK INTRA:                  -0.364
REMARK UNBOUND:                -0.366
REMARK SMILES Oc1cc(O)c2cc(O)c(-c3cc(O)c(O)c(O)c3)[o+]c2c1
REMARK SMILES IDX 10 1 20 2 21 3 22 4 2 5 3 6 4 7 6 8 7 9 8 10 11 11 12 12
REMARK SMILES IDX 13 13 19 14 15 15 17 16 14 17 16 19 18 21 9 23 1 25 5 27
REMARK H PARENT 14 18 16 20 18 22 9 24 1 26 5 28
REMARK Flexibility Score: inf
ROOT
ATOM      1  C   UNL     1      23.967  72.148  12.851  1.00  0.00     0.402 A 
ATOM      2  O   UNL     1      23.196  71.238  13.441  1.00  0.00    -0.202 OA
ATOM      3  C   UNL     1      21.882  71.375  13.582  1.00  0.00     0.368 A 
ATOM      4  C   UNL     1      21.157  70.365  14.219  1.00  0.00     0.162 A 
ATOM      5  C   UNL     1      19.774  70.485  14.383  1.00  0.00     0.128 A 
ATOM      6  C   UNL     1      19.113  71.622  13.909  1.00  0.00     0.093 A 
ATOM      7  C   UNL     1      19.818  72.648  13.268  1.00  0.00     0.136 A 
ATOM      8  C   UNL     1      21.221  72.529  13.096  1.00  0.00     0.125 A 
ATOM      9  C   UNL     1      22.006  73.501  12.454  1.00  0.00     0.078 A 
ATOM     10  C   UNL     1      23.384  73.312  12.318  1.00  0.00     0.223 A 
ENDROOT
BRANCH   1  11
ATOM     11  C   UNL     1      25.421  71.884  12.764  1.00  0.00     0.091 A 
ATOM     12  C   UNL     1      25.997  71.334  11.606  1.00  0.00     0.068 A 
ATOM     13  C   UNL     1      27.381  71.113  11.536  1.00  0.00     0.162 A 
ATOM     14  C   UNL     1      26.252  72.243  13.836  1.00  0.00     0.068 A 
ATOM     15  C   UNL     1      28.201  71.454  12.624  1.00  0.00     0.200 A 
ATOM     16  C   UNL     1      27.635  72.023  13.772  1.00  0.00     0.162 A 
BRANCH  13  17
ATOM     17  O   UNL     1      27.942  70.560  10.385  1.00  0.00    -0.504 OA
ATOM     18  H   UNL     1      28.945  70.462  10.277  1.00  0.00     0.293 HD
ENDBRANCH  13  17
BRANCH  15  19
ATOM     19  O   UNL     1      29.579  71.240  12.577  1.00  0.00    -0.502 OA
ATOM     20  H   UNL     1      30.069  70.726  13.299  1.00  0.00     0.293 HD
ENDBRANCH  15  19
BRANCH  16  21
ATOM     21  O   UNL     1      28.454  72.369  14.845  1.00  0.00    -0.504 OA
ATOM     22  H   UNL     1      29.440  72.134  14.857  1.00  0.00     0.293 HD
ENDBRANCH  16  21
ENDBRANCH   1  11
BRANCH  10  23
ATOM     23  O   UNL     1      24.156  74.254  11.637  1.00  0.00    -0.500 OA
ATOM     24  H   UNL     1      25.142  74.104  11.458  1.00  0.00     0.294 HD
ENDBRANCH  10  23
BRANCH   5  25
ATOM     25  O   UNL     1      19.045  69.481  15.017  1.00  0.00    -0.507 OA
ATOM     26  H   UNL     1      19.026  68.533  14.659  1.00  0.00     0.293 HD
ENDBRANCH   5  25
BRANCH   7  27
ATOM     27  O   UNL     1      19.083  73.753  12.826  1.00  0.00    -0.507 OA
ATOM     28  H   UNL     1      18.694  73.845  11.900  1.00  0.00     0.293 HD
ENDBRANCH   7  27
TORSDOF 7
ENDMDL
MODEL 6
REMARK VINA RESULT:    -4.511      3.600      7.777
REMARK INTER + INTRA:          -5.932
REMARK INTER:                  -5.641
REMARK INTRA:                  -0.291
REMARK UNBOUND:                -0.366
REMARK SMILES Oc1cc(O)c2cc(O)c(-c3cc(O)c(O)c(O)c3)[o+]c2c1
REMARK SMILES IDX 10 1 20 2 21 3 22 4 2 5 3 6 4 7 6 8 7 9 8 10 11 11 12 12
REMARK SMILES IDX 13 13 19 14 15 15 17 16 14 17 16 19 18 21 9 23 1 25 5 27
REMARK H PARENT 14 18 16 20 18 22 9 24 1 26 5 28
REMARK Flexibility Score: inf
ROOT
ATOM      1  C   UNL     1      21.582  69.966  16.650  1.00  0.00     0.402 A 
ATOM      2  O   UNL     1      20.739  69.078  16.132  1.00  0.00    -0.202 OA
ATOM      3  C   UNL     1      20.521  67.880  16.667  1.00  0.00     0.368 A 
ATOM      4  C   UNL     1      19.617  67.013  16.047  1.00  0.00     0.162 A 
ATOM      5  C   UNL     1      19.372  65.747  16.586  1.00  0.00     0.128 A 
ATOM      6  C   UNL     1      20.035  65.345  17.749  1.00  0.00     0.093 A 
ATOM      7  C   UNL     1      20.946  66.196  18.388  1.00  0.00     0.136 A 
ATOM      8  C   UNL     1      21.196  67.483  17.846  1.00  0.00     0.125 A 
ATOM      9  C   UNL     1      22.081  68.406  18.426  1.00  0.00     0.078 A 
ATOM     10  C   UNL     1      22.273  69.659  17.837  1.00  0.00     0.223 A 
ENDROOT
BRANCH   1  11
ATOM     11  C   UNL     1      21.746  71.264  15.956  1.00  0.00     0.091 A 
ATOM     12  C   UNL     1      22.951  71.605  15.317  1.00  0.00     0.068 A 
ATOM     13  C   UNL     1      23.078  72.830  14.646  1.00  0.00     0.162 A 
ATOM     14  C   UNL     1      20.660  72.149  15.885  1.00  0.00     0.068 A 
ATOM     15  C   UNL     1      21.991  73.720  14.600  1.00  0.00     0.200 A 
ATOM     16  C   UNL     1      20.782  73.375  15.217  1.00  0.00     0.162 A 
BRANCH  13  17
ATOM     17  O   UNL     1      24.279  73.163  14.021  1.00  0.00    -0.504 OA
ATOM     18  H   UNL     1      24.614  72.656  13.209  1.00  0.00     0.293 HD
ENDBRANCH  13  17
BRANCH  15  19
ATOM     19  O   UNL     1      22.096  74.946  13.941  1.00  0.00    -0.502 OA
ATOM     20  H   UNL     1      22.951  75.489  13.947  1.00  0.00     0.293 HD
ENDBRANCH  15  19
BRANCH  16  21
ATOM     21  O   UNL     1      19.704  74.257  15.161  1.00  0.00    -0.504 OA
ATOM     22  H   UNL     1      19.480  74.768  14.315  1.00  0.00     0.293 HD
ENDBRANCH  16  21
ENDBRANCH   1  11
BRANCH  10  23
ATOM     23  O   UNL     1      23.115  70.595  18.439  1.00  0.00    -0.500 OA
ATOM     24  H   UNL     1      22.893  71.583  18.447  1.00  0.00     0.294 HD
ENDBRANCH  10  23
BRANCH   5  25
ATOM     25  O   UNL     1      18.471  64.878  15.975  1.00  0.00    -0.507 OA
ATOM     26  H   UNL     1      18.211  63.996  16.402  1.00  0.00     0.293 HD
ENDBRANCH   5  25
BRANCH   7  27
ATOM     27  O   UNL     1      21.569  65.717  19.544  1.00  0.00    -0.507 OA
ATOM     28  H   UNL     1      22.524  65.390  19.582  1.00  0.00     0.293 HD
ENDBRANCH   7  27
TORSDOF 7
ENDMDL
MODEL 7
REMARK VINA RESULT:    -4.267      2.718      5.374
REMARK INTER + INTRA:          -5.632
REMARK INTER:                  -5.279
REMARK INTRA:                  -0.353
REMARK UNBOUND:                -0.366
REMARK SMILES Oc1cc(O)c2cc(O)c(-c3cc(O)c(O)c(O)c3)[o+]c2c1
REMARK SMILES IDX 10 1 20 2 21 3 22 4 2 5 3 6 4 7 6 8 7 9 8 10 11 11 12 12
REMARK SMILES IDX 13 13 19 14 15 15 17 16 14 17 16 19 18 21 9 23 1 25 5 27
REMARK H PARENT 14 18 16 20 18 22 9 24 1 26 5 28
REMARK Flexibility Score: inf
ROOT
ATOM      1  C   UNL     1      21.179  71.006  15.773  1.00  0.00     0.402 A 
ATOM      2  O   UNL     1      22.233  71.008  14.961  1.00  0.00    -0.202 OA
ATOM      3  C   UNL     1      22.517  72.011  14.136  1.00  0.00     0.368 A 
ATOM      4  C   UNL     1      23.646  71.919  13.317  1.00  0.00     0.162 A 
ATOM      5  C   UNL     1      23.966  72.958  12.438  1.00  0.00     0.128 A 
ATOM      6  C   UNL     1      23.152  74.092  12.376  1.00  0.00     0.093 A 
ATOM      7  C   UNL     1      22.015  74.207  13.185  1.00  0.00     0.136 A 
ATOM      8  C   UNL     1      21.688  73.157  14.081  1.00  0.00     0.125 A 
ATOM      9  C   UNL     1      20.576  73.192  14.938  1.00  0.00     0.078 A 
ATOM     10  C   UNL     1      20.320  72.120  15.798  1.00  0.00     0.223 A 
ENDROOT
BRANCH   1  11
ATOM     11  C   UNL     1      20.965  69.825  16.639  1.00  0.00     0.091 A 
ATOM     12  C   UNL     1      21.664  69.667  17.848  1.00  0.00     0.068 A 
ATOM     13  C   UNL     1      21.429  68.551  18.666  1.00  0.00     0.162 A 
ATOM     14  C   UNL     1      20.002  68.871  16.277  1.00  0.00     0.068 A 
ATOM     15  C   UNL     1      20.480  67.590  18.283  1.00  0.00     0.200 A 
ATOM     16  C   UNL     1      19.764  67.753  17.089  1.00  0.00     0.162 A 
BRANCH  13  17
ATOM     17  O   UNL     1      22.133  68.400  19.860  1.00  0.00    -0.504 OA
ATOM     18  H   UNL     1      22.331  67.485  20.248  1.00  0.00     0.293 HD
ENDBRANCH  13  17
BRANCH  15  19
ATOM     19  O   UNL     1      20.232  66.470  19.078  1.00  0.00    -0.502 OA
ATOM     20  H   UNL     1      20.862  66.185  19.818  1.00  0.00     0.293 HD
ENDBRANCH  15  19
BRANCH  16  21
ATOM     21  O   UNL     1      18.817  66.801  16.717  1.00  0.00    -0.504 OA
ATOM     22  H   UNL     1      18.284  66.889  15.860  1.00  0.00     0.293 HD
ENDBRANCH  16  21
ENDBRANCH   1  11
BRANCH  10  23
ATOM     23  O   UNL     1      19.244  72.176  16.686  1.00  0.00    -0.500 OA
ATOM     24  H   UNL     1      18.719  71.347  16.937  1.00  0.00     0.294 HD
ENDBRANCH  10  23
BRANCH   5  25
ATOM     25  O   UNL     1      25.091  72.874  11.620  1.00  0.00    -0.507 OA
ATOM     26  H   UNL     1      25.847  73.546  11.688  1.00  0.00     0.293 HD
ENDBRANCH   5  25
BRANCH   7  27
ATOM     27  O   UNL     1      21.252  75.372  13.059  1.00  0.00    -0.507 OA
ATOM     28  H   UNL     1      20.245  75.390  13.001  1.00  0.00     0.293 HD
ENDBRANCH   7  27
TORSDOF 7
ENDMDL
MODEL 8
REMARK VINA RESULT:    -4.236      2.748      5.453
REMARK INTER + INTRA:          -5.593
REMARK INTER:                  -5.213
REMARK INTRA:                  -0.380
REMARK UNBOUND:                -0.366
REMARK SMILES Oc1cc(O)c2cc(O)c(-c3cc(O)c(O)c(O)c3)[o+]c2c1
REMARK SMILES IDX 10 1 20 2 21 3 22 4 2 5 3 6 4 7 6 8 7 9 8 10 11 11 12 12
REMARK SMILES IDX 13 13 19 14 15 15 17 16 14 17 16 19 18 21 9 23 1 25 5 27
REMARK H PARENT 14 18 16 20 18 22 9 24 1 26 5 28
REMARK Flexibility Score: inf
ROOT
ATOM      1  C   UNL     1      21.013  70.853  15.864  1.00  0.00     0.402 A 
ATOM      2  O   UNL     1      22.090  70.886  15.083  1.00  0.00    -0.202 OA
ATOM      3  C   UNL     1      22.382  71.907  14.283  1.00  0.00     0.368 A 
ATOM      4  C   UNL     1      23.535  71.847  13.497  1.00  0.00     0.162 A 
ATOM      5  C   UNL     1      23.864  72.906  12.645  1.00  0.00     0.128 A 
ATOM      6  C   UNL     1      23.034  74.028  12.578  1.00  0.00     0.093 A 
ATOM      7  C   UNL     1      21.872  74.111  13.356  1.00  0.00     0.136 A 
ATOM      8  C   UNL     1      21.536  73.040  14.224  1.00  0.00     0.125 A 
ATOM      9  C   UNL     1      20.399  73.043  15.049  1.00  0.00     0.078 A 
ATOM     10  C   UNL     1      20.135  71.953  15.882  1.00  0.00     0.223 A 
ENDROOT
BRANCH   1  11
ATOM     11  C   UNL     1      20.792  69.654  16.703  1.00  0.00     0.091 A 
ATOM     12  C   UNL     1      19.938  68.618  16.288  1.00  0.00     0.068 A 
ATOM     13  C   UNL     1      19.760  67.479  17.088  1.00  0.00     0.162 A 
ATOM     14  C   UNL     1      21.492  69.520  17.912  1.00  0.00     0.068 A 
ATOM     15  C   UNL     1      20.448  67.365  18.308  1.00  0.00     0.200 A 
ATOM     16  C   UNL     1      21.317  68.386  18.716  1.00  0.00     0.162 A 
BRANCH  13  17
ATOM     17  O   UNL     1      18.905  66.459  16.671  1.00  0.00    -0.504 OA
ATOM     18  H   UNL     1      17.913  66.479  16.878  1.00  0.00     0.293 HD
ENDBRANCH  13  17
BRANCH  15  19
ATOM     19  O   UNL     1      20.283  66.244  19.121  1.00  0.00    -0.502 OA
ATOM     20  H   UNL     1      21.048  65.616  19.337  1.00  0.00     0.293 HD
ENDBRANCH  15  19
BRANCH  16  21
ATOM     21  O   UNL     1      22.004  68.264  19.922  1.00  0.00    -0.504 OA
ATOM     22  H   UNL     1      22.459  69.059  20.356  1.00  0.00     0.293 HD
ENDBRANCH  16  21
ENDBRANCH   1  11
BRANCH  10  23
ATOM     23  O   UNL     1      19.033  71.976  16.739  1.00  0.00    -0.500 OA
ATOM     24  H   UNL     1      18.965  72.642  17.499  1.00  0.00     0.294 HD
ENDBRANCH  10  23
BRANCH   5  25
ATOM     25  O   UNL     1      25.013  72.853  11.859  1.00  0.00    -0.507 OA
ATOM     26  H   UNL     1      25.118  72.169  11.118  1.00  0.00     0.293 HD
ENDBRANCH   5  25
BRANCH   7  27
ATOM     27  O   UNL     1      21.095  75.266  13.227  1.00  0.00    -0.507 OA
ATOM     28  H   UNL     1      20.314  75.360  12.594  1.00  0.00     0.293 HD
ENDBRANCH   7  27
TORSDOF 7
ENDMDL
MODEL 9
REMARK VINA RESULT:    -4.179      8.799     11.725
REMARK INTER + INTRA:          -5.523
REMARK INTER:                  -5.138
REMARK INTRA:                  -0.385
REMARK UNBOUND:                -0.366
REMARK SMILES Oc1cc(O)c2cc(O)c(-c3cc(O)c(O)c(O)c3)[o+]c2c1
REMARK SMILES IDX 10 1 20 2 21 3 22 4 2 5 3 6 4 7 6 8 7 9 8 10 11 11 12 12
REMARK SMILES IDX 13 13 19 14 15 15 17 16 14 17 16 19 18 21 9 23 1 25 5 27
REMARK H PARENT 14 18 16 20 18 22 9 24 1 26 5 28
REMARK Flexibility Score: inf
ROOT
ATOM      1  C   UNL     1      23.918  81.035  12.556  1.00  0.00     0.402 A 
ATOM      2  O   UNL     1      23.218  81.929  13.248  1.00  0.00    -0.202 OA
ATOM      3  C   UNL     1      21.895  81.887  13.369  1.00  0.00     0.368 A 
ATOM      4  C   UNL     1      21.248  82.875  14.116  1.00  0.00     0.162 A 
ATOM      5  C   UNL     1      19.857  82.855  14.256  1.00  0.00     0.128 A 
ATOM      6  C   UNL     1      19.110  81.843  13.647  1.00  0.00     0.093 A 
ATOM      7  C   UNL     1      19.736  80.842  12.893  1.00  0.00     0.136 A 
ATOM      8  C   UNL     1      21.147  80.856  12.750  1.00  0.00     0.125 A 
ATOM      9  C   UNL     1      21.859  79.887  12.025  1.00  0.00     0.078 A 
ATOM     10  C   UNL     1      23.252  79.964  11.931  1.00  0.00     0.223 A 
ENDROOT
BRANCH   1  11
ATOM     11  C   UNL     1      25.388  81.196  12.486  1.00  0.00     0.091 A 
ATOM     12  C   UNL     1      25.995  81.934  11.456  1.00  0.00     0.068 A 
ATOM     13  C   UNL     1      27.389  82.094  11.421  1.00  0.00     0.162 A 
ATOM     14  C   UNL     1      26.189  80.650  13.500  1.00  0.00     0.068 A 
ATOM     15  C   UNL     1      28.184  81.524  12.429  1.00  0.00     0.200 A 
ATOM     16  C   UNL     1      27.582  80.806  13.470  1.00  0.00     0.162 A 
BRANCH  13  17
ATOM     17  O   UNL     1      27.982  82.823  10.391  1.00  0.00    -0.504 OA
ATOM     18  H   UNL     1      27.563  82.879   9.470  1.00  0.00     0.293 HD
ENDBRANCH  13  17
BRANCH  15  19
ATOM     19  O   UNL     1      29.572  81.667  12.412  1.00  0.00    -0.502 OA
ATOM     20  H   UNL     1      30.045  82.402  12.924  1.00  0.00     0.293 HD
ENDBRANCH  15  19
BRANCH  16  21
ATOM     21  O   UNL     1      28.375  80.250  14.472  1.00  0.00    -0.504 OA
ATOM     22  H   UNL     1      28.347  80.596  15.424  1.00  0.00     0.293 HD
ENDBRANCH  16  21
ENDBRANCH   1  11
BRANCH  10  23
ATOM     23  O   UNL     1      23.964  78.974  11.253  1.00  0.00    -0.500 OA
ATOM     24  H   UNL     1      23.731  78.707  10.304  1.00  0.00     0.294 HD
ENDBRANCH  10  23
BRANCH   5  25
ATOM     25  O   UNL     1      19.205  83.837  15.000  1.00  0.00    -0.507 OA
ATOM     26  H   UNL     1      18.479  84.415  14.593  1.00  0.00     0.293 HD
ENDBRANCH   5  25
BRANCH   7  27
ATOM     27  O   UNL     1      18.917  79.869  12.314  1.00  0.00    -0.507 OA
ATOM     28  H   UNL     1      18.092  79.484  12.751  1.00  0.00     0.293 HD
ENDBRANCH   7  27
TORSDOF 7
ENDMDL
