MODEL 1
REMARK VINA RESULT:    -4.508      0.000      0.000
REMARK INTER + INTRA:         -14.267
REMARK INTER:                 -10.307
REMARK INTRA:                  -3.961
REMARK UNBOUND:                -3.961
REMARK SMILES CCCCCCCCCCCCCCCCCCCCCCCC(=O)[O-]
REMARK SMILES IDX 13 1 14 2 15 3 16 4 17 5 18 6 19 7 20 8 21 9 22 10 23 11
REMARK SMILES IDX 24 12 25 13 26 14 12 15 11 16 10 17 9 18 8 19 7 20 6 21 5 22
REMARK SMILES IDX 4 23 3 24 2 25 1 26
REMARK H PARENT
REMARK Flexibility Score: inf
ROOT
ATOM      1  C   UNL     1      29.450  30.889  15.968  1.00  0.00     0.000 C 
ENDROOT
BRANCH   1   2
ATOM      2  C   UNL     1      28.749  31.088  14.614  1.00  0.00     0.000 C 
BRANCH   2   3
ATOM      3  C   UNL     1      28.856  29.851  13.707  1.00  0.00     0.000 C 
BRANCH   3   4
ATOM      4  C   UNL     1      28.902  28.535  14.503  1.00  0.00     0.000 C 
BRANCH   4   5
ATOM      5  C   UNL     1      29.519  27.382  13.694  1.00  0.00     0.000 C 
BRANCH   5   6
ATOM      6  C   UNL     1      29.539  26.056  14.474  1.00  0.00     0.000 C 
BRANCH   6   7
ATOM      7  C   UNL     1      28.536  26.032  15.641  1.00  0.00     0.000 C 
BRANCH   7   8
ATOM      8  C   UNL     1      27.202  25.324  15.339  1.00  0.00     0.000 C 
BRANCH   8   9
ATOM      9  C   UNL     1      26.100  26.290  14.872  1.00  0.00     0.000 C 
BRANCH   9  10
ATOM     10  C   UNL     1      25.937  26.299  13.343  1.00  0.00     0.006 C 
BRANCH  10  11
ATOM     11  C   UNL     1      25.698  27.708  12.784  1.00  0.00     0.053 C 
BRANCH  11  12
ATOM     12  C   UNL     1      26.480  27.910  11.525  1.00  0.00     0.041 C 
ATOM     13  O   UNL     1      27.049  26.934  10.969  1.00  0.00    -0.550 OA
ATOM     14  O   UNL     1      26.627  29.186  10.994  1.00  0.00    -0.550 OA
ENDBRANCH  11  12
ENDBRANCH  10  11
ENDBRANCH   9  10
ENDBRANCH   8   9
ENDBRANCH   7   8
ENDBRANCH   6   7
ENDBRANCH   5   6
ENDBRANCH   4   5
ENDBRANCH   3   4
ENDBRANCH   2   3
ENDBRANCH   1   2
BRANCH   1  15
ATOM     15  C   UNL     1      30.668  31.811  16.150  1.00  0.00     0.000 C 
BRANCH  15  16
ATOM     16  C   UNL     1      31.865  31.386  15.283  1.00  0.00     0.000 C 
BRANCH  16  17
ATOM     17  C   UNL     1      32.421  30.000  15.663  1.00  0.00     0.000 C 
BRANCH  17  18
ATOM     18  C   UNL     1      32.549  28.996  14.499  1.00  0.00    -0.000 C 
BRANCH  18  19
ATOM     19  C   UNL     1      33.104  27.614  14.886  1.00  0.00    -0.000 C 
BRANCH  19  20
ATOM     20  C   UNL     1      33.500  26.769  13.664  1.00  0.00    -0.000 C 
BRANCH  20  21
ATOM     21  C   UNL     1      33.058  27.405  12.336  1.00  0.00    -0.000 C 
BRANCH  21  22
ATOM     22  C   UNL     1      34.245  27.918  11.503  1.00  0.00    -0.000 C 
BRANCH  22  23
ATOM     23  C   UNL     1      33.790  28.746  10.282  1.00  0.00    -0.000 C 
BRANCH  23  24
ATOM     24  C   UNL     1      32.487  29.532  10.524  1.00  0.00    -0.000 C 
BRANCH  24  25
ATOM     25  C   UNL     1      31.341  29.182   9.559  1.00  0.00    -0.003 C 
ATOM     26  C   UNL     1      30.088  28.687  10.283  1.00  0.00     0.004 C 
ENDBRANCH  24  25
ENDBRANCH  23  24
ENDBRANCH  22  23
ENDBRANCH  21  22
ENDBRANCH  20  21
ENDBRANCH  19  20
ENDBRANCH  18  19
ENDBRANCH  17  18
ENDBRANCH  16  17
ENDBRANCH  15  16
ENDBRANCH   1  15
TORSDOF 22
ENDMDL
MODEL 2
REMARK VINA RESULT:    -4.503      2.497      6.108
REMARK INTER + INTRA:         -14.255
REMARK INTER:                 -10.555
REMARK INTRA:                  -3.700
REMARK UNBOUND:                -3.961
REMARK SMILES CCCCCCCCCCCCCCCCCCCCCCCC(=O)[O-]
REMARK SMILES IDX 13 1 14 2 15 3 16 4 17 5 18 6 19 7 20 8 21 9 22 10 23 11
REMARK SMILES IDX 24 12 25 13 26 14 12 15 11 16 10 17 9 18 8 19 7 20 6 21 5 22
REMARK SMILES IDX 4 23 3 24 2 25 1 26
REMARK H PARENT
REMARK Flexibility Score: inf
ROOT
ATOM      1  C   UNL     1      30.616  31.748  16.459  1.00  0.00     0.000 C 
ENDROOT
BRANCH   1   2
ATOM      2  C   UNL     1      31.542  32.020  15.261  1.00  0.00     0.000 C 
BRANCH   2   3
ATOM      3  C   UNL     1      31.977  30.729  14.549  1.00  0.00     0.000 C 
BRANCH   3   4
ATOM      4  C   UNL     1      32.794  29.795  15.460  1.00  0.00     0.000 C 
BRANCH   4   5
ATOM      5  C   UNL     1      32.740  28.329  14.998  1.00  0.00     0.000 C 
BRANCH   5   6
ATOM      6  C   UNL     1      31.365  27.937  14.431  1.00  0.00     0.000 C 
BRANCH   6   7
ATOM      7  C   UNL     1      31.432  26.728  13.480  1.00  0.00     0.000 C 
BRANCH   7   8
ATOM      8  C   UNL     1      31.354  27.074  11.981  1.00  0.00     0.000 C 
BRANCH   8   9
ATOM      9  C   UNL     1      31.231  28.585  11.718  1.00  0.00     0.000 C 
BRANCH   9  10
ATOM     10  C   UNL     1      32.426  29.141  10.924  1.00  0.00     0.006 C 
BRANCH  10  11
ATOM     11  C   UNL     1      33.761  28.523  11.361  1.00  0.00     0.053 C 
BRANCH  11  12
ATOM     12  C   UNL     1      34.363  27.734  10.241  1.00  0.00     0.041 C 
ATOM     13  O   UNL     1      35.168  26.799  10.487  1.00  0.00    -0.550 OA
ATOM     14  O   UNL     1      34.075  28.067   8.923  1.00  0.00    -0.550 OA
ENDBRANCH  11  12
ENDBRANCH  10  11
ENDBRANCH   9  10
ENDBRANCH   8   9
ENDBRANCH   7   8
ENDBRANCH   6   7
ENDBRANCH   5   6
ENDBRANCH   4   5
ENDBRANCH   3   4
ENDBRANCH   2   3
ENDBRANCH   1   2
BRANCH   1  15
ATOM     15  C   UNL     1      29.493  30.748  16.130  1.00  0.00     0.000 C 
BRANCH  15  16
ATOM     16  C   UNL     1      28.699  31.144  14.873  1.00  0.00     0.000 C 
BRANCH  16  17
ATOM     17  C   UNL     1      28.460  29.960  13.917  1.00  0.00     0.000 C 
BRANCH  17  18
ATOM     18  C   UNL     1      27.185  30.055  13.052  1.00  0.00    -0.000 C 
BRANCH  18  19
ATOM     19  C   UNL     1      26.593  28.706  12.609  1.00  0.00    -0.000 C 
BRANCH  19  20
ATOM     20  C   UNL     1      27.662  27.731  12.086  1.00  0.00    -0.000 C 
BRANCH  20  21
ATOM     21  C   UNL     1      27.703  26.417  12.882  1.00  0.00    -0.000 C 
BRANCH  21  22
ATOM     22  C   UNL     1      27.078  26.552  14.281  1.00  0.00    -0.000 C 
BRANCH  22  23
ATOM     23  C   UNL     1      28.131  26.458  15.405  1.00  0.00    -0.000 C 
BRANCH  23  24
ATOM     24  C   UNL     1      27.768  25.442  16.504  1.00  0.00    -0.000 C 
BRANCH  24  25
ATOM     25  C   UNL     1      28.524  24.105  16.414  1.00  0.00    -0.003 C 
ATOM     26  C   UNL     1      29.836  24.218  15.635  1.00  0.00     0.004 C 
ENDBRANCH  24  25
ENDBRANCH  23  24
ENDBRANCH  22  23
ENDBRANCH  21  22
ENDBRANCH  20  21
ENDBRANCH  19  20
ENDBRANCH  18  19
ENDBRANCH  17  18
ENDBRANCH  16  17
ENDBRANCH  15  16
ENDBRANCH   1  15
TORSDOF 22
ENDMDL
MODEL 3
REMARK VINA RESULT:    -4.503      2.425      6.008
REMARK INTER + INTRA:         -14.255
REMARK INTER:                 -10.529
REMARK INTRA:                  -3.725
REMARK UNBOUND:                -3.961
REMARK SMILES CCCCCCCCCCCCCCCCCCCCCCCC(=O)[O-]
REMARK SMILES IDX 13 1 14 2 15 3 16 4 17 5 18 6 19 7 20 8 21 9 22 10 23 11
REMARK SMILES IDX 24 12 25 13 26 14 12 15 11 16 10 17 9 18 8 19 7 20 6 21 5 22
REMARK SMILES IDX 4 23 3 24 2 25 1 26
REMARK H PARENT
REMARK Flexibility Score: inf
ROOT
ATOM      1  C   UNL     1      30.875  31.803  16.088  1.00  0.00     0.000 C 
ENDROOT
BRANCH   1   2
ATOM      2  C   UNL     1      31.854  31.305  15.011  1.00  0.00     0.000 C 
BRANCH   2   3
ATOM      3  C   UNL     1      32.499  29.959  15.379  1.00  0.00     0.000 C 
BRANCH   3   4
ATOM      4  C   UNL     1      32.611  29.006  14.175  1.00  0.00     0.000 C 
BRANCH   4   5
ATOM      5  C   UNL     1      33.410  27.735  14.506  1.00  0.00     0.000 C 
BRANCH   5   6
ATOM      6  C   UNL     1      34.210  27.208  13.302  1.00  0.00     0.000 C 
BRANCH   6   7
ATOM      7  C   UNL     1      33.510  27.474  11.956  1.00  0.00     0.000 C 
BRANCH   7   8
ATOM      8  C   UNL     1      34.360  28.232  10.919  1.00  0.00     0.000 C 
BRANCH   8   9
ATOM      9  C   UNL     1      33.556  28.655   9.677  1.00  0.00     0.000 C 
BRANCH   9  10
ATOM     10  C   UNL     1      32.746  29.941   9.912  1.00  0.00     0.006 C 
BRANCH  10  11
ATOM     11  C   UNL     1      32.100  30.473   8.626  1.00  0.00     0.053 C 
BRANCH  11  12
ATOM     12  C   UNL     1      32.680  31.804   8.263  1.00  0.00     0.041 C 
ATOM     13  O   UNL     1      33.926  31.982   8.300  1.00  0.00    -0.550 OA
ATOM     14  O   UNL     1      31.842  32.862   7.935  1.00  0.00    -0.550 OA
ENDBRANCH  11  12
ENDBRANCH  10  11
ENDBRANCH   9  10
ENDBRANCH   8   9
ENDBRANCH   7   8
ENDBRANCH   6   7
ENDBRANCH   5   6
ENDBRANCH   4   5
ENDBRANCH   3   4
ENDBRANCH   2   3
ENDBRANCH   1   2
BRANCH   1  15
ATOM     15  C   UNL     1      29.563  31.001  16.118  1.00  0.00     0.000 C 
BRANCH  15  16
ATOM     16  C   UNL     1      28.754  31.144  14.817  1.00  0.00     0.000 C 
BRANCH  16  17
ATOM     17  C   UNL     1      28.333  29.787  14.219  1.00  0.00     0.000 C 
BRANCH  17  18
ATOM     18  C   UNL     1      27.751  29.845  12.791  1.00  0.00    -0.000 C 
BRANCH  18  19
ATOM     19  C   UNL     1      28.570  29.104  11.721  1.00  0.00    -0.000 C 
BRANCH  19  20
ATOM     20  C   UNL     1      29.801  28.389  12.303  1.00  0.00    -0.000 C 
BRANCH  20  21
ATOM     21  C   UNL     1      29.781  26.874  12.047  1.00  0.00    -0.000 C 
BRANCH  21  22
ATOM     22  C   UNL     1      30.335  26.066  13.233  1.00  0.00    -0.000 C 
BRANCH  22  23
ATOM     23  C   UNL     1      29.733  26.514  14.581  1.00  0.00    -0.000 C 
BRANCH  23  24
ATOM     24  C   UNL     1      28.489  25.707  14.997  1.00  0.00    -0.000 C 
BRANCH  24  25
ATOM     25  C   UNL     1      27.173  26.502  14.974  1.00  0.00    -0.003 C 
ATOM     26  C   UNL     1      26.419  26.361  13.651  1.00  0.00     0.004 C 
ENDBRANCH  24  25
ENDBRANCH  23  24
ENDBRANCH  22  23
ENDBRANCH  21  22
ENDBRANCH  20  21
ENDBRANCH  19  20
ENDBRANCH  18  19
ENDBRANCH  17  18
ENDBRANCH  16  17
ENDBRANCH  15  16
ENDBRANCH   1  15
TORSDOF 22
ENDMDL
MODEL 4
REMARK VINA RESULT:    -4.501      1.556      3.611
REMARK INTER + INTRA:         -14.250
REMARK INTER:                 -10.096
REMARK INTRA:                  -4.154
REMARK UNBOUND:                -3.961
REMARK SMILES CCCCCCCCCCCCCCCCCCCCCCCC(=O)[O-]
REMARK SMILES IDX 13 1 14 2 15 3 16 4 17 5 18 6 19 7 20 8 21 9 22 10 23 11
REMARK SMILES IDX 24 12 25 13 26 14 12 15 11 16 10 17 9 18 8 19 7 20 6 21 5 22
REMARK SMILES IDX 4 23 3 24 2 25 1 26
REMARK H PARENT
REMARK Flexibility Score: inf
ROOT
ATOM      1  C   UNL     1      32.399  28.739  14.431  1.00  0.00     0.000 C 
ENDROOT
BRANCH   1   2
ATOM      2  C   UNL     1      32.576  30.091  15.143  1.00  0.00     0.000 C 
BRANCH   2   3
ATOM      3  C   UNL     1      31.480  30.355  16.188  1.00  0.00     0.000 C 
BRANCH   3   4
ATOM      4  C   UNL     1      30.960  31.803  16.151  1.00  0.00     0.000 C 
BRANCH   4   5
ATOM      5  C   UNL     1      29.892  32.015  15.065  1.00  0.00     0.000 C 
BRANCH   5   6
ATOM      6  C   UNL     1      28.768  30.966  15.126  1.00  0.00     0.000 C 
BRANCH   6   7
ATOM      7  C   UNL     1      28.419  30.382  13.745  1.00  0.00     0.000 C 
BRANCH   7   8
ATOM      8  C   UNL     1      29.015  28.992  13.456  1.00  0.00     0.000 C 
BRANCH   8   9
ATOM      9  C   UNL     1      28.832  28.004  14.622  1.00  0.00     0.000 C 
BRANCH   9  10
ATOM     10  C   UNL     1      28.197  26.678  14.171  1.00  0.00     0.006 C 
BRANCH  10  11
ATOM     11  C   UNL     1      26.784  26.480  14.735  1.00  0.00     0.053 C 
BRANCH  11  12
ATOM     12  C   UNL     1      25.767  26.582  13.643  1.00  0.00     0.041 C 
ATOM     13  O   UNL     1      24.925  25.661  13.473  1.00  0.00    -0.550 OA
ATOM     14  O   UNL     1      25.782  27.670  12.778  1.00  0.00    -0.550 OA
ENDBRANCH  11  12
ENDBRANCH  10  11
ENDBRANCH   9  10
ENDBRANCH   8   9
ENDBRANCH   7   8
ENDBRANCH   6   7
ENDBRANCH   5   6
ENDBRANCH   4   5
ENDBRANCH   3   4
ENDBRANCH   2   3
ENDBRANCH   1   2
BRANCH   1  15
ATOM     15  C   UNL     1      33.594  27.794  14.642  1.00  0.00     0.000 C 
BRANCH  15  16
ATOM     16  C   UNL     1      33.193  26.480  15.334  1.00  0.00     0.000 C 
BRANCH  16  17
ATOM     17  C   UNL     1      31.808  25.969  14.896  1.00  0.00     0.000 C 
BRANCH  17  18
ATOM     18  C   UNL     1      31.801  25.061  13.648  1.00  0.00    -0.000 C 
BRANCH  18  19
ATOM     19  C   UNL     1      31.506  25.779  12.319  1.00  0.00    -0.000 C 
BRANCH  19  20
ATOM     20  C   UNL     1      32.520  25.431  11.217  1.00  0.00    -0.000 C 
BRANCH  20  21
ATOM     21  C   UNL     1      33.871  24.966  11.782  1.00  0.00    -0.000 C 
BRANCH  21  22
ATOM     22  C   UNL     1      34.910  26.098  11.842  1.00  0.00    -0.000 C 
BRANCH  22  23
ATOM     23  C   UNL     1      34.807  27.053  10.634  1.00  0.00    -0.000 C 
BRANCH  23  24
ATOM     24  C   UNL     1      34.480  28.507  11.026  1.00  0.00    -0.000 C 
BRANCH  24  25
ATOM     25  C   UNL     1      33.359  29.156  10.197  1.00  0.00    -0.003 C 
ATOM     26  C   UNL     1      32.004  29.125  10.906  1.00  0.00     0.004 C 
ENDBRANCH  24  25
ENDBRANCH  23  24
ENDBRANCH  22  23
ENDBRANCH  21  22
ENDBRANCH  20  21
ENDBRANCH  19  20
ENDBRANCH  18  19
ENDBRANCH  17  18
ENDBRANCH  16  17
ENDBRANCH  15  16
ENDBRANCH   1  15
TORSDOF 22
ENDMDL
MODEL 5
REMARK VINA RESULT:    -4.460      1.860      5.586
REMARK INTER + INTRA:         -14.156
REMARK INTER:                  -9.789
REMARK INTRA:                  -4.367
REMARK UNBOUND:                -3.961
REMARK SMILES CCCCCCCCCCCCCCCCCCCCCCCC(=O)[O-]
REMARK SMILES IDX 13 1 14 2 15 3 16 4 17 5 18 6 19 7 20 8 21 9 22 10 23 11
REMARK SMILES IDX 24 12 25 13 26 14 12 15 11 16 10 17 9 18 8 19 7 20 6 21 5 22
REMARK SMILES IDX 4 23 3 24 2 25 1 26
REMARK H PARENT
REMARK Flexibility Score: inf
ROOT
ATOM      1  C   UNL     1      29.551  31.059  15.930  1.00  0.00     0.000 C 
ENDROOT
BRANCH   1   2
ATOM      2  C   UNL     1      30.943  31.712  15.973  1.00  0.00     0.000 C 
BRANCH   2   3
ATOM      3  C   UNL     1      31.975  30.956  15.120  1.00  0.00     0.000 C 
BRANCH   3   4
ATOM      4  C   UNL     1      32.461  29.658  15.790  1.00  0.00     0.000 C 
BRANCH   4   5
ATOM      5  C   UNL     1      33.221  28.744  14.815  1.00  0.00     0.000 C 
BRANCH   5   6
ATOM      6  C   UNL     1      32.909  27.254  15.035  1.00  0.00     0.000 C 
BRANCH   6   7
ATOM      7  C   UNL     1      33.196  26.392  13.791  1.00  0.00     0.000 C 
BRANCH   7   8
ATOM      8  C   UNL     1      34.368  26.880  12.918  1.00  0.00     0.000 C 
BRANCH   8   9
ATOM      9  C   UNL     1      33.951  27.186  11.469  1.00  0.00     0.000 C 
BRANCH   9  10
ATOM     10  C   UNL     1      33.767  28.692  11.218  1.00  0.00     0.006 C 
BRANCH  10  11
ATOM     11  C   UNL     1      32.307  29.066  10.927  1.00  0.00     0.053 C 
BRANCH  11  12
ATOM     12  C   UNL     1      32.137  29.420   9.483  1.00  0.00     0.041 C 
ATOM     13  O   UNL     1      31.312  28.790   8.770  1.00  0.00    -0.550 OA
ATOM     14  O   UNL     1      32.928  30.410   8.911  1.00  0.00    -0.550 OA
ENDBRANCH  11  12
ENDBRANCH  10  11
ENDBRANCH   9  10
ENDBRANCH   8   9
ENDBRANCH   7   8
ENDBRANCH   6   7
ENDBRANCH   5   6
ENDBRANCH   4   5
ENDBRANCH   3   4
ENDBRANCH   2   3
ENDBRANCH   1   2
BRANCH   1  15
ATOM     15  C   UNL     1      28.785  31.372  14.633  1.00  0.00     0.000 C 
BRANCH  15  16
ATOM     16  C   UNL     1      28.238  30.106  13.950  1.00  0.00     0.000 C 
BRANCH  16  17
ATOM     17  C   UNL     1      29.272  29.424  13.034  1.00  0.00     0.000 C 
BRANCH  17  18
ATOM     18  C   UNL     1      29.780  28.049  13.517  1.00  0.00    -0.000 C 
BRANCH  18  19
ATOM     19  C   UNL     1      29.165  27.552  14.837  1.00  0.00    -0.000 C 
BRANCH  19  20
ATOM     20  C   UNL     1      28.317  26.282  14.657  1.00  0.00    -0.000 C 
BRANCH  20  21
ATOM     21  C   UNL     1      26.812  26.547  14.823  1.00  0.00    -0.000 C 
BRANCH  21  22
ATOM     22  C   UNL     1      26.035  26.383  13.506  1.00  0.00    -0.000 C 
BRANCH  22  23
ATOM     23  C   UNL     1      25.757  27.735  12.816  1.00  0.00    -0.000 C 
BRANCH  23  24
ATOM     24  C   UNL     1      26.380  27.847  11.411  1.00  0.00    -0.000 C 
BRANCH  24  25
ATOM     25  C   UNL     1      27.262  26.654  11.006  1.00  0.00    -0.003 C 
ATOM     26  C   UNL     1      28.486  27.072  10.191  1.00  0.00     0.004 C 
ENDBRANCH  24  25
ENDBRANCH  23  24
ENDBRANCH  22  23
ENDBRANCH  21  22
ENDBRANCH  20  21
ENDBRANCH  19  20
ENDBRANCH  18  19
ENDBRANCH  17  18
ENDBRANCH  16  17
ENDBRANCH  15  16
ENDBRANCH   1  15
TORSDOF 22
ENDMDL
MODEL 6
REMARK VINA RESULT:    -4.439      1.740      3.045
REMARK INTER + INTRA:         -14.109
REMARK INTER:                 -10.247
REMARK INTRA:                  -3.862
REMARK UNBOUND:                -3.961
REMARK SMILES CCCCCCCCCCCCCCCCCCCCCCCC(=O)[O-]
REMARK SMILES IDX 13 1 14 2 15 3 16 4 17 5 18 6 19 7 20 8 21 9 22 10 23 11
REMARK SMILES IDX 24 12 25 13 26 14 12 15 11 16 10 17 9 18 8 19 7 20 6 21 5 22
REMARK SMILES IDX 4 23 3 24 2 25 1 26
REMARK H PARENT
REMARK Flexibility Score: inf
ROOT
ATOM      1  C   UNL     1      30.628  31.750  16.288  1.00  0.00     0.000 C 
ENDROOT
BRANCH   1   2
ATOM      2  C   UNL     1      29.976  31.782  14.896  1.00  0.00     0.000 C 
BRANCH   2   3
ATOM      3  C   UNL     1      28.645  31.014  14.851  1.00  0.00     0.000 C 
BRANCH   3   4
ATOM      4  C   UNL     1      28.738  29.710  14.039  1.00  0.00     0.000 C 
BRANCH   4   5
ATOM      5  C   UNL     1      28.747  28.460  14.935  1.00  0.00     0.000 C 
BRANCH   5   6
ATOM      6  C   UNL     1      29.100  27.179  14.162  1.00  0.00     0.000 C 
BRANCH   6   7
ATOM      7  C   UNL     1      28.780  27.279  12.659  1.00  0.00     0.000 C 
BRANCH   7   8
ATOM      8  C   UNL     1      29.736  26.500  11.736  1.00  0.00     0.000 C 
BRANCH   8   9
ATOM      9  C   UNL     1      30.446  27.399  10.709  1.00  0.00     0.000 C 
BRANCH   9  10
ATOM     10  C   UNL     1      29.881  28.829  10.692  1.00  0.00     0.006 C 
BRANCH  10  11
ATOM     11  C   UNL     1      29.057  29.122   9.431  1.00  0.00     0.053 C 
BRANCH  11  12
ATOM     12  C   UNL     1      27.963  30.097   9.736  1.00  0.00     0.041 C 
ATOM     13  O   UNL     1      27.470  30.152  10.893  1.00  0.00    -0.550 OA
ATOM     14  O   UNL     1      27.452  30.906   8.729  1.00  0.00    -0.550 OA
ENDBRANCH  11  12
ENDBRANCH  10  11
ENDBRANCH   9  10
ENDBRANCH   8   9
ENDBRANCH   7   8
ENDBRANCH   6   7
ENDBRANCH   5   6
ENDBRANCH   4   5
ENDBRANCH   3   4
ENDBRANCH   2   3
ENDBRANCH   1   2
BRANCH   1  15
ATOM     15  C   UNL     1      31.495  30.499  16.512  1.00  0.00     0.000 C 
BRANCH  15  16
ATOM     16  C   UNL     1      32.444  30.220  15.333  1.00  0.00     0.000 C 
BRANCH  16  17
ATOM     17  C   UNL     1      32.278  28.803  14.751  1.00  0.00     0.000 C 
BRANCH  17  18
ATOM     18  C   UNL     1      32.790  28.616  13.307  1.00  0.00    -0.000 C 
BRANCH  18  19
ATOM     19  C   UNL     1      33.857  27.522  13.128  1.00  0.00    -0.000 C 
BRANCH  19  20
ATOM     20  C   UNL     1      34.395  27.445  11.690  1.00  0.00    -0.000 C 
BRANCH  20  21
ATOM     21  C   UNL     1      33.963  28.645  10.832  1.00  0.00    -0.000 C 
BRANCH  21  22
ATOM     22  C   UNL     1      33.744  28.270   9.357  1.00  0.00    -0.000 C 
BRANCH  22  23
ATOM     23  C   UNL     1      32.990  29.369   8.578  1.00  0.00    -0.000 C 
BRANCH  23  24
ATOM     24  C   UNL     1      32.781  30.662   9.387  1.00  0.00    -0.000 C 
BRANCH  24  25
ATOM     25  C   UNL     1      33.663  31.842   8.947  1.00  0.00    -0.003 C 
ATOM     26  C   UNL     1      32.849  33.042   8.461  1.00  0.00     0.004 C 
ENDBRANCH  24  25
ENDBRANCH  23  24
ENDBRANCH  22  23
ENDBRANCH  21  22
ENDBRANCH  20  21
ENDBRANCH  19  20
ENDBRANCH  18  19
ENDBRANCH  17  18
ENDBRANCH  16  17
ENDBRANCH  15  16
ENDBRANCH   1  15
TORSDOF 22
ENDMDL
MODEL 7
REMARK VINA RESULT:    -4.418      2.007      6.043
REMARK INTER + INTRA:         -14.061
REMARK INTER:                  -9.797
REMARK INTRA:                  -4.264
REMARK UNBOUND:                -3.961
REMARK SMILES CCCCCCCCCCCCCCCCCCCCCCCC(=O)[O-]
REMARK SMILES IDX 13 1 14 2 15 3 16 4 17 5 18 6 19 7 20 8 21 9 22 10 23 11
REMARK SMILES IDX 24 12 25 13 26 14 12 15 11 16 10 17 9 18 8 19 7 20 6 21 5 22
REMARK SMILES IDX 4 23 3 24 2 25 1 26
REMARK H PARENT
REMARK Flexibility Score: inf
ROOT
ATOM      1  C   UNL     1      28.610  31.128  14.800  1.00  0.00     0.000 C 
ENDROOT
BRANCH   1   2
ATOM      2  C   UNL     1      29.343  30.506  16.000  1.00  0.00     0.000 C 
BRANCH   2   3
ATOM      3  C   UNL     1      30.459  31.413  16.545  1.00  0.00     0.000 C 
BRANCH   3   4
ATOM      4  C   UNL     1      31.347  31.994  15.431  1.00  0.00     0.000 C 
BRANCH   4   5
ATOM      5  C   UNL     1      32.041  30.900  14.602  1.00  0.00     0.000 C 
BRANCH   5   6
ATOM      6  C   UNL     1      32.779  29.873  15.477  1.00  0.00     0.000 C 
BRANCH   6   7
ATOM      7  C   UNL     1      32.439  28.417  15.108  1.00  0.00     0.000 C 
BRANCH   7   8
ATOM      8  C   UNL     1      33.527  27.677  14.307  1.00  0.00     0.000 C 
BRANCH   8   9
ATOM      9  C   UNL     1      32.951  26.778  13.199  1.00  0.00     0.000 C 
BRANCH   9  10
ATOM     10  C   UNL     1      33.543  27.101  11.816  1.00  0.00     0.006 C 
BRANCH  10  11
ATOM     11  C   UNL     1      33.549  28.606  11.515  1.00  0.00     0.053 C 
BRANCH  11  12
ATOM     12  C   UNL     1      33.033  28.864  10.135  1.00  0.00     0.041 C 
ATOM     13  O   UNL     1      32.546  29.988   9.842  1.00  0.00    -0.550 OA
ATOM     14  O   UNL     1      33.040  27.848   9.188  1.00  0.00    -0.550 OA
ENDBRANCH  11  12
ENDBRANCH  10  11
ENDBRANCH   9  10
ENDBRANCH   8   9
ENDBRANCH   7   8
ENDBRANCH   6   7
ENDBRANCH   5   6
ENDBRANCH   4   5
ENDBRANCH   3   4
ENDBRANCH   2   3
ENDBRANCH   1   2
BRANCH   1  15
ATOM     15  C   UNL     1      28.135  30.078  13.781  1.00  0.00     0.000 C 
BRANCH  15  16
ATOM     16  C   UNL     1      29.096  28.881  13.675  1.00  0.00     0.000 C 
BRANCH  16  17
ATOM     17  C   UNL     1      29.927  28.891  12.378  1.00  0.00     0.000 C 
BRANCH  17  18
ATOM     18  C   UNL     1      29.739  27.663  11.462  1.00  0.00    -0.000 C 
BRANCH  18  19
ATOM     19  C   UNL     1      29.279  26.379  12.176  1.00  0.00    -0.000 C 
BRANCH  19  20
ATOM     20  C   UNL     1      27.944  25.842  11.634  1.00  0.00    -0.000 C 
BRANCH  20  21
ATOM     21  C   UNL     1      26.765  26.782  11.931  1.00  0.00    -0.000 C 
BRANCH  21  22
ATOM     22  C   UNL     1      25.805  26.212  12.989  1.00  0.00    -0.000 C 
BRANCH  22  23
ATOM     23  C   UNL     1      26.215  26.605  14.424  1.00  0.00    -0.000 C 
BRANCH  23  24
ATOM     24  C   UNL     1      27.000  25.504  15.162  1.00  0.00    -0.000 C 
BRANCH  24  25
ATOM     25  C   UNL     1      28.318  25.976  15.798  1.00  0.00    -0.003 C 
ATOM     26  C   UNL     1      29.470  24.996  15.571  1.00  0.00     0.004 C 
ENDBRANCH  24  25
ENDBRANCH  23  24
ENDBRANCH  22  23
ENDBRANCH  21  22
ENDBRANCH  20  21
ENDBRANCH  19  20
ENDBRANCH  18  19
ENDBRANCH  17  18
ENDBRANCH  16  17
ENDBRANCH  15  16
ENDBRANCH   1  15
TORSDOF 22
ENDMDL
MODEL 8
REMARK VINA RESULT:    -4.416      1.998      3.987
REMARK INTER + INTRA:         -14.055
REMARK INTER:                  -9.599
REMARK INTRA:                  -4.456
REMARK UNBOUND:                -3.961
REMARK SMILES CCCCCCCCCCCCCCCCCCCCCCCC(=O)[O-]
REMARK SMILES IDX 13 1 14 2 15 3 16 4 17 5 18 6 19 7 20 8 21 9 22 10 23 11
REMARK SMILES IDX 24 12 25 13 26 14 12 15 11 16 10 17 9 18 8 19 7 20 6 21 5 22
REMARK SMILES IDX 4 23 3 24 2 25 1 26
REMARK H PARENT
REMARK Flexibility Score: inf
ROOT
ATOM      1  C   UNL     1      30.955  31.759  16.126  1.00  0.00     0.000 C 
ENDROOT
BRANCH   1   2
ATOM      2  C   UNL     1      29.617  31.000  16.107  1.00  0.00     0.000 C 
BRANCH   2   3
ATOM      3  C   UNL     1      28.807  31.265  14.828  1.00  0.00     0.000 C 
BRANCH   3   4
ATOM      4  C   UNL     1      28.330  29.970  14.147  1.00  0.00     0.000 C 
BRANCH   4   5
ATOM      5  C   UNL     1      27.612  30.237  12.814  1.00  0.00     0.000 C 
BRANCH   5   6
ATOM      6  C   UNL     1      28.118  29.334  11.677  1.00  0.00     0.000 C 
BRANCH   6   7
ATOM      7  C   UNL     1      27.157  28.173  11.362  1.00  0.00     0.000 C 
BRANCH   7   8
ATOM      8  C   UNL     1      27.568  26.809  11.949  1.00  0.00     0.000 C 
BRANCH   8   9
ATOM      9  C   UNL     1      29.055  26.747  12.342  1.00  0.00     0.000 C 
BRANCH   9  10
ATOM     10  C   UNL     1      29.292  25.898  13.603  1.00  0.00     0.006 C 
BRANCH  10  11
ATOM     11  C   UNL     1      28.908  26.637  14.891  1.00  0.00     0.053 C 
BRANCH  11  12
ATOM     12  C   UNL     1      27.835  25.892  15.621  1.00  0.00     0.041 C 
ATOM     13  O   UNL     1      26.624  26.174  15.423  1.00  0.00    -0.550 OA
ATOM     14  O   UNL     1      28.174  24.924  16.558  1.00  0.00    -0.550 OA
ENDBRANCH  11  12
ENDBRANCH  10  11
ENDBRANCH   9  10
ENDBRANCH   8   9
ENDBRANCH   7   8
ENDBRANCH   6   7
ENDBRANCH   5   6
ENDBRANCH   4   5
ENDBRANCH   3   4
ENDBRANCH   2   3
ENDBRANCH   1   2
BRANCH   1  15
ATOM     15  C   UNL     1      31.926  31.282  15.032  1.00  0.00     0.000 C 
BRANCH  15  16
ATOM     16  C   UNL     1      32.454  29.860  15.291  1.00  0.00     0.000 C 
BRANCH  16  17
ATOM     17  C   UNL     1      31.919  28.828  14.280  1.00  0.00     0.000 C 
BRANCH  17  18
ATOM     18  C   UNL     1      31.633  29.374  12.865  1.00  0.00    -0.000 C 
BRANCH  18  19
ATOM     19  C   UNL     1      32.212  28.536  11.711  1.00  0.00    -0.000 C 
BRANCH  19  20
ATOM     20  C   UNL     1      33.728  28.311  11.843  1.00  0.00    -0.000 C 
BRANCH  20  21
ATOM     21  C   UNL     1      34.110  26.823  11.798  1.00  0.00    -0.000 C 
BRANCH  21  22
ATOM     22  C   UNL     1      32.883  25.897  11.765  1.00  0.00    -0.000 C 
BRANCH  22  23
ATOM     23  C   UNL     1      32.794  24.996  13.014  1.00  0.00    -0.000 C 
BRANCH  23  24
ATOM     24  C   UNL     1      33.814  25.360  14.109  1.00  0.00    -0.000 C 
BRANCH  24  25
ATOM     25  C   UNL     1      33.190  25.731  15.466  1.00  0.00    -0.003 C 
ATOM     26  C   UNL     1      32.002  24.841  15.834  1.00  0.00     0.004 C 
ENDBRANCH  24  25
ENDBRANCH  23  24
ENDBRANCH  22  23
ENDBRANCH  21  22
ENDBRANCH  20  21
ENDBRANCH  19  20
ENDBRANCH  18  19
ENDBRANCH  17  18
ENDBRANCH  16  17
ENDBRANCH  15  16
ENDBRANCH   1  15
TORSDOF 22
ENDMDL
MODEL 9
REMARK VINA RESULT:    -4.403      2.422      5.484
REMARK INTER + INTRA:         -14.027
REMARK INTER:                  -9.996
REMARK INTRA:                  -4.032
REMARK UNBOUND:                -3.961
REMARK SMILES CCCCCCCCCCCCCCCCCCCCCCCC(=O)[O-]
REMARK SMILES IDX 13 1 14 2 15 3 16 4 17 5 18 6 19 7 20 8 21 9 22 10 23 11
REMARK SMILES IDX 24 12 25 13 26 14 12 15 11 16 10 17 9 18 8 19 7 20 6 21 5 22
REMARK SMILES IDX 4 23 3 24 2 25 1 26
REMARK H PARENT
REMARK Flexibility Score: inf
ROOT
ATOM      1  C   UNL     1      31.541  31.920  15.161  1.00  0.00     0.000 C 
ENDROOT
BRANCH   1   2
ATOM      2  C   UNL     1      30.620  31.582  16.345  1.00  0.00     0.000 C 
BRANCH   2   3
ATOM      3  C   UNL     1      29.351  30.830  15.908  1.00  0.00     0.000 C 
BRANCH   3   4
ATOM      4  C   UNL     1      28.734  31.406  14.621  1.00  0.00     0.000 C 
BRANCH   4   5
ATOM      5  C   UNL     1      28.092  30.320  13.742  1.00  0.00     0.000 C 
BRANCH   5   6
ATOM      6  C   UNL     1      28.513  28.899  14.153  1.00  0.00     0.000 C 
BRANCH   6   7
ATOM      7  C   UNL     1      29.088  28.081  12.982  1.00  0.00     0.000 C 
BRANCH   7   8
ATOM      8  C   UNL     1      30.104  28.832  12.101  1.00  0.00     0.000 C 
BRANCH   8   9
ATOM      9  C   UNL     1      31.332  27.979  11.739  1.00  0.00     0.000 C 
BRANCH   9  10
ATOM     10  C   UNL     1      32.490  28.826  11.184  1.00  0.00     0.006 C 
BRANCH  10  11
ATOM     11  C   UNL     1      33.861  28.346  11.679  1.00  0.00     0.053 C 
BRANCH  11  12
ATOM     12  C   UNL     1      34.288  27.124  10.928  1.00  0.00     0.041 C 
ATOM     13  O   UNL     1      33.856  25.991  11.265  1.00  0.00    -0.550 OA
ATOM     14  O   UNL     1      35.206  27.232   9.890  1.00  0.00    -0.550 OA
ENDBRANCH  11  12
ENDBRANCH  10  11
ENDBRANCH   9  10
ENDBRANCH   8   9
ENDBRANCH   7   8
ENDBRANCH   6   7
ENDBRANCH   5   6
ENDBRANCH   4   5
ENDBRANCH   3   4
ENDBRANCH   2   3
ENDBRANCH   1   2
BRANCH   1  15
ATOM     15  C   UNL     1      32.096  30.668  14.460  1.00  0.00     0.000 C 
BRANCH  15  16
ATOM     16  C   UNL     1      32.701  29.657  15.449  1.00  0.00     0.000 C 
BRANCH  16  17
ATOM     17  C   UNL     1      32.062  28.259  15.344  1.00  0.00     0.000 C 
BRANCH  17  18
ATOM     18  C   UNL     1      33.031  27.114  14.981  1.00  0.00    -0.000 C 
BRANCH  18  19
ATOM     19  C   UNL     1      32.359  25.778  14.618  1.00  0.00    -0.000 C 
BRANCH  19  20
ATOM     20  C   UNL     1      32.039  24.918  15.852  1.00  0.00    -0.000 C 
BRANCH  20  21
ATOM     21  C   UNL     1      30.604  24.369  15.834  1.00  0.00    -0.000 C 
BRANCH  21  22
ATOM     22  C   UNL     1      29.597  25.364  15.233  1.00  0.00    -0.000 C 
BRANCH  22  23
ATOM     23  C   UNL     1      28.401  25.630  16.172  1.00  0.00    -0.000 C 
BRANCH  23  24
ATOM     24  C   UNL     1      27.062  25.101  15.626  1.00  0.00    -0.000 C 
BRANCH  24  25
ATOM     25  C   UNL     1      26.873  25.283  14.110  1.00  0.00    -0.003 C 
ATOM     26  C   UNL     1      25.783  26.300  13.767  1.00  0.00     0.004 C 
ENDBRANCH  24  25
ENDBRANCH  23  24
ENDBRANCH  22  23
ENDBRANCH  21  22
ENDBRANCH  20  21
ENDBRANCH  19  20
ENDBRANCH  18  19
ENDBRANCH  17  18
ENDBRANCH  16  17
ENDBRANCH  15  16
ENDBRANCH   1  15
TORSDOF 22
ENDMDL
