MODEL 1
REMARK VINA RESULT:    -3.922      0.000      0.000
REMARK INTER + INTRA:          -4.340
REMARK INTER:                  -4.151
REMARK INTRA:                  -0.189
REMARK UNBOUND:                -0.189
REMARK SMILES CC1=CC[C@H](C(C)C)C=C1
REMARK SMILES IDX 1 1 2 2 3 3 4 4 5 5 9 6 10 7 6 8 7 9 8 10
REMARK H PARENT
REMARK Flexibility Score: inf
ROOT
ATOM      1  C   UNL     1      15.939   2.410  18.499  1.00  0.00     0.044 C 
ATOM      2  C   UNL     1      14.735   3.285  18.309  1.00  0.00    -0.055 C 
ATOM      3  C   UNL     1      14.438   3.777  17.096  1.00  0.00    -0.023 C 
ATOM      4  C   UNL     1      13.316   4.766  16.920  1.00  0.00     0.035 C 
ATOM      5  C   UNL     1      12.160   4.492  17.918  1.00  0.00     0.018 C 
ATOM      6  C   UNL     1      12.742   4.294  19.308  1.00  0.00    -0.023 C 
ATOM      7  C   UNL     1      13.916   3.677  19.476  1.00  0.00    -0.001 C 
ENDROOT
BRANCH   5   8
ATOM      8  C   UNL     1      11.068   5.609  17.910  1.00  0.00    -0.010 C 
ATOM      9  C   UNL     1      10.875   6.188  16.496  1.00  0.00     0.008 C 
ATOM     10  C   UNL     1      11.398   6.764  18.872  1.00  0.00     0.008 C 
ENDBRANCH   5   8
TORSDOF 1
ENDMDL
MODEL 2
REMARK VINA RESULT:    -3.880      1.115      4.351
REMARK INTER + INTRA:          -4.295
REMARK INTER:                  -4.175
REMARK INTRA:                  -0.120
REMARK UNBOUND:                -0.189
REMARK SMILES CC1=CC[C@H](C(C)C)C=C1
REMARK SMILES IDX 1 1 2 2 3 3 4 4 5 5 9 6 10 7 6 8 7 9 8 10
REMARK H PARENT
REMARK Flexibility Score: inf
ROOT
ATOM      1  C   UNL     1      10.983   7.919  15.875  1.00  0.00     0.044 C 
ATOM      2  C   UNL     1      11.739   6.756  16.445  1.00  0.00    -0.055 C 
ATOM      3  C   UNL     1      13.017   6.541  16.097  1.00  0.00    -0.023 C 
ATOM      4  C   UNL     1      13.741   5.300  16.552  1.00  0.00     0.035 C 
ATOM      5  C   UNL     1      13.265   4.854  17.960  1.00  0.00     0.018 C 
ATOM      6  C   UNL     1      11.746   4.862  17.995  1.00  0.00    -0.023 C 
ATOM      7  C   UNL     1      11.052   5.792  17.330  1.00  0.00    -0.001 C 
ENDROOT
BRANCH   5   8
ATOM      8  C   UNL     1      13.838   3.466  18.387  1.00  0.00    -0.010 C 
ATOM      9  C   UNL     1      13.911   3.341  19.921  1.00  0.00     0.008 C 
ATOM     10  C   UNL     1      15.240   3.203  17.808  1.00  0.00     0.008 C 
ENDBRANCH   5   8
TORSDOF 1
ENDMDL
MODEL 3
REMARK VINA RESULT:    -3.851      1.059      4.459
REMARK INTER + INTRA:          -4.265
REMARK INTER:                  -4.067
REMARK INTRA:                  -0.199
REMARK UNBOUND:                -0.189
REMARK SMILES CC1=CC[C@H](C(C)C)C=C1
REMARK SMILES IDX 1 1 2 2 3 3 4 4 5 5 9 6 10 7 6 8 7 9 8 10
REMARK H PARENT
REMARK Flexibility Score: inf
ROOT
ATOM      1  C   UNL     1      10.952   7.012  15.876  1.00  0.00     0.044 C 
ATOM      2  C   UNL     1      11.899   6.053  16.535  1.00  0.00    -0.055 C 
ATOM      3  C   UNL     1      11.487   5.288  17.557  1.00  0.00    -0.023 C 
ATOM      4  C   UNL     1      12.463   4.426  18.316  1.00  0.00     0.035 C 
ATOM      5  C   UNL     1      13.585   3.892  17.386  1.00  0.00     0.018 C 
ATOM      6  C   UNL     1      14.126   5.041  16.553  1.00  0.00    -0.023 C 
ATOM      7  C   UNL     1      13.315   6.010  16.114  1.00  0.00    -0.001 C 
ENDROOT
BRANCH   5   8
ATOM      8  C   UNL     1      14.727   3.163  18.164  1.00  0.00    -0.010 C 
ATOM      9  C   UNL     1      14.429   3.115  19.675  1.00  0.00     0.008 C 
ATOM     10  C   UNL     1      16.100   3.827  17.956  1.00  0.00     0.008 C 
ENDBRANCH   5   8
TORSDOF 1
ENDMDL
MODEL 4
REMARK VINA RESULT:    -3.761      1.610      2.210
REMARK INTER + INTRA:          -4.170
REMARK INTER:                  -3.980
REMARK INTRA:                  -0.190
REMARK UNBOUND:                -0.189
REMARK SMILES CC1=CC[C@H](C(C)C)C=C1
REMARK SMILES IDX 1 1 2 2 3 3 4 4 5 5 9 6 10 7 6 8 7 9 8 10
REMARK H PARENT
REMARK Flexibility Score: inf
ROOT
ATOM      1  C   UNL     1      16.857   4.765  16.629  1.00  0.00     0.044 C 
ATOM      2  C   UNL     1      15.417   5.186  16.655  1.00  0.00    -0.055 C 
ATOM      3  C   UNL     1      15.041   6.354  16.112  1.00  0.00    -0.023 C 
ATOM      4  C   UNL     1      13.626   6.849  16.255  1.00  0.00     0.035 C 
ATOM      5  C   UNL     1      12.615   5.673  16.269  1.00  0.00     0.018 C 
ATOM      6  C   UNL     1      13.110   4.606  17.230  1.00  0.00    -0.023 C 
ATOM      7  C   UNL     1      14.417   4.351  17.354  1.00  0.00    -0.001 C 
ENDROOT
BRANCH   5   8
ATOM      8  C   UNL     1      11.160   6.122  16.616  1.00  0.00    -0.010 C 
ATOM      9  C   UNL     1      10.878   7.546  16.099  1.00  0.00     0.008 C 
ATOM     10  C   UNL     1      10.875   6.085  18.128  1.00  0.00     0.008 C 
ENDBRANCH   5   8
TORSDOF 1
ENDMDL
MODEL 5
REMARK VINA RESULT:    -3.752     11.536     14.885
REMARK INTER + INTRA:          -4.161
REMARK INTER:                  -3.968
REMARK INTRA:                  -0.193
REMARK UNBOUND:                -0.189
REMARK SMILES CC1=CC[C@H](C(C)C)C=C1
REMARK SMILES IDX 1 1 2 2 3 3 4 4 5 5 9 6 10 7 6 8 7 9 8 10
REMARK H PARENT
REMARK Flexibility Score: inf
ROOT
ATOM      1  C   UNL     1      23.797   1.038  17.837  1.00  0.00     0.044 C 
ATOM      2  C   UNL     1      25.206   1.449  17.524  1.00  0.00    -0.055 C 
ATOM      3  C   UNL     1      26.186   1.245  18.418  1.00  0.00    -0.023 C 
ATOM      4  C   UNL     1      27.573   1.779  18.173  1.00  0.00     0.035 C 
ATOM      5  C   UNL     1      27.925   1.765  16.662  1.00  0.00     0.018 C 
ATOM      6  C   UNL     1      26.768   2.363  15.879  1.00  0.00    -0.023 C 
ATOM      7  C   UNL     1      25.504   2.157  16.261  1.00  0.00    -0.001 C 
ENDROOT
BRANCH   5   8
ATOM      8  C   UNL     1      29.269   2.492  16.341  1.00  0.00    -0.010 C 
ATOM      9  C   UNL     1      30.224   2.457  17.549  1.00  0.00     0.008 C 
ATOM     10  C   UNL     1      29.061   3.959  15.923  1.00  0.00     0.008 C 
ENDBRANCH   5   8
TORSDOF 1
ENDMDL
MODEL 6
REMARK VINA RESULT:    -3.726      0.917      1.802
REMARK INTER + INTRA:          -4.132
REMARK INTER:                  -3.995
REMARK INTRA:                  -0.138
REMARK UNBOUND:                -0.189
REMARK SMILES CC1=CC[C@H](C(C)C)C=C1
REMARK SMILES IDX 1 1 2 2 3 3 4 4 5 5 9 6 10 7 6 8 7 9 8 10
REMARK H PARENT
REMARK Flexibility Score: inf
ROOT
ATOM      1  C   UNL     1      15.487   2.668  18.139  1.00  0.00     0.044 C 
ATOM      2  C   UNL     1      14.325   3.599  17.956  1.00  0.00    -0.055 C 
ATOM      3  C   UNL     1      13.389   3.711  18.910  1.00  0.00    -0.023 C 
ATOM      4  C   UNL     1      12.148   4.534  18.679  1.00  0.00     0.035 C 
ATOM      5  C   UNL     1      12.445   5.760  17.776  1.00  0.00     0.018 C 
ATOM      6  C   UNL     1      13.249   5.304  16.570  1.00  0.00    -0.023 C 
ATOM      7  C   UNL     1      14.164   4.336  16.684  1.00  0.00    -0.001 C 
ENDROOT
BRANCH   5   8
ATOM      8  C   UNL     1      11.155   6.528  17.345  1.00  0.00    -0.010 C 
ATOM      9  C   UNL     1      11.241   6.980  15.875  1.00  0.00     0.008 C 
ATOM     10  C   UNL     1      10.883   7.763  18.222  1.00  0.00     0.008 C 
ENDBRANCH   5   8
TORSDOF 1
ENDMDL
MODEL 7
REMARK VINA RESULT:    -3.658      1.484      2.069
REMARK INTER + INTRA:          -4.061
REMARK INTER:                  -3.862
REMARK INTRA:                  -0.199
REMARK UNBOUND:                -0.189
REMARK SMILES CC1=CC[C@H](C(C)C)C=C1
REMARK SMILES IDX 1 1 2 2 3 3 4 4 5 5 9 6 10 7 6 8 7 9 8 10
REMARK H PARENT
REMARK Flexibility Score: inf
ROOT
ATOM      1  C   UNL     1      13.768   3.325  21.149  1.00  0.00     0.044 C 
ATOM      2  C   UNL     1      13.119   4.153  20.079  1.00  0.00    -0.055 C 
ATOM      3  C   UNL     1      13.147   3.750  18.800  1.00  0.00    -0.023 C 
ATOM      4  C   UNL     1      12.623   4.639  17.701  1.00  0.00     0.035 C 
ATOM      5  C   UNL     1      11.423   5.491  18.190  1.00  0.00     0.018 C 
ATOM      6  C   UNL     1      11.775   6.121  19.528  1.00  0.00    -0.023 C 
ATOM      7  C   UNL     1      12.517   5.459  20.421  1.00  0.00    -0.001 C 
ENDROOT
BRANCH   5   8
ATOM      8  C   UNL     1      10.976   6.569  17.152  1.00  0.00    -0.010 C 
ATOM      9  C   UNL     1      11.941   6.621  15.953  1.00  0.00     0.008 C 
ATOM     10  C   UNL     1      10.881   7.977  17.766  1.00  0.00     0.008 C 
ENDBRANCH   5   8
TORSDOF 1
ENDMDL
MODEL 8
REMARK VINA RESULT:    -3.624      1.315      2.211
REMARK INTER + INTRA:          -4.025
REMARK INTER:                  -3.842
REMARK INTRA:                  -0.183
REMARK UNBOUND:                -0.189
REMARK SMILES CC1=CC[C@H](C(C)C)C=C1
REMARK SMILES IDX 1 1 2 2 3 3 4 4 5 5 9 6 10 7 6 8 7 9 8 10
REMARK H PARENT
REMARK Flexibility Score: inf
ROOT
ATOM      1  C   UNL     1      13.568   3.091  21.124  1.00  0.00     0.044 C 
ATOM      2  C   UNL     1      13.342   3.842  19.845  1.00  0.00    -0.055 C 
ATOM      3  C   UNL     1      13.875   3.400  18.695  1.00  0.00    -0.023 C 
ATOM      4  C   UNL     1      13.773   4.219  17.435  1.00  0.00     0.035 C 
ATOM      5  C   UNL     1      12.441   5.013  17.384  1.00  0.00     0.018 C 
ATOM      6  C   UNL     1      12.227   5.706  18.719  1.00  0.00    -0.023 C 
ATOM      7  C   UNL     1      12.600   5.120  19.862  1.00  0.00    -0.001 C 
ENDROOT
BRANCH   5   8
ATOM      8  C   UNL     1      12.379   6.027  16.198  1.00  0.00    -0.010 C 
ATOM      9  C   UNL     1      13.471   7.106  16.330  1.00  0.00     0.008 C 
ATOM     10  C   UNL     1      11.012   6.725  16.089  1.00  0.00     0.008 C 
ENDBRANCH   5   8
TORSDOF 1
ENDMDL
MODEL 9
REMARK VINA RESULT:    -3.525      1.936      3.477
REMARK INTER + INTRA:          -3.920
REMARK INTER:                  -3.721
REMARK INTRA:                  -0.199
REMARK UNBOUND:                -0.189
REMARK SMILES CC1=CC[C@H](C(C)C)C=C1
REMARK SMILES IDX 1 1 2 2 3 3 4 4 5 5 9 6 10 7 6 8 7 9 8 10
REMARK H PARENT
REMARK Flexibility Score: inf
ROOT
ATOM      1  C   UNL     1      13.568   2.585  21.592  1.00  0.00     0.044 C 
ATOM      2  C   UNL     1      14.016   3.056  20.240  1.00  0.00    -0.055 C 
ATOM      3  C   UNL     1      15.273   2.835  19.826  1.00  0.00    -0.023 C 
ATOM      4  C   UNL     1      15.772   3.425  18.532  1.00  0.00     0.035 C 
ATOM      5  C   UNL     1      14.640   3.503  17.474  1.00  0.00     0.018 C 
ATOM      6  C   UNL     1      13.403   4.107  18.117  1.00  0.00    -0.023 C 
ATOM      7  C   UNL     1      13.095   3.840  19.390  1.00  0.00    -0.001 C 
ENDROOT
BRANCH   5   8
ATOM      8  C   UNL     1      15.058   4.289  16.191  1.00  0.00    -0.010 C 
ATOM      9  C   UNL     1      16.488   4.848  16.320  1.00  0.00     0.008 C 
ATOM     10  C   UNL     1      14.104   5.454  15.875  1.00  0.00     0.008 C 
ENDBRANCH   5   8
TORSDOF 1
ENDMDL
