MODEL 1
REMARK VINA RESULT:    -5.492      0.000      0.000
REMARK INTER + INTRA:          -5.652
REMARK INTER:                  -5.652
REMARK INTRA:                   0.000
REMARK UNBOUND:                 0.000
REMARK SMILES O=c1ccc2ccc(O)cc2o1
REMARK SMILES IDX 6 1 7 2 8 3 10 4 11 5 5 6 4 7 3 8 2 9 1 10 12 11 9 12
REMARK H PARENT 9 13
REMARK Flexibility Score: inf
ROOT
ATOM      1  C   UNL     1       6.719 -13.907   5.238  1.00  0.00     0.016 A 
ATOM      2  C   UNL     1       5.478 -13.597   5.804  1.00  0.00     0.047 A 
ATOM      3  C   UNL     1       5.098 -14.161   7.029  1.00  0.00     0.119 A 
ATOM      4  C   UNL     1       5.965 -15.042   7.692  1.00  0.00     0.094 A 
ATOM      5  C   UNL     1       7.209 -15.358   7.133  1.00  0.00     0.142 A 
ATOM      6  C   UNL     1       7.588 -14.787   5.898  1.00  0.00     0.018 A 
ATOM      7  C   UNL     1       8.836 -15.122   5.364  1.00  0.00     0.019 A 
ATOM      8  C   UNL     1       9.664 -16.002   6.061  1.00  0.00     0.094 A 
ATOM      9  C   UNL     1       9.222 -16.529   7.279  1.00  0.00     0.336 A 
ATOM     10  O   UNL     1       9.954 -17.325   7.923  1.00  0.00    -0.246 OA
ATOM     11  O   UNL     1       8.029 -16.194   7.765  1.00  0.00    -0.423 OA
ENDROOT
BRANCH   3  12
ATOM     12  O   UNL     1       3.859 -13.839   7.576  1.00  0.00    -0.508 OA
ATOM     13  H   UNL     1       3.585 -14.167   8.495  1.00  0.00     0.293 HD
ENDBRANCH   3  12
TORSDOF 1
ENDMDL
MODEL 2
REMARK VINA RESULT:    -5.434      0.951      4.270
REMARK INTER + INTRA:          -5.593
REMARK INTER:                  -5.593
REMARK INTRA:                   0.000
REMARK UNBOUND:                 0.000
REMARK SMILES O=c1ccc2ccc(O)cc2o1
REMARK SMILES IDX 6 1 7 2 8 3 10 4 11 5 5 6 4 7 3 8 2 9 1 10 12 11 9 12
REMARK H PARENT 9 13
REMARK Flexibility Score: inf
ROOT
ATOM      1  C   UNL     1       9.584 -15.230   5.399  1.00  0.00     0.016 A 
ATOM      2  C   UNL     1      10.281 -16.184   6.148  1.00  0.00     0.047 A 
ATOM      3  C   UNL     1       9.680 -16.789   7.259  1.00  0.00     0.119 A 
ATOM      4  C   UNL     1       8.373 -16.437   7.626  1.00  0.00     0.094 A 
ATOM      5  C   UNL     1       7.668 -15.483   6.883  1.00  0.00     0.142 A 
ATOM      6  C   UNL     1       8.277 -14.876   5.763  1.00  0.00     0.018 A 
ATOM      7  C   UNL     1       7.548 -13.925   5.041  1.00  0.00     0.019 A 
ATOM      8  C   UNL     1       6.251 -13.607   5.443  1.00  0.00     0.094 A 
ATOM      9  C   UNL     1       5.712 -14.250   6.564  1.00  0.00     0.336 A 
ATOM     10  O   UNL     1       4.543 -13.977   6.943  1.00  0.00    -0.246 OA
ATOM     11  O   UNL     1       6.427 -15.151   7.234  1.00  0.00    -0.423 OA
ENDROOT
BRANCH   3  12
ATOM     12  O   UNL     1      10.390 -17.738   7.991  1.00  0.00    -0.508 OA
ATOM     13  H   UNL     1       9.917 -18.435   8.554  1.00  0.00     0.293 HD
ENDBRANCH   3  12
TORSDOF 1
ENDMDL
MODEL 3
REMARK VINA RESULT:    -5.265      1.294      4.174
REMARK INTER + INTRA:          -5.419
REMARK INTER:                  -5.419
REMARK INTRA:                   0.000
REMARK UNBOUND:                 0.000
REMARK SMILES O=c1ccc2ccc(O)cc2o1
REMARK SMILES IDX 6 1 7 2 8 3 10 4 11 5 5 6 4 7 3 8 2 9 1 10 12 11 9 12
REMARK H PARENT 9 13
REMARK Flexibility Score: inf
ROOT
ATOM      1  C   UNL     1       7.385 -14.507   5.219  1.00  0.00     0.016 A 
ATOM      2  C   UNL     1       8.625 -15.147   5.322  1.00  0.00     0.047 A 
ATOM      3  C   UNL     1       8.935 -15.912   6.454  1.00  0.00     0.119 A 
ATOM      4  C   UNL     1       7.998 -16.038   7.490  1.00  0.00     0.094 A 
ATOM      5  C   UNL     1       6.755 -15.401   7.396  1.00  0.00     0.142 A 
ATOM      6  C   UNL     1       6.448 -14.631   6.253  1.00  0.00     0.018 A 
ATOM      7  C   UNL     1       5.198 -14.006   6.188  1.00  0.00     0.019 A 
ATOM      8  C   UNL     1       4.299 -14.160   7.243  1.00  0.00     0.094 A 
ATOM      9  C   UNL     1       4.673 -14.938   8.344  1.00  0.00     0.336 A 
ATOM     10  O   UNL     1       3.876 -15.090   9.307  1.00  0.00    -0.246 OA
ATOM     11  O   UNL     1       5.869 -15.523   8.382  1.00  0.00    -0.423 OA
ENDROOT
BRANCH   3  12
ATOM     12  O   UNL     1      10.174 -16.541   6.537  1.00  0.00    -0.508 OA
ATOM     13  H   UNL     1      10.599 -16.984   5.730  1.00  0.00     0.293 HD
ENDBRANCH   3  12
TORSDOF 1
ENDMDL
MODEL 4
REMARK VINA RESULT:    -5.194      1.937      2.737
REMARK INTER + INTRA:          -5.346
REMARK INTER:                  -5.346
REMARK INTRA:                   0.000
REMARK UNBOUND:                 0.000
REMARK SMILES O=c1ccc2ccc(O)cc2o1
REMARK SMILES IDX 6 1 7 2 8 3 10 4 11 5 5 6 4 7 3 8 2 9 1 10 12 11 9 12
REMARK H PARENT 9 13
REMARK Flexibility Score: inf
ROOT
ATOM      1  C   UNL     1       7.162 -15.677   7.206  1.00  0.00     0.016 A 
ATOM      2  C   UNL     1       6.384 -14.763   6.489  1.00  0.00     0.047 A 
ATOM      3  C   UNL     1       6.934 -14.054   5.414  1.00  0.00     0.119 A 
ATOM      4  C   UNL     1       8.274 -14.259   5.054  1.00  0.00     0.094 A 
ATOM      5  C   UNL     1       9.062 -15.171   5.766  1.00  0.00     0.142 A 
ATOM      6  C   UNL     1       8.502 -15.884   6.849  1.00  0.00     0.018 A 
ATOM      7  C   UNL     1       9.313 -16.788   7.542  1.00  0.00     0.019 A 
ATOM      8  C   UNL     1      10.640 -16.959   7.147  1.00  0.00     0.094 A 
ATOM      9  C   UNL     1      11.126 -16.217   6.065  1.00  0.00     0.336 A 
ATOM     10  O   UNL     1      12.321 -16.357   5.693  1.00  0.00    -0.246 OA
ATOM     11  O   UNL     1      10.333 -15.363   5.422  1.00  0.00    -0.423 OA
ENDROOT
BRANCH   3  12
ATOM     12  O   UNL     1       6.142 -13.149   4.712  1.00  0.00    -0.508 OA
ATOM     13  H   UNL     1       6.171 -12.155   4.911  1.00  0.00     0.293 HD
ENDBRANCH   3  12
TORSDOF 1
ENDMDL
MODEL 5
REMARK VINA RESULT:    -5.190      1.775      2.714
REMARK INTER + INTRA:          -5.342
REMARK INTER:                  -5.342
REMARK INTRA:                   0.000
REMARK UNBOUND:                 0.000
REMARK SMILES O=c1ccc2ccc(O)cc2o1
REMARK SMILES IDX 6 1 7 2 8 3 10 4 11 5 5 6 4 7 3 8 2 9 1 10 12 11 9 12
REMARK H PARENT 9 13
REMARK Flexibility Score: inf
ROOT
ATOM      1  C   UNL     1       4.203 -14.031   7.232  1.00  0.00     0.016 A 
ATOM      2  C   UNL     1       3.757 -14.681   8.388  1.00  0.00     0.047 A 
ATOM      3  C   UNL     1       4.570 -15.625   9.028  1.00  0.00     0.119 A 
ATOM      4  C   UNL     1       5.838 -15.923   8.509  1.00  0.00     0.094 A 
ATOM      5  C   UNL     1       6.293 -15.278   7.353  1.00  0.00     0.142 A 
ATOM      6  C   UNL     1       5.470 -14.327   6.711  1.00  0.00     0.018 A 
ATOM      7  C   UNL     1       5.951 -13.700   5.557  1.00  0.00     0.019 A 
ATOM      8  C   UNL     1       7.219 -14.028   5.078  1.00  0.00     0.094 A 
ATOM      9  C   UNL     1       7.979 -14.980   5.766  1.00  0.00     0.336 A 
ATOM     10  O   UNL     1       9.126 -15.290   5.350  1.00  0.00    -0.246 OA
ATOM     11  O   UNL     1       7.497 -15.562   6.862  1.00  0.00    -0.423 OA
ENDROOT
BRANCH   3  12
ATOM     12  O   UNL     1       4.108 -16.261  10.178  1.00  0.00    -0.508 OA
ATOM     13  H   UNL     1       4.523 -16.082  11.085  1.00  0.00     0.293 HD
ENDBRANCH   3  12
TORSDOF 1
ENDMDL
MODEL 6
REMARK VINA RESULT:    -5.123      2.419      4.775
REMARK INTER + INTRA:          -5.273
REMARK INTER:                  -5.273
REMARK INTRA:                   0.000
REMARK UNBOUND:                 0.000
REMARK SMILES O=c1ccc2ccc(O)cc2o1
REMARK SMILES IDX 6 1 7 2 8 3 10 4 11 5 5 6 4 7 3 8 2 9 1 10 12 11 9 12
REMARK H PARENT 9 13
REMARK Flexibility Score: inf
ROOT
ATOM      1  C   UNL     1       6.975 -15.553   7.529  1.00  0.00     0.016 A 
ATOM      2  C   UNL     1       7.465 -14.921   6.381  1.00  0.00     0.047 A 
ATOM      3  C   UNL     1       6.651 -14.043   5.654  1.00  0.00     0.119 A 
ATOM      4  C   UNL     1       5.337 -13.795   6.077  1.00  0.00     0.094 A 
ATOM      5  C   UNL     1       4.837 -14.423   7.224  1.00  0.00     0.142 A 
ATOM      6  C   UNL     1       5.661 -15.307   7.954  1.00  0.00     0.018 A 
ATOM      7  C   UNL     1       5.134 -15.920   9.095  1.00  0.00     0.019 A 
ATOM      8  C   UNL     1       3.822 -15.643   9.477  1.00  0.00     0.094 A 
ATOM      9  C   UNL     1       3.064 -14.756   8.704  1.00  0.00     0.336 A 
ATOM     10  O   UNL     1       1.878 -14.492   9.032  1.00  0.00    -0.246 OA
ATOM     11  O   UNL     1       3.590 -14.186   7.622  1.00  0.00    -0.423 OA
ENDROOT
BRANCH   3  12
ATOM     12  O   UNL     1       7.158 -13.424   4.514  1.00  0.00    -0.508 OA
ATOM     13  H   UNL     1       6.695 -12.625   4.096  1.00  0.00     0.293 HD
ENDBRANCH   3  12
TORSDOF 1
ENDMDL
MODEL 7
REMARK VINA RESULT:    -5.087      1.815      5.023
REMARK INTER + INTRA:          -5.236
REMARK INTER:                  -5.236
REMARK INTRA:                   0.000
REMARK UNBOUND:                 0.000
REMARK SMILES O=c1ccc2ccc(O)cc2o1
REMARK SMILES IDX 6 1 7 2 8 3 10 4 11 5 5 6 4 7 3 8 2 9 1 10 12 11 9 12
REMARK H PARENT 9 13
REMARK Flexibility Score: inf
ROOT
ATOM      1  C   UNL     1       9.491 -17.106   7.766  1.00  0.00     0.016 A 
ATOM      2  C   UNL     1      10.790 -17.195   7.255  1.00  0.00     0.047 A 
ATOM      3  C   UNL     1      11.179 -16.405   6.166  1.00  0.00     0.119 A 
ATOM      4  C   UNL     1      10.261 -15.519   5.582  1.00  0.00     0.094 A 
ATOM      5  C   UNL     1       8.959 -15.422   6.086  1.00  0.00     0.142 A 
ATOM      6  C   UNL     1       8.572 -16.221   7.184  1.00  0.00     0.018 A 
ATOM      7  C   UNL     1       7.264 -16.104   7.665  1.00  0.00     0.019 A 
ATOM      8  C   UNL     1       6.387 -15.208   7.053  1.00  0.00     0.094 A 
ATOM      9  C   UNL     1       6.841 -14.450   5.968  1.00  0.00     0.336 A 
ATOM     10  O   UNL     1       6.066 -13.636   5.402  1.00  0.00    -0.246 OA
ATOM     11  O   UNL     1       8.092 -14.581   5.530  1.00  0.00    -0.423 OA
ENDROOT
BRANCH   3  12
ATOM     12  O   UNL     1      12.477 -16.509   5.672  1.00  0.00    -0.508 OA
ATOM     13  H   UNL     1      12.784 -15.967   4.873  1.00  0.00     0.293 HD
ENDBRANCH   3  12
TORSDOF 1
ENDMDL
MODEL 8
REMARK VINA RESULT:    -4.953      1.480      2.165
REMARK INTER + INTRA:          -5.098
REMARK INTER:                  -5.098
REMARK INTRA:                   0.000
REMARK UNBOUND:                 0.000
REMARK SMILES O=c1ccc2ccc(O)cc2o1
REMARK SMILES IDX 6 1 7 2 8 3 10 4 11 5 5 6 4 7 3 8 2 9 1 10 12 11 9 12
REMARK H PARENT 9 13
REMARK Flexibility Score: inf
ROOT
ATOM      1  C   UNL     1       9.300 -14.880   5.292  1.00  0.00     0.016 A 
ATOM      2  C   UNL     1       8.205 -14.066   4.981  1.00  0.00     0.047 A 
ATOM      3  C   UNL     1       7.035 -14.129   5.748  1.00  0.00     0.119 A 
ATOM      4  C   UNL     1       6.959 -15.013   6.835  1.00  0.00     0.094 A 
ATOM      5  C   UNL     1       8.049 -15.831   7.154  1.00  0.00     0.142 A 
ATOM      6  C   UNL     1       9.226 -15.764   6.377  1.00  0.00     0.018 A 
ATOM      7  C   UNL     1      10.298 -16.595   6.719  1.00  0.00     0.019 A 
ATOM      8  C   UNL     1      10.176 -17.457   7.808  1.00  0.00     0.094 A 
ATOM      9  C   UNL     1       8.979 -17.469   8.532  1.00  0.00     0.336 A 
ATOM     10  O   UNL     1       8.848 -18.240   9.518  1.00  0.00    -0.246 OA
ATOM     11  O   UNL     1       7.973 -16.668   8.185  1.00  0.00    -0.423 OA
ENDROOT
BRANCH   3  12
ATOM     12  O   UNL     1       5.957 -13.310   5.423  1.00  0.00    -0.508 OA
ATOM     13  H   UNL     1       6.092 -12.408   4.983  1.00  0.00     0.293 HD
ENDBRANCH   3  12
TORSDOF 1
ENDMDL
MODEL 9
REMARK VINA RESULT:    -4.914      7.362      7.888
REMARK INTER + INTRA:          -5.057
REMARK INTER:                  -5.057
REMARK INTRA:                   0.000
REMARK UNBOUND:                 0.000
REMARK SMILES O=c1ccc2ccc(O)cc2o1
REMARK SMILES IDX 6 1 7 2 8 3 10 4 11 5 5 6 4 7 3 8 2 9 1 10 12 11 9 12
REMARK H PARENT 9 13
REMARK Flexibility Score: inf
ROOT
ATOM      1  C   UNL     1       7.063 -11.635  12.768  1.00  0.00     0.016 A 
ATOM      2  C   UNL     1       6.362 -11.013  13.806  1.00  0.00     0.047 A 
ATOM      3  C   UNL     1       6.805 -11.130  15.130  1.00  0.00     0.119 A 
ATOM      4  C   UNL     1       7.958 -11.876  15.418  1.00  0.00     0.094 A 
ATOM      5  C   UNL     1       8.665 -12.503  14.386  1.00  0.00     0.142 A 
ATOM      6  C   UNL     1       8.215 -12.382  13.053  1.00  0.00     0.018 A 
ATOM      7  C   UNL     1       8.942 -13.020  12.043  1.00  0.00     0.019 A 
ATOM      8  C   UNL     1      10.082 -13.751  12.378  1.00  0.00     0.094 A 
ATOM      9  C   UNL     1      10.468 -13.827  13.720  1.00  0.00     0.336 A 
ATOM     10  O   UNL     1      11.494 -14.482  14.043  1.00  0.00    -0.246 OA
ATOM     11  O   UNL     1       9.758 -13.210  14.663  1.00  0.00    -0.423 OA
ENDROOT
BRANCH   3  12
ATOM     12  O   UNL     1       6.094 -10.502  16.149  1.00  0.00    -0.508 OA
ATOM     13  H   UNL     1       6.520  -9.789  16.730  1.00  0.00     0.293 HD
ENDBRANCH   3  12
TORSDOF 1
ENDMDL
