MODEL 1
REMARK VINA RESULT:    -8.129      0.000      0.000
REMARK INTER + INTRA:          -8.926
REMARK INTER:                  -8.841
REMARK INTRA:                  -0.085
REMARK UNBOUND:                -0.085
REMARK SMILES CC1(C)CC[C@]2(C(=O)[O-])CC[C@]3(C)C(=CC[C@H]4[C@@]5(C)CC[C@@H](O)C(C)(C)[C@H]5CC[C@]43C)[C@@H]2C1
REMARK SMILES IDX 6 1 5 2 10 3 32 4 4 5 11 6 14 7 33 8 2 9 12 10 15 11 1 12
REMARK SMILES IDX 3 13 13 14 30 15 16 16 17 17 29 18 31 19 18 20 28 21 27 22
REMARK SMILES IDX 20 23 19 24 24 25 21 26 22 27 25 28 26 29 7 30 8 31 9 32
REMARK SMILES IDX 23 33
REMARK H PARENT 23 34
REMARK Flexibility Score: inf
ROOT
ATOM      1  C   UNL     1      94.848 -63.060 103.291  1.00  0.00     0.017 C 
ATOM      2  C   UNL     1      95.240 -61.997 102.225  1.00  0.00     0.014 C 
ATOM      3  C   UNL     1      95.499 -64.421 102.864  1.00  0.00     0.014 C 
ATOM      4  C   UNL     1      93.267 -63.145 103.417  1.00  0.00     0.028 C 
ATOM      5  C   UNL     1      94.628 -60.613 102.500  1.00  0.00     0.007 C 
ATOM      6  C   UNL     1      94.558 -65.617 103.018  1.00  0.00     0.013 C 
ATOM      7  C   UNL     1      92.600 -64.120 102.426  1.00  0.00    -0.064 C 
ATOM      8  C   UNL     1      92.621 -61.728 103.591  1.00  0.00     0.015 C 
ATOM      9  C   UNL     1      93.080 -60.654 102.561  1.00  0.00    -0.035 C 
ATOM     10  C   UNL     1      93.246 -65.487 102.155  1.00  0.00    -0.006 C 
ATOM     11  C   UNL     1      91.372 -63.890 101.909  1.00  0.00    -0.027 C 
ATOM     12  C   UNL     1      92.489 -60.904 101.152  1.00  0.00     0.011 C 
ATOM     13  C   UNL     1      92.567 -59.272 103.041  1.00  0.00     0.011 C 
ATOM     14  C   UNL     1      93.712 -65.421 100.659  1.00  0.00     0.017 C 
ATOM     15  C   UNL     1      92.184 -66.706 102.463  1.00  0.00    -0.020 C 
ATOM     16  C   UNL     1      90.548 -65.015 101.341  1.00  0.00     0.032 C 
ATOM     17  C   UNL     1      90.672 -66.252 102.267  1.00  0.00     0.006 C 
ATOM     18  C   UNL     1      92.522 -67.964 101.596  1.00  0.00     0.008 C 
ATOM     19  C   UNL     1      92.306 -67.123 103.974  1.00  0.00     0.012 C 
ATOM     20  C   UNL     1      89.522 -67.383 102.077  1.00  0.00    -0.025 C 
ATOM     21  C   UNL     1      91.392 -68.959 101.295  1.00  0.00     0.005 C 
ATOM     22  C   UNL     1      90.090 -68.860 102.131  1.00  0.00     0.003 C 
ATOM     23  C   UNL     1      88.753 -67.191 100.726  1.00  0.00     0.010 C 
ATOM     24  C   UNL     1      88.522 -67.157 103.255  1.00  0.00     0.012 C 
ATOM     25  C   UNL     1      89.041 -70.015 101.746  1.00  0.00    -0.006 C 
ATOM     26  C   UNL     1      87.694 -68.259 100.435  1.00  0.00     0.033 C 
ATOM     27  C   UNL     1      88.263 -69.680 100.433  1.00  0.00     0.120 C 
ATOM     28  C   UNL     1      89.758 -71.385 101.548  1.00  0.00     0.014 C 
ATOM     29  C   UNL     1      88.014 -70.267 102.902  1.00  0.00     0.014 C 
ENDROOT
BRANCH   1  30
ATOM     30  C   UNL     1      95.469 -62.673 104.636  1.00  0.00     0.048 C 
ATOM     31  O   UNL     1      95.033 -63.157 105.719  1.00  0.00    -0.550 OA
ATOM     32  O   UNL     1      96.603 -61.872 104.681  1.00  0.00    -0.550 OA
ENDBRANCH   1  30
BRANCH  27  33
ATOM     33  O   UNL     1      89.076 -69.856  99.292  1.00  0.00    -0.393 OA
ATOM     34  H   UNL     1      90.007 -69.627  99.554  1.00  0.00     0.210 HD
ENDBRANCH  27  33
TORSDOF 2
ENDMDL
MODEL 2
REMARK VINA RESULT:    -8.051      1.673      2.183
REMARK INTER + INTRA:          -8.841
REMARK INTER:                  -8.708
REMARK INTRA:                  -0.133
REMARK UNBOUND:                -0.085
REMARK SMILES CC1(C)CC[C@]2(C(=O)[O-])CC[C@]3(C)C(=CC[C@H]4[C@@]5(C)CC[C@@H](O)C(C)(C)[C@H]5CC[C@]43C)[C@@H]2C1
REMARK SMILES IDX 6 1 5 2 10 3 32 4 4 5 11 6 14 7 33 8 2 9 12 10 15 11 1 12
REMARK SMILES IDX 3 13 13 14 30 15 16 16 17 17 29 18 31 19 18 20 28 21 27 22
REMARK SMILES IDX 20 23 19 24 24 25 21 26 22 27 25 28 26 29 7 30 8 31 9 32
REMARK SMILES IDX 23 33
REMARK H PARENT 23 34
REMARK Flexibility Score: inf
ROOT
ATOM      1  C   UNL     1      96.526 -64.518 104.774  1.00  0.00     0.017 C 
ATOM      2  C   UNL     1      97.260 -63.558 103.795  1.00  0.00     0.014 C 
ATOM      3  C   UNL     1      96.745 -65.982 104.257  1.00  0.00     0.014 C 
ATOM      4  C   UNL     1      94.990 -64.123 104.872  1.00  0.00     0.028 C 
ATOM      5  C   UNL     1      97.089 -62.075 104.163  1.00  0.00     0.007 C 
ATOM      6  C   UNL     1      95.480 -66.839 104.309  1.00  0.00     0.013 C 
ATOM      7  C   UNL     1      94.093 -64.778 103.803  1.00  0.00    -0.064 C 
ATOM      8  C   UNL     1      94.801 -62.591 105.141  1.00  0.00     0.015 C 
ATOM      9  C   UNL     1      95.602 -61.644 104.200  1.00  0.00    -0.035 C 
ATOM     10  C   UNL     1      94.301 -66.257 103.440  1.00  0.00    -0.006 C 
ATOM     11  C   UNL     1      93.013 -64.149 103.287  1.00  0.00    -0.027 C 
ATOM     12  C   UNL     1      95.013 -61.606 102.768  1.00  0.00     0.011 C 
ATOM     13  C   UNL     1      95.517 -60.205 104.773  1.00  0.00     0.011 C 
ATOM     14  C   UNL     1      94.818 -66.238 101.960  1.00  0.00     0.017 C 
ATOM     15  C   UNL     1      92.907 -67.108 103.643  1.00  0.00    -0.020 C 
ATOM     16  C   UNL     1      91.906 -64.928 102.627  1.00  0.00     0.032 C 
ATOM     17  C   UNL     1      91.614 -66.201 103.460  1.00  0.00     0.006 C 
ATOM     18  C   UNL     1      92.877 -68.349 102.691  1.00  0.00     0.008 C 
ATOM     19  C   UNL     1      92.843 -67.642 105.121  1.00  0.00     0.012 C 
ATOM     20  C   UNL     1      90.182 -66.910 103.172  1.00  0.00    -0.025 C 
ATOM     21  C   UNL     1      91.509 -68.928 102.302  1.00  0.00     0.005 C 
ATOM     22  C   UNL     1      90.270 -68.491 103.125  1.00  0.00     0.003 C 
ATOM     23  C   UNL     1      89.557 -66.403 101.829  1.00  0.00     0.010 C 
ATOM     24  C   UNL     1      89.256 -66.467 104.350  1.00  0.00     0.012 C 
ATOM     25  C   UNL     1      88.933 -69.240 102.641  1.00  0.00    -0.006 C 
ATOM     26  C   UNL     1      88.233 -67.073 101.445  1.00  0.00     0.033 C 
ATOM     27  C   UNL     1      88.341 -68.597 101.346  1.00  0.00     0.120 C 
ATOM     28  C   UNL     1      89.206 -70.748 102.353  1.00  0.00     0.014 C 
ATOM     29  C   UNL     1      87.838 -69.241 103.762  1.00  0.00     0.014 C 
ENDROOT
BRANCH   1  30
ATOM     30  C   UNL     1      97.186 -64.429 106.152  1.00  0.00     0.048 C 
ATOM     31  O   UNL     1      96.502 -64.527 107.211  1.00  0.00    -0.550 OA
ATOM     32  O   UNL     1      98.568 -64.359 106.265  1.00  0.00    -0.550 OA
ENDBRANCH   1  30
BRANCH  27  33
ATOM     33  O   UNL     1      89.102 -68.938 100.207  1.00  0.00    -0.393 OA
ATOM     34  H   UNL     1      88.622 -68.583  99.412  1.00  0.00     0.210 HD
ENDBRANCH  27  33
TORSDOF 2
ENDMDL
MODEL 3
REMARK VINA RESULT:    -7.652      5.538     10.971
REMARK INTER + INTRA:          -8.408
REMARK INTER:                  -8.275
REMARK INTRA:                  -0.133
REMARK UNBOUND:                -0.085
REMARK SMILES CC1(C)CC[C@]2(C(=O)[O-])CC[C@]3(C)C(=CC[C@H]4[C@@]5(C)CC[C@@H](O)C(C)(C)[C@H]5CC[C@]43C)[C@@H]2C1
REMARK SMILES IDX 6 1 5 2 10 3 32 4 4 5 11 6 14 7 33 8 2 9 12 10 15 11 1 12
REMARK SMILES IDX 3 13 13 14 30 15 16 16 17 17 29 18 31 19 18 20 28 21 27 22
REMARK SMILES IDX 20 23 19 24 24 25 21 26 22 27 25 28 26 29 7 30 8 31 9 32
REMARK SMILES IDX 23 33
REMARK H PARENT 23 34
REMARK Flexibility Score: inf
ROOT
ATOM      1  C   UNL     1      95.692 -64.630 104.069  1.00  0.00     0.017 C 
ATOM      2  C   UNL     1      94.487 -63.956 104.782  1.00  0.00     0.014 C 
ATOM      3  C   UNL     1      96.386 -65.581 105.105  1.00  0.00     0.014 C 
ATOM      4  C   UNL     1      96.675 -63.521 103.497  1.00  0.00     0.028 C 
ATOM      5  C   UNL     1      93.737 -62.957 103.885  1.00  0.00     0.007 C 
ATOM      6  C   UNL     1      97.912 -65.497 105.078  1.00  0.00     0.013 C 
ATOM      7  C   UNL     1      97.740 -63.034 104.500  1.00  0.00    -0.064 C 
ATOM      8  C   UNL     1      95.906 -62.436 102.668  1.00  0.00     0.015 C 
ATOM      9  C   UNL     1      94.657 -61.823 103.367  1.00  0.00    -0.035 C 
ATOM     10  C   UNL     1      98.458 -64.053 105.398  1.00  0.00    -0.006 C 
ATOM     11  C   UNL     1      98.195 -61.761 104.504  1.00  0.00    -0.027 C 
ATOM     12  C   UNL     1      95.042 -60.867 104.522  1.00  0.00     0.011 C 
ATOM     13  C   UNL     1      93.874 -60.990 102.318  1.00  0.00     0.011 C 
ATOM     14  C   UNL     1      97.975 -63.716 106.852  1.00  0.00     0.017 C 
ATOM     15  C   UNL     1     100.089 -63.955 105.205  1.00  0.00    -0.020 C 
ATOM     16  C   UNL     1      99.518 -61.413 105.133  1.00  0.00     0.032 C 
ATOM     17  C   UNL     1     100.558 -62.501 104.761  1.00  0.00     0.006 C 
ATOM     18  C   UNL     1     100.827 -64.424 106.502  1.00  0.00     0.008 C 
ATOM     19  C   UNL     1     100.526 -64.913 104.037  1.00  0.00     0.012 C 
ATOM     20  C   UNL     1     102.112 -62.074 104.954  1.00  0.00    -0.025 C 
ATOM     21  C   UNL     1     102.248 -63.900 106.755  1.00  0.00     0.005 C 
ATOM     22  C   UNL     1     103.000 -63.229 105.576  1.00  0.00     0.003 C 
ATOM     23  C   UNL     1     102.245 -60.800 105.855  1.00  0.00     0.010 C 
ATOM     24  C   UNL     1     102.626 -61.726 103.521  1.00  0.00     0.012 C 
ATOM     25  C   UNL     1     104.496 -62.805 105.982  1.00  0.00    -0.006 C 
ATOM     26  C   UNL     1     103.686 -60.369 106.146  1.00  0.00     0.033 C 
ATOM     27  C   UNL     1     104.521 -61.473 106.798  1.00  0.00     0.120 C 
ATOM     28  C   UNL     1     105.183 -63.912 106.839  1.00  0.00     0.014 C 
ATOM     29  C   UNL     1     105.412 -62.652 104.721  1.00  0.00     0.014 C 
ENDROOT
BRANCH   1  30
ATOM     30  C   UNL     1      95.172 -65.515 102.933  1.00  0.00     0.048 C 
ATOM     31  O   UNL     1      95.878 -65.747 101.910  1.00  0.00    -0.550 OA
ATOM     32  O   UNL     1      93.958 -66.178 103.060  1.00  0.00    -0.550 OA
ENDBRANCH   1  30
BRANCH  27  33
ATOM     33  O   UNL     1     104.077 -61.672 108.124  1.00  0.00    -0.393 OA
ATOM     34  H   UNL     1     104.694 -62.327 108.548  1.00  0.00     0.210 HD
ENDBRANCH  27  33
TORSDOF 2
ENDMDL
MODEL 4
REMARK VINA RESULT:    -7.448      2.355      8.141
REMARK INTER + INTRA:          -8.186
REMARK INTER:                  -8.049
REMARK INTRA:                  -0.136
REMARK UNBOUND:                -0.085
REMARK SMILES CC1(C)CC[C@]2(C(=O)[O-])CC[C@]3(C)C(=CC[C@H]4[C@@]5(C)CC[C@@H](O)C(C)(C)[C@H]5CC[C@]43C)[C@@H]2C1
REMARK SMILES IDX 6 1 5 2 10 3 32 4 4 5 11 6 14 7 33 8 2 9 12 10 15 11 1 12
REMARK SMILES IDX 3 13 13 14 30 15 16 16 17 17 29 18 31 19 18 20 28 21 27 22
REMARK SMILES IDX 20 23 19 24 24 25 21 26 22 27 25 28 26 29 7 30 8 31 9 32
REMARK SMILES IDX 23 33
REMARK H PARENT 23 34
REMARK Flexibility Score: inf
ROOT
ATOM      1  C   UNL     1      90.502 -66.453 101.979  1.00  0.00     0.017 C 
ATOM      2  C   UNL     1      89.690 -65.616 100.950  1.00  0.00     0.014 C 
ATOM      3  C   UNL     1      90.393 -65.732 103.368  1.00  0.00     0.014 C 
ATOM      4  C   UNL     1      92.003 -66.613 101.484  1.00  0.00     0.028 C 
ATOM      5  C   UNL     1      89.748 -66.192  99.525  1.00  0.00     0.007 C 
ATOM      6  C   UNL     1      91.721 -65.669 104.124  1.00  0.00     0.013 C 
ATOM      7  C   UNL     1      92.942 -65.467 101.910  1.00  0.00    -0.064 C 
ATOM      8  C   UNL     1      92.075 -67.099  99.996  1.00  0.00     0.015 C 
ATOM      9  C   UNL     1      91.198 -66.297  98.990  1.00  0.00    -0.035 C 
ATOM     10  C   UNL     1      92.846 -64.898 103.335  1.00  0.00    -0.006 C 
ATOM     11  C   UNL     1      93.967 -65.051 101.133  1.00  0.00    -0.027 C 
ATOM     12  C   UNL     1      91.774 -64.888  98.704  1.00  0.00     0.011 C 
ATOM     13  C   UNL     1      91.175 -67.068  97.645  1.00  0.00     0.011 C 
ATOM     14  C   UNL     1      92.321 -63.432 103.146  1.00  0.00     0.017 C 
ATOM     15  C   UNL     1      94.303 -64.984 104.096  1.00  0.00    -0.020 C 
ATOM     16  C   UNL     1      95.127 -64.293 101.723  1.00  0.00     0.032 C 
ATOM     17  C   UNL     1      95.521 -64.939 103.076  1.00  0.00     0.006 C 
ATOM     18  C   UNL     1      94.423 -63.866 105.183  1.00  0.00     0.008 C 
ATOM     19  C   UNL     1      94.416 -66.372 104.827  1.00  0.00     0.012 C 
ATOM     20  C   UNL     1      97.002 -64.560 103.623  1.00  0.00    -0.025 C 
ATOM     21  C   UNL     1      95.829 -63.406 105.594  1.00  0.00     0.005 C 
ATOM     22  C   UNL     1      97.035 -64.289 105.183  1.00  0.00     0.003 C 
ATOM     23  C   UNL     1      97.578 -63.305 102.884  1.00  0.00     0.010 C 
ATOM     24  C   UNL     1      97.897 -65.793 103.281  1.00  0.00     0.012 C 
ATOM     25  C   UNL     1      98.423 -63.711 105.751  1.00  0.00    -0.006 C 
ATOM     26  C   UNL     1      98.947 -62.837 103.389  1.00  0.00     0.033 C 
ATOM     27  C   UNL     1      98.956 -62.523 104.887  1.00  0.00     0.120 C 
ATOM     28  C   UNL     1      98.266 -63.210 107.220  1.00  0.00     0.014 C 
ATOM     29  C   UNL     1      99.522 -64.825 105.827  1.00  0.00     0.014 C 
ENDROOT
BRANCH   1  30
ATOM     30  C   UNL     1      89.845 -67.826 102.138  1.00  0.00     0.048 C 
ATOM     31  O   UNL     1      90.535 -68.854 102.401  1.00  0.00    -0.550 OA
ATOM     32  O   UNL     1      88.462 -67.950 102.115  1.00  0.00    -0.550 OA
ENDBRANCH   1  30
BRANCH  27  33
ATOM     33  O   UNL     1      98.217 -61.343 105.121  1.00  0.00    -0.393 OA
ATOM     34  H   UNL     1      97.955 -60.977 104.235  1.00  0.00     0.210 HD
ENDBRANCH  27  33
TORSDOF 2
ENDMDL
MODEL 5
REMARK VINA RESULT:    -7.406      2.976      5.372
REMARK INTER + INTRA:          -8.140
REMARK INTER:                  -8.014
REMARK INTRA:                  -0.126
REMARK UNBOUND:                -0.085
REMARK SMILES CC1(C)CC[C@]2(C(=O)[O-])CC[C@]3(C)C(=CC[C@H]4[C@@]5(C)CC[C@@H](O)C(C)(C)[C@H]5CC[C@]43C)[C@@H]2C1
REMARK SMILES IDX 6 1 5 2 10 3 32 4 4 5 11 6 14 7 33 8 2 9 12 10 15 11 1 12
REMARK SMILES IDX 3 13 13 14 30 15 16 16 17 17 29 18 31 19 18 20 28 21 27 22
REMARK SMILES IDX 20 23 19 24 24 25 21 26 22 27 25 28 26 29 7 30 8 31 9 32
REMARK SMILES IDX 23 33
REMARK H PARENT 23 34
REMARK Flexibility Score: inf
ROOT
ATOM      1  C   UNL     1      98.418 -63.508 104.634  1.00  0.00     0.017 C 
ATOM      2  C   UNL     1      98.639 -63.109 106.121  1.00  0.00     0.014 C 
ATOM      3  C   UNL     1      97.459 -62.444 103.995  1.00  0.00     0.014 C 
ATOM      4  C   UNL     1      97.843 -64.986 104.549  1.00  0.00     0.028 C 
ATOM      5  C   UNL     1      99.533 -64.099 106.885  1.00  0.00     0.007 C 
ATOM      6  C   UNL     1      96.376 -63.060 103.108  1.00  0.00     0.013 C 
ATOM      7  C   UNL     1      96.307 -65.079 104.640  1.00  0.00    -0.064 C 
ATOM      8  C   UNL     1      98.686 -65.988 105.410  1.00  0.00     0.015 C 
ATOM      9  C   UNL     1      98.961 -65.538 106.876  1.00  0.00    -0.035 C 
ATOM     10  C   UNL     1      95.439 -64.063 103.882  1.00  0.00    -0.006 C 
ATOM     11  C   UNL     1      95.684 -66.127 105.225  1.00  0.00    -0.027 C 
ATOM     12  C   UNL     1      97.695 -65.624 107.763  1.00  0.00     0.011 C 
ATOM     13  C   UNL     1     100.018 -66.495 107.486  1.00  0.00     0.011 C 
ATOM     14  C   UNL     1      94.734 -63.224 105.003  1.00  0.00     0.017 C 
ATOM     15  C   UNL     1      94.389 -64.829 102.872  1.00  0.00    -0.020 C 
ATOM     16  C   UNL     1      94.247 -66.447 104.910  1.00  0.00     0.032 C 
ATOM     17  C   UNL     1      94.013 -66.286 103.386  1.00  0.00     0.006 C 
ATOM     18  C   UNL     1      93.113 -63.956 102.638  1.00  0.00     0.008 C 
ATOM     19  C   UNL     1      95.083 -65.040 101.477  1.00  0.00     0.012 C 
ATOM     20  C   UNL     1      92.683 -67.015 102.804  1.00  0.00    -0.025 C 
ATOM     21  C   UNL     1      91.815 -64.667 102.229  1.00  0.00     0.005 C 
ATOM     22  C   UNL     1      91.911 -66.135 101.737  1.00  0.00     0.003 C 
ATOM     23  C   UNL     1      91.691 -67.391 103.956  1.00  0.00     0.010 C 
ATOM     24  C   UNL     1      93.192 -68.331 102.136  1.00  0.00     0.012 C 
ATOM     25  C   UNL     1      90.482 -66.708 101.277  1.00  0.00    -0.006 C 
ATOM     26  C   UNL     1      90.376 -68.022 103.487  1.00  0.00     0.033 C 
ATOM     27  C   UNL     1      89.609 -67.140 102.499  1.00  0.00     0.120 C 
ATOM     28  C   UNL     1      89.684 -65.646 100.462  1.00  0.00     0.014 C 
ATOM     29  C   UNL     1      90.638 -67.924 100.302  1.00  0.00     0.014 C 
ENDROOT
BRANCH   1  30
ATOM     30  C   UNL     1      99.750 -63.412 103.886  1.00  0.00     0.048 C 
ATOM     31  O   UNL     1     100.064 -64.256 102.999  1.00  0.00    -0.550 OA
ATOM     32  O   UNL     1     100.590 -62.324 104.086  1.00  0.00    -0.550 OA
ENDBRANCH   1  30
BRANCH  27  33
ATOM     33  O   UNL     1      89.086 -66.019 103.181  1.00  0.00    -0.393 OA
ATOM     34  H   UNL     1      89.858 -65.509 103.546  1.00  0.00     0.210 HD
ENDBRANCH  27  33
TORSDOF 2
ENDMDL
MODEL 6
REMARK VINA RESULT:    -7.341      2.648      8.494
REMARK INTER + INTRA:          -8.069
REMARK INTER:                  -7.946
REMARK INTRA:                  -0.124
REMARK UNBOUND:                -0.085
REMARK SMILES CC1(C)CC[C@]2(C(=O)[O-])CC[C@]3(C)C(=CC[C@H]4[C@@]5(C)CC[C@@H](O)C(C)(C)[C@H]5CC[C@]43C)[C@@H]2C1
REMARK SMILES IDX 6 1 5 2 10 3 32 4 4 5 11 6 14 7 33 8 2 9 12 10 15 11 1 12
REMARK SMILES IDX 3 13 13 14 30 15 16 16 17 17 29 18 31 19 18 20 28 21 27 22
REMARK SMILES IDX 20 23 19 24 24 25 21 26 22 27 25 28 26 29 7 30 8 31 9 32
REMARK SMILES IDX 23 33
REMARK H PARENT 23 34
REMARK Flexibility Score: inf
ROOT
ATOM      1  C   UNL     1      92.253 -65.902 100.706  1.00  0.00     0.017 C 
ATOM      2  C   UNL     1      91.735 -67.350 100.935  1.00  0.00     0.014 C 
ATOM      3  C   UNL     1      93.675 -66.005 100.051  1.00  0.00     0.014 C 
ATOM      4  C   UNL     1      92.266 -65.106 102.081  1.00  0.00     0.028 C 
ATOM      5  C   UNL     1      90.358 -67.397 101.617  1.00  0.00     0.007 C 
ATOM      6  C   UNL     1      94.689 -65.028 100.647  1.00  0.00     0.013 C 
ATOM      7  C   UNL     1      93.559 -65.272 102.903  1.00  0.00    -0.064 C 
ATOM      8  C   UNL     1      90.900 -65.234 102.838  1.00  0.00     0.015 C 
ATOM      9  C   UNL     1      90.357 -66.686 102.994  1.00  0.00    -0.035 C 
ATOM     10  C   UNL     1      94.920 -65.242 102.191  1.00  0.00    -0.006 C 
ATOM     11  C   UNL     1      93.555 -65.274 104.255  1.00  0.00    -0.027 C 
ATOM     12  C   UNL     1      91.166 -67.506 104.028  1.00  0.00     0.011 C 
ATOM     13  C   UNL     1      88.896 -66.605 103.508  1.00  0.00     0.011 C 
ATOM     14  C   UNL     1      95.488 -66.695 102.350  1.00  0.00     0.017 C 
ATOM     15  C   UNL     1      95.890 -64.080 102.836  1.00  0.00    -0.020 C 
ATOM     16  C   UNL     1      94.808 -64.969 105.033  1.00  0.00     0.032 C 
ATOM     17  C   UNL     1      95.547 -63.785 104.360  1.00  0.00     0.006 C 
ATOM     18  C   UNL     1      97.398 -64.455 102.649  1.00  0.00     0.008 C 
ATOM     19  C   UNL     1      95.641 -62.726 102.077  1.00  0.00     0.012 C 
ATOM     20  C   UNL     1      96.644 -63.030 105.289  1.00  0.00    -0.025 C 
ATOM     21  C   UNL     1      98.419 -63.852 103.625  1.00  0.00     0.005 C 
ATOM     22  C   UNL     1      97.969 -62.657 104.505  1.00  0.00     0.003 C 
ATOM     23  C   UNL     1      97.027 -63.896 106.536  1.00  0.00     0.010 C 
ATOM     24  C   UNL     1      95.940 -61.727 105.786  1.00  0.00     0.012 C 
ATOM     25  C   UNL     1      99.171 -62.096 105.413  1.00  0.00    -0.006 C 
ATOM     26  C   UNL     1      98.110 -63.287 107.431  1.00  0.00     0.033 C 
ATOM     27  C   UNL     1      99.407 -62.982 106.678  1.00  0.00     0.120 C 
ATOM     28  C   UNL     1     100.505 -62.034 104.608  1.00  0.00     0.014 C 
ATOM     29  C   UNL     1      98.909 -60.618 105.862  1.00  0.00     0.014 C 
ENDROOT
BRANCH   1  30
ATOM     30  C   UNL     1      91.346 -65.199  99.693  1.00  0.00     0.048 C 
ATOM     31  O   UNL     1      91.235 -63.940  99.679  1.00  0.00    -0.550 OA
ATOM     32  O   UNL     1      90.719 -65.927  98.690  1.00  0.00    -0.550 OA
ENDBRANCH   1  30
BRANCH  27  33
ATOM     33  O   UNL     1     100.050 -64.195 106.345  1.00  0.00    -0.393 OA
ATOM     34  H   UNL     1     100.536 -64.504 107.156  1.00  0.00     0.210 HD
ENDBRANCH  27  33
TORSDOF 2
ENDMDL
MODEL 7
REMARK VINA RESULT:    -7.120      2.378      8.490
REMARK INTER + INTRA:          -7.829
REMARK INTER:                  -7.723
REMARK INTRA:                  -0.106
REMARK UNBOUND:                -0.085
REMARK SMILES CC1(C)CC[C@]2(C(=O)[O-])CC[C@]3(C)C(=CC[C@H]4[C@@]5(C)CC[C@@H](O)C(C)(C)[C@H]5CC[C@]43C)[C@@H]2C1
REMARK SMILES IDX 6 1 5 2 10 3 32 4 4 5 11 6 14 7 33 8 2 9 12 10 15 11 1 12
REMARK SMILES IDX 3 13 13 14 30 15 16 16 17 17 29 18 31 19 18 20 28 21 27 22
REMARK SMILES IDX 20 23 19 24 24 25 21 26 22 27 25 28 26 29 7 30 8 31 9 32
REMARK SMILES IDX 23 33
REMARK H PARENT 23 34
REMARK Flexibility Score: inf
ROOT
ATOM      1  C   UNL     1      90.872 -66.287 101.620  1.00  0.00     0.017 C 
ATOM      2  C   UNL     1      90.859 -66.944 100.211  1.00  0.00     0.014 C 
ATOM      3  C   UNL     1      91.045 -64.741 101.421  1.00  0.00     0.014 C 
ATOM      4  C   UNL     1      92.024 -66.926 102.506  1.00  0.00     0.028 C 
ATOM      5  C   UNL     1      90.737 -68.476 100.260  1.00  0.00     0.007 C 
ATOM      6  C   UNL     1      92.038 -64.111 102.398  1.00  0.00     0.013 C 
ATOM      7  C   UNL     1      93.400 -66.250 102.350  1.00  0.00    -0.064 C 
ATOM      8  C   UNL     1      91.975 -68.492 102.480  1.00  0.00     0.015 C 
ATOM      9  C   UNL     1      91.887 -69.133 101.063  1.00  0.00    -0.035 C 
ATOM     10  C   UNL     1      93.489 -64.717 102.282  1.00  0.00    -0.006 C 
ATOM     11  C   UNL     1      94.557 -66.944 102.440  1.00  0.00    -0.027 C 
ATOM     12  C   UNL     1      93.223 -69.023 100.287  1.00  0.00     0.011 C 
ATOM     13  C   UNL     1      91.574 -70.643 101.232  1.00  0.00     0.011 C 
ATOM     14  C   UNL     1      93.975 -64.408 100.824  1.00  0.00     0.017 C 
ATOM     15  C   UNL     1      94.493 -64.138 103.450  1.00  0.00    -0.020 C 
ATOM     16  C   UNL     1      95.855 -66.248 102.752  1.00  0.00     0.032 C 
ATOM     17  C   UNL     1      95.611 -65.192 103.860  1.00  0.00     0.006 C 
ATOM     18  C   UNL     1      95.123 -62.776 103.009  1.00  0.00     0.008 C 
ATOM     19  C   UNL     1      93.661 -63.875 104.757  1.00  0.00     0.012 C 
ATOM     20  C   UNL     1      96.941 -64.677 104.637  1.00  0.00    -0.025 C 
ATOM     21  C   UNL     1      96.460 -62.360 103.639  1.00  0.00     0.005 C 
ATOM     22  C   UNL     1      96.936 -63.116 104.907  1.00  0.00     0.003 C 
ATOM     23  C   UNL     1      98.241 -65.043 103.844  1.00  0.00     0.010 C 
ATOM     24  C   UNL     1      96.952 -65.448 105.995  1.00  0.00     0.012 C 
ATOM     25  C   UNL     1      98.309 -62.513 105.485  1.00  0.00    -0.006 C 
ATOM     26  C   UNL     1      99.541 -64.532 104.473  1.00  0.00     0.033 C 
ATOM     27  C   UNL     1      99.549 -63.016 104.679  1.00  0.00     0.120 C 
ATOM     28  C   UNL     1      98.302 -60.955 105.443  1.00  0.00     0.014 C 
ATOM     29  C   UNL     1      98.500 -62.869 106.998  1.00  0.00     0.014 C 
ENDROOT
BRANCH   1  30
ATOM     30  C   UNL     1      89.509 -66.500 102.284  1.00  0.00     0.048 C 
ATOM     31  O   UNL     1      89.378 -66.435 103.540  1.00  0.00    -0.550 OA
ATOM     32  O   UNL     1      88.366 -66.651 101.509  1.00  0.00    -0.550 OA
ENDBRANCH   1  30
BRANCH  27  33
ATOM     33  O   UNL     1      99.644 -62.375 103.424  1.00  0.00    -0.393 OA
ATOM     34  H   UNL     1     100.582 -62.065 103.319  1.00  0.00     0.210 HD
ENDBRANCH  27  33
TORSDOF 2
ENDMDL
MODEL 8
REMARK VINA RESULT:    -7.095      4.483      9.516
REMARK INTER + INTRA:          -7.803
REMARK INTER:                  -7.666
REMARK INTRA:                  -0.137
REMARK UNBOUND:                -0.085
REMARK SMILES CC1(C)CC[C@]2(C(=O)[O-])CC[C@]3(C)C(=CC[C@H]4[C@@]5(C)CC[C@@H](O)C(C)(C)[C@H]5CC[C@]43C)[C@@H]2C1
REMARK SMILES IDX 6 1 5 2 10 3 32 4 4 5 11 6 14 7 33 8 2 9 12 10 15 11 1 12
REMARK SMILES IDX 3 13 13 14 30 15 16 16 17 17 29 18 31 19 18 20 28 21 27 22
REMARK SMILES IDX 20 23 19 24 24 25 21 26 22 27 25 28 26 29 7 30 8 31 9 32
REMARK SMILES IDX 23 33
REMARK H PARENT 23 34
REMARK Flexibility Score: inf
ROOT
ATOM      1  C   UNL     1      93.821 -65.102 103.545  1.00  0.00     0.017 C 
ATOM      2  C   UNL     1      92.738 -64.150 104.126  1.00  0.00     0.014 C 
ATOM      3  C   UNL     1      94.402 -65.942 104.735  1.00  0.00     0.014 C 
ATOM      4  C   UNL     1      94.933 -64.260 102.785  1.00  0.00     0.028 C 
ATOM      5  C   UNL     1      92.111 -63.230 103.066  1.00  0.00     0.007 C 
ATOM      6  C   UNL     1      95.924 -66.080 104.694  1.00  0.00     0.013 C 
ATOM      7  C   UNL     1      96.080 -63.759 103.685  1.00  0.00    -0.064 C 
ATOM      8  C   UNL     1      94.301 -63.242 101.775  1.00  0.00     0.015 C 
ATOM      9  C   UNL     1      93.166 -62.346 102.354  1.00  0.00    -0.035 C 
ATOM     10  C   UNL     1      96.672 -64.693 104.751  1.00  0.00    -0.006 C 
ATOM     11  C   UNL     1      96.706 -62.581 103.462  1.00  0.00    -0.027 C 
ATOM     12  C   UNL     1      93.708 -61.265 103.320  1.00  0.00     0.011 C 
ATOM     13  C   UNL     1      92.480 -61.610 101.173  1.00  0.00     0.011 C 
ATOM     14  C   UNL     1      96.277 -64.040 106.121  1.00  0.00     0.017 C 
ATOM     15  C   UNL     1      98.296 -64.861 104.543  1.00  0.00    -0.020 C 
ATOM     16  C   UNL     1      98.080 -62.318 104.019  1.00  0.00     0.032 C 
ATOM     17  C   UNL     1      98.949 -63.589 103.848  1.00  0.00     0.006 C 
ATOM     18  C   UNL     1      98.994 -65.192 105.904  1.00  0.00     0.008 C 
ATOM     19  C   UNL     1      98.566 -66.062 103.566  1.00  0.00     0.012 C 
ATOM     20  C   UNL     1     100.552 -63.357 103.961  1.00  0.00    -0.025 C 
ATOM     21  C   UNL     1     100.479 -64.837 106.059  1.00  0.00     0.005 C 
ATOM     22  C   UNL     1     101.287 -64.498 104.780  1.00  0.00     0.003 C 
ATOM     23  C   UNL     1     100.882 -61.976 104.621  1.00  0.00     0.010 C 
ATOM     24  C   UNL     1     101.074 -63.343 102.489  1.00  0.00     0.012 C 
ATOM     25  C   UNL     1     102.837 -64.222 105.104  1.00  0.00    -0.006 C 
ATOM     26  C   UNL     1     102.376 -61.707 104.830  1.00  0.00     0.033 C 
ATOM     27  C   UNL     1     103.066 -62.784 105.669  1.00  0.00     0.120 C 
ATOM     28  C   UNL     1     103.386 -65.246 106.144  1.00  0.00     0.014 C 
ATOM     29  C   UNL     1     103.733 -64.425 103.835  1.00  0.00     0.014 C 
ENDROOT
BRANCH   1  30
ATOM     30  C   UNL     1      93.155 -66.092 102.586  1.00  0.00     0.048 C 
ATOM     31  O   UNL     1      93.775 -66.546 101.582  1.00  0.00    -0.550 OA
ATOM     32  O   UNL     1      91.894 -66.602 102.867  1.00  0.00    -0.550 OA
ENDBRANCH   1  30
BRANCH  27  33
ATOM     33  O   UNL     1     102.632 -62.682 107.009  1.00  0.00    -0.393 OA
ATOM     34  H   UNL     1     102.669 -61.720 107.259  1.00  0.00     0.210 HD
ENDBRANCH  27  33
TORSDOF 2
ENDMDL
MODEL 9
REMARK VINA RESULT:    -7.080      4.136      7.202
REMARK INTER + INTRA:          -7.786
REMARK INTER:                  -7.649
REMARK INTRA:                  -0.137
REMARK UNBOUND:                -0.085
REMARK SMILES CC1(C)CC[C@]2(C(=O)[O-])CC[C@]3(C)C(=CC[C@H]4[C@@]5(C)CC[C@@H](O)C(C)(C)[C@H]5CC[C@]43C)[C@@H]2C1
REMARK SMILES IDX 6 1 5 2 10 3 32 4 4 5 11 6 14 7 33 8 2 9 12 10 15 11 1 12
REMARK SMILES IDX 3 13 13 14 30 15 16 16 17 17 29 18 31 19 18 20 28 21 27 22
REMARK SMILES IDX 20 23 19 24 24 25 21 26 22 27 25 28 26 29 7 30 8 31 9 32
REMARK SMILES IDX 23 33
REMARK H PARENT 23 34
REMARK Flexibility Score: inf
ROOT
ATOM      1  C   UNL     1     100.630 -62.784 105.030  1.00  0.00     0.017 C 
ATOM      2  C   UNL     1     101.361 -63.192 106.340  1.00  0.00     0.014 C 
ATOM      3  C   UNL     1      99.483 -61.787 105.417  1.00  0.00     0.014 C 
ATOM      4  C   UNL     1     100.094 -64.079 104.282  1.00  0.00     0.028 C 
ATOM      5  C   UNL     1     102.491 -64.209 106.109  1.00  0.00     0.007 C 
ATOM      6  C   UNL     1      98.167 -62.064 104.689  1.00  0.00     0.013 C 
ATOM      7  C   UNL     1      98.695 -64.544 104.734  1.00  0.00    -0.064 C 
ATOM      8  C   UNL     1     101.210 -65.168 104.134  1.00  0.00     0.015 C 
ATOM      9  C   UNL     1     101.984 -65.512 105.441  1.00  0.00    -0.035 C 
ATOM     10  C   UNL     1      97.591 -63.503 104.978  1.00  0.00    -0.006 C 
ATOM     11  C   UNL     1      98.346 -65.850 104.763  1.00  0.00    -0.027 C 
ATOM     12  C   UNL     1     101.123 -66.330 106.434  1.00  0.00     0.011 C 
ATOM     13  C   UNL     1     103.210 -66.384 105.064  1.00  0.00     0.011 C 
ATOM     14  C   UNL     1      97.319 -63.562 106.521  1.00  0.00     0.017 C 
ATOM     15  C   UNL     1      96.266 -63.831 104.060  1.00  0.00    -0.020 C 
ATOM     16  C   UNL     1      96.899 -66.265 104.745  1.00  0.00     0.032 C 
ATOM     17  C   UNL     1      96.130 -65.381 103.730  1.00  0.00     0.006 C 
ATOM     18  C   UNL     1      94.972 -63.274 104.741  1.00  0.00     0.008 C 
ATOM     19  C   UNL     1      96.416 -63.115 102.668  1.00  0.00     0.012 C 
ATOM     20  C   UNL     1      94.696 -65.966 103.242  1.00  0.00    -0.025 C 
ATOM     21  C   UNL     1      93.629 -63.929 104.387  1.00  0.00     0.005 C 
ATOM     22  C   UNL     1      93.573 -64.853 103.142  1.00  0.00     0.003 C 
ATOM     23  C   UNL     1      94.191 -67.101 104.195  1.00  0.00     0.010 C 
ATOM     24  C   UNL     1      94.958 -66.581 101.831  1.00  0.00     0.012 C 
ATOM     25  C   UNL     1      92.087 -65.397 102.866  1.00  0.00    -0.006 C 
ATOM     26  C   UNL     1      92.809 -67.663 103.846  1.00  0.00     0.033 C 
ATOM     27  C   UNL     1      91.719 -66.589 103.807  1.00  0.00     0.120 C 
ATOM     28  C   UNL     1      91.027 -64.272 103.071  1.00  0.00     0.014 C 
ATOM     29  C   UNL     1      91.907 -65.845 101.375  1.00  0.00     0.014 C 
ENDROOT
BRANCH   1  30
ATOM     30  C   UNL     1     101.602 -62.016 104.131  1.00  0.00     0.048 C 
ATOM     31  O   UNL     1     101.513 -62.075 102.871  1.00  0.00    -0.550 OA
ATOM     32  O   UNL     1     102.530 -61.143 104.685  1.00  0.00    -0.550 OA
ENDBRANCH   1  30
BRANCH  27  33
ATOM     33  O   UNL     1      91.454 -66.145 105.121  1.00  0.00    -0.393 OA
ATOM     34  H   UNL     1      91.128 -65.208 105.057  1.00  0.00     0.210 HD
ENDBRANCH  27  33
TORSDOF 2
ENDMDL
