MODEL 1
REMARK VINA RESULT:    -9.264      0.000      0.000
REMARK INTER + INTRA:         -10.826
REMARK INTER:                 -11.160
REMARK INTRA:                   0.333
REMARK UNBOUND:                 0.333
REMARK SMILES O=c1c(O)c(-c2ccc(O)cc2O)oc2cc(O)cc(O)c12
REMARK SMILES IDX 5 1 3 2 2 3 1 4 22 5 20 6 19 7 17 8 16 9 15 10 14 11 6 12
REMARK SMILES IDX 8 13 7 14 9 15 11 16 12 17 10 18 13 20 4 22 21 24 18 26
REMARK H PARENT 10 19 13 21 4 23 21 25 18 27
REMARK Flexibility Score: inf
ROOT
ATOM      1  C   UNL     1     -42.302 -10.808   5.588  1.00  0.00     0.184 A 
ATOM      2  C   UNL     1     -43.658 -10.606   5.886  1.00  0.00     0.208 A 
ATOM      3  C   UNL     1     -44.574 -10.470   4.832  1.00  0.00     0.238 A 
ATOM      4  O   UNL     1     -45.776 -10.216   5.107  1.00  0.00    -0.285 OA
ATOM      5  C   UNL     1     -44.131 -10.594   3.493  1.00  0.00     0.111 A 
ATOM      6  C   UNL     1     -44.978 -10.519   2.346  1.00  0.00     0.134 A 
ATOM      7  C   UNL     1     -44.411 -10.549   1.065  1.00  0.00     0.093 A 
ATOM      8  C   UNL     1     -43.039 -10.718   0.889  1.00  0.00     0.123 A 
ATOM      9  C   UNL     1     -42.208 -10.848   2.001  1.00  0.00     0.094 A 
ATOM     10  C   UNL     1     -42.737 -10.783   3.292  1.00  0.00     0.146 A 
ATOM     11  O   UNL     1     -41.908 -10.890   4.323  1.00  0.00    -0.451 OA
ENDROOT
BRANCH   1  12
ATOM     12  C   UNL     1     -41.285 -10.952   6.651  1.00  0.00     0.063 A 
ATOM     13  C   UNL     1     -40.617 -10.551   8.952  1.00  0.00     0.047 A 
ATOM     14  C   UNL     1     -41.554 -10.426   7.924  1.00  0.00     0.020 A 
ATOM     15  C   UNL     1     -39.408 -11.214   8.728  1.00  0.00     0.119 A 
ATOM     16  C   UNL     1     -39.141 -11.763   7.466  1.00  0.00     0.093 A 
ATOM     17  C   UNL     1     -40.078 -11.648   6.430  1.00  0.00     0.130 A 
BRANCH  15  18
ATOM     18  O   UNL     1     -38.481 -11.326   9.762  1.00  0.00    -0.508 OA
ATOM     19  H   UNL     1     -37.548 -11.685   9.601  1.00  0.00     0.293 HD
ENDBRANCH  15  18
BRANCH  17  20
ATOM     20  O   UNL     1     -39.823 -12.240   5.193  1.00  0.00    -0.507 OA
ATOM     21  H   UNL     1     -39.729 -13.245   5.094  1.00  0.00     0.293 HD
ENDBRANCH  17  20
ENDBRANCH   1  12
BRANCH   2  22
ATOM     22  O   UNL     1     -44.081 -10.559   7.218  1.00  0.00    -0.502 OA
ATOM     23  H   UNL     1     -44.042 -11.367   7.829  1.00  0.00     0.293 HD
ENDBRANCH   2  22
BRANCH   6  24
ATOM     24  O   UNL     1     -46.372 -10.437   2.406  1.00  0.00    -0.507 OA
ATOM     25  H   UNL     1     -46.890  -9.873   3.063  1.00  0.00     0.293 HD
ENDBRANCH   6  24
BRANCH   8  26
ATOM     26  O   UNL     1     -42.513 -10.761  -0.401  1.00  0.00    -0.508 OA
ATOM     27  H   UNL     1     -41.530 -10.949  -0.566  1.00  0.00     0.293 HD
ENDBRANCH   8  26
TORSDOF 6
ENDMDL
MODEL 2
REMARK VINA RESULT:    -8.927      1.765      2.325
REMARK INTER + INTRA:         -10.421
REMARK INTER:                 -10.160
REMARK INTRA:                  -0.261
REMARK UNBOUND:                 0.333
REMARK SMILES O=c1c(O)c(-c2ccc(O)cc2O)oc2cc(O)cc(O)c12
REMARK SMILES IDX 5 1 3 2 2 3 1 4 22 5 20 6 19 7 17 8 16 9 15 10 14 11 6 12
REMARK SMILES IDX 8 13 7 14 9 15 11 16 12 17 10 18 13 20 4 22 21 24 18 26
REMARK H PARENT 10 19 13 21 4 23 21 25 18 27
REMARK Flexibility Score: inf
ROOT
ATOM      1  C   UNL     1     -41.650 -10.886   5.087  1.00  0.00     0.184 A 
ATOM      2  C   UNL     1     -42.030 -12.030   4.369  1.00  0.00     0.208 A 
ATOM      3  C   UNL     1     -42.709 -11.874   3.151  1.00  0.00     0.238 A 
ATOM      4  O   UNL     1     -43.111 -12.904   2.549  1.00  0.00    -0.285 OA
ATOM      5  C   UNL     1     -42.950 -10.576   2.640  1.00  0.00     0.111 A 
ATOM      6  C   UNL     1     -43.591 -10.299   1.394  1.00  0.00     0.134 A 
ATOM      7  C   UNL     1     -43.872  -8.973   1.041  1.00  0.00     0.093 A 
ATOM      8  C   UNL     1     -43.478  -7.912   1.855  1.00  0.00     0.123 A 
ATOM      9  C   UNL     1     -42.802  -8.168   3.049  1.00  0.00     0.094 A 
ATOM     10  C   UNL     1     -42.542  -9.480   3.447  1.00  0.00     0.146 A 
ATOM     11  O   UNL     1     -41.916  -9.680   4.601  1.00  0.00    -0.451 OA
ENDROOT
BRANCH   1  12
ATOM     12  C   UNL     1     -40.939 -10.980   6.379  1.00  0.00     0.063 A 
ATOM     13  C   UNL     1     -40.949 -10.635   8.785  1.00  0.00     0.047 A 
ATOM     14  C   UNL     1     -41.590 -10.554   7.547  1.00  0.00     0.020 A 
ATOM     15  C   UNL     1     -39.656 -11.156   8.876  1.00  0.00     0.119 A 
ATOM     16  C   UNL     1     -39.006 -11.606   7.719  1.00  0.00     0.093 A 
ATOM     17  C   UNL     1     -39.645 -11.534   6.473  1.00  0.00     0.130 A 
BRANCH  15  18
ATOM     18  O   UNL     1     -39.027 -11.226  10.117  1.00  0.00    -0.508 OA
ATOM     19  H   UNL     1     -38.087 -11.591  10.215  1.00  0.00     0.293 HD
ENDBRANCH  15  18
BRANCH  17  20
ATOM     20  O   UNL     1     -39.007 -12.030   5.336  1.00  0.00    -0.507 OA
ATOM     21  H   UNL     1     -38.004 -11.949   5.210  1.00  0.00     0.293 HD
ENDBRANCH  17  20
ENDBRANCH   1  12
BRANCH   2  22
ATOM     22  O   UNL     1     -41.716 -13.300   4.861  1.00  0.00    -0.502 OA
ATOM     23  H   UNL     1     -40.780 -13.687   4.807  1.00  0.00     0.293 HD
ENDBRANCH   2  22
BRANCH   6  24
ATOM     24  O   UNL     1     -43.949 -11.278   0.463  1.00  0.00    -0.507 OA
ATOM     25  H   UNL     1     -43.743 -12.262   0.551  1.00  0.00     0.293 HD
ENDBRANCH   6  24
BRANCH   8  26
ATOM     26  O   UNL     1     -43.758  -6.605   1.463  1.00  0.00    -0.508 OA
ATOM     27  H   UNL     1     -43.029  -5.981   1.136  1.00  0.00     0.293 HD
ENDBRANCH   8  26
TORSDOF 6
ENDMDL
MODEL 3
REMARK VINA RESULT:    -8.845      1.662      6.866
REMARK INTER + INTRA:         -10.322
REMARK INTER:                 -10.110
REMARK INTRA:                  -0.212
REMARK UNBOUND:                 0.333
REMARK SMILES O=c1c(O)c(-c2ccc(O)cc2O)oc2cc(O)cc(O)c12
REMARK SMILES IDX 5 1 3 2 2 3 1 4 22 5 20 6 19 7 17 8 16 9 15 10 14 11 6 12
REMARK SMILES IDX 8 13 7 14 9 15 11 16 12 17 10 18 13 20 4 22 21 24 18 26
REMARK H PARENT 10 19 13 21 4 23 21 25 18 27
REMARK Flexibility Score: inf
ROOT
ATOM      1  C   UNL     1     -42.818 -10.428   4.944  1.00  0.00     0.184 A 
ATOM      2  C   UNL     1     -41.953 -11.199   4.152  1.00  0.00     0.208 A 
ATOM      3  C   UNL     1     -40.767 -11.689   4.718  1.00  0.00     0.238 A 
ATOM      4  O   UNL     1     -39.962 -12.317   3.981  1.00  0.00    -0.285 OA
ATOM      5  C   UNL     1     -40.488 -11.450   6.085  1.00  0.00     0.111 A 
ATOM      6  C   UNL     1     -39.337 -11.936   6.777  1.00  0.00     0.134 A 
ATOM      7  C   UNL     1     -39.111 -11.546   8.103  1.00  0.00     0.093 A 
ATOM      8  C   UNL     1     -40.026 -10.743   8.783  1.00  0.00     0.123 A 
ATOM      9  C   UNL     1     -41.181 -10.306   8.134  1.00  0.00     0.094 A 
ATOM     10  C   UNL     1     -41.415 -10.646   6.801  1.00  0.00     0.146 A 
ATOM     11  O   UNL     1     -42.517 -10.192   6.215  1.00  0.00    -0.451 OA
ENDROOT
BRANCH   1  12
ATOM     12  C   UNL     1     -44.079  -9.876   4.407  1.00  0.00     0.063 A 
ATOM     13  C   UNL     1     -45.222  -8.622   2.667  1.00  0.00     0.047 A 
ATOM     14  C   UNL     1     -44.047  -9.152   3.205  1.00  0.00     0.020 A 
ATOM     15  C   UNL     1     -46.444  -8.820   3.313  1.00  0.00     0.119 A 
ATOM     16  C   UNL     1     -46.490  -9.561   4.502  1.00  0.00     0.093 A 
ATOM     17  C   UNL     1     -45.316 -10.102   5.046  1.00  0.00     0.130 A 
BRANCH  15  18
ATOM     18  O   UNL     1     -47.608  -8.281   2.767  1.00  0.00    -0.508 OA
ATOM     19  H   UNL     1     -47.814  -7.291   2.830  1.00  0.00     0.293 HD
ENDBRANCH  15  18
BRANCH  17  20
ATOM     20  O   UNL     1     -45.380 -10.878   6.203  1.00  0.00    -0.507 OA
ATOM     21  H   UNL     1     -44.559 -11.057   6.769  1.00  0.00     0.293 HD
ENDBRANCH  17  20
ENDBRANCH   1  12
BRANCH   2  22
ATOM     22  O   UNL     1     -42.288 -11.481   2.824  1.00  0.00    -0.502 OA
ATOM     23  H   UNL     1     -41.952 -10.921   2.048  1.00  0.00     0.293 HD
ENDBRANCH   2  22
BRANCH   6  24
ATOM     24  O   UNL     1     -38.403 -12.816   6.221  1.00  0.00    -0.507 OA
ATOM     25  H   UNL     1     -37.811 -12.607   5.432  1.00  0.00     0.293 HD
ENDBRANCH   6  24
BRANCH   8  26
ATOM     26  O   UNL     1     -39.777 -10.390  10.107  1.00  0.00    -0.508 OA
ATOM     27  H   UNL     1     -40.427 -10.625  10.850  1.00  0.00     0.293 HD
ENDBRANCH   8  26
TORSDOF 6
ENDMDL
MODEL 4
REMARK VINA RESULT:    -8.814      2.094      6.153
REMARK INTER + INTRA:         -10.284
REMARK INTER:                 -10.061
REMARK INTRA:                  -0.223
REMARK UNBOUND:                 0.333
REMARK SMILES O=c1c(O)c(-c2ccc(O)cc2O)oc2cc(O)cc(O)c12
REMARK SMILES IDX 5 1 3 2 2 3 1 4 22 5 20 6 19 7 17 8 16 9 15 10 14 11 6 12
REMARK SMILES IDX 8 13 7 14 9 15 11 16 12 17 10 18 13 20 4 22 21 24 18 26
REMARK H PARENT 10 19 13 21 4 23 21 25 18 27
REMARK Flexibility Score: inf
ROOT
ATOM      1  C   UNL     1     -43.331 -10.187   4.892  1.00  0.00     0.184 A 
ATOM      2  C   UNL     1     -42.854  -9.702   6.120  1.00  0.00     0.208 A 
ATOM      3  C   UNL     1     -41.706 -10.282   6.680  1.00  0.00     0.238 A 
ATOM      4  O   UNL     1     -41.327  -9.893   7.815  1.00  0.00    -0.285 OA
ATOM      5  C   UNL     1     -41.017 -11.301   5.978  1.00  0.00     0.111 A 
ATOM      6  C   UNL     1     -39.817 -11.930   6.429  1.00  0.00     0.134 A 
ATOM      7  C   UNL     1     -39.283 -13.001   5.702  1.00  0.00     0.093 A 
ATOM      8  C   UNL     1     -39.865 -13.423   4.508  1.00  0.00     0.123 A 
ATOM      9  C   UNL     1     -41.007 -12.780   4.029  1.00  0.00     0.094 A 
ATOM     10  C   UNL     1     -41.586 -11.735   4.751  1.00  0.00     0.146 A 
ATOM     11  O   UNL     1     -42.684 -11.164   4.269  1.00  0.00    -0.451 OA
ENDROOT
BRANCH   1  12
ATOM     12  C   UNL     1     -44.539  -9.625   4.251  1.00  0.00     0.063 A 
ATOM     13  C   UNL     1     -46.880  -8.995   4.426  1.00  0.00     0.047 A 
ATOM     14  C   UNL     1     -45.722  -9.527   5.000  1.00  0.00     0.020 A 
ATOM     15  C   UNL     1     -46.867  -8.542   3.105  1.00  0.00     0.119 A 
ATOM     16  C   UNL     1     -45.684  -8.615   2.357  1.00  0.00     0.093 A 
ATOM     17  C   UNL     1     -44.516  -9.141   2.927  1.00  0.00     0.130 A 
BRANCH  15  18
ATOM     18  O   UNL     1     -48.031  -8.019   2.545  1.00  0.00    -0.508 OA
ATOM     19  H   UNL     1     -48.405  -8.373   1.673  1.00  0.00     0.293 HD
ENDBRANCH  15  18
BRANCH  17  20
ATOM     20  O   UNL     1     -43.333  -9.164   2.189  1.00  0.00    -0.507 OA
ATOM     21  H   UNL     1     -42.566  -9.781   2.432  1.00  0.00     0.293 HD
ENDBRANCH  17  20
ENDBRANCH   1  12
BRANCH   2  22
ATOM     22  O   UNL     1     -43.512  -8.647   6.757  1.00  0.00    -0.502 OA
ATOM     23  H   UNL     1     -44.447  -8.353   6.497  1.00  0.00     0.293 HD
ENDBRANCH   2  22
BRANCH   6  24
ATOM     24  O   UNL     1     -39.102 -11.531   7.563  1.00  0.00    -0.507 OA
ATOM     25  H   UNL     1     -39.513 -11.146   8.399  1.00  0.00     0.293 HD
ENDBRANCH   6  24
BRANCH   8  26
ATOM     26  O   UNL     1     -39.296 -14.481   3.802  1.00  0.00    -0.508 OA
ATOM     27  H   UNL     1     -39.827 -15.009   3.118  1.00  0.00     0.293 HD
ENDBRANCH   8  26
TORSDOF 6
ENDMDL
MODEL 5
REMARK VINA RESULT:    -8.801      1.500      6.552
REMARK INTER + INTRA:         -10.269
REMARK INTER:                  -9.869
REMARK INTRA:                  -0.400
REMARK UNBOUND:                 0.333
REMARK SMILES O=c1c(O)c(-c2ccc(O)cc2O)oc2cc(O)cc(O)c12
REMARK SMILES IDX 5 1 3 2 2 3 1 4 22 5 20 6 19 7 17 8 16 9 15 10 14 11 6 12
REMARK SMILES IDX 8 13 7 14 9 15 11 16 12 17 10 18 13 20 4 22 21 24 18 26
REMARK H PARENT 10 19 13 21 4 23 21 25 18 27
REMARK Flexibility Score: inf
ROOT
ATOM      1  C   UNL     1     -41.776 -11.072   4.889  1.00  0.00     0.184 A 
ATOM      2  C   UNL     1     -42.403 -10.456   5.982  1.00  0.00     0.208 A 
ATOM      3  C   UNL     1     -41.758 -10.463   7.228  1.00  0.00     0.238 A 
ATOM      4  O   UNL     1     -42.359  -9.974   8.220  1.00  0.00    -0.285 OA
ATOM      5  C   UNL     1     -40.470 -11.037   7.352  1.00  0.00     0.111 A 
ATOM      6  C   UNL     1     -39.704 -11.062   8.557  1.00  0.00     0.134 A 
ATOM      7  C   UNL     1     -38.485 -11.753   8.587  1.00  0.00     0.093 A 
ATOM      8  C   UNL     1     -37.975 -12.362   7.442  1.00  0.00     0.123 A 
ATOM      9  C   UNL     1     -38.689 -12.298   6.245  1.00  0.00     0.094 A 
ATOM     10  C   UNL     1     -39.924 -11.650   6.193  1.00  0.00     0.146 A 
ATOM     11  O   UNL     1     -40.581 -11.630   5.038  1.00  0.00    -0.451 OA
ENDROOT
BRANCH   1  12
ATOM     12  C   UNL     1     -42.403 -11.107   3.551  1.00  0.00     0.063 A 
ATOM     13  C   UNL     1     -44.148 -11.972   2.097  1.00  0.00     0.047 A 
ATOM     14  C   UNL     1     -43.527 -11.922   3.348  1.00  0.00     0.020 A 
ATOM     15  C   UNL     1     -43.664 -11.200   1.039  1.00  0.00     0.119 A 
ATOM     16  C   UNL     1     -42.556 -10.365   1.238  1.00  0.00     0.093 A 
ATOM     17  C   UNL     1     -41.931 -10.303   2.492  1.00  0.00     0.130 A 
BRANCH  15  18
ATOM     18  O   UNL     1     -44.290 -11.264  -0.204  1.00  0.00    -0.508 OA
ATOM     19  H   UNL     1     -44.402 -10.442  -0.785  1.00  0.00     0.293 HD
ENDBRANCH  15  18
BRANCH  17  20
ATOM     20  O   UNL     1     -40.860  -9.433   2.692  1.00  0.00    -0.507 OA
ATOM     21  H   UNL     1     -40.044  -9.445   2.089  1.00  0.00     0.293 HD
ENDBRANCH  17  20
ENDBRANCH   1  12
BRANCH   2  22
ATOM     22  O   UNL     1     -43.643  -9.834   5.816  1.00  0.00    -0.502 OA
ATOM     23  H   UNL     1     -43.983  -9.122   6.453  1.00  0.00     0.293 HD
ENDBRANCH   2  22
BRANCH   6  24
ATOM     24  O   UNL     1     -40.077 -10.411   9.736  1.00  0.00    -0.507 OA
ATOM     25  H   UNL     1     -41.008 -10.083   9.945  1.00  0.00     0.293 HD
ENDBRANCH   6  24
BRANCH   8  26
ATOM     26  O   UNL     1     -36.751 -13.025   7.505  1.00  0.00    -0.508 OA
ATOM     27  H   UNL     1     -36.017 -12.849   6.828  1.00  0.00     0.293 HD
ENDBRANCH   8  26
TORSDOF 6
ENDMDL
MODEL 6
REMARK VINA RESULT:    -8.649      2.615      4.178
REMARK INTER + INTRA:         -10.085
REMARK INTER:                  -9.674
REMARK INTRA:                  -0.411
REMARK UNBOUND:                 0.333
REMARK SMILES O=c1c(O)c(-c2ccc(O)cc2O)oc2cc(O)cc(O)c12
REMARK SMILES IDX 5 1 3 2 2 3 1 4 22 5 20 6 19 7 17 8 16 9 15 10 14 11 6 12
REMARK SMILES IDX 8 13 7 14 9 15 11 16 12 17 10 18 13 20 4 22 21 24 18 26
REMARK H PARENT 10 19 13 21 4 23 21 25 18 27
REMARK Flexibility Score: inf
ROOT
ATOM      1  C   UNL     1     -42.629 -10.944   3.158  1.00  0.00     0.184 A 
ATOM      2  C   UNL     1     -42.690 -10.676   1.782  1.00  0.00     0.208 A 
ATOM      3  C   UNL     1     -43.793  -9.976   1.273  1.00  0.00     0.238 A 
ATOM      4  O   UNL     1     -43.877  -9.804   0.029  1.00  0.00    -0.285 OA
ATOM      5  C   UNL     1     -44.795  -9.504   2.155  1.00  0.00     0.111 A 
ATOM      6  C   UNL     1     -45.937  -8.744   1.756  1.00  0.00     0.134 A 
ATOM      7  C   UNL     1     -46.918  -8.423   2.703  1.00  0.00     0.093 A 
ATOM      8  C   UNL     1     -46.769  -8.774   4.043  1.00  0.00     0.123 A 
ATOM      9  C   UNL     1     -45.631  -9.469   4.455  1.00  0.00     0.094 A 
ATOM     10  C   UNL     1     -44.654  -9.838   3.528  1.00  0.00     0.146 A 
ATOM     11  O   UNL     1     -43.597 -10.517   3.959  1.00  0.00    -0.451 OA
ENDROOT
BRANCH   1  12
ATOM     12  C   UNL     1     -41.497 -11.683   3.757  1.00  0.00     0.063 A 
ATOM     13  C   UNL     1     -39.255 -11.643   4.694  1.00  0.00     0.047 A 
ATOM     14  C   UNL     1     -40.340 -10.977   4.119  1.00  0.00     0.020 A 
ATOM     15  C   UNL     1     -39.317 -13.019   4.926  1.00  0.00     0.119 A 
ATOM     16  C   UNL     1     -40.478 -13.729   4.589  1.00  0.00     0.093 A 
ATOM     17  C   UNL     1     -41.573 -13.067   4.018  1.00  0.00     0.130 A 
BRANCH  15  18
ATOM     18  O   UNL     1     -38.225 -13.671   5.495  1.00  0.00    -0.508 OA
ATOM     19  H   UNL     1     -38.300 -14.155   6.382  1.00  0.00     0.293 HD
ENDBRANCH  15  18
BRANCH  17  20
ATOM     20  O   UNL     1     -42.741 -13.775   3.732  1.00  0.00    -0.507 OA
ATOM     21  H   UNL     1     -43.658 -13.362   3.862  1.00  0.00     0.293 HD
ENDBRANCH  17  20
ENDBRANCH   1  12
BRANCH   2  22
ATOM     22  O   UNL     1     -41.651 -11.092   0.943  1.00  0.00    -0.502 OA
ATOM     23  H   UNL     1     -41.605 -12.029   0.559  1.00  0.00     0.293 HD
ENDBRANCH   2  22
BRANCH   6  24
ATOM     24  O   UNL     1     -46.145  -8.264   0.459  1.00  0.00    -0.507 OA
ATOM     25  H   UNL     1     -45.749  -7.414   0.088  1.00  0.00     0.293 HD
ENDBRANCH   6  24
BRANCH   8  26
ATOM     26  O   UNL     1     -47.757  -8.422   4.960  1.00  0.00    -0.508 OA
ATOM     27  H   UNL     1     -48.348  -9.121   5.398  1.00  0.00     0.293 HD
ENDBRANCH   8  26
TORSDOF 6
ENDMDL
MODEL 7
REMARK VINA RESULT:    -8.444      1.447      3.243
REMARK INTER + INTRA:          -9.838
REMARK INTER:                 -10.428
REMARK INTRA:                   0.590
REMARK UNBOUND:                 0.333
REMARK SMILES O=c1c(O)c(-c2ccc(O)cc2O)oc2cc(O)cc(O)c12
REMARK SMILES IDX 5 1 3 2 2 3 1 4 22 5 20 6 19 7 17 8 16 9 15 10 14 11 6 12
REMARK SMILES IDX 8 13 7 14 9 15 11 16 12 17 10 18 13 20 4 22 21 24 18 26
REMARK H PARENT 10 19 13 21 4 23 21 25 18 27
REMARK Flexibility Score: inf
ROOT
ATOM      1  C   UNL     1     -42.094 -11.098   5.333  1.00  0.00     0.184 A 
ATOM      2  C   UNL     1     -42.032 -11.727   4.080  1.00  0.00     0.208 A 
ATOM      3  C   UNL     1     -43.097 -11.561   3.182  1.00  0.00     0.238 A 
ATOM      4  O   UNL     1     -43.068 -12.187   2.090  1.00  0.00    -0.285 OA
ATOM      5  C   UNL     1     -44.186 -10.724   3.527  1.00  0.00     0.111 A 
ATOM      6  C   UNL     1     -45.300 -10.448   2.677  1.00  0.00     0.134 A 
ATOM      7  C   UNL     1     -46.371  -9.690   3.167  1.00  0.00     0.093 A 
ATOM      8  C   UNL     1     -46.340  -9.143   4.448  1.00  0.00     0.123 A 
ATOM      9  C   UNL     1     -45.232  -9.360   5.269  1.00  0.00     0.094 A 
ATOM     10  C   UNL     1     -44.166 -10.145   4.824  1.00  0.00     0.146 A 
ATOM     11  O   UNL     1     -43.141 -10.344   5.644  1.00  0.00    -0.451 OA
ENDROOT
BRANCH   1  12
ATOM     12  C   UNL     1     -41.010 -11.238   6.327  1.00  0.00     0.063 A 
ATOM     13  C   UNL     1     -38.765 -12.005   6.858  1.00  0.00     0.047 A 
ATOM     14  C   UNL     1     -39.813 -11.863   5.944  1.00  0.00     0.020 A 
ATOM     15  C   UNL     1     -38.894 -11.512   8.158  1.00  0.00     0.119 A 
ATOM     16  C   UNL     1     -40.076 -10.865   8.543  1.00  0.00     0.093 A 
ATOM     17  C   UNL     1     -41.130 -10.713   7.631  1.00  0.00     0.130 A 
BRANCH  15  18
ATOM     18  O   UNL     1     -37.842 -11.666   9.060  1.00  0.00    -0.508 OA
ATOM     19  H   UNL     1     -38.000 -11.975  10.011  1.00  0.00     0.293 HD
ENDBRANCH  15  18
BRANCH  17  20
ATOM     20  O   UNL     1     -42.283 -10.025   8.010  1.00  0.00    -0.507 OA
ATOM     21  H   UNL     1     -43.207 -10.355   7.753  1.00  0.00     0.293 HD
ENDBRANCH  17  20
ENDBRANCH   1  12
BRANCH   2  22
ATOM     22  O   UNL     1     -40.912 -12.490   3.736  1.00  0.00    -0.502 OA
ATOM     23  H   UNL     1     -39.966 -12.143   3.840  1.00  0.00     0.293 HD
ENDBRANCH   2  22
BRANCH   6  24
ATOM     24  O   UNL     1     -45.395 -10.871   1.348  1.00  0.00    -0.507 OA
ATOM     25  H   UNL     1     -46.258 -10.984   0.838  1.00  0.00     0.293 HD
ENDBRANCH   6  24
BRANCH   8  26
ATOM     26  O   UNL     1     -47.416  -8.378   4.895  1.00  0.00    -0.508 OA
ATOM     27  H   UNL     1     -48.087  -7.978   4.249  1.00  0.00     0.293 HD
ENDBRANCH   8  26
TORSDOF 6
ENDMDL
MODEL 8
REMARK VINA RESULT:    -8.412      2.148      2.685
REMARK INTER + INTRA:          -9.800
REMARK INTER:                  -9.369
REMARK INTRA:                  -0.431
REMARK UNBOUND:                 0.333
REMARK SMILES O=c1c(O)c(-c2ccc(O)cc2O)oc2cc(O)cc(O)c12
REMARK SMILES IDX 5 1 3 2 2 3 1 4 22 5 20 6 19 7 17 8 16 9 15 10 14 11 6 12
REMARK SMILES IDX 8 13 7 14 9 15 11 16 12 17 10 18 13 20 4 22 21 24 18 26
REMARK H PARENT 10 19 13 21 4 23 21 25 18 27
REMARK Flexibility Score: inf
ROOT
ATOM      1  C   UNL     1     -41.553 -11.245   4.630  1.00  0.00     0.184 A 
ATOM      2  C   UNL     1     -42.610 -12.128   4.364  1.00  0.00     0.208 A 
ATOM      3  C   UNL     1     -43.693 -11.679   3.593  1.00  0.00     0.238 A 
ATOM      4  O   UNL     1     -44.672 -12.452   3.421  1.00  0.00    -0.285 OA
ATOM      5  C   UNL     1     -43.679 -10.371   3.052  1.00  0.00     0.111 A 
ATOM      6  C   UNL     1     -44.703  -9.824   2.220  1.00  0.00     0.134 A 
ATOM      7  C   UNL     1     -44.632  -8.481   1.830  1.00  0.00     0.093 A 
ATOM      8  C   UNL     1     -43.546  -7.683   2.186  1.00  0.00     0.123 A 
ATOM      9  C   UNL     1     -42.513  -8.222   2.954  1.00  0.00     0.094 A 
ATOM     10  C   UNL     1     -42.573  -9.547   3.390  1.00  0.00     0.146 A 
ATOM     11  O   UNL     1     -41.578 -10.013   4.137  1.00  0.00    -0.451 OA
ENDROOT
BRANCH   1  12
ATOM     12  C   UNL     1     -40.386 -11.652   5.441  1.00  0.00     0.063 A 
ATOM     13  C   UNL     1     -38.250 -12.804   5.573  1.00  0.00     0.047 A 
ATOM     14  C   UNL     1     -39.370 -12.409   4.837  1.00  0.00     0.020 A 
ATOM     15  C   UNL     1     -38.124 -12.437   6.914  1.00  0.00     0.119 A 
ATOM     16  C   UNL     1     -39.122 -11.662   7.520  1.00  0.00     0.093 A 
ATOM     17  C   UNL     1     -40.246 -11.255   6.787  1.00  0.00     0.130 A 
BRANCH  15  18
ATOM     18  O   UNL     1     -37.004 -12.844   7.637  1.00  0.00    -0.508 OA
ATOM     19  H   UNL     1     -36.090 -12.910   7.206  1.00  0.00     0.293 HD
ENDBRANCH  15  18
BRANCH  17  20
ATOM     20  O   UNL     1     -41.209 -10.443   7.386  1.00  0.00    -0.507 OA
ATOM     21  H   UNL     1     -42.173 -10.442   7.072  1.00  0.00     0.293 HD
ENDBRANCH  17  20
ENDBRANCH   1  12
BRANCH   2  22
ATOM     22  O   UNL     1     -42.566 -13.438   4.850  1.00  0.00    -0.502 OA
ATOM     23  H   UNL     1     -42.999 -14.213   4.362  1.00  0.00     0.293 HD
ENDBRANCH   2  22
BRANCH   6  24
ATOM     24  O   UNL     1     -45.789 -10.556   1.731  1.00  0.00    -0.507 OA
ATOM     25  H   UNL     1     -46.329 -11.217   2.269  1.00  0.00     0.293 HD
ENDBRANCH   6  24
BRANCH   8  26
ATOM     26  O   UNL     1     -43.501  -6.356   1.766  1.00  0.00    -0.508 OA
ATOM     27  H   UNL     1     -42.654  -5.804   1.841  1.00  0.00     0.293 HD
ENDBRANCH   8  26
TORSDOF 6
ENDMDL
MODEL 9
REMARK VINA RESULT:    -7.907      1.674      6.409
REMARK INTER + INTRA:          -9.192
REMARK INTER:                  -8.779
REMARK INTRA:                  -0.413
REMARK UNBOUND:                 0.333
REMARK SMILES O=c1c(O)c(-c2ccc(O)cc2O)oc2cc(O)cc(O)c12
REMARK SMILES IDX 5 1 3 2 2 3 1 4 22 5 20 6 19 7 17 8 16 9 15 10 14 11 6 12
REMARK SMILES IDX 8 13 7 14 9 15 11 16 12 17 10 18 13 20 4 22 21 24 18 26
REMARK H PARENT 10 19 13 21 4 23 21 25 18 27
REMARK Flexibility Score: inf
ROOT
ATOM      1  C   UNL     1     -42.745 -10.158   4.811  1.00  0.00     0.184 A 
ATOM      2  C   UNL     1     -43.251  -9.888   6.091  1.00  0.00     0.208 A 
ATOM      3  C   UNL     1     -42.480 -10.227   7.213  1.00  0.00     0.238 A 
ATOM      4  O   UNL     1     -42.971 -10.049   8.358  1.00  0.00    -0.285 OA
ATOM      5  C   UNL     1     -41.189 -10.781   7.039  1.00  0.00     0.111 A 
ATOM      6  C   UNL     1     -40.301 -11.123   8.104  1.00  0.00     0.134 A 
ATOM      7  C   UNL     1     -39.090 -11.765   7.814  1.00  0.00     0.093 A 
ATOM      8  C   UNL     1     -38.705 -12.018   6.499  1.00  0.00     0.123 A 
ATOM      9  C   UNL     1     -39.540 -11.639   5.447  1.00  0.00     0.094 A 
ATOM     10  C   UNL     1     -40.771 -11.033   5.705  1.00  0.00     0.146 A 
ATOM     11  O   UNL     1     -41.545 -10.707   4.676  1.00  0.00    -0.451 OA
ENDROOT
BRANCH   1  12
ATOM     12  C   UNL     1     -43.509  -9.833   3.588  1.00  0.00     0.063 A 
ATOM     13  C   UNL     1     -44.038  -8.236   1.834  1.00  0.00     0.047 A 
ATOM     14  C   UNL     1     -43.336  -8.573   2.994  1.00  0.00     0.020 A 
ATOM     15  C   UNL     1     -44.909  -9.155   1.246  1.00  0.00     0.119 A 
ATOM     16  C   UNL     1     -45.072 -10.424   1.819  1.00  0.00     0.093 A 
ATOM     17  C   UNL     1     -44.366 -10.773   2.979  1.00  0.00     0.130 A 
BRANCH  15  18
ATOM     18  O   UNL     1     -45.606  -8.802   0.092  1.00  0.00    -0.508 OA
ATOM     19  H   UNL     1     -45.259  -8.092  -0.542  1.00  0.00     0.293 HD
ENDBRANCH  15  18
BRANCH  17  20
ATOM     20  O   UNL     1     -44.498 -12.055   3.513  1.00  0.00    -0.507 OA
ATOM     21  H   UNL     1     -44.012 -12.331   4.359  1.00  0.00     0.293 HD
ENDBRANCH  17  20
ENDBRANCH   1  12
BRANCH   2  22
ATOM     22  O   UNL     1     -44.499  -9.274   6.234  1.00  0.00    -0.502 OA
ATOM     23  H   UNL     1     -44.964  -9.190   7.131  1.00  0.00     0.293 HD
ENDBRANCH   2  22
BRANCH   6  24
ATOM     24  O   UNL     1     -40.546 -10.837   9.450  1.00  0.00    -0.507 OA
ATOM     25  H   UNL     1     -39.836 -10.756  10.162  1.00  0.00     0.293 HD
ENDBRANCH   6  24
BRANCH   8  26
ATOM     26  O   UNL     1     -37.485 -12.642   6.248  1.00  0.00    -0.508 OA
ATOM     27  H   UNL     1     -36.631 -12.339   6.703  1.00  0.00     0.293 HD
ENDBRANCH   8  26
TORSDOF 6
ENDMDL
