MODEL 1
REMARK VINA RESULT:    -3.990      0.000      0.000
REMARK INTER + INTRA:          -4.955
REMARK INTER:                  -4.690
REMARK INTRA:                  -0.264
REMARK UNBOUND:                -0.264
REMARK SMILES O=c1cc(-c2ccc(O)c(O)c2)oc2cc(O)cc(O)c12
REMARK SMILES IDX 4 1 3 2 2 3 1 4 21 5 19 6 18 7 16 8 15 9 14 10 13 11 5 12
REMARK SMILES IDX 6 13 7 14 8 15 12 16 10 17 9 18 11 20 20 22 17 24
REMARK H PARENT 9 19 11 21 20 23 17 25
REMARK Flexibility Score: inf
ROOT
ATOM      1  C   UNL     1     -31.406 -20.677 -33.880  1.00  0.00     0.138 A 
ATOM      2  C   UNL     1     -32.501 -19.965 -34.389  1.00  0.00     0.100 A 
ATOM      3  C   UNL     1     -33.111 -20.387 -35.571  1.00  0.00     0.197 A 
ATOM      4  O   UNL     1     -34.125 -19.759 -35.972  1.00  0.00    -0.289 OA
ATOM      5  C   UNL     1     -32.597 -21.508 -36.266  1.00  0.00     0.107 A 
ATOM      6  C   UNL     1     -33.115 -22.009 -37.499  1.00  0.00     0.134 A 
ATOM      7  C   UNL     1     -32.584 -23.186 -38.042  1.00  0.00     0.093 A 
ATOM      8  C   UNL     1     -31.518 -23.847 -37.429  1.00  0.00     0.123 A 
ATOM      9  C   UNL     1     -30.973 -23.339 -36.253  1.00  0.00     0.094 A 
ATOM     10  C   UNL     1     -31.501 -22.186 -35.667  1.00  0.00     0.146 A 
ATOM     11  O   UNL     1     -30.963 -21.746 -34.535  1.00  0.00    -0.456 OA
ENDROOT
BRANCH   1  12
ATOM     12  C   UNL     1     -30.718 -20.271 -32.628  1.00  0.00     0.021 A 
ATOM     13  C   UNL     1     -29.715 -19.283 -32.622  1.00  0.00     0.016 A 
ATOM     14  C   UNL     1     -29.091 -18.914 -31.426  1.00  0.00     0.051 A 
ATOM     15  C   UNL     1     -29.464 -19.519 -30.219  1.00  0.00     0.157 A 
ATOM     16  C   UNL     1     -31.096 -20.862 -31.409  1.00  0.00     0.062 A 
ATOM     17  C   UNL     1     -30.469 -20.492 -30.210  1.00  0.00     0.158 A 
BRANCH  15  18
ATOM     18  O   UNL     1     -28.844 -19.154 -29.026  1.00  0.00    -0.504 OA
ATOM     19  H   UNL     1     -28.844 -19.767 -28.219  1.00  0.00     0.293 HD
ENDBRANCH  15  18
BRANCH  17  20
ATOM     20  O   UNL     1     -30.841 -21.090 -29.007  1.00  0.00    -0.504 OA
ATOM     21  H   UNL     1     -30.945 -20.550 -28.156  1.00  0.00     0.293 HD
ENDBRANCH  17  20
ENDBRANCH   1  12
BRANCH   6  22
ATOM     22  O   UNL     1     -34.125 -21.383 -38.237  1.00  0.00    -0.507 OA
ATOM     23  H   UNL     1     -35.046 -21.760 -38.394  1.00  0.00     0.293 HD
ENDBRANCH   6  22
BRANCH   8  24
ATOM     24  O   UNL     1     -30.987 -25.009 -37.986  1.00  0.00    -0.508 OA
ATOM     25  H   UNL     1     -31.286 -25.346 -38.893  1.00  0.00     0.293 HD
ENDBRANCH   8  24
TORSDOF 5
ENDMDL
MODEL 2
REMARK VINA RESULT:    -3.851      1.636      7.336
REMARK INTER + INTRA:          -4.791
REMARK INTER:                  -4.505
REMARK INTRA:                  -0.286
REMARK UNBOUND:                -0.264
REMARK SMILES O=c1cc(-c2ccc(O)c(O)c2)oc2cc(O)cc(O)c12
REMARK SMILES IDX 4 1 3 2 2 3 1 4 21 5 19 6 18 7 16 8 15 9 14 10 13 11 5 12
REMARK SMILES IDX 6 13 7 14 8 15 12 16 10 17 9 18 11 20 20 22 17 24
REMARK H PARENT 9 19 11 21 20 23 17 25
REMARK Flexibility Score: inf
ROOT
ATOM      1  C   UNL     1     -31.238 -20.719 -33.992  1.00  0.00     0.138 A 
ATOM      2  C   UNL     1     -29.845 -20.593 -33.911  1.00  0.00     0.100 A 
ATOM      3  C   UNL     1     -29.263 -20.116 -32.735  1.00  0.00     0.197 A 
ATOM      4  O   UNL     1     -28.007 -20.066 -32.674  1.00  0.00    -0.289 OA
ATOM      5  C   UNL     1     -30.083 -19.729 -31.649  1.00  0.00     0.107 A 
ATOM      6  C   UNL     1     -29.604 -19.197 -30.415  1.00  0.00     0.134 A 
ATOM      7  C   UNL     1     -30.508 -18.942 -29.376  1.00  0.00     0.093 A 
ATOM      8  C   UNL     1     -31.879 -19.146 -29.546  1.00  0.00     0.123 A 
ATOM      9  C   UNL     1     -32.362 -19.618 -30.763  1.00  0.00     0.094 A 
ATOM     10  C   UNL     1     -31.484 -19.914 -31.808  1.00  0.00     0.146 A 
ATOM     11  O   UNL     1     -31.986 -20.380 -32.947  1.00  0.00    -0.456 OA
ENDROOT
BRANCH   1  12
ATOM     12  C   UNL     1     -31.911 -21.218 -35.219  1.00  0.00     0.021 A 
ATOM     13  C   UNL     1     -33.209 -20.802 -35.573  1.00  0.00     0.016 A 
ATOM     14  C   UNL     1     -33.814 -21.282 -36.739  1.00  0.00     0.051 A 
ATOM     15  C   UNL     1     -33.131 -22.176 -37.572  1.00  0.00     0.157 A 
ATOM     16  C   UNL     1     -31.228 -22.106 -36.070  1.00  0.00     0.062 A 
ATOM     17  C   UNL     1     -31.835 -22.586 -37.239  1.00  0.00     0.158 A 
BRANCH  15  18
ATOM     18  O   UNL     1     -33.731 -22.656 -38.735  1.00  0.00    -0.504 OA
ATOM     19  H   UNL     1     -33.180 -22.986 -39.518  1.00  0.00     0.293 HD
ENDBRANCH  15  18
BRANCH  17  20
ATOM     20  O   UNL     1     -31.156 -23.474 -38.072  1.00  0.00    -0.504 OA
ATOM     21  H   UNL     1     -30.956 -23.247 -39.039  1.00  0.00     0.293 HD
ENDBRANCH  17  20
ENDBRANCH   1  12
BRANCH   6  22
ATOM     22  O   UNL     1     -28.264 -18.880 -30.166  1.00  0.00    -0.507 OA
ATOM     23  H   UNL     1     -27.882 -18.649 -29.263  1.00  0.00     0.293 HD
ENDBRANCH   6  22
BRANCH   8  24
ATOM     24  O   UNL     1     -32.771 -18.875 -28.511  1.00  0.00    -0.508 OA
ATOM     25  H   UNL     1     -32.467 -18.835 -27.546  1.00  0.00     0.293 HD
ENDBRANCH   8  24
TORSDOF 5
ENDMDL
MODEL 3
REMARK VINA RESULT:    -3.306      1.054      1.678
REMARK INTER + INTRA:          -4.150
REMARK INTER:                  -3.870
REMARK INTRA:                  -0.280
REMARK UNBOUND:                -0.264
REMARK SMILES O=c1cc(-c2ccc(O)c(O)c2)oc2cc(O)cc(O)c12
REMARK SMILES IDX 4 1 3 2 2 3 1 4 21 5 19 6 18 7 16 8 15 9 14 10 13 11 5 12
REMARK SMILES IDX 6 13 7 14 8 15 12 16 10 17 9 18 11 20 20 22 17 24
REMARK H PARENT 9 19 11 21 20 23 17 25
REMARK Flexibility Score: inf
ROOT
ATOM      1  C   UNL     1     -31.972 -21.345 -33.884  1.00  0.00     0.138 A 
ATOM      2  C   UNL     1     -32.849 -20.341 -34.315  1.00  0.00     0.100 A 
ATOM      3  C   UNL     1     -33.295 -20.335 -35.637  1.00  0.00     0.197 A 
ATOM      4  O   UNL     1     -34.125 -19.452 -35.979  1.00  0.00    -0.289 OA
ATOM      5  C   UNL     1     -32.830 -21.318 -36.542  1.00  0.00     0.107 A 
ATOM      6  C   UNL     1     -33.188 -21.391 -37.922  1.00  0.00     0.134 A 
ATOM      7  C   UNL     1     -32.740 -22.469 -38.695  1.00  0.00     0.093 A 
ATOM      8  C   UNL     1     -31.901 -23.446 -38.155  1.00  0.00     0.123 A 
ATOM      9  C   UNL     1     -31.505 -23.358 -36.823  1.00  0.00     0.094 A 
ATOM     10  C   UNL     1     -31.962 -22.314 -36.015  1.00  0.00     0.146 A 
ATOM     11  O   UNL     1     -31.575 -22.277 -34.745  1.00  0.00    -0.456 OA
ENDROOT
BRANCH   1  12
ATOM     12  C   UNL     1     -31.464 -21.399 -32.489  1.00  0.00     0.021 A 
ATOM     13  C   UNL     1     -31.265 -22.622 -31.821  1.00  0.00     0.016 A 
ATOM     14  C   UNL     1     -30.777 -22.643 -30.511  1.00  0.00     0.051 A 
ATOM     15  C   UNL     1     -30.472 -21.446 -29.852  1.00  0.00     0.157 A 
ATOM     16  C   UNL     1     -31.141 -20.202 -31.824  1.00  0.00     0.062 A 
ATOM     17  C   UNL     1     -30.652 -20.224 -30.510  1.00  0.00     0.158 A 
BRANCH  15  18
ATOM     18  O   UNL     1     -29.986 -21.463 -28.546  1.00  0.00    -0.504 OA
ATOM     19  H   UNL     1     -30.414 -22.036 -27.829  1.00  0.00     0.293 HD
ENDBRANCH  15  18
BRANCH  17  20
ATOM     20  O   UNL     1     -30.344 -19.033 -29.853  1.00  0.00    -0.504 OA
ATOM     21  H   UNL     1     -29.437 -18.880 -29.429  1.00  0.00     0.293 HD
ENDBRANCH  17  20
ENDBRANCH   1  12
BRANCH   6  22
ATOM     22  O   UNL     1     -33.955 -20.426 -38.584  1.00  0.00    -0.507 OA
ATOM     23  H   UNL     1     -33.627 -19.841 -39.336  1.00  0.00     0.293 HD
ENDBRANCH   6  22
BRANCH   8  24
ATOM     24  O   UNL     1     -31.449 -24.507 -38.937  1.00  0.00    -0.508 OA
ATOM     25  H   UNL     1     -31.306 -24.407 -39.934  1.00  0.00     0.293 HD
ENDBRANCH   8  24
TORSDOF 5
ENDMDL
MODEL 4
REMARK VINA RESULT:    -1.683      1.541      6.948
REMARK INTER + INTRA:          -2.243
REMARK INTER:                  -1.946
REMARK INTRA:                  -0.297
REMARK UNBOUND:                -0.264
REMARK SMILES O=c1cc(-c2ccc(O)c(O)c2)oc2cc(O)cc(O)c12
REMARK SMILES IDX 4 1 3 2 2 3 1 4 21 5 19 6 18 7 16 8 15 9 14 10 13 11 5 12
REMARK SMILES IDX 6 13 7 14 8 15 12 16 10 17 9 18 11 20 20 22 17 24
REMARK H PARENT 9 19 11 21 20 23 17 25
REMARK Flexibility Score: inf
ROOT
ATOM      1  C   UNL     1     -31.661 -20.866 -34.123  1.00  0.00     0.138 A 
ATOM      2  C   UNL     1     -32.620 -20.548 -33.151  1.00  0.00     0.100 A 
ATOM      3  C   UNL     1     -32.218 -19.958 -31.952  1.00  0.00     0.197 A 
ATOM      4  O   UNL     1     -33.108 -19.635 -31.123  1.00  0.00    -0.289 OA
ATOM      5  C   UNL     1     -30.844 -19.719 -31.710  1.00  0.00     0.107 A 
ATOM      6  C   UNL     1     -30.314 -19.156 -30.511  1.00  0.00     0.134 A 
ATOM      7  C   UNL     1     -28.945 -18.876 -30.427  1.00  0.00     0.093 A 
ATOM      8  C   UNL     1     -28.078 -19.192 -31.475  1.00  0.00     0.123 A 
ATOM      9  C   UNL     1     -28.577 -19.788 -32.630  1.00  0.00     0.094 A 
ATOM     10  C   UNL     1     -29.943 -20.048 -32.759  1.00  0.00     0.146 A 
ATOM     11  O   UNL     1     -30.381 -20.601 -33.886  1.00  0.00    -0.456 OA
ENDROOT
BRANCH   1  12
ATOM     12  C   UNL     1     -32.032 -21.496 -35.416  1.00  0.00     0.021 A 
ATOM     13  C   UNL     1     -33.168 -21.087 -36.140  1.00  0.00     0.016 A 
ATOM     14  C   UNL     1     -33.487 -21.693 -37.359  1.00  0.00     0.051 A 
ATOM     15  C   UNL     1     -32.675 -22.708 -37.878  1.00  0.00     0.157 A 
ATOM     16  C   UNL     1     -31.214 -22.507 -35.952  1.00  0.00     0.062 A 
ATOM     17  C   UNL     1     -31.535 -23.114 -37.174  1.00  0.00     0.158 A 
BRANCH  15  18
ATOM     18  O   UNL     1     -32.991 -23.314 -39.093  1.00  0.00    -0.504 OA
ATOM     19  H   UNL     1     -32.646 -24.236 -39.330  1.00  0.00     0.293 HD
ENDBRANCH  15  18
BRANCH  17  20
ATOM     20  O   UNL     1     -30.726 -24.123 -37.695  1.00  0.00    -0.504 OA
ATOM     21  H   UNL     1     -30.019 -24.580 -37.131  1.00  0.00     0.293 HD
ENDBRANCH  17  20
ENDBRANCH   1  12
BRANCH   6  22
ATOM     22  O   UNL     1     -31.077 -18.875 -29.373  1.00  0.00    -0.507 OA
ATOM     23  H   UNL     1     -31.562 -19.561 -28.816  1.00  0.00     0.293 HD
ENDBRANCH   6  22
BRANCH   8  24
ATOM     24  O   UNL     1     -26.714 -18.923 -31.376  1.00  0.00    -0.508 OA
ATOM     25  H   UNL     1     -26.368 -18.125 -30.857  1.00  0.00     0.293 HD
ENDBRANCH   8  24
TORSDOF 5
ENDMDL
MODEL 5
REMARK VINA RESULT:    -1.141      1.526      2.924
REMARK INTER + INTRA:          -1.605
REMARK INTER:                  -1.312
REMARK INTRA:                  -0.293
REMARK UNBOUND:                -0.264
REMARK SMILES O=c1cc(-c2ccc(O)c(O)c2)oc2cc(O)cc(O)c12
REMARK SMILES IDX 4 1 3 2 2 3 1 4 21 5 19 6 18 7 16 8 15 9 14 10 13 11 5 12
REMARK SMILES IDX 6 13 7 14 8 15 12 16 10 17 9 18 11 20 20 22 17 24
REMARK H PARENT 9 19 11 21 20 23 17 25
REMARK Flexibility Score: inf
ROOT
ATOM      1  C   UNL     1     -31.834 -21.543 -34.283  1.00  0.00     0.138 A 
ATOM      2  C   UNL     1     -31.624 -22.832 -34.792  1.00  0.00     0.100 A 
ATOM      3  C   UNL     1     -31.976 -23.119 -36.111  1.00  0.00     0.197 A 
ATOM      4  O   UNL     1     -31.724 -24.270 -36.554  1.00  0.00    -0.289 OA
ATOM      5  C   UNL     1     -32.574 -22.119 -36.914  1.00  0.00     0.107 A 
ATOM      6  C   UNL     1     -33.006 -22.307 -38.262  1.00  0.00     0.134 A 
ATOM      7  C   UNL     1     -33.495 -21.214 -38.988  1.00  0.00     0.093 A 
ATOM      8  C   UNL     1     -33.623 -19.955 -38.398  1.00  0.00     0.123 A 
ATOM      9  C   UNL     1     -33.251 -19.772 -37.068  1.00  0.00     0.094 A 
ATOM     10  C   UNL     1     -32.728 -20.834 -36.327  1.00  0.00     0.146 A 
ATOM     11  O   UNL     1     -32.369 -20.612 -35.067  1.00  0.00    -0.456 OA
ENDROOT
BRANCH   1  12
ATOM     12  C   UNL     1     -31.482 -21.183 -32.886  1.00  0.00     0.021 A 
ATOM     13  C   UNL     1     -31.506 -19.849 -32.437  1.00  0.00     0.016 A 
ATOM     14  C   UNL     1     -31.178 -19.540 -31.113  1.00  0.00     0.051 A 
ATOM     15  C   UNL     1     -30.830 -20.558 -30.216  1.00  0.00     0.157 A 
ATOM     16  C   UNL     1     -31.144 -22.199 -31.974  1.00  0.00     0.062 A 
ATOM     17  C   UNL     1     -30.815 -21.889 -30.646  1.00  0.00     0.158 A 
BRANCH  15  18
ATOM     18  O   UNL     1     -30.502 -20.253 -28.896  1.00  0.00    -0.504 OA
ATOM     19  H   UNL     1     -30.930 -20.742 -28.118  1.00  0.00     0.293 HD
ENDBRANCH  15  18
BRANCH  17  20
ATOM     20  O   UNL     1     -30.472 -22.901 -29.751  1.00  0.00    -0.504 OA
ATOM     21  H   UNL     1     -30.760 -23.861 -29.898  1.00  0.00     0.293 HD
ENDBRANCH  17  20
ENDBRANCH   1  12
BRANCH   6  22
ATOM     22  O   UNL     1     -32.998 -23.539 -38.923  1.00  0.00    -0.507 OA
ATOM     23  H   UNL     1     -32.265 -23.864 -39.534  1.00  0.00     0.293 HD
ENDBRANCH   6  22
BRANCH   8  24
ATOM     24  O   UNL     1     -34.125 -18.877 -39.125  1.00  0.00    -0.508 OA
ATOM     25  H   UNL     1     -34.360 -17.999 -38.677  1.00  0.00     0.293 HD
ENDBRANCH   8  24
TORSDOF 5
ENDMDL
