MODEL 1
REMARK VINA RESULT:     5.545      0.000      0.000
REMARK INTER + INTRA:           8.202
REMARK INTER:                   7.652
REMARK INTRA:                   0.550
REMARK UNBOUND:                 0.550
REMARK SMILES CC[C@@H](CC[C@H](C)[C@@H]1CC[C@@H]2[C@H]3CC=C4C[C@H](O)CC[C@]4(C)[C@H]3CC[C@@]21C)C(C)C
REMARK SMILES IDX 5 1 4 2 3 3 2 4 1 5 28 6 29 7 30 8 6 9 7 10 8 11 9 12 26 13
REMARK SMILES IDX 10 14 11 15 25 16 27 17 12 18 24 19 23 20 13 21 21 22 14 23
REMARK SMILES IDX 15 24 20 25 22 26 16 27 19 28 17 29 18 30
REMARK H PARENT 18 31
REMARK Flexibility Score: inf
ROOT
ATOM      1  C   UNL     1     136.733 122.269 137.958  1.00  0.00     0.004 C 
ENDROOT
BRANCH   1   2
ATOM      2  C   UNL     1     137.514 123.582 138.178  1.00  0.00     0.004 C 
BRANCH   2   3
ATOM      3  C   UNL     1     138.886 123.369 138.890  1.00  0.00    -0.009 C 
BRANCH   3   4
ATOM      4  C   UNL     1     139.588 122.107 138.315  1.00  0.00     0.000 C 
ATOM      5  C   UNL     1     141.106 122.256 138.183  1.00  0.00     0.004 C 
ENDBRANCH   3   4
BRANCH   3   6
ATOM      6  C   UNL     1     138.762 123.342 140.448  1.00  0.00    -0.014 C 
ATOM      7  C   UNL     1     138.735 121.904 140.995  1.00  0.00     0.007 C 
ATOM      8  C   UNL     1     139.842 124.168 141.167  1.00  0.00     0.007 C 
ENDBRANCH   3   6
ENDBRANCH   2   3
ENDBRANCH   1   2
BRANCH   1   9
ATOM      9  C   UNL     1     135.212 122.386 138.247  1.00  0.00    -0.011 C 
ATOM     10  C   UNL     1     134.379 122.237 136.954  1.00  0.00     0.008 C 
BRANCH   9  11
ATOM     11  C   UNL     1     134.868 123.629 139.154  1.00  0.00    -0.002 C 
ATOM     12  C   UNL     1     135.738 124.859 138.829  1.00  0.00     0.005 C 
ATOM     13  C   UNL     1     134.782 123.526 140.723  1.00  0.00    -0.026 C 
ATOM     14  C   UNL     1     136.062 125.534 140.149  1.00  0.00     0.005 C 
ATOM     15  C   UNL     1     135.055 124.996 141.165  1.00  0.00    -0.001 C 
ATOM     16  C   UNL     1     135.842 122.574 141.336  1.00  0.00     0.007 C 
ATOM     17  C   UNL     1     133.359 123.065 141.139  1.00  0.00     0.012 C 
ATOM     18  C   UNL     1     135.533 125.243 142.631  1.00  0.00     0.000 C 
ATOM     19  C   UNL     1     136.072 122.783 142.841  1.00  0.00     0.005 C 
ATOM     20  C   UNL     1     136.587 124.217 143.121  1.00  0.00     0.003 C 
ATOM     21  C   UNL     1     134.343 125.322 143.603  1.00  0.00     0.031 C 
ATOM     22  C   UNL     1     137.065 124.510 144.610  1.00  0.00    -0.008 C 
ATOM     23  C   UNL     1     134.775 125.505 145.022  1.00  0.00    -0.027 C 
ATOM     24  C   UNL     1     135.948 125.054 145.507  1.00  0.00    -0.065 C 
ATOM     25  C   UNL     1     138.174 125.610 144.579  1.00  0.00     0.014 C 
ATOM     26  C   UNL     1     137.669 123.227 145.244  1.00  0.00     0.016 C 
ATOM     27  C   UNL     1     136.325 125.436 146.922  1.00  0.00     0.063 C 
ATOM     28  C   UNL     1     138.603 126.128 145.975  1.00  0.00     0.033 C 
ATOM     29  C   UNL     1     137.415 126.516 146.893  1.00  0.00     0.118 C 
BRANCH  29  30
ATOM     30  O   UNL     1     136.857 127.763 146.552  1.00  0.00    -0.393 OA
ATOM     31  H   UNL     1     136.614 127.752 145.592  1.00  0.00     0.210 HD
ENDBRANCH  29  30
ENDBRANCH   9  11
ENDBRANCH   1   9
TORSDOF 7
ENDMDL
MODEL 2
REMARK VINA RESULT:     6.737      2.657      7.422
REMARK INTER + INTRA:           9.848
REMARK INTER:                  10.437
REMARK INTRA:                  -0.589
REMARK UNBOUND:                 0.550
REMARK SMILES CC[C@@H](CC[C@H](C)[C@@H]1CC[C@@H]2[C@H]3CC=C4C[C@H](O)CC[C@]4(C)[C@H]3CC[C@@]21C)C(C)C
REMARK SMILES IDX 5 1 4 2 3 3 2 4 1 5 28 6 29 7 30 8 6 9 7 10 8 11 9 12 26 13
REMARK SMILES IDX 10 14 11 15 25 16 27 17 12 18 24 19 23 20 13 21 21 22 14 23
REMARK SMILES IDX 15 24 20 25 22 26 16 27 19 28 17 29 18 30
REMARK H PARENT 18 31
REMARK Flexibility Score: inf
ROOT
ATOM      1  C   UNL     1     136.230 126.950 145.291  1.00  0.00     0.004 C 
ENDROOT
BRANCH   1   2
ATOM      2  C   UNL     1     136.702 127.629 146.594  1.00  0.00     0.004 C 
BRANCH   2   3
ATOM      3  C   UNL     1     137.976 126.968 147.205  1.00  0.00    -0.009 C 
BRANCH   3   4
ATOM      4  C   UNL     1     138.837 126.337 146.075  1.00  0.00     0.000 C 
ATOM      5  C   UNL     1     140.272 126.868 146.028  1.00  0.00     0.004 C 
ENDBRANCH   3   4
BRANCH   3   6
ATOM      6  C   UNL     1     137.644 125.960 148.353  1.00  0.00    -0.014 C 
ATOM      7  C   UNL     1     138.030 124.518 147.978  1.00  0.00     0.007 C 
ATOM      8  C   UNL     1     138.259 126.343 149.709  1.00  0.00     0.007 C 
ENDBRANCH   3   6
ENDBRANCH   2   3
ENDBRANCH   1   2
BRANCH   1   9
ATOM      9  C   UNL     1     135.223 125.790 145.517  1.00  0.00    -0.011 C 
ATOM     10  C   UNL     1     134.899 125.608 147.017  1.00  0.00     0.008 C 
BRANCH   9  11
ATOM     11  C   UNL     1     135.627 124.483 144.732  1.00  0.00    -0.002 C 
ATOM     12  C   UNL     1     137.153 124.276 144.670  1.00  0.00     0.005 C 
ATOM     13  C   UNL     1     135.058 124.154 143.300  1.00  0.00    -0.026 C 
ATOM     14  C   UNL     1     137.471 123.730 143.290  1.00  0.00     0.005 C 
ATOM     15  C   UNL     1     136.153 123.206 142.722  1.00  0.00    -0.001 C 
ATOM     16  C   UNL     1     134.897 125.405 142.398  1.00  0.00     0.007 C 
ATOM     17  C   UNL     1     133.694 123.425 143.436  1.00  0.00     0.012 C 
ATOM     18  C   UNL     1     136.227 123.033 141.171  1.00  0.00     0.000 C 
ATOM     19  C   UNL     1     134.773 125.083 140.901  1.00  0.00     0.005 C 
ATOM     20  C   UNL     1     136.044 124.360 140.390  1.00  0.00     0.003 C 
ATOM     21  C   UNL     1     135.240 121.960 140.679  1.00  0.00     0.031 C 
ATOM     22  C   UNL     1     136.144 124.150 138.816  1.00  0.00    -0.008 C 
ATOM     23  C   UNL     1     135.252 121.812 139.192  1.00  0.00    -0.027 C 
ATOM     24  C   UNL     1     135.556 122.815 138.346  1.00  0.00    -0.065 C 
ATOM     25  C   UNL     1     137.651 124.132 138.402  1.00  0.00     0.014 C 
ATOM     26  C   UNL     1     135.448 125.322 138.071  1.00  0.00     0.016 C 
ATOM     27  C   UNL     1     135.673 122.491 136.873  1.00  0.00     0.063 C 
ATOM     28  C   UNL     1     137.904 123.751 136.921  1.00  0.00     0.033 C 
ATOM     29  C   UNL     1     137.152 122.474 136.464  1.00  0.00     0.118 C 
BRANCH  29  30
ATOM     30  O   UNL     1     137.771 121.293 136.921  1.00  0.00    -0.393 OA
ATOM     31  H   UNL     1     137.533 120.551 136.308  1.00  0.00     0.210 HD
ENDBRANCH  29  30
ENDBRANCH   9  11
ENDBRANCH   1   9
TORSDOF 7
ENDMDL
MODEL 3
REMARK VINA RESULT:     7.779      2.713      5.117
REMARK INTER + INTRA:          11.286
REMARK INTER:                  11.590
REMARK INTRA:                  -0.304
REMARK UNBOUND:                 0.550
REMARK SMILES CC[C@@H](CC[C@H](C)[C@@H]1CC[C@@H]2[C@H]3CC=C4C[C@H](O)CC[C@]4(C)[C@H]3CC[C@@]21C)C(C)C
REMARK SMILES IDX 5 1 4 2 3 3 2 4 1 5 28 6 29 7 30 8 6 9 7 10 8 11 9 12 26 13
REMARK SMILES IDX 10 14 11 15 25 16 27 17 12 18 24 19 23 20 13 21 21 22 14 23
REMARK SMILES IDX 15 24 20 25 22 26 16 27 19 28 17 29 18 30
REMARK H PARENT 18 31
REMARK Flexibility Score: inf
ROOT
ATOM      1  C   UNL     1     133.412 124.613 138.369  1.00  0.00     0.004 C 
ENDROOT
BRANCH   1   2
ATOM      2  C   UNL     1     132.980 125.642 137.303  1.00  0.00     0.004 C 
BRANCH   2   3
ATOM      3  C   UNL     1     131.436 125.855 137.244  1.00  0.00    -0.009 C 
BRANCH   3   4
ATOM      4  C   UNL     1     131.026 126.350 135.828  1.00  0.00     0.000 C 
ATOM      5  C   UNL     1     132.180 126.352 134.822  1.00  0.00     0.004 C 
ENDBRANCH   3   4
BRANCH   3   6
ATOM      6  C   UNL     1     130.909 126.780 138.389  1.00  0.00    -0.014 C 
ATOM      7  C   UNL     1     129.749 127.673 137.915  1.00  0.00     0.007 C 
ATOM      8  C   UNL     1     130.511 126.018 139.664  1.00  0.00     0.007 C 
ENDBRANCH   3   6
ENDBRANCH   2   3
ENDBRANCH   1   2
BRANCH   1   9
ATOM      9  C   UNL     1     134.452 123.578 137.859  1.00  0.00    -0.011 C 
ATOM     10  C   UNL     1     133.785 122.494 136.983  1.00  0.00     0.008 C 
BRANCH   9  11
ATOM     11  C   UNL     1     135.394 123.056 139.011  1.00  0.00    -0.002 C 
ATOM     12  C   UNL     1     134.771 121.891 139.804  1.00  0.00     0.005 C 
ATOM     13  C   UNL     1     136.055 124.027 140.060  1.00  0.00    -0.026 C 
ATOM     14  C   UNL     1     135.147 122.094 141.260  1.00  0.00     0.005 C 
ATOM     15  C   UNL     1     136.317 123.077 141.268  1.00  0.00    -0.001 C 
ATOM     16  C   UNL     1     135.129 125.197 140.486  1.00  0.00     0.007 C 
ATOM     17  C   UNL     1     137.383 124.591 139.486  1.00  0.00     0.012 C 
ATOM     18  C   UNL     1     136.514 123.721 142.678  1.00  0.00     0.000 C 
ATOM     19  C   UNL     1     135.554 125.885 141.793  1.00  0.00     0.005 C 
ATOM     20  C   UNL     1     135.529 124.881 142.972  1.00  0.00     0.003 C 
ATOM     21  C   UNL     1     137.972 124.164 142.893  1.00  0.00     0.031 C 
ATOM     22  C   UNL     1     135.745 125.501 144.421  1.00  0.00    -0.008 C 
ATOM     23  C   UNL     1     138.177 124.832 144.213  1.00  0.00    -0.027 C 
ATOM     24  C   UNL     1     137.215 125.520 144.857  1.00  0.00    -0.065 C 
ATOM     25  C   UNL     1     134.993 124.618 145.468  1.00  0.00     0.014 C 
ATOM     26  C   UNL     1     135.160 126.938 144.486  1.00  0.00     0.016 C 
ATOM     27  C   UNL     1     137.513 126.022 146.253  1.00  0.00     0.063 C 
ATOM     28  C   UNL     1     135.268 124.998 146.945  1.00  0.00     0.033 C 
ATOM     29  C   UNL     1     136.774 125.155 147.282  1.00  0.00     0.118 C 
BRANCH  29  30
ATOM     30  O   UNL     1     137.424 123.915 147.433  1.00  0.00    -0.393 OA
ATOM     31  H   UNL     1     137.544 123.507 146.538  1.00  0.00     0.210 HD
ENDBRANCH  29  30
ENDBRANCH   9  11
ENDBRANCH   1   9
TORSDOF 7
ENDMDL
