MODEL 1
REMARK VINA RESULT:     0.000      0.000      0.000
REMARK INTER + INTRA:          -5.914
REMARK INTER:                   0.000
REMARK INTRA:                  -5.914
REMARK UNBOUND:                -5.914
REMARK SMILES CCCCCCCCCCCCCCCCCCCCCCCC(=O)[O-]
REMARK SMILES IDX 13 1 14 2 15 3 16 4 17 5 18 6 19 7 20 8 21 9 22 10 23 11
REMARK SMILES IDX 24 12 25 13 26 14 12 15 11 16 10 17 9 18 8 19 7 20 6 21 5 22
REMARK SMILES IDX 4 23 3 24 2 25 1 26
REMARK H PARENT
REMARK Flexibility Score: inf
ROOT
ATOM      1  C   UNL     1     180.822 183.876 195.631  1.00  0.00     0.000 C 
ENDROOT
BRANCH   1   2
ATOM      2  C   UNL     1     180.204 182.597 195.050  1.00  0.00     0.000 C 
BRANCH   2   3
ATOM      3  C   UNL     1     180.854 181.316 195.598  1.00  0.00     0.000 C 
BRANCH   3   4
ATOM      4  C   UNL     1     181.499 181.495 196.990  1.00  0.00     0.000 C 
BRANCH   4   5
ATOM      5  C   UNL     1     182.970 181.046 197.014  1.00  0.00     0.000 C 
BRANCH   5   6
ATOM      6  C   UNL     1     183.681 181.302 195.667  1.00  0.00     0.000 C 
BRANCH   6   7
ATOM      7  C   UNL     1     184.411 182.655 195.603  1.00  0.00     0.000 C 
BRANCH   7   8
ATOM      8  C   UNL     1     184.234 183.366 194.255  1.00  0.00     0.000 C 
BRANCH   8   9
ATOM      9  C   UNL     1     183.579 182.434 193.224  1.00  0.00     0.000 C 
BRANCH   9  10
ATOM     10  C   UNL     1     182.603 183.173 192.289  1.00  0.00     0.006 C 
BRANCH  10  11
ATOM     11  C   UNL     1     182.638 184.704 192.418  1.00  0.00     0.053 C 
BRANCH  11  12
ATOM     12  C   UNL     1     181.338 185.330 192.011  1.00  0.00     0.041 C 
ATOM     13  O   UNL     1     180.338 184.608 191.758  1.00  0.00    -0.550 OA
ATOM     14  O   UNL     1     181.223 186.713 191.946  1.00  0.00    -0.550 OA
ENDBRANCH  11  12
ENDBRANCH  10  11
ENDBRANCH   9  10
ENDBRANCH   8   9
ENDBRANCH   7   8
ENDBRANCH   6   7
ENDBRANCH   5   6
ENDBRANCH   4   5
ENDBRANCH   3   4
ENDBRANCH   2   3
ENDBRANCH   1   2
BRANCH   1  15
ATOM     15  C   UNL     1     179.963 185.104 195.296  1.00  0.00     0.000 C 
BRANCH  15  16
ATOM     16  C   UNL     1     180.682 186.433 195.584  1.00  0.00     0.000 C 
BRANCH  16  17
ATOM     17  C   UNL     1     182.214 186.328 195.741  1.00  0.00     0.000 C 
BRANCH  17  18
ATOM     18  C   UNL     1     182.754 186.706 197.132  1.00  0.00    -0.000 C 
BRANCH  18  19
ATOM     19  C   UNL     1     183.803 185.714 197.655  1.00  0.00    -0.000 C 
BRANCH  19  20
ATOM     20  C   UNL     1     183.137 184.573 198.434  1.00  0.00    -0.000 C 
BRANCH  20  21
ATOM     21  C   UNL     1     182.092 185.117 199.418  1.00  0.00    -0.000 C 
BRANCH  21  22
ATOM     22  C   UNL     1     180.733 184.409 199.292  1.00  0.00    -0.000 C 
BRANCH  22  23
ATOM     23  C   UNL     1     179.576 185.388 199.040  1.00  0.00    -0.000 C 
BRANCH  23  24
ATOM     24  C   UNL     1     178.334 184.648 198.520  1.00  0.00    -0.000 C 
BRANCH  24  25
ATOM     25  C   UNL     1     178.523 183.124 198.490  1.00  0.00    -0.003 C 
ATOM     26  C   UNL     1     177.518 182.419 197.580  1.00  0.00     0.004 C 
ENDBRANCH  24  25
ENDBRANCH  23  24
ENDBRANCH  22  23
ENDBRANCH  21  22
ENDBRANCH  20  21
ENDBRANCH  19  20
ENDBRANCH  18  19
ENDBRANCH  17  18
ENDBRANCH  16  17
ENDBRANCH  15  16
ENDBRANCH   1  15
TORSDOF 22
ENDMDL
MODEL 2
REMARK VINA RESULT:     0.101      6.686      9.861
REMARK INTER + INTRA:          -5.683
REMARK INTER:                   0.000
REMARK INTRA:                  -5.683
REMARK UNBOUND:                -5.914
REMARK SMILES CCCCCCCCCCCCCCCCCCCCCCCC(=O)[O-]
REMARK SMILES IDX 13 1 14 2 15 3 16 4 17 5 18 6 19 7 20 8 21 9 22 10 23 11
REMARK SMILES IDX 24 12 25 13 26 14 12 15 11 16 10 17 9 18 8 19 7 20 6 21 5 22
REMARK SMILES IDX 4 23 3 24 2 25 1 26
REMARK H PARENT
REMARK Flexibility Score: inf
ROOT
ATOM      1  C   UNL     1     182.888 184.554 187.111  1.00  0.00     0.000 C 
ENDROOT
BRANCH   1   2
ATOM      2  C   UNL     1     181.702 184.766 188.062  1.00  0.00     0.000 C 
BRANCH   2   3
ATOM      3  C   UNL     1     180.728 183.576 188.078  1.00  0.00     0.000 C 
BRANCH   3   4
ATOM      4  C   UNL     1     181.076 182.477 187.051  1.00  0.00     0.000 C 
BRANCH   4   5
ATOM      5  C   UNL     1     180.600 181.085 187.502  1.00  0.00     0.000 C 
BRANCH   5   6
ATOM      6  C   UNL     1     181.500 179.955 186.954  1.00  0.00     0.000 C 
BRANCH   6   7
ATOM      7  C   UNL     1     182.242 180.330 185.660  1.00  0.00     0.000 C 
BRANCH   7   8
ATOM      8  C   UNL     1     183.516 179.504 185.441  1.00  0.00     0.000 C 
BRANCH   8   9
ATOM      9  C   UNL     1     184.681 180.399 184.992  1.00  0.00     0.000 C 
BRANCH   9  10
ATOM     10  C   UNL     1     184.394 181.898 185.198  1.00  0.00     0.006 C 
BRANCH  10  11
ATOM     11  C   UNL     1     184.844 182.796 184.035  1.00  0.00     0.053 C 
BRANCH  11  12
ATOM     12  C   UNL     1     183.749 183.710 183.576  1.00  0.00     0.041 C 
ATOM     13  O   UNL     1     184.028 184.809 183.029  1.00  0.00    -0.550 OA
ATOM     14  O   UNL     1     182.421 183.331 183.721  1.00  0.00    -0.550 OA
ENDBRANCH  11  12
ENDBRANCH  10  11
ENDBRANCH   9  10
ENDBRANCH   8   9
ENDBRANCH   7   8
ENDBRANCH   6   7
ENDBRANCH   5   6
ENDBRANCH   4   5
ENDBRANCH   3   4
ENDBRANCH   2   3
ENDBRANCH   1   2
BRANCH   1  15
ATOM     15  C   UNL     1     183.632 185.873 186.857  1.00  0.00     0.000 C 
BRANCH  15  16
ATOM     16  C   UNL     1     185.106 185.662 186.470  1.00  0.00     0.000 C 
BRANCH  16  17
ATOM     17  C   UNL     1     185.852 184.592 187.294  1.00  0.00     0.000 C 
BRANCH  17  18
ATOM     18  C   UNL     1     187.188 184.119 186.691  1.00  0.00    -0.000 C 
BRANCH  18  19
ATOM     19  C   UNL     1     187.509 182.655 187.026  1.00  0.00    -0.000 C 
BRANCH  19  20
ATOM     20  C   UNL     1     186.791 182.216 188.308  1.00  0.00    -0.000 C 
BRANCH  20  21
ATOM     21  C   UNL     1     186.473 180.713 188.272  1.00  0.00    -0.000 C 
BRANCH  21  22
ATOM     22  C   UNL     1     185.045 180.398 188.745  1.00  0.00    -0.000 C 
BRANCH  22  23
ATOM     23  C   UNL     1     184.178 181.658 188.889  1.00  0.00    -0.000 C 
BRANCH  23  24
ATOM     24  C   UNL     1     183.223 181.534 190.087  1.00  0.00    -0.000 C 
BRANCH  24  25
ATOM     25  C   UNL     1     183.165 182.816 190.931  1.00  0.00    -0.003 C 
ATOM     26  C   UNL     1     184.263 183.816 190.567  1.00  0.00     0.004 C 
ENDBRANCH  24  25
ENDBRANCH  23  24
ENDBRANCH  22  23
ENDBRANCH  21  22
ENDBRANCH  20  21
ENDBRANCH  19  20
ENDBRANCH  18  19
ENDBRANCH  17  18
ENDBRANCH  16  17
ENDBRANCH  15  16
ENDBRANCH   1  15
TORSDOF 22
ENDMDL
MODEL 3
REMARK VINA RESULT:     0.110      5.343      7.675
REMARK INTER + INTRA:          -5.663
REMARK INTER:                   0.000
REMARK INTRA:                  -5.663
REMARK UNBOUND:                -5.914
REMARK SMILES CCCCCCCCCCCCCCCCCCCCCCCC(=O)[O-]
REMARK SMILES IDX 13 1 14 2 15 3 16 4 17 5 18 6 19 7 20 8 21 9 22 10 23 11
REMARK SMILES IDX 24 12 25 13 26 14 12 15 11 16 10 17 9 18 8 19 7 20 6 21 5 22
REMARK SMILES IDX 4 23 3 24 2 25 1 26
REMARK H PARENT
REMARK Flexibility Score: inf
ROOT
ATOM      1  C   UNL     1     175.752 185.496 191.968  1.00  0.00     0.000 C 
ENDROOT
BRANCH   1   2
ATOM      2  C   UNL     1     174.292 185.621 191.512  1.00  0.00     0.000 C 
BRANCH   2   3
ATOM      3  C   UNL     1     173.929 187.041 191.046  1.00  0.00     0.000 C 
BRANCH   3   4
ATOM      4  C   UNL     1     174.974 187.667 190.097  1.00  0.00     0.000 C 
BRANCH   4   5
ATOM      5  C   UNL     1     175.553 188.980 190.651  1.00  0.00     0.000 C 
BRANCH   5   6
ATOM      6  C   UNL     1     177.097 188.976 190.667  1.00  0.00     0.000 C 
BRANCH   6   7
ATOM      7  C   UNL     1     177.721 187.945 189.712  1.00  0.00     0.000 C 
BRANCH   7   8
ATOM      8  C   UNL     1     178.798 187.082 190.384  1.00  0.00     0.000 C 
BRANCH   8   9
ATOM      9  C   UNL     1     178.800 185.658 189.807  1.00  0.00     0.000 C 
BRANCH   9  10
ATOM     10  C   UNL     1     177.669 185.427 188.787  1.00  0.00     0.006 C 
BRANCH  10  11
ATOM     11  C   UNL     1     177.109 183.996 188.776  1.00  0.00     0.053 C 
BRANCH  11  12
ATOM     12  C   UNL     1     175.631 183.975 188.526  1.00  0.00     0.041 C 
ATOM     13  O   UNL     1     174.914 183.075 189.038  1.00  0.00    -0.550 OA
ATOM     14  O   UNL     1     175.042 184.970 187.758  1.00  0.00    -0.550 OA
ENDBRANCH  11  12
ENDBRANCH  10  11
ENDBRANCH   9  10
ENDBRANCH   8   9
ENDBRANCH   7   8
ENDBRANCH   6   7
ENDBRANCH   5   6
ENDBRANCH   4   5
ENDBRANCH   3   4
ENDBRANCH   2   3
ENDBRANCH   1   2
BRANCH   1  15
ATOM     15  C   UNL     1     176.087 184.049 192.353  1.00  0.00     0.000 C 
BRANCH  15  16
ATOM     16  C   UNL     1     177.465 183.913 193.023  1.00  0.00     0.000 C 
BRANCH  16  17
ATOM     17  C   UNL     1     178.120 185.243 193.449  1.00  0.00     0.000 C 
BRANCH  17  18
ATOM     18  C   UNL     1     178.190 185.478 194.969  1.00  0.00    -0.000 C 
BRANCH  18  19
ATOM     19  C   UNL     1     177.706 186.877 195.380  1.00  0.00    -0.000 C 
BRANCH  19  20
ATOM     20  C   UNL     1     177.626 187.808 194.164  1.00  0.00    -0.000 C 
BRANCH  20  21
ATOM     21  C   UNL     1     176.535 188.872 194.358  1.00  0.00    -0.000 C 
BRANCH  21  22
ATOM     22  C   UNL     1     175.117 188.280 194.320  1.00  0.00    -0.000 C 
BRANCH  22  23
ATOM     23  C   UNL     1     174.368 188.452 195.650  1.00  0.00    -0.000 C 
BRANCH  23  24
ATOM     24  C   UNL     1     173.973 187.089 196.239  1.00  0.00    -0.000 C 
BRANCH  24  25
ATOM     25  C   UNL     1     174.021 185.960 195.198  1.00  0.00    -0.003 C 
ATOM     26  C   UNL     1     174.658 184.680 195.740  1.00  0.00     0.004 C 
ENDBRANCH  24  25
ENDBRANCH  23  24
ENDBRANCH  22  23
ENDBRANCH  21  22
ENDBRANCH  20  21
ENDBRANCH  19  20
ENDBRANCH  18  19
ENDBRANCH  17  18
ENDBRANCH  16  17
ENDBRANCH  15  16
ENDBRANCH   1  15
TORSDOF 22
ENDMDL
MODEL 4
REMARK VINA RESULT:     0.121      8.439     11.522
REMARK INTER + INTRA:          -5.637
REMARK INTER:                   0.000
REMARK INTRA:                  -5.637
REMARK UNBOUND:                -5.914
REMARK SMILES CCCCCCCCCCCCCCCCCCCCCCCC(=O)[O-]
REMARK SMILES IDX 13 1 14 2 15 3 16 4 17 5 18 6 19 7 20 8 21 9 22 10 23 11
REMARK SMILES IDX 24 12 25 13 26 14 12 15 11 16 10 17 9 18 8 19 7 20 6 21 5 22
REMARK SMILES IDX 4 23 3 24 2 25 1 26
REMARK H PARENT
REMARK Flexibility Score: inf
ROOT
ATOM      1  C   UNL     1     183.113 191.145 194.438  1.00  0.00     0.000 C 
ENDROOT
BRANCH   1   2
ATOM      2  C   UNL     1     184.395 190.304 194.496  1.00  0.00     0.000 C 
BRANCH   2   3
ATOM      3  C   UNL     1     184.690 189.572 193.175  1.00  0.00     0.000 C 
BRANCH   3   4
ATOM      4  C   UNL     1     185.906 190.139 192.411  1.00  0.00     0.000 C 
BRANCH   4   5
ATOM      5  C   UNL     1     186.682 191.179 193.238  1.00  0.00     0.000 C 
BRANCH   5   6
ATOM      6  C   UNL     1     186.788 192.539 192.514  1.00  0.00     0.000 C 
BRANCH   6   7
ATOM      7  C   UNL     1     186.179 192.535 191.102  1.00  0.00     0.000 C 
BRANCH   7   8
ATOM      8  C   UNL     1     185.729 193.928 190.641  1.00  0.00     0.000 C 
BRANCH   8   9
ATOM      9  C   UNL     1     185.592 193.984 189.112  1.00  0.00     0.000 C 
BRANCH   9  10
ATOM     10  C   UNL     1     186.912 193.667 188.384  1.00  0.00     0.006 C 
BRANCH  10  11
ATOM     11  C   UNL     1     187.996 194.745 188.537  1.00  0.00     0.053 C 
BRANCH  11  12
ATOM     12  C   UNL     1     189.207 194.224 189.249  1.00  0.00     0.041 C 
ATOM     13  O   UNL     1     189.250 194.220 190.508  1.00  0.00    -0.550 OA
ATOM     14  O   UNL     1     190.274 193.711 188.523  1.00  0.00    -0.550 OA
ENDBRANCH  11  12
ENDBRANCH  10  11
ENDBRANCH   9  10
ENDBRANCH   8   9
ENDBRANCH   7   8
ENDBRANCH   6   7
ENDBRANCH   5   6
ENDBRANCH   4   5
ENDBRANCH   3   4
ENDBRANCH   2   3
ENDBRANCH   1   2
BRANCH   1  15
ATOM     15  C   UNL     1     183.439 192.646 194.447  1.00  0.00     0.000 C 
BRANCH  15  16
ATOM     16  C   UNL     1     183.073 193.344 193.125  1.00  0.00     0.000 C 
BRANCH  16  17
ATOM     17  C   UNL     1     182.539 192.411 192.018  1.00  0.00     0.000 C 
BRANCH  17  18
ATOM     18  C   UNL     1     182.079 193.122 190.732  1.00  0.00    -0.000 C 
BRANCH  18  19
ATOM     19  C   UNL     1     182.263 192.260 189.475  1.00  0.00    -0.000 C 
BRANCH  19  20
ATOM     20  C   UNL     1     183.120 191.025 189.778  1.00  0.00    -0.000 C 
BRANCH  20  21
ATOM     21  C   UNL     1     184.031 190.683 188.590  1.00  0.00    -0.000 C 
BRANCH  21  22
ATOM     22  C   UNL     1     185.094 189.630 188.941  1.00  0.00    -0.000 C 
BRANCH  22  23
ATOM     23  C   UNL     1     186.455 189.921 188.289  1.00  0.00    -0.000 C 
BRANCH  23  24
ATOM     24  C   UNL     1     187.608 189.514 189.219  1.00  0.00    -0.000 C 
BRANCH  24  25
ATOM     25  C   UNL     1     188.734 190.558 189.255  1.00  0.00    -0.003 C 
ATOM     26  C   UNL     1     189.413 190.651 190.622  1.00  0.00     0.004 C 
ENDBRANCH  24  25
ENDBRANCH  23  24
ENDBRANCH  22  23
ENDBRANCH  21  22
ENDBRANCH  20  21
ENDBRANCH  19  20
ENDBRANCH  18  19
ENDBRANCH  17  18
ENDBRANCH  16  17
ENDBRANCH  15  16
ENDBRANCH   1  15
TORSDOF 22
ENDMDL
MODEL 5
REMARK VINA RESULT:     0.122      6.821      9.269
REMARK INTER + INTRA:          -5.635
REMARK INTER:                   0.000
REMARK INTRA:                  -5.635
REMARK UNBOUND:                -5.914
REMARK SMILES CCCCCCCCCCCCCCCCCCCCCCCC(=O)[O-]
REMARK SMILES IDX 13 1 14 2 15 3 16 4 17 5 18 6 19 7 20 8 21 9 22 10 23 11
REMARK SMILES IDX 24 12 25 13 26 14 12 15 11 16 10 17 9 18 8 19 7 20 6 21 5 22
REMARK SMILES IDX 4 23 3 24 2 25 1 26
REMARK H PARENT
REMARK Flexibility Score: inf
ROOT
ATOM      1  C   UNL     1     178.035 185.966 189.143  1.00  0.00     0.000 C 
ENDROOT
BRANCH   1   2
ATOM      2  C   UNL     1     179.263 185.450 189.905  1.00  0.00     0.000 C 
BRANCH   2   3
ATOM      3  C   UNL     1     180.342 186.529 190.101  1.00  0.00     0.000 C 
BRANCH   3   4
ATOM      4  C   UNL     1     181.754 186.078 189.668  1.00  0.00     0.000 C 
BRANCH   4   5
ATOM      5  C   UNL     1     181.842 184.556 189.457  1.00  0.00     0.000 C 
BRANCH   5   6
ATOM      6  C   UNL     1     182.213 184.189 188.004  1.00  0.00     0.000 C 
BRANCH   6   7
ATOM      7  C   UNL     1     182.318 185.405 187.068  1.00  0.00     0.000 C 
BRANCH   7   8
ATOM      8  C   UNL     1     181.198 185.452 186.021  1.00  0.00     0.000 C 
BRANCH   8   9
ATOM      9  C   UNL     1     180.318 186.696 186.213  1.00  0.00     0.000 C 
BRANCH   9  10
ATOM     10  C   UNL     1     179.039 186.660 185.354  1.00  0.00     0.006 C 
BRANCH  10  11
ATOM     11  C   UNL     1     178.982 185.497 184.351  1.00  0.00     0.053 C 
BRANCH  11  12
ATOM     12  C   UNL     1     177.593 185.269 183.837  1.00  0.00     0.041 C 
ATOM     13  O   UNL     1     176.850 186.247 183.560  1.00  0.00    -0.550 OA
ATOM     14  O   UNL     1     177.132 183.975 183.630  1.00  0.00    -0.550 OA
ENDBRANCH  11  12
ENDBRANCH  10  11
ENDBRANCH   9  10
ENDBRANCH   8   9
ENDBRANCH   7   8
ENDBRANCH   6   7
ENDBRANCH   5   6
ENDBRANCH   4   5
ENDBRANCH   3   4
ENDBRANCH   2   3
ENDBRANCH   1   2
BRANCH   1  15
ATOM     15  C   UNL     1     177.523 184.914 188.148  1.00  0.00     0.000 C 
BRANCH  15  16
ATOM     16  C   UNL     1     178.551 183.803 187.872  1.00  0.00     0.000 C 
BRANCH  16  17
ATOM     17  C   UNL     1     178.117 182.756 186.825  1.00  0.00     0.000 C 
BRANCH  17  18
ATOM     18  C   UNL     1     179.262 182.160 185.985  1.00  0.00    -0.000 C 
BRANCH  18  19
ATOM     19  C   UNL     1     180.267 181.361 186.828  1.00  0.00    -0.000 C 
BRANCH  19  20
ATOM     20  C   UNL     1     179.659 180.032 187.290  1.00  0.00    -0.000 C 
BRANCH  20  21
ATOM     21  C   UNL     1     179.727 179.899 188.819  1.00  0.00    -0.000 C 
BRANCH  21  22
ATOM     22  C   UNL     1     180.544 181.024 189.476  1.00  0.00    -0.000 C 
BRANCH  22  23
ATOM     23  C   UNL     1     179.790 181.707 190.627  1.00  0.00    -0.000 C 
BRANCH  23  24
ATOM     24  C   UNL     1     178.302 181.321 190.616  1.00  0.00    -0.000 C 
BRANCH  24  25
ATOM     25  C   UNL     1     177.396 182.449 191.133  1.00  0.00    -0.003 C 
ATOM     26  C   UNL     1     176.012 182.441 190.484  1.00  0.00     0.004 C 
ENDBRANCH  24  25
ENDBRANCH  23  24
ENDBRANCH  22  23
ENDBRANCH  21  22
ENDBRANCH  20  21
ENDBRANCH  19  20
ENDBRANCH  18  19
ENDBRANCH  17  18
ENDBRANCH  16  17
ENDBRANCH  15  16
ENDBRANCH   1  15
TORSDOF 22
ENDMDL
MODEL 6
REMARK VINA RESULT:     0.125      4.849      7.545
REMARK INTER + INTRA:          -5.629
REMARK INTER:                   0.000
REMARK INTRA:                  -5.629
REMARK UNBOUND:                -5.914
REMARK SMILES CCCCCCCCCCCCCCCCCCCCCCCC(=O)[O-]
REMARK SMILES IDX 13 1 14 2 15 3 16 4 17 5 18 6 19 7 20 8 21 9 22 10 23 11
REMARK SMILES IDX 24 12 25 13 26 14 12 15 11 16 10 17 9 18 8 19 7 20 6 21 5 22
REMARK SMILES IDX 4 23 3 24 2 25 1 26
REMARK H PARENT
REMARK Flexibility Score: inf
ROOT
ATOM      1  C   UNL     1     184.292 186.007 187.973  1.00  0.00     0.000 C 
ENDROOT
BRANCH   1   2
ATOM      2  C   UNL     1     183.777 186.803 189.180  1.00  0.00     0.000 C 
BRANCH   2   3
ATOM      3  C   UNL     1     184.681 187.994 189.542  1.00  0.00     0.000 C 
BRANCH   3   4
ATOM      4  C   UNL     1     184.318 188.661 190.886  1.00  0.00     0.000 C 
BRANCH   4   5
ATOM      5  C   UNL     1     185.543 188.836 191.801  1.00  0.00     0.000 C 
BRANCH   5   6
ATOM      6  C   UNL     1     186.762 188.029 191.304  1.00  0.00     0.000 C 
BRANCH   6   7
ATOM      7  C   UNL     1     187.450 187.208 192.408  1.00  0.00     0.000 C 
BRANCH   7   8
ATOM      8  C   UNL     1     187.585 185.722 192.051  1.00  0.00     0.000 C 
BRANCH   8   9
ATOM      9  C   UNL     1     187.050 185.445 190.638  1.00  0.00     0.000 C 
BRANCH   9  10
ATOM     10  C   UNL     1     186.296 184.106 190.538  1.00  0.00     0.006 C 
BRANCH  10  11
ATOM     11  C   UNL     1     186.881 183.124 189.510  1.00  0.00     0.053 C 
BRANCH  11  12
ATOM     12  C   UNL     1     187.605 181.989 190.169  1.00  0.00     0.041 C 
ATOM     13  O   UNL     1     188.347 182.202 191.164  1.00  0.00    -0.550 OA
ATOM     14  O   UNL     1     187.432 180.692 189.705  1.00  0.00    -0.550 OA
ENDBRANCH  11  12
ENDBRANCH  10  11
ENDBRANCH   9  10
ENDBRANCH   8   9
ENDBRANCH   7   8
ENDBRANCH   6   7
ENDBRANCH   5   6
ENDBRANCH   4   5
ENDBRANCH   3   4
ENDBRANCH   2   3
ENDBRANCH   1   2
BRANCH   1  15
ATOM     15  C   UNL     1     183.727 184.579 187.974  1.00  0.00     0.000 C 
BRANCH  15  16
ATOM     16  C   UNL     1     182.574 184.394 188.976  1.00  0.00     0.000 C 
BRANCH  16  17
ATOM     17  C   UNL     1     182.747 183.221 189.963  1.00  0.00     0.000 C 
BRANCH  17  18
ATOM     18  C   UNL     1     182.675 183.605 191.452  1.00  0.00    -0.000 C 
BRANCH  18  19
ATOM     19  C   UNL     1     181.693 184.753 191.726  1.00  0.00    -0.000 C 
BRANCH  19  20
ATOM     20  C   UNL     1     182.379 185.890 192.494  1.00  0.00    -0.000 C 
BRANCH  20  21
ATOM     21  C   UNL     1     183.862 185.574 192.734  1.00  0.00    -0.000 C 
BRANCH  21  22
ATOM     22  C   UNL     1     184.367 186.090 194.091  1.00  0.00    -0.000 C 
BRANCH  22  23
ATOM     23  C   UNL     1     185.222 185.054 194.838  1.00  0.00    -0.000 C 
BRANCH  23  24
ATOM     24  C   UNL     1     184.758 183.624 194.515  1.00  0.00    -0.000 C 
BRANCH  24  25
ATOM     25  C   UNL     1     185.884 182.756 193.934  1.00  0.00    -0.003 C 
ATOM     26  C   UNL     1     185.359 181.569 193.125  1.00  0.00     0.004 C 
ENDBRANCH  24  25
ENDBRANCH  23  24
ENDBRANCH  22  23
ENDBRANCH  21  22
ENDBRANCH  20  21
ENDBRANCH  19  20
ENDBRANCH  18  19
ENDBRANCH  17  18
ENDBRANCH  16  17
ENDBRANCH  15  16
ENDBRANCH   1  15
TORSDOF 22
ENDMDL
MODEL 7
REMARK VINA RESULT:     0.129      9.370     12.015
REMARK INTER + INTRA:          -5.619
REMARK INTER:                   0.000
REMARK INTRA:                  -5.619
REMARK UNBOUND:                -5.914
REMARK SMILES CCCCCCCCCCCCCCCCCCCCCCCC(=O)[O-]
REMARK SMILES IDX 13 1 14 2 15 3 16 4 17 5 18 6 19 7 20 8 21 9 22 10 23 11
REMARK SMILES IDX 24 12 25 13 26 14 12 15 11 16 10 17 9 18 8 19 7 20 6 21 5 22
REMARK SMILES IDX 4 23 3 24 2 25 1 26
REMARK H PARENT
REMARK Flexibility Score: inf
ROOT
ATOM      1  C   UNL     1     181.179 190.773 189.645  1.00  0.00     0.000 C 
ENDROOT
BRANCH   1   2
ATOM      2  C   UNL     1     180.914 191.508 190.965  1.00  0.00     0.000 C 
BRANCH   2   3
ATOM      3  C   UNL     1     179.746 192.505 190.871  1.00  0.00     0.000 C 
BRANCH   3   4
ATOM      4  C   UNL     1     179.964 193.792 191.696  1.00  0.00     0.000 C 
BRANCH   4   5
ATOM      5  C   UNL     1     180.472 194.960 190.832  1.00  0.00     0.000 C 
BRANCH   5   6
ATOM      6  C   UNL     1     180.006 194.846 189.364  1.00  0.00     0.000 C 
BRANCH   6   7
ATOM      7  C   UNL     1     180.968 195.501 188.359  1.00  0.00     0.000 C 
BRANCH   7   8
ATOM      8  C   UNL     1     181.123 194.691 187.065  1.00  0.00     0.000 C 
BRANCH   8   9
ATOM      9  C   UNL     1     180.156 193.498 187.044  1.00  0.00     0.000 C 
BRANCH   9  10
ATOM     10  C   UNL     1     180.692 192.311 186.220  1.00  0.00     0.006 C 
BRANCH  10  11
ATOM     11  C   UNL     1     182.058 192.561 185.563  1.00  0.00     0.053 C 
BRANCH  11  12
ATOM     12  C   UNL     1     181.954 192.653 184.071  1.00  0.00     0.041 C 
ATOM     13  O   UNL     1     182.671 191.921 183.339  1.00  0.00    -0.550 OA
ATOM     14  O   UNL     1     181.040 193.523 183.490  1.00  0.00    -0.550 OA
ENDBRANCH  11  12
ENDBRANCH  10  11
ENDBRANCH   9  10
ENDBRANCH   8   9
ENDBRANCH   7   8
ENDBRANCH   6   7
ENDBRANCH   5   6
ENDBRANCH   4   5
ENDBRANCH   3   4
ENDBRANCH   2   3
ENDBRANCH   1   2
BRANCH   1  15
ATOM     15  C   UNL     1     182.596 191.063 189.128  1.00  0.00     0.000 C 
BRANCH  15  16
ATOM     16  C   UNL     1     183.001 192.538 189.294  1.00  0.00     0.000 C 
BRANCH  16  17
ATOM     17  C   UNL     1     184.283 192.953 188.541  1.00  0.00     0.000 C 
BRANCH  17  18
ATOM     18  C   UNL     1     184.985 194.208 189.091  1.00  0.00    -0.000 C 
BRANCH  18  19
ATOM     19  C   UNL     1     184.123 194.981 190.100  1.00  0.00    -0.000 C 
BRANCH  19  20
ATOM     20  C   UNL     1     184.858 195.145 191.436  1.00  0.00    -0.000 C 
BRANCH  20  21
ATOM     21  C   UNL     1     183.896 194.960 192.618  1.00  0.00    -0.000 C 
BRANCH  21  22
ATOM     22  C   UNL     1     183.488 193.493 192.827  1.00  0.00    -0.000 C 
BRANCH  22  23
ATOM     23  C   UNL     1     184.696 192.571 193.062  1.00  0.00    -0.000 C 
BRANCH  23  24
ATOM     24  C   UNL     1     184.484 191.207 192.386  1.00  0.00    -0.000 C 
BRANCH  24  25
ATOM     25  C   UNL     1     185.591 190.871 191.376  1.00  0.00    -0.003 C 
ATOM     26  C   UNL     1     186.733 191.888 191.387  1.00  0.00     0.004 C 
ENDBRANCH  24  25
ENDBRANCH  23  24
ENDBRANCH  22  23
ENDBRANCH  21  22
ENDBRANCH  20  21
ENDBRANCH  19  20
ENDBRANCH  18  19
ENDBRANCH  17  18
ENDBRANCH  16  17
ENDBRANCH  15  16
ENDBRANCH   1  15
TORSDOF 22
ENDMDL
MODEL 8
REMARK VINA RESULT:     0.137      7.942     10.984
REMARK INTER + INTRA:          -5.601
REMARK INTER:                   0.000
REMARK INTRA:                  -5.601
REMARK UNBOUND:                -5.914
REMARK SMILES CCCCCCCCCCCCCCCCCCCCCCCC(=O)[O-]
REMARK SMILES IDX 13 1 14 2 15 3 16 4 17 5 18 6 19 7 20 8 21 9 22 10 23 11
REMARK SMILES IDX 24 12 25 13 26 14 12 15 11 16 10 17 9 18 8 19 7 20 6 21 5 22
REMARK SMILES IDX 4 23 3 24 2 25 1 26
REMARK H PARENT
REMARK Flexibility Score: inf
ROOT
ATOM      1  C   UNL     1     182.186 184.494 185.570  1.00  0.00     0.000 C 
ENDROOT
BRANCH   1   2
ATOM      2  C   UNL     1     180.752 184.691 186.081  1.00  0.00     0.000 C 
BRANCH   2   3
ATOM      3  C   UNL     1     179.755 183.695 185.465  1.00  0.00     0.000 C 
BRANCH   3   4
ATOM      4  C   UNL     1     180.404 182.695 184.484  1.00  0.00     0.000 C 
BRANCH   4   5
ATOM      5  C   UNL     1     179.722 181.316 184.519  1.00  0.00     0.000 C 
BRANCH   5   6
ATOM      6  C   UNL     1     180.706 180.171 184.193  1.00  0.00     0.000 C 
BRANCH   6   7
ATOM      7  C   UNL     1     181.950 180.630 183.413  1.00  0.00     0.000 C 
BRANCH   7   8
ATOM      8  C   UNL     1     183.132 179.662 183.551  1.00  0.00     0.000 C 
BRANCH   8   9
ATOM      9  C   UNL     1     184.452 180.428 183.727  1.00  0.00     0.000 C 
BRANCH   9  10
ATOM     10  C   UNL     1     184.237 181.909 184.092  1.00  0.00     0.006 C 
BRANCH  10  11
ATOM     11  C   UNL     1     185.259 182.871 183.466  1.00  0.00     0.053 C 
BRANCH  11  12
ATOM     12  C   UNL     1     184.610 183.846 182.531  1.00  0.00     0.041 C 
ATOM     13  O   UNL     1     185.297 184.741 181.970  1.00  0.00    -0.550 OA
ATOM     14  O   UNL     1     183.253 183.744 182.251  1.00  0.00    -0.550 OA
ENDBRANCH  11  12
ENDBRANCH  10  11
ENDBRANCH   9  10
ENDBRANCH   8   9
ENDBRANCH   7   8
ENDBRANCH   6   7
ENDBRANCH   5   6
ENDBRANCH   4   5
ENDBRANCH   3   4
ENDBRANCH   2   3
ENDBRANCH   1   2
BRANCH   1  15
ATOM     15  C   UNL     1     183.056 185.719 185.886  1.00  0.00     0.000 C 
BRANCH  15  16
ATOM     16  C   UNL     1     184.539 185.361 186.090  1.00  0.00     0.000 C 
BRANCH  16  17
ATOM     17  C   UNL     1     184.800 184.154 187.014  1.00  0.00     0.000 C 
BRANCH  17  18
ATOM     18  C   UNL     1     186.245 183.623 187.002  1.00  0.00    -0.000 C 
BRANCH  18  19
ATOM     19  C   UNL     1     186.324 182.102 187.201  1.00  0.00    -0.000 C 
BRANCH  19  20
ATOM     20  C   UNL     1     185.075 181.578 187.921  1.00  0.00    -0.000 C 
BRANCH  20  21
ATOM     21  C   UNL     1     184.723 180.160 187.448  1.00  0.00    -0.000 C 
BRANCH  21  22
ATOM     22  C   UNL     1     183.211 179.954 187.267  1.00  0.00    -0.000 C 
BRANCH  22  23
ATOM     23  C   UNL     1     182.428 181.276 187.279  1.00  0.00    -0.000 C 
BRANCH  23  24
ATOM     24  C   UNL     1     181.072 181.106 187.981  1.00  0.00    -0.000 C 
BRANCH  24  25
ATOM     25  C   UNL     1     180.733 182.285 188.905  1.00  0.00    -0.003 C 
ATOM     26  C   UNL     1     181.950 183.154 189.228  1.00  0.00     0.004 C 
ENDBRANCH  24  25
ENDBRANCH  23  24
ENDBRANCH  22  23
ENDBRANCH  21  22
ENDBRANCH  20  21
ENDBRANCH  19  20
ENDBRANCH  18  19
ENDBRANCH  17  18
ENDBRANCH  16  17
ENDBRANCH  15  16
ENDBRANCH   1  15
TORSDOF 22
ENDMDL
MODEL 9
REMARK VINA RESULT:     0.138      7.961     10.524
REMARK INTER + INTRA:          -5.599
REMARK INTER:                   0.000
REMARK INTRA:                  -5.599
REMARK UNBOUND:                -5.914
REMARK SMILES CCCCCCCCCCCCCCCCCCCCCCCC(=O)[O-]
REMARK SMILES IDX 13 1 14 2 15 3 16 4 17 5 18 6 19 7 20 8 21 9 22 10 23 11
REMARK SMILES IDX 24 12 25 13 26 14 12 15 11 16 10 17 9 18 8 19 7 20 6 21 5 22
REMARK SMILES IDX 4 23 3 24 2 25 1 26
REMARK H PARENT
REMARK Flexibility Score: inf
ROOT
ATOM      1  C   UNL     1     184.373 187.967 188.653  1.00  0.00     0.000 C 
ENDROOT
BRANCH   1   2
ATOM      2  C   UNL     1     184.682 188.612 190.011  1.00  0.00     0.000 C 
BRANCH   2   3
ATOM      3  C   UNL     1     185.205 190.053 189.884  1.00  0.00     0.000 C 
BRANCH   3   4
ATOM      4  C   UNL     1     186.600 190.150 189.230  1.00  0.00     0.000 C 
BRANCH   4   5
ATOM      5  C   UNL     1     186.545 190.769 187.822  1.00  0.00     0.000 C 
BRANCH   5   6
ATOM      6  C   UNL     1     187.378 189.966 186.799  1.00  0.00     0.000 C 
BRANCH   6   7
ATOM      7  C   UNL     1     186.532 189.058 185.891  1.00  0.00     0.000 C 
BRANCH   7   8
ATOM      8  C   UNL     1     186.926 187.578 185.992  1.00  0.00     0.000 C 
BRANCH   8   9
ATOM      9  C   UNL     1     188.012 187.370 187.059  1.00  0.00     0.000 C 
BRANCH   9  10
ATOM     10  C   UNL     1     187.658 186.253 188.059  1.00  0.00     0.006 C 
BRANCH  10  11
ATOM     11  C   UNL     1     187.825 186.646 189.535  1.00  0.00     0.053 C 
BRANCH  11  12
ATOM     12  C   UNL     1     187.299 185.591 190.459  1.00  0.00     0.041 C 
ATOM     13  O   UNL     1     186.547 185.906 191.419  1.00  0.00    -0.550 OA
ATOM     14  O   UNL     1     187.612 184.256 190.239  1.00  0.00    -0.550 OA
ENDBRANCH  11  12
ENDBRANCH  10  11
ENDBRANCH   9  10
ENDBRANCH   8   9
ENDBRANCH   7   8
ENDBRANCH   6   7
ENDBRANCH   5   6
ENDBRANCH   4   5
ENDBRANCH   3   4
ENDBRANCH   2   3
ENDBRANCH   1   2
BRANCH   1  15
ATOM     15  C   UNL     1     184.054 186.474 188.814  1.00  0.00     0.000 C 
BRANCH  15  16
ATOM     16  C   UNL     1     183.814 185.766 187.469  1.00  0.00     0.000 C 
BRANCH  16  17
ATOM     17  C   UNL     1     183.322 186.680 186.327  1.00  0.00     0.000 C 
BRANCH  17  18
ATOM     18  C   UNL     1     181.794 186.737 186.150  1.00  0.00    -0.000 C 
BRANCH  18  19
ATOM     19  C   UNL     1     181.069 185.570 186.835  1.00  0.00    -0.000 C 
BRANCH  19  20
ATOM     20  C   UNL     1     180.200 186.069 187.995  1.00  0.00    -0.000 C 
BRANCH  20  21
ATOM     21  C   UNL     1     180.181 187.604 188.046  1.00  0.00    -0.000 C 
BRANCH  21  22
ATOM     22  C   UNL     1     180.712 188.161 189.377  1.00  0.00    -0.000 C 
BRANCH  22  23
ATOM     23  C   UNL     1     181.162 189.626 189.268  1.00  0.00    -0.000 C 
BRANCH  23  24
ATOM     24  C   UNL     1     181.224 190.074 187.799  1.00  0.00    -0.000 C 
BRANCH  24  25
ATOM     25  C   UNL     1     182.503 190.862 187.477  1.00  0.00    -0.003 C 
ATOM     26  C   UNL     1     183.132 190.451 186.146  1.00  0.00     0.004 C 
ENDBRANCH  24  25
ENDBRANCH  23  24
ENDBRANCH  22  23
ENDBRANCH  21  22
ENDBRANCH  20  21
ENDBRANCH  19  20
ENDBRANCH  18  19
ENDBRANCH  17  18
ENDBRANCH  16  17
ENDBRANCH  15  16
ENDBRANCH   1  15
TORSDOF 22
ENDMDL
