MODEL 1
REMARK VINA RESULT:    -3.412      0.000      0.000
REMARK INTER + INTRA:         -12.608
REMARK INTER:                  -7.799
REMARK INTRA:                  -4.808
REMARK UNBOUND:                -4.808
REMARK SMILES CCCCCCCCCCCCCCCCCCCCCCCC(=O)[O-]
REMARK SMILES IDX 13 1 14 2 15 3 16 4 17 5 18 6 19 7 20 8 21 9 22 10 23 11
REMARK SMILES IDX 24 12 25 13 26 14 12 15 11 16 10 17 9 18 8 19 7 20 6 21 5 22
REMARK SMILES IDX 4 23 3 24 2 25 1 26
REMARK H PARENT
REMARK Flexibility Score: inf
ROOT
ATOM      1  C   UNL     1       0.928   9.045  35.509  1.00  0.00     0.000 C 
ENDROOT
BRANCH   1   2
ATOM      2  C   UNL     1      -0.192  10.077  35.735  1.00  0.00     0.000 C 
BRANCH   2   3
ATOM      3  C   UNL     1      -1.504   9.462  36.268  1.00  0.00     0.000 C 
BRANCH   3   4
ATOM      4  C   UNL     1      -1.711   9.742  37.766  1.00  0.00     0.000 C 
BRANCH   4   5
ATOM      5  C   UNL     1      -1.709   8.459  38.612  1.00  0.00     0.000 C 
BRANCH   5   6
ATOM      6  C   UNL     1      -1.123   7.249  37.860  1.00  0.00     0.000 C 
BRANCH   6   7
ATOM      7  C   UNL     1       0.148   6.705  38.531  1.00  0.00     0.000 C 
BRANCH   7   8
ATOM      8  C   UNL     1       0.961   5.786  37.598  1.00  0.00     0.000 C 
BRANCH   8   9
ATOM      9  C   UNL     1       0.169   5.391  36.333  1.00  0.00     0.000 C 
BRANCH   9  10
ATOM     10  C   UNL     1       1.042   5.272  35.070  1.00  0.00     0.006 C 
BRANCH  10  11
ATOM     11  C   UNL     1       2.510   5.639  35.318  1.00  0.00     0.053 C 
BRANCH  11  12
ATOM     12  C   UNL     1       3.391   4.447  35.111  1.00  0.00     0.041 C 
ATOM     13  O   UNL     1       2.971   3.294  35.398  1.00  0.00    -0.550 OA
ATOM     14  O   UNL     1       4.662   4.604  34.566  1.00  0.00    -0.550 OA
ENDBRANCH  11  12
ENDBRANCH  10  11
ENDBRANCH   9  10
ENDBRANCH   8   9
ENDBRANCH   7   8
ENDBRANCH   6   7
ENDBRANCH   5   6
ENDBRANCH   4   5
ENDBRANCH   3   4
ENDBRANCH   2   3
ENDBRANCH   1   2
BRANCH   1  15
ATOM     15  C   UNL     1       2.151   9.207  36.432  1.00  0.00     0.000 C 
BRANCH  15  16
ATOM     16  C   UNL     1       1.927  10.107  37.667  1.00  0.00     0.000 C 
BRANCH  16  17
ATOM     17  C   UNL     1       2.249   9.452  39.025  1.00  0.00     0.000 C 
BRANCH  17  18
ATOM     18  C   UNL     1       1.253   9.841  40.130  1.00  0.00    -0.000 C 
BRANCH  18  19
ATOM     19  C   UNL     1       1.293   8.830  41.289  1.00  0.00    -0.000 C 
BRANCH  19  20
ATOM     20  C   UNL     1      -0.096   8.563  41.901  1.00  0.00    -0.000 C 
BRANCH  20  21
ATOM     21  C   UNL     1      -0.466   7.074  42.071  1.00  0.00    -0.000 C 
BRANCH  21  22
ATOM     22  C   UNL     1      -1.981   6.761  42.087  1.00  0.00    -0.000 C 
BRANCH  22  23
ATOM     23  C   UNL     1      -2.428   5.788  40.975  1.00  0.00    -0.000 C 
BRANCH  23  24
ATOM     24  C   UNL     1      -2.145   4.304  41.300  1.00  0.00    -0.000 C 
BRANCH  24  25
ATOM     25  C   UNL     1      -1.309   3.633  40.198  1.00  0.00    -0.003 C 
ATOM     26  C   UNL     1       0.166   3.566  40.586  1.00  0.00     0.004 C 
ENDBRANCH  24  25
ENDBRANCH  23  24
ENDBRANCH  22  23
ENDBRANCH  21  22
ENDBRANCH  20  21
ENDBRANCH  19  20
ENDBRANCH  18  19
ENDBRANCH  17  18
ENDBRANCH  16  17
ENDBRANCH  15  16
ENDBRANCH   1  15
TORSDOF 22
ENDMDL
MODEL 2
REMARK VINA RESULT:    -3.101      1.641      3.915
REMARK INTER + INTRA:         -11.899
REMARK INTER:                  -7.141
REMARK INTRA:                  -4.758
REMARK UNBOUND:                -4.808
REMARK SMILES CCCCCCCCCCCCCCCCCCCCCCCC(=O)[O-]
REMARK SMILES IDX 13 1 14 2 15 3 16 4 17 5 18 6 19 7 20 8 21 9 22 10 23 11
REMARK SMILES IDX 24 12 25 13 26 14 12 15 11 16 10 17 9 18 8 19 7 20 6 21 5 22
REMARK SMILES IDX 4 23 3 24 2 25 1 26
REMARK H PARENT
REMARK Flexibility Score: inf
ROOT
ATOM      1  C   UNL     1       3.148   5.595  37.994  1.00  0.00     0.000 C 
ENDROOT
BRANCH   1   2
ATOM      2  C   UNL     1       2.583   4.218  38.388  1.00  0.00     0.000 C 
BRANCH   2   3
ATOM      3  C   UNL     1       1.290   4.295  39.228  1.00  0.00     0.000 C 
BRANCH   3   4
ATOM      4  C   UNL     1       0.113   3.573  38.550  1.00  0.00     0.000 C 
BRANCH   4   5
ATOM      5  C   UNL     1      -1.071   4.511  38.268  1.00  0.00     0.000 C 
BRANCH   5   6
ATOM      6  C   UNL     1      -1.323   4.718  36.762  1.00  0.00     0.000 C 
BRANCH   6   7
ATOM      7  C   UNL     1      -0.475   3.774  35.895  1.00  0.00     0.000 C 
BRANCH   7   8
ATOM      8  C   UNL     1       0.489   4.534  34.963  1.00  0.00     0.000 C 
BRANCH   8   9
ATOM      9  C   UNL     1       1.810   3.766  34.739  1.00  0.00     0.000 C 
BRANCH   9  10
ATOM     10  C   UNL     1       2.907   4.609  34.062  1.00  0.00     0.006 C 
BRANCH  10  11
ATOM     11  C   UNL     1       4.269   4.490  34.756  1.00  0.00     0.053 C 
BRANCH  11  12
ATOM     12  C   UNL     1       4.972   3.241  34.324  1.00  0.00     0.041 C 
ATOM     13  O   UNL     1       5.842   3.289  33.415  1.00  0.00    -0.550 OA
ATOM     14  O   UNL     1       4.692   2.030  34.951  1.00  0.00    -0.550 OA
ENDBRANCH  11  12
ENDBRANCH  10  11
ENDBRANCH   9  10
ENDBRANCH   8   9
ENDBRANCH   7   8
ENDBRANCH   6   7
ENDBRANCH   5   6
ENDBRANCH   4   5
ENDBRANCH   3   4
ENDBRANCH   2   3
ENDBRANCH   1   2
BRANCH   1  15
ATOM     15  C   UNL     1       2.105   6.728  37.937  1.00  0.00     0.000 C 
BRANCH  15  16
ATOM     16  C   UNL     1       1.865   7.331  36.536  1.00  0.00     0.000 C 
BRANCH  16  17
ATOM     17  C   UNL     1       0.804   8.447  36.473  1.00  0.00     0.000 C 
BRANCH  17  18
ATOM     18  C   UNL     1      -0.329   8.256  37.494  1.00  0.00    -0.000 C 
BRANCH  18  19
ATOM     19  C   UNL     1      -0.454   9.482  38.415  1.00  0.00    -0.000 C 
BRANCH  19  20
ATOM     20  C   UNL     1       0.907  10.125  38.748  1.00  0.00    -0.000 C 
BRANCH  20  21
ATOM     21  C   UNL     1       1.512   9.722  40.109  1.00  0.00    -0.000 C 
BRANCH  21  22
ATOM     22  C   UNL     1       0.541   9.019  41.088  1.00  0.00    -0.000 C 
BRANCH  22  23
ATOM     23  C   UNL     1       0.795   7.504  41.237  1.00  0.00    -0.000 C 
BRANCH  23  24
ATOM     24  C   UNL     1      -0.494   6.653  41.190  1.00  0.00    -0.000 C 
BRANCH  24  25
ATOM     25  C   UNL     1      -1.754   7.528  41.285  1.00  0.00    -0.003 C 
ATOM     26  C   UNL     1      -2.713   7.245  40.133  1.00  0.00     0.004 C 
ENDBRANCH  24  25
ENDBRANCH  23  24
ENDBRANCH  22  23
ENDBRANCH  21  22
ENDBRANCH  20  21
ENDBRANCH  19  20
ENDBRANCH  18  19
ENDBRANCH  17  18
ENDBRANCH  16  17
ENDBRANCH  15  16
ENDBRANCH   1  15
TORSDOF 22
ENDMDL
MODEL 3
REMARK VINA RESULT:    -3.022      3.856      6.338
REMARK INTER + INTRA:         -11.717
REMARK INTER:                  -8.405
REMARK INTRA:                  -3.312
REMARK UNBOUND:                -4.808
REMARK SMILES CCCCCCCCCCCCCCCCCCCCCCCC(=O)[O-]
REMARK SMILES IDX 13 1 14 2 15 3 16 4 17 5 18 6 19 7 20 8 21 9 22 10 23 11
REMARK SMILES IDX 24 12 25 13 26 14 12 15 11 16 10 17 9 18 8 19 7 20 6 21 5 22
REMARK SMILES IDX 4 23 3 24 2 25 1 26
REMARK H PARENT
REMARK Flexibility Score: inf
ROOT
ATOM      1  C   UNL     1      -1.553   5.037  36.686  1.00  0.00     0.000 C 
ENDROOT
BRANCH   1   2
ATOM      2  C   UNL     1      -0.266   4.203  36.539  1.00  0.00     0.000 C 
BRANCH   2   3
ATOM      3  C   UNL     1       0.057   3.810  35.082  1.00  0.00     0.000 C 
BRANCH   3   4
ATOM      4  C   UNL     1       1.274   4.570  34.531  1.00  0.00     0.000 C 
BRANCH   4   5
ATOM      5  C   UNL     1       1.070   5.042  33.082  1.00  0.00     0.000 C 
BRANCH   5   6
ATOM      6  C   UNL     1       1.550   6.487  32.851  1.00  0.00     0.000 C 
BRANCH   6   7
ATOM      7  C   UNL     1       1.613   6.848  31.359  1.00  0.00     0.000 C 
BRANCH   7   8
ATOM      8  C   UNL     1       1.814   5.612  30.460  1.00  0.00     0.000 C 
BRANCH   8   9
ATOM      9  C   UNL     1       1.819   5.977  28.960  1.00  0.00     0.000 C 
BRANCH   9  10
ATOM     10  C   UNL     1       3.181   6.487  28.453  1.00  0.00     0.006 C 
BRANCH  10  11
ATOM     11  C   UNL     1       3.096   7.867  27.788  1.00  0.00     0.053 C 
BRANCH  11  12
ATOM     12  C   UNL     1       3.388   8.947  28.782  1.00  0.00     0.041 C 
ATOM     13  O   UNL     1       2.442   9.582  29.320  1.00  0.00    -0.550 OA
ATOM     14  O   UNL     1       4.703   9.228  29.143  1.00  0.00    -0.550 OA
ENDBRANCH  11  12
ENDBRANCH  10  11
ENDBRANCH   9  10
ENDBRANCH   8   9
ENDBRANCH   7   8
ENDBRANCH   6   7
ENDBRANCH   5   6
ENDBRANCH   4   5
ENDBRANCH   3   4
ENDBRANCH   2   3
ENDBRANCH   1   2
BRANCH   1  15
ATOM     15  C   UNL     1      -1.816   5.574  38.106  1.00  0.00     0.000 C 
BRANCH  15  16
ATOM     16  C   UNL     1      -0.553   5.821  38.959  1.00  0.00     0.000 C 
BRANCH  16  17
ATOM     17  C   UNL     1      -0.670   6.960  39.991  1.00  0.00     0.000 C 
BRANCH  17  18
ATOM     18  C   UNL     1       0.454   8.002  39.865  1.00  0.00    -0.000 C 
BRANCH  18  19
ATOM     19  C   UNL     1      -0.105   9.365  39.422  1.00  0.00    -0.000 C 
BRANCH  19  20
ATOM     20  C   UNL     1      -1.532   9.271  38.846  1.00  0.00    -0.000 C 
BRANCH  20  21
ATOM     21  C   UNL     1      -1.785  10.105  37.572  1.00  0.00    -0.000 C 
BRANCH  21  22
ATOM     22  C   UNL     1      -1.458   9.397  36.236  1.00  0.00    -0.000 C 
BRANCH  22  23
ATOM     23  C   UNL     1      -0.275  10.025  35.470  1.00  0.00    -0.000 C 
BRANCH  23  24
ATOM     24  C   UNL     1       1.075   9.319  35.728  1.00  0.00    -0.000 C 
BRANCH  24  25
ATOM     25  C   UNL     1       0.875   7.862  36.174  1.00  0.00    -0.003 C 
ATOM     26  C   UNL     1       2.142   7.300  36.814  1.00  0.00     0.004 C 
ENDBRANCH  24  25
ENDBRANCH  23  24
ENDBRANCH  22  23
ENDBRANCH  21  22
ENDBRANCH  20  21
ENDBRANCH  19  20
ENDBRANCH  18  19
ENDBRANCH  17  18
ENDBRANCH  16  17
ENDBRANCH  15  16
ENDBRANCH   1  15
TORSDOF 22
ENDMDL
MODEL 4
REMARK VINA RESULT:    -2.994      1.561      3.937
REMARK INTER + INTRA:         -11.653
REMARK INTER:                  -7.240
REMARK INTRA:                  -4.413
REMARK UNBOUND:                -4.808
REMARK SMILES CCCCCCCCCCCCCCCCCCCCCCCC(=O)[O-]
REMARK SMILES IDX 13 1 14 2 15 3 16 4 17 5 18 6 19 7 20 8 21 9 22 10 23 11
REMARK SMILES IDX 24 12 25 13 26 14 12 15 11 16 10 17 9 18 8 19 7 20 6 21 5 22
REMARK SMILES IDX 4 23 3 24 2 25 1 26
REMARK H PARENT
REMARK Flexibility Score: inf
ROOT
ATOM      1  C   UNL     1      -0.859   8.834  38.793  1.00  0.00     0.000 C 
ENDROOT
BRANCH   1   2
ATOM      2  C   UNL     1       0.092   9.341  39.893  1.00  0.00     0.000 C 
BRANCH   2   3
ATOM      3  C   UNL     1       1.519   8.758  39.796  1.00  0.00     0.000 C 
BRANCH   3   4
ATOM      4  C   UNL     1       1.952   8.520  38.340  1.00  0.00     0.000 C 
BRANCH   4   5
ATOM      5  C   UNL     1       2.503   9.790  37.673  1.00  0.00     0.000 C 
BRANCH   5   6
ATOM      6  C   UNL     1       2.152   9.879  36.176  1.00  0.00     0.000 C 
BRANCH   6   7
ATOM      7  C   UNL     1       0.993   8.944  35.793  1.00  0.00     0.000 C 
BRANCH   7   8
ATOM      8  C   UNL     1       1.387   7.933  34.698  1.00  0.00     0.000 C 
BRANCH   8   9
ATOM      9  C   UNL     1       1.326   6.475  35.203  1.00  0.00     0.000 C 
BRANCH   9  10
ATOM     10  C   UNL     1       2.671   5.730  35.104  1.00  0.00     0.006 C 
BRANCH  10  11
ATOM     11  C   UNL     1       3.248   5.347  36.472  1.00  0.00     0.053 C 
BRANCH  11  12
ATOM     12  C   UNL     1       3.332   3.859  36.609  1.00  0.00     0.041 C 
ATOM     13  O   UNL     1       4.456   3.290  36.632  1.00  0.00    -0.550 OA
ATOM     14  O   UNL     1       2.171   3.104  36.749  1.00  0.00    -0.550 OA
ENDBRANCH  11  12
ENDBRANCH  10  11
ENDBRANCH   9  10
ENDBRANCH   8   9
ENDBRANCH   7   8
ENDBRANCH   6   7
ENDBRANCH   5   6
ENDBRANCH   4   5
ENDBRANCH   3   4
ENDBRANCH   2   3
ENDBRANCH   1   2
BRANCH   1  15
ATOM     15  C   UNL     1      -2.249   8.396  39.294  1.00  0.00     0.000 C 
BRANCH  15  16
ATOM     16  C   UNL     1      -2.245   7.548  40.584  1.00  0.00     0.000 C 
BRANCH  16  17
ATOM     17  C   UNL     1      -2.507   6.043  40.382  1.00  0.00     0.000 C 
BRANCH  17  18
ATOM     18  C   UNL     1      -2.449   5.616  38.906  1.00  0.00    -0.000 C 
BRANCH  18  19
ATOM     19  C   UNL     1      -1.264   4.668  38.653  1.00  0.00    -0.000 C 
BRANCH  19  20
ATOM     20  C   UNL     1       0.083   5.408  38.532  1.00  0.00    -0.000 C 
BRANCH  20  21
ATOM     21  C   UNL     1       1.151   5.006  39.571  1.00  0.00    -0.000 C 
BRANCH  21  22
ATOM     22  C   UNL     1       0.855   5.427  41.029  1.00  0.00    -0.000 C 
BRANCH  22  23
ATOM     23  C   UNL     1       0.390   4.263  41.932  1.00  0.00    -0.000 C 
BRANCH  23  24
ATOM     24  C   UNL     1       0.791   2.869  41.401  1.00  0.00    -0.000 C 
BRANCH  24  25
ATOM     25  C   UNL     1      -0.421   1.928  41.310  1.00  0.00    -0.003 C 
ATOM     26  C   UNL     1      -1.714   2.656  41.666  1.00  0.00     0.004 C 
ENDBRANCH  24  25
ENDBRANCH  23  24
ENDBRANCH  22  23
ENDBRANCH  21  22
ENDBRANCH  20  21
ENDBRANCH  19  20
ENDBRANCH  18  19
ENDBRANCH  17  18
ENDBRANCH  16  17
ENDBRANCH  15  16
ENDBRANCH   1  15
TORSDOF 22
ENDMDL
MODEL 5
REMARK VINA RESULT:    -2.989      2.216      4.514
REMARK INTER + INTRA:         -11.641
REMARK INTER:                  -8.084
REMARK INTRA:                  -3.557
REMARK UNBOUND:                -4.808
REMARK SMILES CCCCCCCCCCCCCCCCCCCCCCCC(=O)[O-]
REMARK SMILES IDX 13 1 14 2 15 3 16 4 17 5 18 6 19 7 20 8 21 9 22 10 23 11
REMARK SMILES IDX 24 12 25 13 26 14 12 15 11 16 10 17 9 18 8 19 7 20 6 21 5 22
REMARK SMILES IDX 4 23 3 24 2 25 1 26
REMARK H PARENT
REMARK Flexibility Score: inf
ROOT
ATOM      1  C   UNL     1       1.191   8.559  39.623  1.00  0.00     0.000 C 
ENDROOT
BRANCH   1   2
ATOM      2  C   UNL     1       2.070   9.703  39.086  1.00  0.00     0.000 C 
BRANCH   2   3
ATOM      3  C   UNL     1       1.827  10.026  37.596  1.00  0.00     0.000 C 
BRANCH   3   4
ATOM      4  C   UNL     1       2.029   8.796  36.695  1.00  0.00     0.000 C 
BRANCH   4   5
ATOM      5  C   UNL     1       0.976   8.703  35.579  1.00  0.00     0.000 C 
BRANCH   5   6
ATOM      6  C   UNL     1       1.433   9.375  34.270  1.00  0.00     0.000 C 
BRANCH   6   7
ATOM      7  C   UNL     1       1.604   8.364  33.125  1.00  0.00     0.000 C 
BRANCH   7   8
ATOM      8  C   UNL     1       1.417   6.906  33.591  1.00  0.00     0.000 C 
BRANCH   8   9
ATOM      9  C   UNL     1       2.676   6.049  33.343  1.00  0.00     0.000 C 
BRANCH   9  10
ATOM     10  C   UNL     1       2.368   4.567  33.056  1.00  0.00     0.006 C 
BRANCH  10  11
ATOM     11  C   UNL     1       1.824   4.330  31.641  1.00  0.00     0.053 C 
BRANCH  11  12
ATOM     12  C   UNL     1       0.332   4.220  31.664  1.00  0.00     0.041 C 
ATOM     13  O   UNL     1      -0.341   4.560  30.655  1.00  0.00    -0.550 OA
ATOM     14  O   UNL     1      -0.313   3.707  32.786  1.00  0.00    -0.550 OA
ENDBRANCH  11  12
ENDBRANCH  10  11
ENDBRANCH   9  10
ENDBRANCH   8   9
ENDBRANCH   7   8
ENDBRANCH   6   7
ENDBRANCH   5   6
ENDBRANCH   4   5
ENDBRANCH   3   4
ENDBRANCH   2   3
ENDBRANCH   1   2
BRANCH   1  15
ATOM     15  C   UNL     1      -0.221   8.985  40.068  1.00  0.00     0.000 C 
BRANCH  15  16
ATOM     16  C   UNL     1      -1.360   8.598  39.101  1.00  0.00     0.000 C 
BRANCH  16  17
ATOM     17  C   UNL     1      -2.577   7.916  39.757  1.00  0.00     0.000 C 
BRANCH  17  18
ATOM     18  C   UNL     1      -2.235   7.232  41.090  1.00  0.00    -0.000 C 
BRANCH  18  19
ATOM     19  C   UNL     1      -2.247   5.701  40.945  1.00  0.00    -0.000 C 
BRANCH  19  20
ATOM     20  C   UNL     1      -0.922   5.140  40.389  1.00  0.00    -0.000 C 
BRANCH  20  21
ATOM     21  C   UNL     1      -1.053   4.294  39.105  1.00  0.00    -0.000 C 
BRANCH  21  22
ATOM     22  C   UNL     1      -1.530   5.059  37.848  1.00  0.00    -0.000 C 
BRANCH  22  23
ATOM     23  C   UNL     1      -0.383   5.502  36.914  1.00  0.00    -0.000 C 
BRANCH  23  24
ATOM     24  C   UNL     1       1.001   5.524  37.601  1.00  0.00    -0.000 C 
BRANCH  24  25
ATOM     25  C   UNL     1       2.026   4.672  36.835  1.00  0.00    -0.003 C 
ATOM     26  C   UNL     1       3.410   5.317  36.860  1.00  0.00     0.004 C 
ENDBRANCH  24  25
ENDBRANCH  23  24
ENDBRANCH  22  23
ENDBRANCH  21  22
ENDBRANCH  20  21
ENDBRANCH  19  20
ENDBRANCH  18  19
ENDBRANCH  17  18
ENDBRANCH  16  17
ENDBRANCH  15  16
ENDBRANCH   1  15
TORSDOF 22
ENDMDL
MODEL 6
REMARK VINA RESULT:    -2.985      1.714      4.852
REMARK INTER + INTRA:         -11.633
REMARK INTER:                  -7.830
REMARK INTRA:                  -3.803
REMARK UNBOUND:                -4.808
REMARK SMILES CCCCCCCCCCCCCCCCCCCCCCCC(=O)[O-]
REMARK SMILES IDX 13 1 14 2 15 3 16 4 17 5 18 6 19 7 20 8 21 9 22 10 23 11
REMARK SMILES IDX 24 12 25 13 26 14 12 15 11 16 10 17 9 18 8 19 7 20 6 21 5 22
REMARK SMILES IDX 4 23 3 24 2 25 1 26
REMARK H PARENT
REMARK Flexibility Score: inf
ROOT
ATOM      1  C   UNL     1       0.955   8.070  40.709  1.00  0.00     0.000 C 
ENDROOT
BRANCH   1   2
ATOM      2  C   UNL     1       0.777   8.663  42.119  1.00  0.00     0.000 C 
BRANCH   2   3
ATOM      3  C   UNL     1      -0.200   7.866  43.010  1.00  0.00     0.000 C 
BRANCH   3   4
ATOM      4  C   UNL     1      -1.626   7.848  42.436  1.00  0.00     0.000 C 
BRANCH   4   5
ATOM      5  C   UNL     1      -2.302   6.475  42.578  1.00  0.00     0.000 C 
BRANCH   5   6
ATOM      6  C   UNL     1      -1.608   5.379  41.748  1.00  0.00     0.000 C 
BRANCH   6   7
ATOM      7  C   UNL     1      -2.246   5.208  40.360  1.00  0.00     0.000 C 
BRANCH   7   8
ATOM      8  C   UNL     1      -1.450   5.923  39.251  1.00  0.00     0.000 C 
BRANCH   8   9
ATOM      9  C   UNL     1      -0.802   4.928  38.264  1.00  0.00     0.000 C 
BRANCH   9  10
ATOM     10  C   UNL     1      -1.300   5.082  36.815  1.00  0.00     0.006 C 
BRANCH  10  11
ATOM     11  C   UNL     1      -1.416   3.744  36.075  1.00  0.00     0.053 C 
BRANCH  11  12
ATOM     12  C   UNL     1      -0.200   3.500  35.238  1.00  0.00     0.041 C 
ATOM     13  O   UNL     1       0.686   2.695  35.632  1.00  0.00    -0.550 OA
ATOM     14  O   UNL     1      -0.061   4.133  34.006  1.00  0.00    -0.550 OA
ENDBRANCH  11  12
ENDBRANCH  10  11
ENDBRANCH   9  10
ENDBRANCH   8   9
ENDBRANCH   7   8
ENDBRANCH   6   7
ENDBRANCH   5   6
ENDBRANCH   4   5
ENDBRANCH   3   4
ENDBRANCH   2   3
ENDBRANCH   1   2
BRANCH   1  15
ATOM     15  C   UNL     1       1.595   9.025  39.684  1.00  0.00     0.000 C 
BRANCH  15  16
ATOM     16  C   UNL     1       0.659  10.121  39.133  1.00  0.00     0.000 C 
BRANCH  16  17
ATOM     17  C   UNL     1      -0.819   9.709  38.983  1.00  0.00     0.000 C 
BRANCH  17  18
ATOM     18  C   UNL     1      -1.101   8.948  37.677  1.00  0.00    -0.000 C 
BRANCH  18  19
ATOM     19  C   UNL     1      -0.749   9.808  36.451  1.00  0.00    -0.000 C 
BRANCH  19  20
ATOM     20  C   UNL     1       0.306   9.150  35.538  1.00  0.00    -0.000 C 
BRANCH  20  21
ATOM     21  C   UNL     1       1.246   8.144  36.236  1.00  0.00    -0.000 C 
BRANCH  21  22
ATOM     22  C   UNL     1       1.711   6.952  35.367  1.00  0.00    -0.000 C 
BRANCH  22  23
ATOM     23  C   UNL     1       2.390   5.822  36.171  1.00  0.00    -0.000 C 
BRANCH  23  24
ATOM     24  C   UNL     1       2.661   6.188  37.647  1.00  0.00    -0.000 C 
BRANCH  24  25
ATOM     25  C   UNL     1       3.644   5.206  38.303  1.00  0.00    -0.003 C 
ATOM     26  C   UNL     1       2.941   3.918  38.725  1.00  0.00     0.004 C 
ENDBRANCH  24  25
ENDBRANCH  23  24
ENDBRANCH  22  23
ENDBRANCH  21  22
ENDBRANCH  20  21
ENDBRANCH  19  20
ENDBRANCH  18  19
ENDBRANCH  17  18
ENDBRANCH  16  17
ENDBRANCH  15  16
ENDBRANCH   1  15
TORSDOF 22
ENDMDL
MODEL 7
REMARK VINA RESULT:    -2.979      2.187      5.786
REMARK INTER + INTRA:         -11.619
REMARK INTER:                  -7.993
REMARK INTRA:                  -3.627
REMARK UNBOUND:                -4.808
REMARK SMILES CCCCCCCCCCCCCCCCCCCCCCCC(=O)[O-]
REMARK SMILES IDX 13 1 14 2 15 3 16 4 17 5 18 6 19 7 20 8 21 9 22 10 23 11
REMARK SMILES IDX 24 12 25 13 26 14 12 15 11 16 10 17 9 18 8 19 7 20 6 21 5 22
REMARK SMILES IDX 4 23 3 24 2 25 1 26
REMARK H PARENT
REMARK Flexibility Score: inf
ROOT
ATOM      1  C   UNL     1      -1.435  10.125  37.564  1.00  0.00     0.000 C 
ENDROOT
BRANCH   1   2
ATOM      2  C   UNL     1      -1.682   9.323  38.855  1.00  0.00     0.000 C 
BRANCH   2   3
ATOM      3  C   UNL     1      -1.584   7.794  38.665  1.00  0.00     0.000 C 
BRANCH   3   4
ATOM      4  C   UNL     1      -2.460   7.026  39.668  1.00  0.00     0.000 C 
BRANCH   4   5
ATOM      5  C   UNL     1      -2.661   7.793  40.984  1.00  0.00     0.000 C 
BRANCH   5   6
ATOM      6  C   UNL     1      -1.834   7.213  42.146  1.00  0.00     0.000 C 
BRANCH   6   7
ATOM      7  C   UNL     1      -0.621   8.090  42.493  1.00  0.00     0.000 C 
BRANCH   7   8
ATOM      8  C   UNL     1       0.657   7.650  41.752  1.00  0.00     0.000 C 
BRANCH   8   9
ATOM      9  C   UNL     1       0.703   6.123  41.526  1.00  0.00     0.000 C 
BRANCH   9  10
ATOM     10  C   UNL     1       1.133   5.722  40.102  1.00  0.00     0.006 C 
BRANCH  10  11
ATOM     11  C   UNL     1       0.906   4.235  39.804  1.00  0.00     0.053 C 
BRANCH  11  12
ATOM     12  C   UNL     1      -0.458   4.017  39.228  1.00  0.00     0.041 C 
ATOM     13  O   UNL     1      -0.652   4.162  37.992  1.00  0.00    -0.550 OA
ATOM     14  O   UNL     1      -1.507   3.617  40.051  1.00  0.00    -0.550 OA
ENDBRANCH  11  12
ENDBRANCH  10  11
ENDBRANCH   9  10
ENDBRANCH   8   9
ENDBRANCH   7   8
ENDBRANCH   6   7
ENDBRANCH   5   6
ENDBRANCH   4   5
ENDBRANCH   3   4
ENDBRANCH   2   3
ENDBRANCH   1   2
BRANCH   1  15
ATOM     15  C   UNL     1      -1.102   9.269  36.327  1.00  0.00     0.000 C 
BRANCH  15  16
ATOM     16  C   UNL     1       0.319   9.466  35.755  1.00  0.00     0.000 C 
BRANCH  16  17
ATOM     17  C   UNL     1       1.397   9.846  36.789  1.00  0.00     0.000 C 
BRANCH  17  18
ATOM     18  C   UNL     1       2.049   8.622  37.453  1.00  0.00    -0.000 C 
BRANCH  18  19
ATOM     19  C   UNL     1       1.562   7.316  36.802  1.00  0.00    -0.000 C 
BRANCH  19  20
ATOM     20  C   UNL     1       2.647   6.221  36.766  1.00  0.00    -0.000 C 
BRANCH  20  21
ATOM     21  C   UNL     1       2.246   4.918  36.042  1.00  0.00    -0.000 C 
BRANCH  21  22
ATOM     22  C   UNL     1       3.202   4.459  34.917  1.00  0.00    -0.000 C 
BRANCH  22  23
ATOM     23  C   UNL     1       2.551   4.433  33.517  1.00  0.00    -0.000 C 
BRANCH  23  24
ATOM     24  C   UNL     1       1.565   5.597  33.271  1.00  0.00    -0.000 C 
BRANCH  24  25
ATOM     25  C   UNL     1       2.303   6.908  32.957  1.00  0.00    -0.003 C 
ATOM     26  C   UNL     1       1.762   7.557  31.687  1.00  0.00     0.004 C 
ENDBRANCH  24  25
ENDBRANCH  23  24
ENDBRANCH  22  23
ENDBRANCH  21  22
ENDBRANCH  20  21
ENDBRANCH  19  20
ENDBRANCH  18  19
ENDBRANCH  17  18
ENDBRANCH  16  17
ENDBRANCH  15  16
ENDBRANCH   1  15
TORSDOF 22
ENDMDL
MODEL 8
REMARK VINA RESULT:    -2.945      2.159      5.346
REMARK INTER + INTRA:         -11.542
REMARK INTER:                  -7.478
REMARK INTRA:                  -4.063
REMARK UNBOUND:                -4.808
REMARK SMILES CCCCCCCCCCCCCCCCCCCCCCCC(=O)[O-]
REMARK SMILES IDX 13 1 14 2 15 3 16 4 17 5 18 6 19 7 20 8 21 9 22 10 23 11
REMARK SMILES IDX 24 12 25 13 26 14 12 15 11 16 10 17 9 18 8 19 7 20 6 21 5 22
REMARK SMILES IDX 4 23 3 24 2 25 1 26
REMARK H PARENT
REMARK Flexibility Score: inf
ROOT
ATOM      1  C   UNL     1       1.411   3.869  39.829  1.00  0.00     0.000 C 
ENDROOT
BRANCH   1   2
ATOM      2  C   UNL     1       1.482   5.329  40.316  1.00  0.00     0.000 C 
BRANCH   2   3
ATOM      3  C   UNL     1       1.049   6.360  39.251  1.00  0.00     0.000 C 
BRANCH   3   4
ATOM      4  C   UNL     1       1.841   6.212  37.942  1.00  0.00     0.000 C 
BRANCH   4   5
ATOM      5  C   UNL     1       0.931   6.140  36.706  1.00  0.00     0.000 C 
BRANCH   5   6
ATOM      6  C   UNL     1      -0.513   5.729  37.050  1.00  0.00     0.000 C 
BRANCH   6   7
ATOM      7  C   UNL     1      -0.932   4.430  36.343  1.00  0.00     0.000 C 
BRANCH   7   8
ATOM      8  C   UNL     1       0.198   3.382  36.314  1.00  0.00     0.000 C 
BRANCH   8   9
ATOM      9  C   UNL     1       0.398   2.780  34.906  1.00  0.00     0.000 C 
BRANCH   9  10
ATOM     10  C   UNL     1      -0.020   3.727  33.765  1.00  0.00     0.006 C 
BRANCH  10  11
ATOM     11  C   UNL     1       1.162   4.492  33.157  1.00  0.00     0.053 C 
BRANCH  11  12
ATOM     12  C   UNL     1       0.805   5.020  31.803  1.00  0.00     0.041 C 
ATOM     13  O   UNL     1      -0.092   4.457  31.122  1.00  0.00    -0.550 OA
ATOM     14  O   UNL     1       1.438   6.158  31.308  1.00  0.00    -0.550 OA
ENDBRANCH  11  12
ENDBRANCH  10  11
ENDBRANCH   9  10
ENDBRANCH   8   9
ENDBRANCH   7   8
ENDBRANCH   6   7
ENDBRANCH   5   6
ENDBRANCH   4   5
ENDBRANCH   3   4
ENDBRANCH   2   3
ENDBRANCH   1   2
BRANCH   1  15
ATOM     15  C   UNL     1       0.039   3.194  40.013  1.00  0.00     0.000 C 
BRANCH  15  16
ATOM     16  C   UNL     1      -0.727   3.599  41.291  1.00  0.00     0.000 C 
BRANCH  16  17
ATOM     17  C   UNL     1      -2.247   3.347  41.253  1.00  0.00     0.000 C 
BRANCH  17  18
ATOM     18  C   UNL     1      -3.029   4.489  40.583  1.00  0.00    -0.000 C 
BRANCH  18  19
ATOM     19  C   UNL     1      -2.297   5.832  40.753  1.00  0.00    -0.000 C 
BRANCH  19  20
ATOM     20  C   UNL     1      -2.527   6.796  39.571  1.00  0.00    -0.000 C 
BRANCH  20  21
ATOM     21  C   UNL     1      -2.278   8.287  39.879  1.00  0.00    -0.000 C 
BRANCH  21  22
ATOM     22  C   UNL     1      -1.912   9.167  38.660  1.00  0.00    -0.000 C 
BRANCH  22  23
ATOM     23  C   UNL     1      -0.453   9.673  38.672  1.00  0.00    -0.000 C 
BRANCH  23  24
ATOM     24  C   UNL     1       0.197   9.721  37.271  1.00  0.00    -0.000 C 
BRANCH  24  25
ATOM     25  C   UNL     1       1.702  10.018  37.355  1.00  0.00    -0.003 C 
ATOM     26  C   UNL     1       2.212   9.887  38.788  1.00  0.00     0.004 C 
ENDBRANCH  24  25
ENDBRANCH  23  24
ENDBRANCH  22  23
ENDBRANCH  21  22
ENDBRANCH  20  21
ENDBRANCH  19  20
ENDBRANCH  18  19
ENDBRANCH  17  18
ENDBRANCH  16  17
ENDBRANCH  15  16
ENDBRANCH   1  15
TORSDOF 22
ENDMDL
MODEL 9
REMARK VINA RESULT:    -2.944      2.027      5.269
REMARK INTER + INTRA:         -11.538
REMARK INTER:                  -7.469
REMARK INTRA:                  -4.069
REMARK UNBOUND:                -4.808
REMARK SMILES CCCCCCCCCCCCCCCCCCCCCCCC(=O)[O-]
REMARK SMILES IDX 13 1 14 2 15 3 16 4 17 5 18 6 19 7 20 8 21 9 22 10 23 11
REMARK SMILES IDX 24 12 25 13 26 14 12 15 11 16 10 17 9 18 8 19 7 20 6 21 5 22
REMARK SMILES IDX 4 23 3 24 2 25 1 26
REMARK H PARENT
REMARK Flexibility Score: inf
ROOT
ATOM      1  C   UNL     1      -0.204   8.637  40.608  1.00  0.00     0.000 C 
ENDROOT
BRANCH   1   2
ATOM      2  C   UNL     1      -0.490   9.507  39.370  1.00  0.00     0.000 C 
BRANCH   2   3
ATOM      3  C   UNL     1      -1.768   9.097  38.606  1.00  0.00     0.000 C 
BRANCH   3   4
ATOM      4  C   UNL     1      -1.468   8.669  37.160  1.00  0.00     0.000 C 
BRANCH   4   5
ATOM      5  C   UNL     1      -0.133   9.230  36.643  1.00  0.00     0.000 C 
BRANCH   5   6
ATOM      6  C   UNL     1       0.929   8.136  36.425  1.00  0.00     0.000 C 
BRANCH   6   7
ATOM      7  C   UNL     1       2.268   8.483  37.095  1.00  0.00     0.000 C 
BRANCH   7   8
ATOM      8  C   UNL     1       2.548   7.618  38.340  1.00  0.00     0.000 C 
BRANCH   8   9
ATOM      9  C   UNL     1       1.672   6.347  38.375  1.00  0.00     0.000 C 
BRANCH   9  10
ATOM     10  C   UNL     1       2.477   5.048  38.565  1.00  0.00     0.006 C 
BRANCH  10  11
ATOM     11  C   UNL     1       3.930   5.166  38.087  1.00  0.00     0.053 C 
BRANCH  11  12
ATOM     12  C   UNL     1       4.743   4.015  38.589  1.00  0.00     0.041 C 
ATOM     13  O   UNL     1       4.203   2.891  38.767  1.00  0.00    -0.550 OA
ATOM     14  O   UNL     1       6.106   4.173  38.825  1.00  0.00    -0.550 OA
ENDBRANCH  11  12
ENDBRANCH  10  11
ENDBRANCH   9  10
ENDBRANCH   8   9
ENDBRANCH   7   8
ENDBRANCH   6   7
ENDBRANCH   5   6
ENDBRANCH   4   5
ENDBRANCH   3   4
ENDBRANCH   2   3
ENDBRANCH   1   2
BRANCH   1  15
ATOM     15  C   UNL     1      -1.421   7.860  41.146  1.00  0.00     0.000 C 
BRANCH  15  16
ATOM     16  C   UNL     1      -1.306   6.323  41.068  1.00  0.00     0.000 C 
BRANCH  16  17
ATOM     17  C   UNL     1      -2.566   5.595  40.558  1.00  0.00     0.000 C 
BRANCH  17  18
ATOM     18  C   UNL     1      -2.680   5.594  39.025  1.00  0.00    -0.000 C 
BRANCH  18  19
ATOM     19  C   UNL     1      -1.385   5.077  38.376  1.00  0.00    -0.000 C 
BRANCH  19  20
ATOM     20  C   UNL     1      -1.473   5.000  36.838  1.00  0.00    -0.000 C 
BRANCH  20  21
ATOM     21  C   UNL     1      -0.918   3.704  36.211  1.00  0.00    -0.000 C 
BRANCH  21  22
ATOM     22  C   UNL     1      -0.314   3.855  34.794  1.00  0.00    -0.000 C 
BRANCH  22  23
ATOM     23  C   UNL     1       0.872   4.840  34.724  1.00  0.00    -0.000 C 
BRANCH  23  24
ATOM     24  C   UNL     1       2.173   4.205  34.184  1.00  0.00    -0.000 C 
BRANCH  24  25
ATOM     25  C   UNL     1       3.381   5.135  34.382  1.00  0.00    -0.003 C 
ATOM     26  C   UNL     1       4.673   4.338  34.539  1.00  0.00     0.004 C 
ENDBRANCH  24  25
ENDBRANCH  23  24
ENDBRANCH  22  23
ENDBRANCH  21  22
ENDBRANCH  20  21
ENDBRANCH  19  20
ENDBRANCH  18  19
ENDBRANCH  17  18
ENDBRANCH  16  17
ENDBRANCH  15  16
ENDBRANCH   1  15
TORSDOF 22
ENDMDL
