MODEL 1
REMARK VINA RESULT:    -3.232      0.000      0.000
REMARK INTER + INTRA:          -6.375
REMARK INTER:                  -5.122
REMARK INTRA:                  -1.253
REMARK UNBOUND:                -1.253
REMARK SMILES CCCCCCCCCCCC(=O)[O-]
REMARK SMILES IDX 7 1 8 2 9 3 10 4 11 5 12 6 13 7 14 8 6 9 5 10 4 11 3 12 2 13
REMARK SMILES IDX 1 14
REMARK H PARENT
REMARK Flexibility Score: inf
ROOT
ATOM      1  C   UNL     1      53.416  53.422  47.307  1.00  0.00     0.000 C 
ENDROOT
BRANCH   1   2
ATOM      2  C   UNL     1      54.500  54.150  48.118  1.00  0.00     0.000 C 
BRANCH   2   3
ATOM      3  C   UNL     1      54.582  55.647  47.783  1.00  0.00     0.000 C 
BRANCH   3   4
ATOM      4  C   UNL     1      53.202  56.311  47.897  1.00  0.00     0.006 C 
BRANCH   4   5
ATOM      5  C   UNL     1      52.923  57.277  46.736  1.00  0.00     0.053 C 
BRANCH   5   6
ATOM      6  C   UNL     1      52.377  56.562  45.538  1.00  0.00     0.041 C 
ATOM      7  O   UNL     1      51.134  56.420  45.397  1.00  0.00    -0.550 OA
ATOM      8  O   UNL     1      53.243  56.023  44.594  1.00  0.00    -0.550 OA
ENDBRANCH   5   6
ENDBRANCH   4   5
ENDBRANCH   3   4
ENDBRANCH   2   3
ENDBRANCH   1   2
BRANCH   1   9
ATOM      9  C   UNL     1      52.768  52.266  48.090  1.00  0.00     0.000 C 
BRANCH   9  10
ATOM     10  C   UNL     1      53.427  52.033  49.459  1.00  0.00    -0.000 C 
BRANCH  10  11
ATOM     11  C   UNL     1      52.401  51.731  50.564  1.00  0.00    -0.000 C 
BRANCH  11  12
ATOM     12  C   UNL     1      51.823  53.007  51.196  1.00  0.00    -0.000 C 
BRANCH  12  13
ATOM     13  C   UNL     1      52.897  54.067  51.479  1.00  0.00    -0.003 C 
ATOM     14  C   UNL     1      52.321  55.476  51.362  1.00  0.00     0.004 C 
ENDBRANCH  12  13
ENDBRANCH  11  12
ENDBRANCH  10  11
ENDBRANCH   9  10
ENDBRANCH   1   9
TORSDOF 10
ENDMDL
MODEL 2
REMARK VINA RESULT:    -3.218      0.994      1.465
REMARK INTER + INTRA:          -6.352
REMARK INTER:                  -5.165
REMARK INTRA:                  -1.187
REMARK UNBOUND:                -1.253
REMARK SMILES CCCCCCCCCCCC(=O)[O-]
REMARK SMILES IDX 7 1 8 2 9 3 10 4 11 5 12 6 13 7 14 8 6 9 5 10 4 11 3 12 2 13
REMARK SMILES IDX 1 14
REMARK H PARENT
REMARK Flexibility Score: inf
ROOT
ATOM      1  C   UNL     1      53.791  52.303  47.581  1.00  0.00     0.000 C 
ENDROOT
BRANCH   1   2
ATOM      2  C   UNL     1      53.993  53.725  47.034  1.00  0.00     0.000 C 
BRANCH   2   3
ATOM      3  C   UNL     1      52.732  54.593  47.162  1.00  0.00     0.000 C 
BRANCH   3   4
ATOM      4  C   UNL     1      53.079  56.085  47.054  1.00  0.00     0.006 C 
BRANCH   4   5
ATOM      5  C   UNL     1      52.116  56.840  46.127  1.00  0.00     0.053 C 
BRANCH   5   6
ATOM      6  C   UNL     1      52.298  56.444  44.694  1.00  0.00     0.041 C 
ATOM      7  O   UNL     1      53.455  56.310  44.216  1.00  0.00    -0.550 OA
ATOM      8  O   UNL     1      51.190  56.256  43.876  1.00  0.00    -0.550 OA
ENDBRANCH   5   6
ENDBRANCH   4   5
ENDBRANCH   3   4
ENDBRANCH   2   3
ENDBRANCH   1   2
BRANCH   1   9
ATOM      9  C   UNL     1      52.546  52.187  48.480  1.00  0.00     0.000 C 
BRANCH   9  10
ATOM     10  C   UNL     1      52.898  51.872  49.943  1.00  0.00    -0.000 C 
BRANCH  10  11
ATOM     11  C   UNL     1      51.910  52.507  50.936  1.00  0.00    -0.000 C 
BRANCH  11  12
ATOM     12  C   UNL     1      52.526  53.682  51.712  1.00  0.00    -0.000 C 
BRANCH  12  13
ATOM     13  C   UNL     1      52.611  54.965  50.873  1.00  0.00    -0.003 C 
ATOM     14  C   UNL     1      54.064  55.376  50.644  1.00  0.00     0.004 C 
ENDBRANCH  12  13
ENDBRANCH  11  12
ENDBRANCH  10  11
ENDBRANCH   9  10
ENDBRANCH   1   9
TORSDOF 10
ENDMDL
MODEL 3
REMARK VINA RESULT:    -3.213      2.987      5.197
REMARK INTER + INTRA:          -6.345
REMARK INTER:                  -4.879
REMARK INTRA:                  -1.465
REMARK UNBOUND:                -1.253
REMARK SMILES CCCCCCCCCCCC(=O)[O-]
REMARK SMILES IDX 7 1 8 2 9 3 10 4 11 5 12 6 13 7 14 8 6 9 5 10 4 11 3 12 2 13
REMARK SMILES IDX 1 14
REMARK H PARENT
REMARK Flexibility Score: inf
ROOT
ATOM      1  C   UNL     1      55.710  54.517  46.921  1.00  0.00     0.000 C 
ENDROOT
BRANCH   1   2
ATOM      2  C   UNL     1      54.790  53.750  47.883  1.00  0.00     0.000 C 
BRANCH   2   3
ATOM      3  C   UNL     1      53.974  52.658  47.176  1.00  0.00     0.000 C 
BRANCH   3   4
ATOM      4  C   UNL     1      52.705  52.318  47.972  1.00  0.00     0.006 C 
BRANCH   4   5
ATOM      5  C   UNL     1      52.433  53.331  49.092  1.00  0.00     0.053 C 
BRANCH   5   6
ATOM      6  C   UNL     1      52.149  52.653  50.398  1.00  0.00     0.041 C 
ATOM      7  O   UNL     1      51.726  53.319  51.378  1.00  0.00    -0.550 OA
ATOM      8  O   UNL     1      52.386  51.291  50.541  1.00  0.00    -0.550 OA
ENDBRANCH   5   6
ENDBRANCH   4   5
ENDBRANCH   3   4
ENDBRANCH   2   3
ENDBRANCH   1   2
BRANCH   1   9
ATOM      9  C   UNL     1      55.143  54.589  45.491  1.00  0.00     0.000 C 
BRANCH   9  10
ATOM     10  C   UNL     1      54.652  55.997  45.117  1.00  0.00    -0.000 C 
BRANCH  10  11
ATOM     11  C   UNL     1      53.128  56.058  44.923  1.00  0.00    -0.000 C 
BRANCH  11  12
ATOM     12  C   UNL     1      52.366  56.109  46.256  1.00  0.00    -0.000 C 
BRANCH  12  13
ATOM     13  C   UNL     1      52.687  57.367  47.076  1.00  0.00    -0.003 C 
ATOM     14  C   UNL     1      53.140  57.003  48.487  1.00  0.00     0.004 C 
ENDBRANCH  12  13
ENDBRANCH  11  12
ENDBRANCH  10  11
ENDBRANCH   9  10
ENDBRANCH   1   9
TORSDOF 10
ENDMDL
MODEL 4
REMARK VINA RESULT:    -3.206      1.197      2.147
REMARK INTER + INTRA:          -6.333
REMARK INTER:                  -5.012
REMARK INTRA:                  -1.322
REMARK UNBOUND:                -1.253
REMARK SMILES CCCCCCCCCCCC(=O)[O-]
REMARK SMILES IDX 7 1 8 2 9 3 10 4 11 5 12 6 13 7 14 8 6 9 5 10 4 11 3 12 2 13
REMARK SMILES IDX 1 14
REMARK H PARENT
REMARK Flexibility Score: inf
ROOT
ATOM      1  C   UNL     1      53.759  51.939  49.237  1.00  0.00     0.000 C 
ENDROOT
BRANCH   1   2
ATOM      2  C   UNL     1      53.094  52.272  47.892  1.00  0.00     0.000 C 
BRANCH   2   3
ATOM      3  C   UNL     1      52.710  53.755  47.774  1.00  0.00     0.000 C 
BRANCH   3   4
ATOM      4  C   UNL     1      53.872  54.579  47.201  1.00  0.00     0.006 C 
BRANCH   4   5
ATOM      5  C   UNL     1      53.474  55.338  45.927  1.00  0.00     0.053 C 
BRANCH   5   6
ATOM      6  C   UNL     1      52.377  56.324  46.187  1.00  0.00     0.041 C 
ATOM      7  O   UNL     1      51.347  56.331  45.463  1.00  0.00    -0.550 OA
ATOM      8  O   UNL     1      52.507  57.257  47.209  1.00  0.00    -0.550 OA
ENDBRANCH   5   6
ENDBRANCH   4   5
ENDBRANCH   3   4
ENDBRANCH   2   3
ENDBRANCH   1   2
BRANCH   1   9
ATOM      9  C   UNL     1      52.785  51.281  50.231  1.00  0.00     0.000 C 
BRANCH   9  10
ATOM     10  C   UNL     1      51.943  52.308  51.006  1.00  0.00    -0.000 C 
BRANCH  10  11
ATOM     11  C   UNL     1      52.803  53.409  51.649  1.00  0.00    -0.000 C 
BRANCH  11  12
ATOM     12  C   UNL     1      52.281  54.821  51.340  1.00  0.00    -0.000 C 
BRANCH  12  13
ATOM     13  C   UNL     1      53.373  55.750  50.788  1.00  0.00    -0.003 C 
ATOM     14  C   UNL     1      54.738  55.068  50.815  1.00  0.00     0.004 C 
ENDBRANCH  12  13
ENDBRANCH  11  12
ENDBRANCH  10  11
ENDBRANCH   9  10
ENDBRANCH   1   9
TORSDOF 10
ENDMDL
MODEL 5
REMARK VINA RESULT:    -3.116      1.366      2.006
REMARK INTER + INTRA:          -6.190
REMARK INTER:                  -5.040
REMARK INTRA:                  -1.150
REMARK UNBOUND:                -1.253
REMARK SMILES CCCCCCCCCCCC(=O)[O-]
REMARK SMILES IDX 7 1 8 2 9 3 10 4 11 5 12 6 13 7 14 8 6 9 5 10 4 11 3 12 2 13
REMARK SMILES IDX 1 14
REMARK H PARENT
REMARK Flexibility Score: inf
ROOT
ATOM      1  C   UNL     1      54.764  51.329  48.516  1.00  0.00     0.000 C 
ENDROOT
BRANCH   1   2
ATOM      2  C   UNL     1      54.530  52.314  47.360  1.00  0.00     0.000 C 
BRANCH   2   3
ATOM      3  C   UNL     1      53.093  52.856  47.327  1.00  0.00     0.000 C 
BRANCH   3   4
ATOM      4  C   UNL     1      53.066  54.362  47.625  1.00  0.00     0.006 C 
BRANCH   4   5
ATOM      5  C   UNL     1      53.293  55.208  46.364  1.00  0.00     0.053 C 
BRANCH   5   6
ATOM      6  C   UNL     1      52.359  56.377  46.303  1.00  0.00     0.041 C 
ATOM      7  O   UNL     1      52.552  57.381  47.038  1.00  0.00    -0.550 OA
ATOM      8  O   UNL     1      51.255  56.344  45.459  1.00  0.00    -0.550 OA
ENDBRANCH   5   6
ENDBRANCH   4   5
ENDBRANCH   3   4
ENDBRANCH   2   3
ENDBRANCH   1   2
BRANCH   1   9
ATOM      9  C   UNL     1      55.093  52.040  49.842  1.00  0.00     0.000 C 
BRANCH   9  10
ATOM     10  C   UNL     1      54.348  51.432  51.042  1.00  0.00    -0.000 C 
BRANCH  10  11
ATOM     11  C   UNL     1      52.884  51.092  50.716  1.00  0.00    -0.000 C 
BRANCH  11  12
ATOM     12  C   UNL     1      51.961  52.317  50.799  1.00  0.00    -0.000 C 
BRANCH  12  13
ATOM     13  C   UNL     1      52.419  53.334  51.856  1.00  0.00    -0.003 C 
ATOM     14  C   UNL     1      52.400  54.754  51.295  1.00  0.00     0.004 C 
ENDBRANCH  12  13
ENDBRANCH  11  12
ENDBRANCH  10  11
ENDBRANCH   9  10
ENDBRANCH   1   9
TORSDOF 10
ENDMDL
MODEL 6
REMARK VINA RESULT:    -3.061      1.353      1.975
REMARK INTER + INTRA:          -6.104
REMARK INTER:                  -5.021
REMARK INTRA:                  -1.083
REMARK UNBOUND:                -1.253
REMARK SMILES CCCCCCCCCCCC(=O)[O-]
REMARK SMILES IDX 7 1 8 2 9 3 10 4 11 5 12 6 13 7 14 8 6 9 5 10 4 11 3 12 2 13
REMARK SMILES IDX 1 14
REMARK H PARENT
REMARK Flexibility Score: inf
ROOT
ATOM      1  C   UNL     1      54.455  54.099  48.184  1.00  0.00     0.000 C 
ENDROOT
BRANCH   1   2
ATOM      2  C   UNL     1      55.566  54.243  47.132  1.00  0.00     0.000 C 
BRANCH   2   3
ATOM      3  C   UNL     1      55.015  54.372  45.704  1.00  0.00     0.000 C 
BRANCH   3   4
ATOM      4  C   UNL     1      54.997  55.840  45.252  1.00  0.00     0.006 C 
BRANCH   4   5
ATOM      5  C   UNL     1      53.664  56.231  44.600  1.00  0.00     0.053 C 
BRANCH   5   6
ATOM      6  C   UNL     1      52.657  56.675  45.616  1.00  0.00     0.041 C 
ATOM      7  O   UNL     1      51.467  56.268  45.549  1.00  0.00    -0.550 OA
ATOM      8  O   UNL     1      53.024  57.565  46.618  1.00  0.00    -0.550 OA
ENDBRANCH   5   6
ENDBRANCH   4   5
ENDBRANCH   3   4
ENDBRANCH   2   3
ENDBRANCH   1   2
BRANCH   1   9
ATOM      9  C   UNL     1      53.117  53.647  47.572  1.00  0.00     0.000 C 
BRANCH   9  10
ATOM     10  C   UNL     1      52.659  52.274  48.092  1.00  0.00    -0.000 C 
BRANCH  10  11
ATOM     11  C   UNL     1      53.588  51.718  49.184  1.00  0.00    -0.000 C 
BRANCH  11  12
ATOM     12  C   UNL     1      52.827  51.311  50.455  1.00  0.00    -0.000 C 
BRANCH  12  13
ATOM     13  C   UNL     1      51.904  52.423  50.974  1.00  0.00    -0.003 C 
ATOM     14  C   UNL     1      52.702  53.512  51.686  1.00  0.00     0.004 C 
ENDBRANCH  12  13
ENDBRANCH  11  12
ENDBRANCH  10  11
ENDBRANCH   9  10
ENDBRANCH   1   9
TORSDOF 10
ENDMDL
MODEL 7
REMARK VINA RESULT:    -3.049      1.001      2.723
REMARK INTER + INTRA:          -6.085
REMARK INTER:                  -4.793
REMARK INTRA:                  -1.292
REMARK UNBOUND:                -1.253
REMARK SMILES CCCCCCCCCCCC(=O)[O-]
REMARK SMILES IDX 7 1 8 2 9 3 10 4 11 5 12 6 13 7 14 8 6 9 5 10 4 11 3 12 2 13
REMARK SMILES IDX 1 14
REMARK H PARENT
REMARK Flexibility Score: inf
ROOT
ATOM      1  C   UNL     1      53.646  55.507  50.675  1.00  0.00     0.000 C 
ENDROOT
BRANCH   1   2
ATOM      2  C   UNL     1      53.419  55.914  49.210  1.00  0.00     0.000 C 
BRANCH   2   3
ATOM      3  C   UNL     1      54.657  55.675  48.332  1.00  0.00     0.000 C 
BRANCH   3   4
ATOM      4  C   UNL     1      54.257  55.471  46.864  1.00  0.00     0.006 C 
BRANCH   4   5
ATOM      5  C   UNL     1      52.736  55.372  46.683  1.00  0.00     0.053 C 
BRANCH   5   6
ATOM      6  C   UNL     1      52.250  56.249  45.569  1.00  0.00     0.041 C 
ATOM      7  O   UNL     1      51.021  56.484  45.438  1.00  0.00    -0.550 OA
ATOM      8  O   UNL     1      53.153  56.777  44.655  1.00  0.00    -0.550 OA
ENDBRANCH   5   6
ENDBRANCH   4   5
ENDBRANCH   3   4
ENDBRANCH   2   3
ENDBRANCH   1   2
BRANCH   1   9
ATOM      9  C   UNL     1      52.359  55.008  51.357  1.00  0.00     0.000 C 
BRANCH   9  10
ATOM     10  C   UNL     1      52.438  53.528  51.764  1.00  0.00    -0.000 C 
BRANCH  10  11
ATOM     11  C   UNL     1      51.932  52.585  50.660  1.00  0.00    -0.000 C 
BRANCH  11  12
ATOM     12  C   UNL     1      53.074  51.846  49.945  1.00  0.00    -0.000 C 
BRANCH  12  13
ATOM     13  C   UNL     1      53.112  52.132  48.437  1.00  0.00    -0.003 C 
ATOM     14  C   UNL     1      54.514  51.918  47.873  1.00  0.00     0.004 C 
ENDBRANCH  12  13
ENDBRANCH  11  12
ENDBRANCH  10  11
ENDBRANCH   9  10
ENDBRANCH   1   9
TORSDOF 10
ENDMDL
MODEL 8
REMARK VINA RESULT:    -2.987      2.965      5.801
REMARK INTER + INTRA:          -5.986
REMARK INTER:                  -5.118
REMARK INTRA:                  -0.868
REMARK UNBOUND:                -1.253
REMARK SMILES CCCCCCCCCCCC(=O)[O-]
REMARK SMILES IDX 7 1 8 2 9 3 10 4 11 5 12 6 13 7 14 8 6 9 5 10 4 11 3 12 2 13
REMARK SMILES IDX 1 14
REMARK H PARENT
REMARK Flexibility Score: inf
ROOT
ATOM      1  C   UNL     1      53.099  53.522  47.281  1.00  0.00     0.000 C 
ENDROOT
BRANCH   1   2
ATOM      2  C   UNL     1      52.743  52.273  48.102  1.00  0.00     0.000 C 
BRANCH   2   3
ATOM      3  C   UNL     1      53.740  52.010  49.240  1.00  0.00     0.000 C 
BRANCH   3   4
ATOM      4  C   UNL     1      53.034  51.391  50.456  1.00  0.00     0.006 C 
BRANCH   4   5
ATOM      5  C   UNL     1      51.883  52.267  50.969  1.00  0.00     0.053 C 
BRANCH   5   6
ATOM      6  C   UNL     1      52.386  53.492  51.670  1.00  0.00     0.041 C 
ATOM      7  O   UNL     1      52.194  54.631  51.171  1.00  0.00    -0.550 OA
ATOM      8  O   UNL     1      53.098  53.371  52.858  1.00  0.00    -0.550 OA
ENDBRANCH   5   6
ENDBRANCH   4   5
ENDBRANCH   3   4
ENDBRANCH   2   3
ENDBRANCH   1   2
BRANCH   1   9
ATOM      9  C   UNL     1      54.618  53.750  47.179  1.00  0.00     0.000 C 
BRANCH   9  10
ATOM     10  C   UNL     1      54.977  55.181  46.745  1.00  0.00    -0.000 C 
BRANCH  10  11
ATOM     11  C   UNL     1      55.142  55.311  45.222  1.00  0.00    -0.000 C 
BRANCH  11  12
ATOM     12  C   UNL     1      54.072  56.213  44.587  1.00  0.00    -0.000 C 
BRANCH  12  13
ATOM     13  C   UNL     1      53.110  56.811  45.624  1.00  0.00    -0.003 C 
ATOM     14  C   UNL     1      51.669  56.392  45.342  1.00  0.00     0.004 C 
ENDBRANCH  12  13
ENDBRANCH  11  12
ENDBRANCH  10  11
ENDBRANCH   9  10
ENDBRANCH   1   9
TORSDOF 10
ENDMDL
MODEL 9
REMARK VINA RESULT:    -2.979      1.135      2.756
REMARK INTER + INTRA:          -5.973
REMARK INTER:                  -4.389
REMARK INTRA:                  -1.584
REMARK UNBOUND:                -1.253
REMARK SMILES CCCCCCCCCCCC(=O)[O-]
REMARK SMILES IDX 7 1 8 2 9 3 10 4 11 5 12 6 13 7 14 8 6 9 5 10 4 11 3 12 2 13
REMARK SMILES IDX 1 14
REMARK H PARENT
REMARK Flexibility Score: inf
ROOT
ATOM      1  C   UNL     1      55.605  54.035  49.909  1.00  0.00     0.000 C 
ENDROOT
BRANCH   1   2
ATOM      2  C   UNL     1      55.130  54.625  48.571  1.00  0.00     0.000 C 
BRANCH   2   3
ATOM      3  C   UNL     1      54.668  53.546  47.580  1.00  0.00     0.000 C 
BRANCH   3   4
ATOM      4  C   UNL     1      53.241  53.828  47.088  1.00  0.00     0.006 C 
BRANCH   4   5
ATOM      5  C   UNL     1      52.931  55.331  47.036  1.00  0.00     0.053 C 
BRANCH   5   6
ATOM      6  C   UNL     1      52.686  55.800  45.633  1.00  0.00     0.041 C 
ATOM      7  O   UNL     1      53.631  55.830  44.802  1.00  0.00    -0.550 OA
ATOM      8  O   UNL     1      51.422  56.234  45.255  1.00  0.00    -0.550 OA
ENDBRANCH   5   6
ENDBRANCH   4   5
ENDBRANCH   3   4
ENDBRANCH   2   3
ENDBRANCH   1   2
BRANCH   1   9
ATOM      9  C   UNL     1      54.777  54.538  51.105  1.00  0.00     0.000 C 
BRANCH   9  10
ATOM     10  C   UNL     1      53.337  54.913  50.715  1.00  0.00    -0.000 C 
BRANCH  10  11
ATOM     11  C   UNL     1      52.299  53.929  51.279  1.00  0.00    -0.000 C 
BRANCH  11  12
ATOM     12  C   UNL     1      52.077  52.715  50.363  1.00  0.00    -0.000 C 
BRANCH  12  13
ATOM     13  C   UNL     1      52.661  51.420  50.945  1.00  0.00    -0.003 C 
ATOM     14  C   UNL     1      53.736  50.842  50.028  1.00  0.00     0.004 C 
ENDBRANCH  12  13
ENDBRANCH  11  12
ENDBRANCH  10  11
ENDBRANCH   9  10
ENDBRANCH   1   9
TORSDOF 10
ENDMDL
