MODEL 1
REMARK VINA RESULT:    -2.218      0.000      0.000
REMARK INTER + INTRA:          -5.212
REMARK INTER:                  -4.293
REMARK INTRA:                  -0.919
REMARK UNBOUND:                -0.919
REMARK SMILES CCCCCCCCCCCCCCCCCC(=O)[O-]
REMARK SMILES IDX 10 1 11 2 12 3 13 4 14 5 15 6 16 7 17 8 18 9 19 10 20 11
REMARK SMILES IDX 9 12 8 13 7 14 6 15 5 16 4 17 3 18 2 19 1 20
REMARK H PARENT
REMARK Flexibility Score: inf
ROOT
ATOM      1  C   UNL     1      -7.140  -5.781  -6.990  1.00  0.00     0.000 C 
ENDROOT
BRANCH   1   2
ATOM      2  C   UNL     1      -7.961  -4.544  -6.598  1.00  0.00     0.000 C 
BRANCH   2   3
ATOM      3  C   UNL     1      -9.463  -4.864  -6.584  1.00  0.00     0.000 C 
BRANCH   3   4
ATOM      4  C   UNL     1     -10.102  -4.780  -7.979  1.00  0.00     0.000 C 
BRANCH   4   5
ATOM      5  C   UNL     1      -9.376  -5.649  -9.020  1.00  0.00     0.000 C 
BRANCH   5   6
ATOM      6  C   UNL     1     -10.036  -7.035  -9.185  1.00  0.00     0.000 C 
BRANCH   6   7
ATOM      7  C   UNL     1     -10.118  -7.835  -7.871  1.00  0.00     0.006 C 
BRANCH   7   8
ATOM      8  C   UNL     1      -9.658  -9.294  -7.998  1.00  0.00     0.053 C 
BRANCH   8   9
ATOM      9  C   UNL     1      -8.164  -9.410  -7.979  1.00  0.00     0.041 C 
ATOM     10  O   UNL     1      -7.509  -9.397  -9.053  1.00  0.00    -0.550 OA
ATOM     11  O   UNL     1      -7.496  -9.549  -6.769  1.00  0.00    -0.550 OA
ENDBRANCH   8   9
ENDBRANCH   7   8
ENDBRANCH   6   7
ENDBRANCH   5   6
ENDBRANCH   4   5
ENDBRANCH   3   4
ENDBRANCH   2   3
ENDBRANCH   1   2
BRANCH   1  12
ATOM     12  C   UNL     1      -5.905  -5.435  -7.841  1.00  0.00     0.000 C 
BRANCH  12  13
ATOM     13  C   UNL     1      -6.151  -5.383  -9.363  1.00  0.00    -0.000 C 
BRANCH  13  14
ATOM     14  C   UNL     1      -5.789  -6.670 -10.125  1.00  0.00    -0.000 C 
BRANCH  14  15
ATOM     15  C   UNL     1      -4.486  -7.314  -9.618  1.00  0.00    -0.000 C 
BRANCH  15  16
ATOM     16  C   UNL     1      -4.315  -8.760 -10.109  1.00  0.00    -0.000 C 
BRANCH  16  17
ATOM     17  C   UNL     1      -3.581  -9.646  -9.087  1.00  0.00    -0.000 C 
BRANCH  17  18
ATOM     18  C   UNL     1      -4.454 -10.001  -7.870  1.00  0.00    -0.000 C 
BRANCH  18  19
ATOM     19  C   UNL     1      -3.687 -10.123  -6.541  1.00  0.00    -0.003 C 
ATOM     20  C   UNL     1      -2.666  -9.004  -6.336  1.00  0.00     0.004 C 
ENDBRANCH  18  19
ENDBRANCH  17  18
ENDBRANCH  16  17
ENDBRANCH  15  16
ENDBRANCH  14  15
ENDBRANCH  13  14
ENDBRANCH  12  13
ENDBRANCH   1  12
TORSDOF 16
ENDMDL
MODEL 2
REMARK VINA RESULT:    -1.800      1.614      3.875
REMARK INTER + INTRA:          -4.402
REMARK INTER:                  -2.903
REMARK INTRA:                  -1.499
REMARK UNBOUND:                -0.919
REMARK SMILES CCCCCCCCCCCCCCCCCC(=O)[O-]
REMARK SMILES IDX 10 1 11 2 12 3 13 4 14 5 15 6 16 7 17 8 18 9 19 10 20 11
REMARK SMILES IDX 9 12 8 13 7 14 6 15 5 16 4 17 3 18 2 19 1 20
REMARK H PARENT
REMARK Flexibility Score: inf
ROOT
ATOM      1  C   UNL     1      -8.966  -6.412  -7.777  1.00  0.00     0.000 C 
ENDROOT
BRANCH   1   2
ATOM      2  C   UNL     1      -9.267  -5.250  -6.819  1.00  0.00     0.000 C 
BRANCH   2   3
ATOM      3  C   UNL     1      -7.986  -4.471  -6.482  1.00  0.00     0.000 C 
BRANCH   3   4
ATOM      4  C   UNL     1      -6.717  -5.156  -7.014  1.00  0.00     0.000 C 
BRANCH   4   5
ATOM      5  C   UNL     1      -6.037  -4.357  -8.139  1.00  0.00     0.000 C 
BRANCH   5   6
ATOM      6  C   UNL     1      -5.905  -5.179  -9.440  1.00  0.00     0.000 C 
BRANCH   6   7
ATOM      7  C   UNL     1      -4.994  -6.412  -9.296  1.00  0.00     0.006 C 
BRANCH   7   8
ATOM      8  C   UNL     1      -5.447  -7.624 -10.124  1.00  0.00     0.053 C 
BRANCH   8   9
ATOM      9  C   UNL     1      -4.580  -8.820  -9.878  1.00  0.00     0.041 C 
ATOM     10  O   UNL     1      -3.377  -8.677  -9.536  1.00  0.00    -0.550 OA
ATOM     11  O   UNL     1      -5.098 -10.098 -10.044  1.00  0.00    -0.550 OA
ENDBRANCH   8   9
ENDBRANCH   7   8
ENDBRANCH   6   7
ENDBRANCH   5   6
ENDBRANCH   4   5
ENDBRANCH   3   4
ENDBRANCH   2   3
ENDBRANCH   1   2
BRANCH   1  12
ATOM     12  C   UNL     1     -10.122  -7.423  -7.873  1.00  0.00     0.000 C 
BRANCH  12  13
ATOM     13  C   UNL     1      -9.743  -8.797  -8.464  1.00  0.00    -0.000 C 
BRANCH  13  14
ATOM     14  C   UNL     1      -8.246  -8.985  -8.769  1.00  0.00    -0.000 C 
BRANCH  14  15
ATOM     15  C   UNL     1      -7.538  -9.882  -7.738  1.00  0.00    -0.000 C 
BRANCH  15  16
ATOM     16  C   UNL     1      -7.562  -9.284  -6.323  1.00  0.00    -0.000 C 
BRANCH  16  17
ATOM     17  C   UNL     1      -6.748 -10.117  -5.318  1.00  0.00    -0.000 C 
BRANCH  17  18
ATOM     18  C   UNL     1      -5.265  -9.711  -5.268  1.00  0.00    -0.000 C 
BRANCH  18  19
ATOM     19  C   UNL     1      -4.444 -10.116  -6.505  1.00  0.00    -0.003 C 
ATOM     20  C   UNL     1      -2.998  -9.622  -6.450  1.00  0.00     0.004 C 
ENDBRANCH  18  19
ENDBRANCH  17  18
ENDBRANCH  16  17
ENDBRANCH  15  16
ENDBRANCH  14  15
ENDBRANCH  13  14
ENDBRANCH  12  13
ENDBRANCH   1  12
TORSDOF 16
ENDMDL
MODEL 3
REMARK VINA RESULT:    -0.292     21.865     23.946
REMARK INTER + INTRA:          -1.483
REMARK INTER:                  -1.864
REMARK INTRA:                   0.381
REMARK UNBOUND:                -0.919
REMARK SMILES CCCCCCCCCCCCCCCCCC(=O)[O-]
REMARK SMILES IDX 10 1 11 2 12 3 13 4 14 5 15 6 16 7 17 8 18 9 19 10 20 11
REMARK SMILES IDX 9 12 8 13 7 14 6 15 5 16 4 17 3 18 2 19 1 20
REMARK H PARENT
REMARK Flexibility Score: inf
ROOT
ATOM      1  C   UNL     1       9.435   6.518   1.171  1.00  0.00     0.000 C 
ENDROOT
BRANCH   1   2
ATOM      2  C   UNL     1      10.125   6.896   2.490  1.00  0.00     0.000 C 
BRANCH   2   3
ATOM      3  C   UNL     1      10.067   5.733   3.491  1.00  0.00     0.000 C 
BRANCH   3   4
ATOM      4  C   UNL     1       9.210   6.053   4.726  1.00  0.00     0.000 C 
BRANCH   4   5
ATOM      5  C   UNL     1       9.682   7.315   5.467  1.00  0.00     0.000 C 
BRANCH   5   6
ATOM      6  C   UNL     1       9.654   8.567   4.563  1.00  0.00     0.000 C 
BRANCH   6   7
ATOM      7  C   UNL     1       8.329   9.350   4.641  1.00  0.00     0.006 C 
BRANCH   7   8
ATOM      8  C   UNL     1       7.114   8.485   5.002  1.00  0.00     0.053 C 
BRANCH   8   9
ATOM      9  C   UNL     1       5.895   9.319   5.259  1.00  0.00     0.041 C 
ATOM     10  O   UNL     1       5.750   9.915   6.358  1.00  0.00    -0.550 OA
ATOM     11  O   UNL     1       4.908   9.422   4.287  1.00  0.00    -0.550 OA
ENDBRANCH   8   9
ENDBRANCH   7   8
ENDBRANCH   6   7
ENDBRANCH   5   6
ENDBRANCH   4   5
ENDBRANCH   3   4
ENDBRANCH   2   3
ENDBRANCH   1   2
BRANCH   1  12
ATOM     12  C   UNL     1       8.439   5.356   1.329  1.00  0.00     0.000 C 
BRANCH  12  13
ATOM     13  C   UNL     1       8.885   4.020   0.701  1.00  0.00    -0.000 C 
BRANCH  13  14
ATOM     14  C   UNL     1      10.035   3.308   1.436  1.00  0.00    -0.000 C 
BRANCH  14  15
ATOM     15  C   UNL     1       9.556   2.525   2.672  1.00  0.00    -0.000 C 
BRANCH  15  16
ATOM     16  C   UNL     1       9.902   1.030   2.591  1.00  0.00    -0.000 C 
BRANCH  16  17
ATOM     17  C   UNL     1       9.178   0.199   3.664  1.00  0.00    -0.000 C 
BRANCH  17  18
ATOM     18  C   UNL     1       8.843   1.016   4.925  1.00  0.00    -0.000 C 
BRANCH  18  19
ATOM     19  C   UNL     1       9.105   0.285   6.254  1.00  0.00    -0.003 C 
ATOM     20  C   UNL     1       8.041   0.575   7.314  1.00  0.00     0.004 C 
ENDBRANCH  18  19
ENDBRANCH  17  18
ENDBRANCH  16  17
ENDBRANCH  15  16
ENDBRANCH  14  15
ENDBRANCH  13  14
ENDBRANCH  12  13
ENDBRANCH   1  12
TORSDOF 16
ENDMDL
