MODEL 1
REMARK VINA RESULT:    -4.640      0.000      0.000
REMARK INTER + INTRA:          -5.052
REMARK INTER:                  -4.911
REMARK INTRA:                  -0.141
REMARK UNBOUND:                -0.141
REMARK SMILES CC1=CC[C@@H](C(C)C)C=C1
REMARK SMILES IDX 1 1 2 2 3 3 4 4 5 5 9 6 10 7 6 8 7 9 8 10
REMARK H PARENT
REMARK Flexibility Score: inf
ROOT
ATOM      1  C   UNL     1       8.767  -2.676  16.740  1.00  0.00     0.044 C 
ATOM      2  C   UNL     1       7.301  -2.412  16.915  1.00  0.00    -0.055 C 
ATOM      3  C   UNL     1       6.744  -2.464  18.135  1.00  0.00    -0.023 C 
ATOM      4  C   UNL     1       5.289  -2.131  18.327  1.00  0.00     0.035 C 
ATOM      5  C   UNL     1       4.450  -2.626  17.125  1.00  0.00     0.018 C 
ATOM      6  C   UNL     1       5.114  -2.227  15.822  1.00  0.00    -0.023 C 
ATOM      7  C   UNL     1       6.447  -2.181  15.726  1.00  0.00    -0.001 C 
ENDROOT
BRANCH   5   8
ATOM      8  C   UNL     1       2.960  -2.184  17.227  1.00  0.00    -0.010 C 
ATOM      9  C   UNL     1       2.495  -1.306  16.051  1.00  0.00     0.008 C 
ATOM     10  C   UNL     1       2.027  -3.396  17.383  1.00  0.00     0.008 C 
ENDBRANCH   5   8
TORSDOF 1
ENDMDL
MODEL 2
REMARK VINA RESULT:    -4.623      0.737      1.716
REMARK INTER + INTRA:          -5.035
REMARK INTER:                  -4.845
REMARK INTRA:                  -0.190
REMARK UNBOUND:                -0.141
REMARK SMILES CC1=CC[C@@H](C(C)C)C=C1
REMARK SMILES IDX 1 1 2 2 3 3 4 4 5 5 9 6 10 7 6 8 7 9 8 10
REMARK H PARENT
REMARK Flexibility Score: inf
ROOT
ATOM      1  C   UNL     1       8.830  -2.023  16.442  1.00  0.00     0.044 C 
ATOM      2  C   UNL     1       7.358  -2.289  16.545  1.00  0.00    -0.055 C 
ATOM      3  C   UNL     1       6.544  -2.008  15.514  1.00  0.00    -0.023 C 
ATOM      4  C   UNL     1       5.078  -2.337  15.586  1.00  0.00     0.035 C 
ATOM      5  C   UNL     1       4.535  -2.119  17.018  1.00  0.00     0.018 C 
ATOM      6  C   UNL     1       5.465  -2.753  18.034  1.00  0.00    -0.023 C 
ATOM      7  C   UNL     1       6.785  -2.779  17.822  1.00  0.00    -0.001 C 
ENDROOT
BRANCH   5   8
ATOM      8  C   UNL     1       3.052  -2.574  17.160  1.00  0.00    -0.010 C 
ATOM      9  C   UNL     1       2.316  -2.708  15.814  1.00  0.00     0.008 C 
ATOM     10  C   UNL     1       2.944  -3.886  17.953  1.00  0.00     0.008 C 
ENDBRANCH   5   8
TORSDOF 1
ENDMDL
MODEL 3
REMARK VINA RESULT:    -4.441      8.267     10.013
REMARK INTER + INTRA:          -4.842
REMARK INTER:                  -4.655
REMARK INTRA:                  -0.188
REMARK UNBOUND:                -0.141
REMARK SMILES CC1=CC[C@@H](C(C)C)C=C1
REMARK SMILES IDX 1 1 2 2 3 3 4 4 5 5 9 6 10 7 6 8 7 9 8 10
REMARK H PARENT
REMARK Flexibility Score: inf
ROOT
ATOM      1  C   UNL     1       9.739   0.778  28.302  1.00  0.00     0.044 C 
ATOM      2  C   UNL     1       9.639   0.819  26.806  1.00  0.00    -0.055 C 
ATOM      3  C   UNL     1      10.714   0.550  26.048  1.00  0.00    -0.023 C 
ATOM      4  C   UNL     1      10.603   0.521  24.547  1.00  0.00     0.035 C 
ATOM      5  C   UNL     1       9.617   1.603  24.048  1.00  0.00     0.018 C 
ATOM      6  C   UNL     1       8.340   1.566  24.865  1.00  0.00    -0.023 C 
ATOM      7  C   UNL     1       8.374   1.247  26.163  1.00  0.00    -0.001 C 
ENDROOT
BRANCH   5   8
ATOM      8  C   UNL     1       9.378   1.517  22.511  1.00  0.00    -0.010 C 
ATOM      9  C   UNL     1       9.486   0.087  21.950  1.00  0.00     0.008 C 
ATOM     10  C   UNL     1       8.026   2.136  22.122  1.00  0.00     0.008 C 
ENDBRANCH   5   8
TORSDOF 1
ENDMDL
MODEL 4
REMARK VINA RESULT:    -4.347      1.284      2.736
REMARK INTER + INTRA:          -4.743
REMARK INTER:                  -4.616
REMARK INTRA:                  -0.127
REMARK UNBOUND:                -0.141
REMARK SMILES CC1=CC[C@@H](C(C)C)C=C1
REMARK SMILES IDX 1 1 2 2 3 3 4 4 5 5 9 6 10 7 6 8 7 9 8 10
REMARK H PARENT
REMARK Flexibility Score: inf
ROOT
ATOM      1  C   UNL     1       7.037  -2.182  15.717  1.00  0.00     0.044 C 
ATOM      2  C   UNL     1       5.546  -2.255  15.855  1.00  0.00    -0.055 C 
ATOM      3  C   UNL     1       4.753  -1.912  14.826  1.00  0.00    -0.023 C 
ATOM      4  C   UNL     1       3.259  -2.050  14.934  1.00  0.00     0.035 C 
ATOM      5  C   UNL     1       2.778  -1.709  16.364  1.00  0.00     0.018 C 
ATOM      6  C   UNL     1       3.641  -2.417  17.391  1.00  0.00    -0.023 C 
ATOM      7  C   UNL     1       4.943  -2.618  17.159  1.00  0.00    -0.001 C 
ENDROOT
BRANCH   5   8
ATOM      8  C   UNL     1       1.252  -1.966  16.548  1.00  0.00    -0.010 C 
ATOM      9  C   UNL     1       0.849  -2.269  18.003  1.00  0.00     0.008 C 
ATOM     10  C   UNL     1       0.419  -0.797  16.002  1.00  0.00     0.008 C 
ENDBRANCH   5   8
TORSDOF 1
ENDMDL
MODEL 5
REMARK VINA RESULT:    -4.326      1.875      3.239
REMARK INTER + INTRA:          -4.721
REMARK INTER:                  -4.537
REMARK INTRA:                  -0.183
REMARK UNBOUND:                -0.141
REMARK SMILES CC1=CC[C@@H](C(C)C)C=C1
REMARK SMILES IDX 1 1 2 2 3 3 4 4 5 5 9 6 10 7 6 8 7 9 8 10
REMARK H PARENT
REMARK Flexibility Score: inf
ROOT
ATOM      1  C   UNL     1       4.624  -5.248  20.150  1.00  0.00     0.044 C 
ATOM      2  C   UNL     1       4.322  -4.321  19.011  1.00  0.00    -0.055 C 
ATOM      3  C   UNL     1       5.202  -3.369  18.660  1.00  0.00    -0.023 C 
ATOM      4  C   UNL     1       4.935  -2.483  17.474  1.00  0.00     0.035 C 
ATOM      5  C   UNL     1       3.428  -2.152  17.362  1.00  0.00     0.018 C 
ATOM      6  C   UNL     1       2.602  -3.415  17.516  1.00  0.00    -0.023 C 
ATOM      7  C   UNL     1       3.008  -4.396  18.329  1.00  0.00    -0.001 C 
ENDROOT
BRANCH   5   8
ATOM      8  C   UNL     1       3.098  -1.344  16.073  1.00  0.00    -0.010 C 
ATOM      9  C   UNL     1       3.837  -1.850  14.820  1.00  0.00     0.008 C 
ATOM     10  C   UNL     1       1.584  -1.304  15.812  1.00  0.00     0.008 C 
ENDBRANCH   5   8
TORSDOF 1
ENDMDL
MODEL 6
REMARK VINA RESULT:    -4.322      2.137      3.451
REMARK INTER + INTRA:          -4.716
REMARK INTER:                  -4.525
REMARK INTRA:                  -0.191
REMARK UNBOUND:                -0.141
REMARK SMILES CC1=CC[C@@H](C(C)C)C=C1
REMARK SMILES IDX 1 1 2 2 3 3 4 4 5 5 9 6 10 7 6 8 7 9 8 10
REMARK H PARENT
REMARK Flexibility Score: inf
ROOT
ATOM      1  C   UNL     1       4.608  -4.908  19.444  1.00  0.00     0.044 C 
ATOM      2  C   UNL     1       3.858  -3.996  18.519  1.00  0.00    -0.055 C 
ATOM      3  C   UNL     1       2.566  -4.230  18.237  1.00  0.00    -0.023 C 
ATOM      4  C   UNL     1       1.790  -3.280  17.366  1.00  0.00     0.035 C 
ATOM      5  C   UNL     1       2.685  -2.711  16.240  1.00  0.00     0.018 C 
ATOM      6  C   UNL     1       4.011  -2.244  16.810  1.00  0.00    -0.023 C 
ATOM      7  C   UNL     1       4.569  -2.887  17.842  1.00  0.00    -0.001 C 
ENDROOT
BRANCH   5   8
ATOM      8  C   UNL     1       1.952  -1.625  15.398  1.00  0.00    -0.010 C 
ATOM      9  C   UNL     1       0.642  -1.128  16.038  1.00  0.00     0.008 C 
ATOM     10  C   UNL     1       2.876  -0.435  15.095  1.00  0.00     0.008 C 
ENDBRANCH   5   8
TORSDOF 1
ENDMDL
MODEL 7
REMARK VINA RESULT:    -4.266      1.570      4.158
REMARK INTER + INTRA:          -4.657
REMARK INTER:                  -4.520
REMARK INTRA:                  -0.137
REMARK UNBOUND:                -0.141
REMARK SMILES CC1=CC[C@@H](C(C)C)C=C1
REMARK SMILES IDX 1 1 2 2 3 3 4 4 5 5 9 6 10 7 6 8 7 9 8 10
REMARK H PARENT
REMARK Flexibility Score: inf
ROOT
ATOM      1  C   UNL     1       2.566  -0.643  13.029  1.00  0.00     0.044 C 
ATOM      2  C   UNL     1       3.116  -1.106  14.345  1.00  0.00    -0.055 C 
ATOM      3  C   UNL     1       4.280  -1.774  14.395  1.00  0.00    -0.023 C 
ATOM      4  C   UNL     1       4.872  -2.179  15.718  1.00  0.00     0.035 C 
ATOM      5  C   UNL     1       3.762  -2.582  16.716  1.00  0.00     0.018 C 
ATOM      6  C   UNL     1       2.652  -1.549  16.712  1.00  0.00    -0.023 C 
ATOM      7  C   UNL     1       2.329  -0.906  15.584  1.00  0.00    -0.001 C 
ENDROOT
BRANCH   5   8
ATOM      8  C   UNL     1       4.328  -2.882  18.136  1.00  0.00    -0.010 C 
ATOM      9  C   UNL     1       3.931  -4.268  18.678  1.00  0.00     0.008 C 
ATOM     10  C   UNL     1       5.856  -2.719  18.174  1.00  0.00     0.008 C 
ENDBRANCH   5   8
TORSDOF 1
ENDMDL
MODEL 8
REMARK VINA RESULT:    -4.211      1.184      4.367
REMARK INTER + INTRA:          -4.598
REMARK INTER:                  -4.475
REMARK INTRA:                  -0.124
REMARK UNBOUND:                -0.141
REMARK SMILES CC1=CC[C@@H](C(C)C)C=C1
REMARK SMILES IDX 1 1 2 2 3 3 4 4 5 5 9 6 10 7 6 8 7 9 8 10
REMARK H PARENT
REMARK Flexibility Score: inf
ROOT
ATOM      1  C   UNL     1       0.779  -1.371  15.808  1.00  0.00     0.044 C 
ATOM      2  C   UNL     1       2.018  -1.915  16.455  1.00  0.00    -0.055 C 
ATOM      3  C   UNL     1       2.018  -2.232  17.760  1.00  0.00    -0.023 C 
ATOM      4  C   UNL     1       3.235  -2.844  18.398  1.00  0.00     0.035 C 
ATOM      5  C   UNL     1       4.529  -2.246  17.797  1.00  0.00     0.018 C 
ATOM      6  C   UNL     1       4.445  -2.225  16.283  1.00  0.00    -0.023 C 
ATOM      7  C   UNL     1       3.272  -2.019  15.673  1.00  0.00    -0.001 C 
ENDROOT
BRANCH   5   8
ATOM      8  C   UNL     1       5.809  -2.948  18.340  1.00  0.00    -0.010 C 
ATOM      9  C   UNL     1       7.091  -2.576  17.572  1.00  0.00     0.008 C 
ATOM     10  C   UNL     1       5.998  -2.682  19.842  1.00  0.00     0.008 C 
ENDBRANCH   5   8
TORSDOF 1
ENDMDL
MODEL 9
REMARK VINA RESULT:    -3.085      6.864      9.069
REMARK INTER + INTRA:          -3.407
REMARK INTER:                  -3.238
REMARK INTRA:                  -0.169
REMARK UNBOUND:                -0.141
REMARK SMILES CC1=CC[C@@H](C(C)C)C=C1
REMARK SMILES IDX 1 1 2 2 3 3 4 4 5 5 9 6 10 7 6 8 7 9 8 10
REMARK H PARENT
REMARK Flexibility Score: inf
ROOT
ATOM      1  C   UNL     1      -1.791  -7.131   8.875  1.00  0.00     0.044 C 
ATOM      2  C   UNL     1      -1.225  -6.320  10.003  1.00  0.00    -0.055 C 
ATOM      3  C   UNL     1      -1.035  -6.878  11.209  1.00  0.00    -0.023 C 
ATOM      4  C   UNL     1      -0.402  -6.091  12.324  1.00  0.00     0.035 C 
ATOM      5  C   UNL     1      -0.847  -4.610  12.272  1.00  0.00     0.018 C 
ATOM      6  C   UNL     1      -0.728  -4.076  10.858  1.00  0.00    -0.023 C 
ATOM      7  C   UNL     1      -0.958  -4.876   9.810  1.00  0.00    -0.001 C 
ENDROOT
BRANCH   5   8
ATOM      8  C   UNL     1      -0.110  -3.737  13.332  1.00  0.00    -0.010 C 
ATOM      9  C   UNL     1       1.406  -3.623  13.090  1.00  0.00     0.008 C 
ATOM     10  C   UNL     1      -0.736  -2.337  13.434  1.00  0.00     0.008 C 
ENDBRANCH   5   8
TORSDOF 1
ENDMDL
