MODEL 1
REMARK VINA RESULT:    -2.062      0.000      0.000
REMARK INTER + INTRA:          -5.108
REMARK INTER:                  -4.472
REMARK INTRA:                  -0.636
REMARK UNBOUND:                -0.636
REMARK SMILES CCCCCCCCCCCCCCCCCCCCCC(=O)[O-]
REMARK SMILES IDX 12 1 11 2 10 3 9 4 8 5 7 6 6 7 5 8 4 9 3 10 2 11 1 12 13 13
REMARK SMILES IDX 14 14 15 15 16 16 17 17 18 18 19 19 20 20 21 21 22 22 23 23
REMARK SMILES IDX 24 24
REMARK H PARENT
REMARK Flexibility Score: inf
ROOT
ATOM      1  C   UNL     1      23.470   3.462  -2.633  1.00  0.00     0.000 C 
ENDROOT
BRANCH   1   2
ATOM      2  C   UNL     1      23.895   1.982  -2.661  1.00  0.00     0.000 C 
BRANCH   2   3
ATOM      3  C   UNL     1      22.732   1.043  -3.023  1.00  0.00     0.000 C 
BRANCH   3   4
ATOM      4  C   UNL     1      22.505  -0.050  -1.964  1.00  0.00    -0.000 C 
BRANCH   4   5
ATOM      5  C   UNL     1      23.397  -1.280  -2.187  1.00  0.00    -0.000 C 
BRANCH   5   6
ATOM      6  C   UNL     1      24.484  -1.043  -3.251  1.00  0.00    -0.000 C 
BRANCH   6   7
ATOM      7  C   UNL     1      25.104  -2.352  -3.765  1.00  0.00    -0.000 C 
BRANCH   7   8
ATOM      8  C   UNL     1      25.991  -3.038  -2.715  1.00  0.00    -0.000 C 
BRANCH   8   9
ATOM      9  C   UNL     1      26.333  -4.471  -3.139  1.00  0.00    -0.000 C 
BRANCH   9  10
ATOM     10  C   UNL     1      27.306  -5.122  -2.148  1.00  0.00    -0.000 C 
BRANCH  10  11
ATOM     11  C   UNL     1      27.172  -4.496  -0.755  1.00  0.00    -0.003 C 
ATOM     12  C   UNL     1      28.412  -4.769   0.093  1.00  0.00     0.004 C 
ENDBRANCH  10  11
ENDBRANCH   9  10
ENDBRANCH   8   9
ENDBRANCH   7   8
ENDBRANCH   6   7
ENDBRANCH   5   6
ENDBRANCH   4   5
ENDBRANCH   3   4
ENDBRANCH   2   3
ENDBRANCH   1   2
BRANCH   1  13
ATOM     13  C   UNL     1      24.629   4.400  -2.259  1.00  0.00     0.000 C 
BRANCH  13  14
ATOM     14  C   UNL     1      25.646   3.738  -1.313  1.00  0.00     0.000 C 
BRANCH  14  15
ATOM     15  C   UNL     1      26.841   4.668  -1.006  1.00  0.00     0.000 C 
BRANCH  15  16
ATOM     16  C   UNL     1      26.435   6.131  -0.749  1.00  0.00     0.000 C 
BRANCH  16  17
ATOM     17  C   UNL     1      27.611   7.110  -0.898  1.00  0.00     0.000 C 
BRANCH  17  18
ATOM     18  C   UNL     1      27.212   8.431  -1.583  1.00  0.00     0.000 C 
BRANCH  18  19
ATOM     19  C   UNL     1      27.592   8.542  -3.071  1.00  0.00     0.000 C 
BRANCH  19  20
ATOM     20  C   UNL     1      29.034   9.032  -3.287  1.00  0.00     0.006 C 
BRANCH  20  21
ATOM     21  C   UNL     1      29.083  10.445  -3.884  1.00  0.00     0.053 C 
BRANCH  21  22
ATOM     22  C   UNL     1      28.991  11.502  -2.826  1.00  0.00     0.041 C 
ATOM     23  O   UNL     1      28.770  12.700  -3.146  1.00  0.00    -0.550 OA
ATOM     24  O   UNL     1      29.125  11.160  -1.486  1.00  0.00    -0.550 OA
ENDBRANCH  21  22
ENDBRANCH  20  21
ENDBRANCH  19  20
ENDBRANCH  18  19
ENDBRANCH  17  18
ENDBRANCH  16  17
ENDBRANCH  15  16
ENDBRANCH  14  15
ENDBRANCH  13  14
ENDBRANCH   1  13
TORSDOF 20
ENDMDL
MODEL 2
REMARK VINA RESULT:    -2.018      1.098      2.135
REMARK INTER + INTRA:          -5.014
REMARK INTER:                  -3.906
REMARK INTRA:                  -1.108
REMARK UNBOUND:                -0.636
REMARK SMILES CCCCCCCCCCCCCCCCCCCCCC(=O)[O-]
REMARK SMILES IDX 12 1 11 2 10 3 9 4 8 5 7 6 6 7 5 8 4 9 3 10 2 11 1 12 13 13
REMARK SMILES IDX 14 14 15 15 16 16 17 17 18 18 19 19 20 20 21 21 22 22 23 23
REMARK SMILES IDX 24 24
REMARK H PARENT
REMARK Flexibility Score: inf
ROOT
ATOM      1  C   UNL     1      23.529   1.362  -3.167  1.00  0.00     0.000 C 
ENDROOT
BRANCH   1   2
ATOM      2  C   UNL     1      22.606   0.456  -2.331  1.00  0.00     0.000 C 
BRANCH   2   3
ATOM      3  C   UNL     1      23.084  -1.006  -2.307  1.00  0.00     0.000 C 
BRANCH   3   4
ATOM      4  C   UNL     1      24.264  -1.257  -3.262  1.00  0.00    -0.000 C 
BRANCH   4   5
ATOM      5  C   UNL     1      24.986  -2.581  -2.971  1.00  0.00    -0.000 C 
BRANCH   5   6
ATOM      6  C   UNL     1      25.922  -3.013  -4.114  1.00  0.00    -0.000 C 
BRANCH   6   7
ATOM      7  C   UNL     1      27.080  -3.900  -3.628  1.00  0.00    -0.000 C 
BRANCH   7   8
ATOM      8  C   UNL     1      26.660  -5.365  -3.435  1.00  0.00    -0.000 C 
BRANCH   8   9
ATOM      9  C   UNL     1      26.925  -5.826  -1.997  1.00  0.00    -0.000 C 
BRANCH   9  10
ATOM     10  C   UNL     1      27.170  -4.629  -1.070  1.00  0.00    -0.000 C 
BRANCH  10  11
ATOM     11  C   UNL     1      27.815  -5.076   0.247  1.00  0.00    -0.003 C 
ATOM     12  C   UNL     1      28.744  -3.998   0.798  1.00  0.00     0.004 C 
ENDBRANCH  10  11
ENDBRANCH   9  10
ENDBRANCH   8   9
ENDBRANCH   7   8
ENDBRANCH   6   7
ENDBRANCH   5   6
ENDBRANCH   4   5
ENDBRANCH   3   4
ENDBRANCH   2   3
ENDBRANCH   1   2
BRANCH   1  13
ATOM     13  C   UNL     1      24.197   2.458  -2.323  1.00  0.00     0.000 C 
BRANCH  13  14
ATOM     14  C   UNL     1      23.754   3.875  -2.731  1.00  0.00     0.000 C 
BRANCH  14  15
ATOM     15  C   UNL     1      24.831   4.934  -2.408  1.00  0.00     0.000 C 
BRANCH  15  16
ATOM     16  C   UNL     1      25.718   4.567  -1.205  1.00  0.00     0.000 C 
BRANCH  16  17
ATOM     17  C   UNL     1      26.779   5.636  -0.899  1.00  0.00     0.000 C 
BRANCH  17  18
ATOM     18  C   UNL     1      26.492   6.984  -1.586  1.00  0.00     0.000 C 
BRANCH  18  19
ATOM     19  C   UNL     1      27.059   8.223  -0.867  1.00  0.00     0.000 C 
BRANCH  19  20
ATOM     20  C   UNL     1      28.579   8.379  -1.049  1.00  0.00     0.006 C 
BRANCH  20  21
ATOM     21  C   UNL     1      28.973   8.536  -2.524  1.00  0.00     0.053 C 
BRANCH  21  22
ATOM     22  C   UNL     1      28.385   9.773  -3.131  1.00  0.00     0.041 C 
ATOM     23  O   UNL     1      27.407   9.688  -3.920  1.00  0.00    -0.550 OA
ATOM     24  O   UNL     1      28.901  11.022  -2.805  1.00  0.00    -0.550 OA
ENDBRANCH  21  22
ENDBRANCH  20  21
ENDBRANCH  19  20
ENDBRANCH  18  19
ENDBRANCH  17  18
ENDBRANCH  16  17
ENDBRANCH  15  16
ENDBRANCH  14  15
ENDBRANCH  13  14
ENDBRANCH   1  13
TORSDOF 20
ENDMDL
MODEL 3
REMARK VINA RESULT:    -2.000      5.023     11.588
REMARK INTER + INTRA:          -4.974
REMARK INTER:                  -3.946
REMARK INTRA:                  -1.029
REMARK UNBOUND:                -0.636
REMARK SMILES CCCCCCCCCCCCCCCCCCCCCC(=O)[O-]
REMARK SMILES IDX 12 1 11 2 10 3 9 4 8 5 7 6 6 7 5 8 4 9 3 10 2 11 1 12 13 13
REMARK SMILES IDX 14 14 15 15 16 16 17 17 18 18 19 19 20 20 21 21 22 22 23 23
REMARK SMILES IDX 24 24
REMARK H PARENT
REMARK Flexibility Score: inf
ROOT
ATOM      1  C   UNL     1      24.524   4.253  -2.508  1.00  0.00     0.000 C 
ENDROOT
BRANCH   1   2
ATOM      2  C   UNL     1      25.777   3.598  -1.901  1.00  0.00     0.000 C 
BRANCH   2   3
ATOM      3  C   UNL     1      26.438   4.477  -0.826  1.00  0.00     0.000 C 
BRANCH   3   4
ATOM      4  C   UNL     1      27.813   3.941  -0.389  1.00  0.00    -0.000 C 
BRANCH   4   5
ATOM      5  C   UNL     1      28.709   5.037   0.208  1.00  0.00    -0.000 C 
BRANCH   5   6
ATOM      6  C   UNL     1      28.788   6.291  -0.681  1.00  0.00    -0.000 C 
BRANCH   6   7
ATOM      7  C   UNL     1      28.346   7.566   0.055  1.00  0.00    -0.000 C 
BRANCH   7   8
ATOM      8  C   UNL     1      29.116   8.812  -0.407  1.00  0.00    -0.000 C 
BRANCH   8   9
ATOM      9  C   UNL     1      28.162   9.866  -0.981  1.00  0.00    -0.000 C 
BRANCH   9  10
ATOM     10  C   UNL     1      28.868  10.741  -2.023  1.00  0.00    -0.000 C 
BRANCH  10  11
ATOM     11  C   UNL     1      28.070  10.793  -3.330  1.00  0.00    -0.003 C 
ATOM     12  C   UNL     1      27.624   9.398  -3.759  1.00  0.00     0.004 C 
ENDBRANCH  10  11
ENDBRANCH   9  10
ENDBRANCH   8   9
ENDBRANCH   7   8
ENDBRANCH   6   7
ENDBRANCH   5   6
ENDBRANCH   4   5
ENDBRANCH   3   4
ENDBRANCH   2   3
ENDBRANCH   1   2
BRANCH   1  13
ATOM     13  C   UNL     1      23.352   3.268  -2.643  1.00  0.00     0.000 C 
BRANCH  13  14
ATOM     14  C   UNL     1      23.818   1.812  -2.827  1.00  0.00     0.000 C 
BRANCH  14  15
ATOM     15  C   UNL     1      22.769   0.800  -2.318  1.00  0.00     0.000 C 
BRANCH  15  16
ATOM     16  C   UNL     1      22.809  -0.553  -3.050  1.00  0.00     0.000 C 
BRANCH  16  17
ATOM     17  C   UNL     1      23.865  -1.510  -2.475  1.00  0.00     0.000 C 
BRANCH  17  18
ATOM     18  C   UNL     1      24.969  -1.869  -3.488  1.00  0.00     0.000 C 
BRANCH  18  19
ATOM     19  C   UNL     1      26.047  -2.839  -2.971  1.00  0.00     0.000 C 
BRANCH  19  20
ATOM     20  C   UNL     1      26.043  -4.190  -3.706  1.00  0.00     0.006 C 
BRANCH  20  21
ATOM     21  C   UNL     1      26.277  -5.370  -2.753  1.00  0.00     0.053 C 
BRANCH  21  22
ATOM     22  C   UNL     1      27.680  -5.394  -2.227  1.00  0.00     0.041 C 
ATOM     23  O   UNL     1      28.622  -5.805  -2.955  1.00  0.00    -0.550 OA
ATOM     24  O   UNL     1      27.951  -4.936  -0.944  1.00  0.00    -0.550 OA
ENDBRANCH  21  22
ENDBRANCH  20  21
ENDBRANCH  19  20
ENDBRANCH  18  19
ENDBRANCH  17  18
ENDBRANCH  16  17
ENDBRANCH  15  16
ENDBRANCH  14  15
ENDBRANCH  13  14
ENDBRANCH   1  13
TORSDOF 20
ENDMDL
MODEL 4
REMARK VINA RESULT:    -1.811      1.401      2.053
REMARK INTER + INTRA:          -4.564
REMARK INTER:                  -3.321
REMARK INTRA:                  -1.242
REMARK UNBOUND:                -0.636
REMARK SMILES CCCCCCCCCCCCCCCCCCCCCC(=O)[O-]
REMARK SMILES IDX 12 1 11 2 10 3 9 4 8 5 7 6 6 7 5 8 4 9 3 10 2 11 1 12 13 13
REMARK SMILES IDX 14 14 15 15 16 16 17 17 18 18 19 19 20 20 21 21 22 22 23 23
REMARK SMILES IDX 24 24
REMARK H PARENT
REMARK Flexibility Score: inf
ROOT
ATOM      1  C   UNL     1      23.956   4.323  -2.570  1.00  0.00     0.000 C 
ENDROOT
BRANCH   1   2
ATOM      2  C   UNL     1      24.221   2.806  -2.575  1.00  0.00     0.000 C 
BRANCH   2   3
ATOM      3  C   UNL     1      22.978   1.994  -2.977  1.00  0.00     0.000 C 
BRANCH   3   4
ATOM      4  C   UNL     1      23.308   0.521  -3.279  1.00  0.00    -0.000 C 
BRANCH   4   5
ATOM      5  C   UNL     1      22.800  -0.431  -2.186  1.00  0.00    -0.000 C 
BRANCH   5   6
ATOM      6  C   UNL     1      23.686  -1.680  -2.025  1.00  0.00    -0.000 C 
BRANCH   6   7
ATOM      7  C   UNL     1      24.544  -1.960  -3.268  1.00  0.00    -0.000 C 
BRANCH   7   8
ATOM      8  C   UNL     1      25.983  -2.363  -2.913  1.00  0.00    -0.000 C 
BRANCH   8   9
ATOM      9  C   UNL     1      26.084  -3.873  -2.663  1.00  0.00    -0.000 C 
BRANCH   9  10
ATOM     10  C   UNL     1      26.721  -4.589  -3.860  1.00  0.00    -0.000 C 
BRANCH  10  11
ATOM     11  C   UNL     1      27.543  -5.800  -3.404  1.00  0.00    -0.003 C 
ATOM     12  C   UNL     1      28.002  -5.641  -1.957  1.00  0.00     0.004 C 
ENDBRANCH  10  11
ENDBRANCH   9  10
ENDBRANCH   8   9
ENDBRANCH   7   8
ENDBRANCH   6   7
ENDBRANCH   5   6
ENDBRANCH   4   5
ENDBRANCH   3   4
ENDBRANCH   2   3
ENDBRANCH   1   2
BRANCH   1  13
ATOM     13  C   UNL     1      25.220   5.139  -2.255  1.00  0.00     0.000 C 
BRANCH  13  14
ATOM     14  C   UNL     1      25.864   4.743  -0.915  1.00  0.00     0.000 C 
BRANCH  14  15
ATOM     15  C   UNL     1      27.240   4.070  -1.110  1.00  0.00     0.000 C 
BRANCH  15  16
ATOM     16  C   UNL     1      28.038   3.904   0.195  1.00  0.00     0.000 C 
BRANCH  16  17
ATOM     17  C   UNL     1      29.108   4.991   0.382  1.00  0.00     0.000 C 
BRANCH  17  18
ATOM     18  C   UNL     1      29.121   6.027  -0.759  1.00  0.00     0.000 C 
BRANCH  18  19
ATOM     19  C   UNL     1      28.544   7.409  -0.399  1.00  0.00     0.000 C 
BRANCH  19  20
ATOM     20  C   UNL     1      27.843   8.094  -1.585  1.00  0.00     0.006 C 
BRANCH  20  21
ATOM     21  C   UNL     1      28.457   9.464  -1.908  1.00  0.00     0.053 C 
BRANCH  21  22
ATOM     22  C   UNL     1      27.977   9.994  -3.225  1.00  0.00     0.041 C 
ATOM     23  O   UNL     1      27.477   9.213  -4.077  1.00  0.00    -0.550 OA
ATOM     24  O   UNL     1      28.058  11.354  -3.500  1.00  0.00    -0.550 OA
ENDBRANCH  21  22
ENDBRANCH  20  21
ENDBRANCH  19  20
ENDBRANCH  18  19
ENDBRANCH  17  18
ENDBRANCH  16  17
ENDBRANCH  15  16
ENDBRANCH  14  15
ENDBRANCH  13  14
ENDBRANCH   1  13
TORSDOF 20
ENDMDL
MODEL 5
REMARK VINA RESULT:    -1.794      4.768     11.896
REMARK INTER + INTRA:          -4.527
REMARK INTER:                  -3.550
REMARK INTRA:                  -0.977
REMARK UNBOUND:                -0.636
REMARK SMILES CCCCCCCCCCCCCCCCCCCCCC(=O)[O-]
REMARK SMILES IDX 12 1 11 2 10 3 9 4 8 5 7 6 6 7 5 8 4 9 3 10 2 11 1 12 13 13
REMARK SMILES IDX 14 14 15 15 16 16 17 17 18 18 19 19 20 20 21 21 22 22 23 23
REMARK SMILES IDX 24 24
REMARK H PARENT
REMARK Flexibility Score: inf
ROOT
ATOM      1  C   UNL     1      24.512   4.417  -2.657  1.00  0.00     0.000 C 
ENDROOT
BRANCH   1   2
ATOM      2  C   UNL     1      25.731   4.277  -1.727  1.00  0.00     0.000 C 
BRANCH   2   3
ATOM      3  C   UNL     1      25.875   5.468  -0.764  1.00  0.00     0.000 C 
BRANCH   3   4
ATOM      4  C   UNL     1      26.915   6.494  -1.246  1.00  0.00    -0.000 C 
BRANCH   4   5
ATOM      5  C   UNL     1      28.171   6.521  -0.362  1.00  0.00    -0.000 C 
BRANCH   5   6
ATOM      6  C   UNL     1      29.110   7.694  -0.695  1.00  0.00    -0.000 C 
BRANCH   6   7
ATOM      7  C   UNL     1      28.459   9.063  -0.440  1.00  0.00    -0.000 C 
BRANCH   7   8
ATOM      8  C   UNL     1      28.663  10.040  -1.608  1.00  0.00    -0.000 C 
BRANCH   8   9
ATOM      9  C   UNL     1      28.565   9.313  -2.955  1.00  0.00    -0.000 C 
BRANCH   9  10
ATOM     10  C   UNL     1      28.626  10.305  -4.123  1.00  0.00    -0.000 C 
BRANCH  10  11
ATOM     11  C   UNL     1      27.809  11.565  -3.818  1.00  0.00    -0.003 C 
ATOM     12  C   UNL     1      28.634  12.827  -4.053  1.00  0.00     0.004 C 
ENDBRANCH  10  11
ENDBRANCH   9  10
ENDBRANCH   8   9
ENDBRANCH   7   8
ENDBRANCH   6   7
ENDBRANCH   5   6
ENDBRANCH   4   5
ENDBRANCH   3   4
ENDBRANCH   2   3
ENDBRANCH   1   2
BRANCH   1  13
ATOM     13  C   UNL     1      23.489   3.287  -2.459  1.00  0.00     0.000 C 
BRANCH  13  14
ATOM     14  C   UNL     1      24.077   1.895  -2.754  1.00  0.00     0.000 C 
BRANCH  14  15
ATOM     15  C   UNL     1      22.978   0.819  -2.884  1.00  0.00     0.000 C 
BRANCH  15  16
ATOM     16  C   UNL     1      23.423  -0.579  -2.417  1.00  0.00     0.000 C 
BRANCH  16  17
ATOM     17  C   UNL     1      24.247  -1.327  -3.476  1.00  0.00     0.000 C 
BRANCH  17  18
ATOM     18  C   UNL     1      25.226  -2.348  -2.867  1.00  0.00     0.000 C 
BRANCH  18  19
ATOM     19  C   UNL     1      25.946  -3.256  -3.882  1.00  0.00     0.000 C 
BRANCH  19  20
ATOM     20  C   UNL     1      27.107  -4.051  -3.260  1.00  0.00     0.006 C 
BRANCH  20  21
ATOM     21  C   UNL     1      26.644  -4.939  -2.096  1.00  0.00     0.053 C 
BRANCH  21  22
ATOM     22  C   UNL     1      27.626  -4.934  -0.965  1.00  0.00     0.041 C 
ATOM     23  O   UNL     1      28.559  -5.779  -0.934  1.00  0.00    -0.550 OA
ATOM     24  O   UNL     1      27.525  -3.982   0.042  1.00  0.00    -0.550 OA
ENDBRANCH  21  22
ENDBRANCH  20  21
ENDBRANCH  19  20
ENDBRANCH  18  19
ENDBRANCH  17  18
ENDBRANCH  16  17
ENDBRANCH  15  16
ENDBRANCH  14  15
ENDBRANCH  13  14
ENDBRANCH   1  13
TORSDOF 20
ENDMDL
MODEL 6
REMARK VINA RESULT:    -1.573      4.657     12.227
REMARK INTER + INTRA:          -4.047
REMARK INTER:                  -3.247
REMARK INTRA:                  -0.799
REMARK UNBOUND:                -0.636
REMARK SMILES CCCCCCCCCCCCCCCCCCCCCC(=O)[O-]
REMARK SMILES IDX 12 1 11 2 10 3 9 4 8 5 7 6 6 7 5 8 4 9 3 10 2 11 1 12 13 13
REMARK SMILES IDX 14 14 15 15 16 16 17 17 18 18 19 19 20 20 21 21 22 22 23 23
REMARK SMILES IDX 24 24
REMARK H PARENT
REMARK Flexibility Score: inf
ROOT
ATOM      1  C   UNL     1      23.860   2.838  -2.361  1.00  0.00     0.000 C 
ENDROOT
BRANCH   1   2
ATOM      2  C   UNL     1      25.205   3.546  -2.119  1.00  0.00     0.000 C 
BRANCH   2   3
ATOM      3  C   UNL     1      25.053   5.073  -2.006  1.00  0.00     0.000 C 
BRANCH   3   4
ATOM      4  C   UNL     1      26.314   5.751  -1.442  1.00  0.00    -0.000 C 
BRANCH   4   5
ATOM      5  C   UNL     1      26.270   7.281  -1.576  1.00  0.00    -0.000 C 
BRANCH   5   6
ATOM      6  C   UNL     1      27.657   7.895  -1.838  1.00  0.00    -0.000 C 
BRANCH   6   7
ATOM      7  C   UNL     1      27.711   9.396  -1.510  1.00  0.00    -0.000 C 
BRANCH   7   8
ATOM      8  C   UNL     1      29.043  10.042  -1.917  1.00  0.00    -0.000 C 
BRANCH   8   9
ATOM      9  C   UNL     1      29.124  10.221  -3.438  1.00  0.00    -0.000 C 
BRANCH   9  10
ATOM     10  C   UNL     1      28.342  11.460  -3.890  1.00  0.00    -0.000 C 
BRANCH  10  11
ATOM     11  C   UNL     1      28.785  12.704  -3.111  1.00  0.00    -0.003 C 
ATOM     12  C   UNL     1      28.749  13.949  -3.994  1.00  0.00     0.004 C 
ENDBRANCH  10  11
ENDBRANCH   9  10
ENDBRANCH   8   9
ENDBRANCH   7   8
ENDBRANCH   6   7
ENDBRANCH   5   6
ENDBRANCH   4   5
ENDBRANCH   3   4
ENDBRANCH   2   3
ENDBRANCH   1   2
BRANCH   1  13
ATOM     13  C   UNL     1      24.037   1.371  -2.788  1.00  0.00     0.000 C 
BRANCH  13  14
ATOM     14  C   UNL     1      22.890   0.468  -2.298  1.00  0.00     0.000 C 
BRANCH  14  15
ATOM     15  C   UNL     1      23.166  -1.024  -2.585  1.00  0.00     0.000 C 
BRANCH  15  16
ATOM     16  C   UNL     1      24.604  -1.308  -3.052  1.00  0.00     0.000 C 
BRANCH  16  17
ATOM     17  C   UNL     1      24.884  -2.808  -3.240  1.00  0.00     0.000 C 
BRANCH  17  18
ATOM     18  C   UNL     1      26.240  -3.087  -3.916  1.00  0.00     0.000 C 
BRANCH  18  19
ATOM     19  C   UNL     1      26.577  -4.576  -4.124  1.00  0.00     0.000 C 
BRANCH  19  20
ATOM     20  C   UNL     1      27.740  -5.058  -3.240  1.00  0.00     0.006 C 
BRANCH  20  21
ATOM     21  C   UNL     1      27.254  -5.596  -1.887  1.00  0.00     0.053 C 
BRANCH  21  22
ATOM     22  C   UNL     1      27.505  -4.623  -0.776  1.00  0.00     0.041 C 
ATOM     23  O   UNL     1      26.758  -3.620  -0.632  1.00  0.00    -0.550 OA
ATOM     24  O   UNL     1      28.549  -4.838   0.116  1.00  0.00    -0.550 OA
ENDBRANCH  21  22
ENDBRANCH  20  21
ENDBRANCH  19  20
ENDBRANCH  18  19
ENDBRANCH  17  18
ENDBRANCH  16  17
ENDBRANCH  15  16
ENDBRANCH  14  15
ENDBRANCH  13  14
ENDBRANCH   1  13
TORSDOF 20
ENDMDL
MODEL 7
REMARK VINA RESULT:    -0.903      1.319      2.435
REMARK INTER + INTRA:          -2.595
REMARK INTER:                  -2.210
REMARK INTRA:                  -0.385
REMARK UNBOUND:                -0.636
REMARK SMILES CCCCCCCCCCCCCCCCCCCCCC(=O)[O-]
REMARK SMILES IDX 12 1 11 2 10 3 9 4 8 5 7 6 6 7 5 8 4 9 3 10 2 11 1 12 13 13
REMARK SMILES IDX 14 14 15 15 16 16 17 17 18 18 19 19 20 20 21 21 22 22 23 23
REMARK SMILES IDX 24 24
REMARK H PARENT
REMARK Flexibility Score: inf
ROOT
ATOM      1  C   UNL     1      25.969   4.587  -1.366  1.00  0.00     0.000 C 
ENDROOT
BRANCH   1   2
ATOM      2  C   UNL     1      25.189   3.373  -1.903  1.00  0.00     0.000 C 
BRANCH   2   3
ATOM      3  C   UNL     1      23.914   3.783  -2.660  1.00  0.00     0.000 C 
BRANCH   3   4
ATOM      4  C   UNL     1      23.104   2.569  -3.149  1.00  0.00    -0.000 C 
BRANCH   4   5
ATOM      5  C   UNL     1      23.779   1.232  -2.804  1.00  0.00    -0.000 C 
BRANCH   5   6
ATOM      6  C   UNL     1      22.793   0.198  -2.232  1.00  0.00    -0.000 C 
BRANCH   6   7
ATOM      7  C   UNL     1      23.232  -1.250  -2.502  1.00  0.00    -0.000 C 
BRANCH   7   8
ATOM      8  C   UNL     1      24.610  -1.333  -3.174  1.00  0.00    -0.000 C 
BRANCH   8   9
ATOM      9  C   UNL     1      25.087  -2.787  -3.270  1.00  0.00    -0.000 C 
BRANCH   9  10
ATOM     10  C   UNL     1      26.265  -3.045  -2.322  1.00  0.00    -0.000 C 
BRANCH  10  11
ATOM     11  C   UNL     1      27.320  -3.937  -2.986  1.00  0.00    -0.003 C 
ATOM     12  C   UNL     1      26.770  -5.334  -3.255  1.00  0.00     0.004 C 
ENDBRANCH  10  11
ENDBRANCH   9  10
ENDBRANCH   8   9
ENDBRANCH   7   8
ENDBRANCH   6   7
ENDBRANCH   5   6
ENDBRANCH   4   5
ENDBRANCH   3   4
ENDBRANCH   2   3
ENDBRANCH   1   2
BRANCH   1  13
ATOM     13  C   UNL     1      26.615   4.313   0.002  1.00  0.00     0.000 C 
BRANCH  13  14
ATOM     14  C   UNL     1      27.998   3.648  -0.118  1.00  0.00     0.000 C 
BRANCH  14  15
ATOM     15  C   UNL     1      29.110   4.676  -0.424  1.00  0.00     0.000 C 
BRANCH  15  16
ATOM     16  C   UNL     1      29.047   5.935   0.458  1.00  0.00     0.000 C 
BRANCH  16  17
ATOM     17  C   UNL     1      29.101   7.237  -0.358  1.00  0.00     0.000 C 
BRANCH  17  18
ATOM     18  C   UNL     1      27.956   7.356  -1.381  1.00  0.00     0.000 C 
BRANCH  18  19
ATOM     19  C   UNL     1      27.418   8.781  -1.604  1.00  0.00     0.000 C 
BRANCH  19  20
ATOM     20  C   UNL     1      28.048   9.817  -0.657  1.00  0.00     0.006 C 
BRANCH  20  21
ATOM     21  C   UNL     1      29.093  10.690  -1.366  1.00  0.00     0.053 C 
BRANCH  21  22
ATOM     22  C   UNL     1      28.664  11.059  -2.753  1.00  0.00     0.041 C 
ATOM     23  O   UNL     1      28.672  12.264  -3.118  1.00  0.00    -0.550 OA
ATOM     24  O   UNL     1      28.279  10.070  -3.650  1.00  0.00    -0.550 OA
ENDBRANCH  21  22
ENDBRANCH  20  21
ENDBRANCH  19  20
ENDBRANCH  18  19
ENDBRANCH  17  18
ENDBRANCH  16  17
ENDBRANCH  15  16
ENDBRANCH  14  15
ENDBRANCH  13  14
ENDBRANCH   1  13
TORSDOF 20
ENDMDL
