MODEL 1
REMARK VINA RESULT:    -6.107      0.000      0.000
REMARK INTER + INTRA:         -19.467
REMARK INTER:                 -15.390
REMARK INTRA:                  -4.077
REMARK UNBOUND:                -4.077
REMARK SMILES CCCCCCCCCCCCCCCCCCCCCCCCCCCC(=O)[O-]
REMARK SMILES IDX 15 1 16 2 17 3 18 4 19 5 20 6 21 7 22 8 23 9 24 10 25 11
REMARK SMILES IDX 26 12 27 13 28 14 29 15 30 16 14 17 13 18 12 19 11 20 10 21
REMARK SMILES IDX 9 22 8 23 7 24 6 25 5 26 4 27 3 28 2 29 1 30
REMARK H PARENT
REMARK Flexibility Score: inf
ROOT
ATOM      1  C   UNL     1      10.171   2.699  19.066  1.00  0.00     0.000 C 
ENDROOT
BRANCH   1   2
ATOM      2  C   UNL     1      10.975   3.550  18.070  1.00  0.00     0.000 C 
BRANCH   2   3
ATOM      3  C   UNL     1      11.937   4.531  18.763  1.00  0.00     0.000 C 
BRANCH   3   4
ATOM      4  C   UNL     1      11.882   5.943  18.160  1.00  0.00     0.000 C 
BRANCH   4   5
ATOM      5  C   UNL     1      10.621   6.177  17.309  1.00  0.00     0.000 C 
BRANCH   5   6
ATOM      6  C   UNL     1       9.858   7.454  17.723  1.00  0.00     0.000 C 
BRANCH   6   7
ATOM      7  C   UNL     1       8.411   7.192  18.178  1.00  0.00     0.000 C 
BRANCH   7   8
ATOM      8  C   UNL     1       8.021   5.706  18.111  1.00  0.00     0.000 C 
BRANCH   8   9
ATOM      9  C   UNL     1       7.787   5.092  19.501  1.00  0.00     0.000 C 
BRANCH   9  10
ATOM     10  C   UNL     1       8.059   6.088  20.638  1.00  0.00     0.000 C 
BRANCH  10  11
ATOM     11  C   UNL     1       9.473   5.901  21.208  1.00  0.00     0.000 C 
BRANCH  11  12
ATOM     12  C   UNL     1      10.235   7.228  21.380  1.00  0.00     0.006 C 
BRANCH  12  13
ATOM     13  C   UNL     1      11.753   7.057  21.564  1.00  0.00     0.053 C 
BRANCH  13  14
ATOM     14  C   UNL     1      12.512   8.325  21.308  1.00  0.00     0.041 C 
ATOM     15  O   UNL     1      12.400   9.299  22.097  1.00  0.00    -0.550 OA
ATOM     16  O   UNL     1      13.365   8.420  20.216  1.00  0.00    -0.550 OA
ENDBRANCH  13  14
ENDBRANCH  12  13
ENDBRANCH  11  12
ENDBRANCH  10  11
ENDBRANCH   9  10
ENDBRANCH   8   9
ENDBRANCH   7   8
ENDBRANCH   6   7
ENDBRANCH   5   6
ENDBRANCH   4   5
ENDBRANCH   3   4
ENDBRANCH   2   3
ENDBRANCH   1   2
BRANCH   1  17
ATOM     17  C   UNL     1      10.616   2.912  20.525  1.00  0.00     0.000 C 
BRANCH  17  18
ATOM     18  C   UNL     1      10.251   1.720  21.433  1.00  0.00     0.000 C 
BRANCH  18  19
ATOM     19  C   UNL     1      10.951   1.741  22.804  1.00  0.00     0.000 C 
BRANCH  19  20
ATOM     20  C   UNL     1      11.023   0.353  23.462  1.00  0.00     0.000 C 
BRANCH  20  21
ATOM     21  C   UNL     1      10.867   0.415  24.989  1.00  0.00     0.000 C 
BRANCH  21  22
ATOM     22  C   UNL     1      11.894  -0.466  25.722  1.00  0.00    -0.000 C 
BRANCH  22  23
ATOM     23  C   UNL     1      12.182   0.027  27.149  1.00  0.00    -0.000 C 
BRANCH  23  24
ATOM     24  C   UNL     1      13.491  -0.540  27.723  1.00  0.00    -0.000 C 
BRANCH  24  25
ATOM     25  C   UNL     1      14.407   0.548  28.306  1.00  0.00    -0.000 C 
BRANCH  25  26
ATOM     26  C   UNL     1      14.634   1.737  27.347  1.00  0.00    -0.000 C 
BRANCH  26  27
ATOM     27  C   UNL     1      15.392   1.322  26.077  1.00  0.00    -0.000 C 
BRANCH  27  28
ATOM     28  C   UNL     1      15.012   2.217  24.889  1.00  0.00    -0.000 C 
BRANCH  28  29
ATOM     29  C   UNL     1      13.612   2.833  25.038  1.00  0.00    -0.003 C 
ATOM     30  C   UNL     1      13.466   4.159  24.294  1.00  0.00     0.004 C 
ENDBRANCH  28  29
ENDBRANCH  27  28
ENDBRANCH  26  27
ENDBRANCH  25  26
ENDBRANCH  24  25
ENDBRANCH  23  24
ENDBRANCH  22  23
ENDBRANCH  21  22
ENDBRANCH  20  21
ENDBRANCH  19  20
ENDBRANCH  18  19
ENDBRANCH  17  18
ENDBRANCH   1  17
TORSDOF 26
ENDMDL
MODEL 2
REMARK VINA RESULT:    -5.810      2.804      4.434
REMARK INTER + INTRA:         -18.718
REMARK INTER:                 -14.997
REMARK INTRA:                  -3.721
REMARK UNBOUND:                -4.077
REMARK SMILES CCCCCCCCCCCCCCCCCCCCCCCCCCCC(=O)[O-]
REMARK SMILES IDX 15 1 16 2 17 3 18 4 19 5 20 6 21 7 22 8 23 9 24 10 25 11
REMARK SMILES IDX 26 12 27 13 28 14 29 15 30 16 14 17 13 18 12 19 11 20 10 21
REMARK SMILES IDX 9 22 8 23 7 24 6 25 5 26 4 27 3 28 2 29 1 30
REMARK H PARENT
REMARK Flexibility Score: inf
ROOT
ATOM      1  C   UNL     1       9.318   4.632  21.607  1.00  0.00     0.000 C 
ENDROOT
BRANCH   1   2
ATOM      2  C   UNL     1       8.742   5.343  20.373  1.00  0.00     0.000 C 
BRANCH   2   3
ATOM      3  C   UNL     1       9.105   6.838  20.322  1.00  0.00     0.000 C 
BRANCH   3   4
ATOM      4  C   UNL     1       9.593   7.377  21.676  1.00  0.00     0.000 C 
BRANCH   4   5
ATOM      5  C   UNL     1      10.874   8.221  21.553  1.00  0.00     0.000 C 
BRANCH   5   6
ATOM      6  C   UNL     1      12.101   7.376  21.150  1.00  0.00     0.000 C 
BRANCH   6   7
ATOM      7  C   UNL     1      12.745   7.812  19.821  1.00  0.00     0.000 C 
BRANCH   7   8
ATOM      8  C   UNL     1      12.100   7.144  18.594  1.00  0.00     0.000 C 
BRANCH   8   9
ATOM      9  C   UNL     1      12.279   5.618  18.588  1.00  0.00     0.000 C 
BRANCH   9  10
ATOM     10  C   UNL     1      11.125   4.893  17.880  1.00  0.00     0.000 C 
BRANCH  10  11
ATOM     11  C   UNL     1      11.319   3.369  17.928  1.00  0.00     0.000 C 
BRANCH  11  12
ATOM     12  C   UNL     1      10.058   2.587  17.516  1.00  0.00     0.006 C 
BRANCH  12  13
ATOM     13  C   UNL     1       9.181   2.147  18.701  1.00  0.00     0.053 C 
BRANCH  13  14
ATOM     14  C   UNL     1       8.077   1.220  18.290  1.00  0.00     0.041 C 
ATOM     15  O   UNL     1       6.912   1.388  18.736  1.00  0.00    -0.550 OA
ATOM     16  O   UNL     1       8.327   0.191  17.392  1.00  0.00    -0.550 OA
ENDBRANCH  13  14
ENDBRANCH  12  13
ENDBRANCH  11  12
ENDBRANCH  10  11
ENDBRANCH   9  10
ENDBRANCH   8   9
ENDBRANCH   7   8
ENDBRANCH   6   7
ENDBRANCH   5   6
ENDBRANCH   4   5
ENDBRANCH   3   4
ENDBRANCH   2   3
ENDBRANCH   1   2
BRANCH   1  17
ATOM     17  C   UNL     1      10.652   3.919  21.315  1.00  0.00     0.000 C 
BRANCH  17  18
ATOM     18  C   UNL     1      10.994   2.850  22.373  1.00  0.00     0.000 C 
BRANCH  18  19
ATOM     19  C   UNL     1      10.450   1.448  22.041  1.00  0.00     0.000 C 
BRANCH  19  20
ATOM     20  C   UNL     1      10.982   0.359  22.988  1.00  0.00     0.000 C 
BRANCH  20  21
ATOM     21  C   UNL     1      11.387   0.916  24.361  1.00  0.00     0.000 C 
BRANCH  21  22
ATOM     22  C   UNL     1      10.519   0.358  25.503  1.00  0.00    -0.000 C 
BRANCH  22  23
ATOM     23  C   UNL     1      11.348  -0.377  26.568  1.00  0.00    -0.000 C 
BRANCH  23  24
ATOM     24  C   UNL     1      12.532  -1.155  25.970  1.00  0.00    -0.000 C 
BRANCH  24  25
ATOM     25  C   UNL     1      13.885  -0.733  26.567  1.00  0.00    -0.000 C 
BRANCH  25  26
ATOM     26  C   UNL     1      13.776   0.442  27.562  1.00  0.00    -0.000 C 
BRANCH  26  27
ATOM     27  C   UNL     1      14.540   1.684  27.080  1.00  0.00    -0.000 C 
BRANCH  27  28
ATOM     28  C   UNL     1      15.389   1.363  25.841  1.00  0.00    -0.000 C 
BRANCH  28  29
ATOM     29  C   UNL     1      15.241   2.418  24.734  1.00  0.00    -0.003 C 
ATOM     30  C   UNL     1      13.899   3.146  24.784  1.00  0.00     0.004 C 
ENDBRANCH  28  29
ENDBRANCH  27  28
ENDBRANCH  26  27
ENDBRANCH  25  26
ENDBRANCH  24  25
ENDBRANCH  23  24
ENDBRANCH  22  23
ENDBRANCH  21  22
ENDBRANCH  20  21
ENDBRANCH  19  20
ENDBRANCH  18  19
ENDBRANCH  17  18
ENDBRANCH   1  17
TORSDOF 26
ENDMDL
MODEL 3
REMARK VINA RESULT:    -5.561      1.124      2.829
REMARK INTER + INTRA:         -18.091
REMARK INTER:                 -14.580
REMARK INTRA:                  -3.510
REMARK UNBOUND:                -4.077
REMARK SMILES CCCCCCCCCCCCCCCCCCCCCCCCCCCC(=O)[O-]
REMARK SMILES IDX 15 1 16 2 17 3 18 4 19 5 20 6 21 7 22 8 23 9 24 10 25 11
REMARK SMILES IDX 26 12 27 13 28 14 29 15 30 16 14 17 13 18 12 19 11 20 10 21
REMARK SMILES IDX 9 22 8 23 7 24 6 25 5 26 4 27 3 28 2 29 1 30
REMARK H PARENT
REMARK Flexibility Score: inf
ROOT
ATOM      1  C   UNL     1       8.791   4.519  21.322  1.00  0.00     0.000 C 
ENDROOT
BRANCH   1   2
ATOM      2  C   UNL     1       8.355   5.572  20.291  1.00  0.00     0.000 C 
BRANCH   2   3
ATOM      3  C   UNL     1       8.006   4.958  18.923  1.00  0.00     0.000 C 
BRANCH   3   4
ATOM      4  C   UNL     1       7.868   3.429  18.976  1.00  0.00     0.000 C 
BRANCH   4   5
ATOM      5  C   UNL     1       9.013   2.703  18.247  1.00  0.00     0.000 C 
BRANCH   5   6
ATOM      6  C   UNL     1      10.010   3.683  17.590  1.00  0.00     0.000 C 
BRANCH   6   7
ATOM      7  C   UNL     1      11.431   3.606  18.175  1.00  0.00     0.000 C 
BRANCH   7   8
ATOM      8  C   UNL     1      12.034   4.990  18.470  1.00  0.00     0.000 C 
BRANCH   8   9
ATOM      9  C   UNL     1      11.397   6.106  17.628  1.00  0.00     0.000 C 
BRANCH   9  10
ATOM     10  C   UNL     1      10.991   7.323  18.474  1.00  0.00     0.000 C 
BRANCH  10  11
ATOM     11  C   UNL     1      11.989   7.557  19.617  1.00  0.00     0.000 C 
BRANCH  11  12
ATOM     12  C   UNL     1      11.325   7.566  21.007  1.00  0.00     0.006 C 
BRANCH  12  13
ATOM     13  C   UNL     1      11.548   8.867  21.797  1.00  0.00     0.053 C 
BRANCH  13  14
ATOM     14  C   UNL     1      12.971   9.042  22.232  1.00  0.00     0.041 C 
ATOM     15  O   UNL     1      13.906   8.545  21.551  1.00  0.00    -0.550 OA
ATOM     16  O   UNL     1      13.269   9.778  23.372  1.00  0.00    -0.550 OA
ENDBRANCH  13  14
ENDBRANCH  12  13
ENDBRANCH  11  12
ENDBRANCH  10  11
ENDBRANCH   9  10
ENDBRANCH   8   9
ENDBRANCH   7   8
ENDBRANCH   6   7
ENDBRANCH   5   6
ENDBRANCH   4   5
ENDBRANCH   3   4
ENDBRANCH   2   3
ENDBRANCH   1   2
BRANCH   1  17
ATOM     17  C   UNL     1      10.319   4.334  21.374  1.00  0.00     0.000 C 
BRANCH  17  18
ATOM     18  C   UNL     1      10.732   3.031  22.087  1.00  0.00     0.000 C 
BRANCH  18  19
ATOM     19  C   UNL     1      10.288   1.751  21.356  1.00  0.00     0.000 C 
BRANCH  19  20
ATOM     20  C   UNL     1      10.580   0.471  22.156  1.00  0.00     0.000 C 
BRANCH  20  21
ATOM     21  C   UNL     1      11.157   0.763  23.550  1.00  0.00     0.000 C 
BRANCH  21  22
ATOM     22  C   UNL     1      10.192   0.371  24.682  1.00  0.00    -0.000 C 
BRANCH  22  23
ATOM     23  C   UNL     1      10.775   0.649  26.076  1.00  0.00    -0.000 C 
BRANCH  23  24
ATOM     24  C   UNL     1      11.711  -0.469  26.564  1.00  0.00    -0.000 C 
BRANCH  24  25
ATOM     25  C   UNL     1      12.769   0.033  27.561  1.00  0.00    -0.000 C 
BRANCH  25  26
ATOM     26  C   UNL     1      14.155  -0.618  27.363  1.00  0.00    -0.000 C 
BRANCH  26  27
ATOM     27  C   UNL     1      14.949   0.041  26.225  1.00  0.00    -0.000 C 
BRANCH  27  28
ATOM     28  C   UNL     1      14.898   1.572  26.331  1.00  0.00    -0.000 C 
BRANCH  28  29
ATOM     29  C   UNL     1      14.791   2.256  24.960  1.00  0.00    -0.003 C 
ATOM     30  C   UNL     1      13.603   3.211  24.864  1.00  0.00     0.004 C 
ENDBRANCH  28  29
ENDBRANCH  27  28
ENDBRANCH  26  27
ENDBRANCH  25  26
ENDBRANCH  24  25
ENDBRANCH  23  24
ENDBRANCH  22  23
ENDBRANCH  21  22
ENDBRANCH  20  21
ENDBRANCH  19  20
ENDBRANCH  18  19
ENDBRANCH  17  18
ENDBRANCH   1  17
TORSDOF 26
ENDMDL
MODEL 4
REMARK VINA RESULT:    -5.558      9.135     16.174
REMARK INTER + INTRA:         -18.081
REMARK INTER:                 -13.924
REMARK INTRA:                  -4.158
REMARK UNBOUND:                -4.077
REMARK SMILES CCCCCCCCCCCCCCCCCCCCCCCCCCCC(=O)[O-]
REMARK SMILES IDX 15 1 16 2 17 3 18 4 19 5 20 6 21 7 22 8 23 9 24 10 25 11
REMARK SMILES IDX 26 12 27 13 28 14 29 15 30 16 14 17 13 18 12 19 11 20 10 21
REMARK SMILES IDX 9 22 8 23 7 24 6 25 5 26 4 27 3 28 2 29 1 30
REMARK H PARENT
REMARK Flexibility Score: inf
ROOT
ATOM      1  C   UNL     1      14.999  -6.194  33.843  1.00  0.00     0.000 C 
ENDROOT
BRANCH   1   2
ATOM      2  C   UNL     1      15.581  -6.432  35.245  1.00  0.00     0.000 C 
BRANCH   2   3
ATOM      3  C   UNL     1      15.889  -5.123  35.994  1.00  0.00     0.000 C 
BRANCH   3   4
ATOM      4  C   UNL     1      17.179  -5.203  36.825  1.00  0.00     0.000 C 
BRANCH   4   5
ATOM      5  C   UNL     1      18.038  -3.931  36.713  1.00  0.00     0.000 C 
BRANCH   5   6
ATOM      6  C   UNL     1      17.435  -2.894  35.741  1.00  0.00     0.000 C 
BRANCH   6   7
ATOM      7  C   UNL     1      18.201  -2.771  34.411  1.00  0.00     0.000 C 
BRANCH   7   8
ATOM      8  C   UNL     1      19.392  -3.740  34.313  1.00  0.00     0.000 C 
BRANCH   8   9
ATOM      9  C   UNL     1      19.198  -4.810  33.228  1.00  0.00     0.000 C 
BRANCH   9  10
ATOM     10  C   UNL     1      19.064  -6.224  33.812  1.00  0.00     0.000 C 
BRANCH  10  11
ATOM     11  C   UNL     1      18.872  -7.265  32.698  1.00  0.00     0.000 C 
BRANCH  11  12
ATOM     12  C   UNL     1      17.756  -8.280  33.007  1.00  0.00     0.006 C 
BRANCH  12  13
ATOM     13  C   UNL     1      17.302  -9.100  31.787  1.00  0.00     0.053 C 
BRANCH  13  14
ATOM     14  C   UNL     1      15.815  -9.085  31.602  1.00  0.00     0.041 C 
ATOM     15  O   UNL     1      15.323  -8.974  30.448  1.00  0.00    -0.550 OA
ATOM     16  O   UNL     1      14.972  -9.223  32.697  1.00  0.00    -0.550 OA
ENDBRANCH  13  14
ENDBRANCH  12  13
ENDBRANCH  11  12
ENDBRANCH  10  11
ENDBRANCH   9  10
ENDBRANCH   8   9
ENDBRANCH   7   8
ENDBRANCH   6   7
ENDBRANCH   5   6
ENDBRANCH   4   5
ENDBRANCH   3   4
ENDBRANCH   2   3
ENDBRANCH   1   2
BRANCH   1  17
ATOM     17  C   UNL     1      15.703  -5.047  33.093  1.00  0.00     0.000 C 
BRANCH  17  18
ATOM     18  C   UNL     1      15.834  -5.322  31.581  1.00  0.00     0.000 C 
BRANCH  18  19
ATOM     19  C   UNL     1      15.505  -4.108  30.695  1.00  0.00     0.000 C 
BRANCH  19  20
ATOM     20  C   UNL     1      14.990  -4.505  29.301  1.00  0.00     0.000 C 
BRANCH  20  21
ATOM     21  C   UNL     1      14.660  -3.287  28.424  1.00  0.00     0.000 C 
BRANCH  21  22
ATOM     22  C   UNL     1      15.787  -2.954  27.430  1.00  0.00    -0.000 C 
BRANCH  22  23
ATOM     23  C   UNL     1      15.283  -2.164  26.212  1.00  0.00    -0.000 C 
BRANCH  23  24
ATOM     24  C   UNL     1      14.714  -0.786  26.589  1.00  0.00    -0.000 C 
BRANCH  24  25
ATOM     25  C   UNL     1      13.211  -0.660  26.291  1.00  0.00    -0.000 C 
BRANCH  25  26
ATOM     26  C   UNL     1      12.452   0.206  27.319  1.00  0.00    -0.000 C 
BRANCH  26  27
ATOM     27  C   UNL     1      13.402   1.063  28.169  1.00  0.00    -0.000 C 
BRANCH  27  28
ATOM     28  C   UNL     1      13.071   0.938  29.663  1.00  0.00    -0.000 C 
BRANCH  28  29
ATOM     29  C   UNL     1      13.561  -0.386  30.268  1.00  0.00    -0.003 C 
ATOM     30  C   UNL     1      15.046  -0.360  30.627  1.00  0.00     0.004 C 
ENDBRANCH  28  29
ENDBRANCH  27  28
ENDBRANCH  26  27
ENDBRANCH  25  26
ENDBRANCH  24  25
ENDBRANCH  23  24
ENDBRANCH  22  23
ENDBRANCH  21  22
ENDBRANCH  20  21
ENDBRANCH  19  20
ENDBRANCH  18  19
ENDBRANCH  17  18
ENDBRANCH   1  17
TORSDOF 26
ENDMDL
MODEL 5
REMARK VINA RESULT:    -5.554      2.133      8.893
REMARK INTER + INTRA:         -18.072
REMARK INTER:                 -14.523
REMARK INTRA:                  -3.548
REMARK UNBOUND:                -4.077
REMARK SMILES CCCCCCCCCCCCCCCCCCCCCCCCCCCC(=O)[O-]
REMARK SMILES IDX 15 1 16 2 17 3 18 4 19 5 20 6 21 7 22 8 23 9 24 10 25 11
REMARK SMILES IDX 26 12 27 13 28 14 29 15 30 16 14 17 13 18 12 19 11 20 10 21
REMARK SMILES IDX 9 22 8 23 7 24 6 25 5 26 4 27 3 28 2 29 1 30
REMARK H PARENT
REMARK Flexibility Score: inf
ROOT
ATOM      1  C   UNL     1      10.681   2.367  22.001  1.00  0.00     0.000 C 
ENDROOT
BRANCH   1   2
ATOM      2  C   UNL     1      10.252   0.897  21.869  1.00  0.00     0.000 C 
BRANCH   2   3
ATOM      3  C   UNL     1      10.874  -0.005  22.951  1.00  0.00     0.000 C 
BRANCH   3   4
ATOM      4  C   UNL     1      11.355   0.785  24.178  1.00  0.00     0.000 C 
BRANCH   4   5
ATOM      5  C   UNL     1      10.608   0.395  25.466  1.00  0.00     0.000 C 
BRANCH   5   6
ATOM      6  C   UNL     1      11.455  -0.504  26.391  1.00  0.00     0.000 C 
BRANCH   6   7
ATOM      7  C   UNL     1      12.746  -1.027  25.735  1.00  0.00     0.000 C 
BRANCH   7   8
ATOM      8  C   UNL     1      13.521  -2.007  26.633  1.00  0.00     0.000 C 
BRANCH   8   9
ATOM      9  C   UNL     1      14.726  -1.351  27.325  1.00  0.00     0.000 C 
BRANCH   9  10
ATOM     10  C   UNL     1      14.372  -0.778  28.705  1.00  0.00     0.000 C 
BRANCH  10  11
ATOM     11  C   UNL     1      14.183   0.745  28.638  1.00  0.00     0.000 C 
BRANCH  11  12
ATOM     12  C   UNL     1      14.873   1.386  27.419  1.00  0.00     0.006 C 
BRANCH  12  13
ATOM     13  C   UNL     1      13.928   2.214  26.530  1.00  0.00     0.053 C 
BRANCH  13  14
ATOM     14  C   UNL     1      14.491   2.462  25.163  1.00  0.00     0.041 C 
ATOM     15  O   UNL     1      15.440   1.756  24.733  1.00  0.00    -0.550 OA
ATOM     16  O   UNL     1      13.949   3.451  24.353  1.00  0.00    -0.550 OA
ENDBRANCH  13  14
ENDBRANCH  12  13
ENDBRANCH  11  12
ENDBRANCH  10  11
ENDBRANCH   9  10
ENDBRANCH   8   9
ENDBRANCH   7   8
ENDBRANCH   6   7
ENDBRANCH   5   6
ENDBRANCH   4   5
ENDBRANCH   3   4
ENDBRANCH   2   3
ENDBRANCH   1   2
BRANCH   1  17
ATOM     17  C   UNL     1      10.308   3.209  20.766  1.00  0.00     0.000 C 
BRANCH  17  18
ATOM     18  C   UNL     1       9.946   2.339  19.546  1.00  0.00     0.000 C 
BRANCH  18  19
ATOM     19  C   UNL     1      10.302   2.982  18.193  1.00  0.00     0.000 C 
BRANCH  19  20
ATOM     20  C   UNL     1      11.203   4.221  18.337  1.00  0.00     0.000 C 
BRANCH  20  21
ATOM     21  C   UNL     1      10.653   5.442  17.583  1.00  0.00     0.000 C 
BRANCH  21  22
ATOM     22  C   UNL     1      11.354   6.750  17.990  1.00  0.00    -0.000 C 
BRANCH  22  23
ATOM     23  C   UNL     1      12.314   6.559  19.175  1.00  0.00    -0.000 C 
BRANCH  23  24
ATOM     24  C   UNL     1      12.554   7.859  19.962  1.00  0.00    -0.000 C 
BRANCH  24  25
ATOM     25  C   UNL     1      11.936   7.825  21.370  1.00  0.00    -0.000 C 
BRANCH  25  26
ATOM     26  C   UNL     1      10.936   6.667  21.573  1.00  0.00    -0.000 C 
BRANCH  26  27
ATOM     27  C   UNL     1       9.480   7.119  21.384  1.00  0.00    -0.000 C 
BRANCH  27  28
ATOM     28  C   UNL     1       8.570   5.927  21.054  1.00  0.00    -0.000 C 
BRANCH  28  29
ATOM     29  C   UNL     1       8.056   5.958  19.607  1.00  0.00    -0.003 C 
ATOM     30  C   UNL     1       7.311   4.684  19.214  1.00  0.00     0.004 C 
ENDBRANCH  28  29
ENDBRANCH  27  28
ENDBRANCH  26  27
ENDBRANCH  25  26
ENDBRANCH  24  25
ENDBRANCH  23  24
ENDBRANCH  22  23
ENDBRANCH  21  22
ENDBRANCH  20  21
ENDBRANCH  19  20
ENDBRANCH  18  19
ENDBRANCH  17  18
ENDBRANCH   1  17
TORSDOF 26
ENDMDL
MODEL 6
REMARK VINA RESULT:    -5.523      8.643     15.790
REMARK INTER + INTRA:         -17.995
REMARK INTER:                 -14.524
REMARK INTRA:                  -3.471
REMARK UNBOUND:                -4.077
REMARK SMILES CCCCCCCCCCCCCCCCCCCCCCCCCCCC(=O)[O-]
REMARK SMILES IDX 15 1 16 2 17 3 18 4 19 5 20 6 21 7 22 8 23 9 24 10 25 11
REMARK SMILES IDX 26 12 27 13 28 14 29 15 30 16 14 17 13 18 12 19 11 20 10 21
REMARK SMILES IDX 9 22 8 23 7 24 6 25 5 26 4 27 3 28 2 29 1 30
REMARK H PARENT
REMARK Flexibility Score: inf
ROOT
ATOM      1  C   UNL     1      15.508  -5.676  32.790  1.00  0.00     0.000 C 
ENDROOT
BRANCH   1   2
ATOM      2  C   UNL     1      15.132  -6.995  33.483  1.00  0.00     0.000 C 
BRANCH   2   3
ATOM      3  C   UNL     1      15.144  -6.887  35.019  1.00  0.00     0.000 C 
BRANCH   3   4
ATOM      4  C   UNL     1      15.692  -5.539  35.515  1.00  0.00     0.000 C 
BRANCH   4   5
ATOM      5  C   UNL     1      16.913  -5.698  36.439  1.00  0.00     0.000 C 
BRANCH   5   6
ATOM      6  C   UNL     1      17.603  -7.069  36.274  1.00  0.00     0.000 C 
BRANCH   6   7
ATOM      7  C   UNL     1      18.923  -7.006  35.484  1.00  0.00     0.000 C 
BRANCH   7   8
ATOM      8  C   UNL     1      18.740  -7.297  33.984  1.00  0.00     0.000 C 
BRANCH   8   9
ATOM      9  C   UNL     1      19.280  -6.169  33.091  1.00  0.00     0.000 C 
BRANCH   9  10
ATOM     10  C   UNL     1      18.605  -4.819  33.375  1.00  0.00     0.000 C 
BRANCH  10  11
ATOM     11  C   UNL     1      19.607  -3.815  33.966  1.00  0.00     0.000 C 
BRANCH  11  12
ATOM     12  C   UNL     1      19.091  -3.128  35.244  1.00  0.00     0.006 C 
BRANCH  12  13
ATOM     13  C   UNL     1      17.963  -2.112  34.995  1.00  0.00     0.053 C 
BRANCH  13  14
ATOM     14  C   UNL     1      17.979  -0.980  35.978  1.00  0.00     0.041 C 
ATOM     15  O   UNL     1      17.474  -1.129  37.121  1.00  0.00    -0.550 OA
ATOM     16  O   UNL     1      18.576   0.228  35.644  1.00  0.00    -0.550 OA
ENDBRANCH  13  14
ENDBRANCH  12  13
ENDBRANCH  11  12
ENDBRANCH  10  11
ENDBRANCH   9  10
ENDBRANCH   8   9
ENDBRANCH   7   8
ENDBRANCH   6   7
ENDBRANCH   5   6
ENDBRANCH   4   5
ENDBRANCH   3   4
ENDBRANCH   2   3
ENDBRANCH   1   2
BRANCH   1  17
ATOM     17  C   UNL     1      15.536  -5.797  31.255  1.00  0.00     0.000 C 
BRANCH  17  18
ATOM     18  C   UNL     1      15.483  -4.424  30.554  1.00  0.00     0.000 C 
BRANCH  18  19
ATOM     19  C   UNL     1      14.731  -4.438  29.210  1.00  0.00     0.000 C 
BRANCH  19  20
ATOM     20  C   UNL     1      14.741  -3.073  28.503  1.00  0.00     0.000 C 
BRANCH  20  21
ATOM     21  C   UNL     1      15.801  -2.989  27.394  1.00  0.00     0.000 C 
BRANCH  21  22
ATOM     22  C   UNL     1      15.437  -1.961  26.308  1.00  0.00    -0.000 C 
BRANCH  22  23
ATOM     23  C   UNL     1      13.935  -1.633  26.286  1.00  0.00    -0.000 C 
BRANCH  23  24
ATOM     24  C   UNL     1      13.655  -0.133  26.098  1.00  0.00    -0.000 C 
BRANCH  24  25
ATOM     25  C   UNL     1      12.860   0.475  27.265  1.00  0.00    -0.000 C 
BRANCH  25  26
ATOM     26  C   UNL     1      13.735   0.813  28.492  1.00  0.00    -0.000 C 
BRANCH  26  27
ATOM     27  C   UNL     1      12.902   0.966  29.774  1.00  0.00    -0.000 C 
BRANCH  27  28
ATOM     28  C   UNL     1      13.524   0.174  30.933  1.00  0.00    -0.000 C 
BRANCH  28  29
ATOM     29  C   UNL     1      14.810  -0.559  30.526  1.00  0.00    -0.003 C 
ATOM     30  C   UNL     1      15.974  -0.291  31.479  1.00  0.00     0.004 C 
ENDBRANCH  28  29
ENDBRANCH  27  28
ENDBRANCH  26  27
ENDBRANCH  25  26
ENDBRANCH  24  25
ENDBRANCH  23  24
ENDBRANCH  22  23
ENDBRANCH  21  22
ENDBRANCH  20  21
ENDBRANCH  19  20
ENDBRANCH  18  19
ENDBRANCH  17  18
ENDBRANCH   1  17
TORSDOF 26
ENDMDL
MODEL 7
REMARK VINA RESULT:    -5.495      3.839      9.510
REMARK INTER + INTRA:         -17.924
REMARK INTER:                 -14.265
REMARK INTRA:                  -3.660
REMARK UNBOUND:                -4.077
REMARK SMILES CCCCCCCCCCCCCCCCCCCCCCCCCCCC(=O)[O-]
REMARK SMILES IDX 15 1 16 2 17 3 18 4 19 5 20 6 21 7 22 8 23 9 24 10 25 11
REMARK SMILES IDX 26 12 27 13 28 14 29 15 30 16 14 17 13 18 12 19 11 20 10 21
REMARK SMILES IDX 9 22 8 23 7 24 6 25 5 26 4 27 3 28 2 29 1 30
REMARK H PARENT
REMARK Flexibility Score: inf
ROOT
ATOM      1  C   UNL     1      11.872   5.972  22.087  1.00  0.00     0.000 C 
ENDROOT
BRANCH   1   2
ATOM      2  C   UNL     1      11.916   4.436  22.092  1.00  0.00     0.000 C 
BRANCH   2   3
ATOM      3  C   UNL     1      10.766   3.803  21.287  1.00  0.00     0.000 C 
BRANCH   3   4
ATOM      4  C   UNL     1      10.344   2.431  21.833  1.00  0.00     0.000 C 
BRANCH   4   5
ATOM      5  C   UNL     1      11.280   1.919  22.943  1.00  0.00     0.000 C 
BRANCH   5   6
ATOM      6  C   UNL     1      10.960   0.469  23.363  1.00  0.00     0.000 C 
BRANCH   6   7
ATOM      7  C   UNL     1      10.205   0.362  24.700  1.00  0.00     0.000 C 
BRANCH   7   8
ATOM      8  C   UNL     1      11.129   0.494  25.923  1.00  0.00     0.000 C 
BRANCH   8   9
ATOM      9  C   UNL     1      12.079  -0.704  26.080  1.00  0.00     0.000 C 
BRANCH   9  10
ATOM     10  C   UNL     1      13.551  -0.278  26.180  1.00  0.00     0.000 C 
BRANCH  10  11
ATOM     11  C   UNL     1      13.686   1.078  26.889  1.00  0.00     0.000 C 
BRANCH  11  12
ATOM     12  C   UNL     1      14.439   0.986  28.229  1.00  0.00     0.006 C 
BRANCH  12  13
ATOM     13  C   UNL     1      13.727   0.129  29.290  1.00  0.00     0.053 C 
BRANCH  13  14
ATOM     14  C   UNL     1      14.642  -0.863  29.941  1.00  0.00     0.041 C 
ATOM     15  O   UNL     1      14.716  -2.039  29.498  1.00  0.00    -0.550 OA
ATOM     16  O   UNL     1      15.434  -0.483  31.016  1.00  0.00    -0.550 OA
ENDBRANCH  13  14
ENDBRANCH  12  13
ENDBRANCH  11  12
ENDBRANCH  10  11
ENDBRANCH   9  10
ENDBRANCH   8   9
ENDBRANCH   7   8
ENDBRANCH   6   7
ENDBRANCH   5   6
ENDBRANCH   4   5
ENDBRANCH   3   4
ENDBRANCH   2   3
ENDBRANCH   1   2
BRANCH   1  17
ATOM     17  C   UNL     1      10.489   6.527  21.700  1.00  0.00     0.000 C 
BRANCH  17  18
ATOM     18  C   UNL     1      10.565   7.555  20.552  1.00  0.00     0.000 C 
BRANCH  18  19
ATOM     19  C   UNL     1      11.898   7.533  19.783  1.00  0.00     0.000 C 
BRANCH  19  20
ATOM     20  C   UNL     1      11.758   6.975  18.356  1.00  0.00     0.000 C 
BRANCH  20  21
ATOM     21  C   UNL     1      11.857   5.443  18.308  1.00  0.00     0.000 C 
BRANCH  21  22
ATOM     22  C   UNL     1      10.547   4.782  17.843  1.00  0.00    -0.000 C 
BRANCH  22  23
ATOM     23  C   UNL     1       9.549   5.797  17.265  1.00  0.00    -0.000 C 
BRANCH  23  24
ATOM     24  C   UNL     1       8.175   5.740  17.954  1.00  0.00    -0.000 C 
BRANCH  24  25
ATOM     25  C   UNL     1       8.163   4.814  19.182  1.00  0.00    -0.000 C 
BRANCH  25  26
ATOM     26  C   UNL     1       6.905   3.923  19.264  1.00  0.00    -0.000 C 
BRANCH  26  27
ATOM     27  C   UNL     1       7.094   2.583  18.537  1.00  0.00    -0.000 C 
BRANCH  27  28
ATOM     28  C   UNL     1       8.476   1.984  18.833  1.00  0.00    -0.000 C 
BRANCH  28  29
ATOM     29  C   UNL     1       8.564   0.493  18.475  1.00  0.00    -0.003 C 
ATOM     30  C   UNL     1       7.761   0.135  17.225  1.00  0.00     0.004 C 
ENDBRANCH  28  29
ENDBRANCH  27  28
ENDBRANCH  26  27
ENDBRANCH  25  26
ENDBRANCH  24  25
ENDBRANCH  23  24
ENDBRANCH  22  23
ENDBRANCH  21  22
ENDBRANCH  20  21
ENDBRANCH  19  20
ENDBRANCH  18  19
ENDBRANCH  17  18
ENDBRANCH   1  17
TORSDOF 26
ENDMDL
MODEL 8
REMARK VINA RESULT:    -5.440      2.812      4.959
REMARK INTER + INTRA:         -17.786
REMARK INTER:                 -14.010
REMARK INTRA:                  -3.776
REMARK UNBOUND:                -4.077
REMARK SMILES CCCCCCCCCCCCCCCCCCCCCCCCCCCC(=O)[O-]
REMARK SMILES IDX 15 1 16 2 17 3 18 4 19 5 20 6 21 7 22 8 23 9 24 10 25 11
REMARK SMILES IDX 26 12 27 13 28 14 29 15 30 16 14 17 13 18 12 19 11 20 10 21
REMARK SMILES IDX 9 22 8 23 7 24 6 25 5 26 4 27 3 28 2 29 1 30
REMARK H PARENT
REMARK Flexibility Score: inf
ROOT
ATOM      1  C   UNL     1       9.064   4.715  21.620  1.00  0.00     0.000 C 
ENDROOT
BRANCH   1   2
ATOM      2  C   UNL     1       8.453   5.307  20.340  1.00  0.00     0.000 C 
BRANCH   2   3
ATOM      3  C   UNL     1       8.762   6.805  20.169  1.00  0.00     0.000 C 
BRANCH   3   4
ATOM      4  C   UNL     1       9.503   7.400  21.377  1.00  0.00     0.000 C 
BRANCH   4   5
ATOM      5  C   UNL     1      10.530   8.473  20.974  1.00  0.00     0.000 C 
BRANCH   5   6
ATOM      6  C   UNL     1      11.986   7.984  21.128  1.00  0.00     0.000 C 
BRANCH   6   7
ATOM      7  C   UNL     1      12.716   7.778  19.788  1.00  0.00     0.000 C 
BRANCH   7   8
ATOM      8  C   UNL     1      11.805   7.201  18.691  1.00  0.00     0.000 C 
BRANCH   8   9
ATOM      9  C   UNL     1      12.139   5.740  18.352  1.00  0.00     0.000 C 
BRANCH   9  10
ATOM     10  C   UNL     1      10.897   4.930  17.952  1.00  0.00     0.000 C 
BRANCH  10  11
ATOM     11  C   UNL     1      11.213   3.427  17.897  1.00  0.00     0.000 C 
BRANCH  11  12
ATOM     12  C   UNL     1      10.081   2.595  17.268  1.00  0.00     0.006 C 
BRANCH  12  13
ATOM     13  C   UNL     1       8.913   2.302  18.226  1.00  0.00     0.053 C 
BRANCH  13  14
ATOM     14  C   UNL     1       8.463   0.873  18.168  1.00  0.00     0.041 C 
ATOM     15  O   UNL     1       8.588   0.130  19.176  1.00  0.00    -0.550 OA
ATOM     16  O   UNL     1       7.879   0.371  17.013  1.00  0.00    -0.550 OA
ENDBRANCH  13  14
ENDBRANCH  12  13
ENDBRANCH  11  12
ENDBRANCH  10  11
ENDBRANCH   9  10
ENDBRANCH   8   9
ENDBRANCH   7   8
ENDBRANCH   6   7
ENDBRANCH   5   6
ENDBRANCH   4   5
ENDBRANCH   3   4
ENDBRANCH   2   3
ENDBRANCH   1   2
BRANCH   1  17
ATOM     17  C   UNL     1      10.080   3.594  21.331  1.00  0.00     0.000 C 
BRANCH  17  18
ATOM     18  C   UNL     1      11.538   4.094  21.376  1.00  0.00     0.000 C 
BRANCH  18  19
ATOM     19  C   UNL     1      11.807   5.138  22.474  1.00  0.00     0.000 C 
BRANCH  19  20
ATOM     20  C   UNL     1      13.003   4.773  23.370  1.00  0.00     0.000 C 
BRANCH  20  21
ATOM     21  C   UNL     1      12.874   3.372  23.986  1.00  0.00     0.000 C 
BRANCH  21  22
ATOM     22  C   UNL     1      13.882   3.134  25.124  1.00  0.00    -0.000 C 
BRANCH  22  23
ATOM     23  C   UNL     1      15.004   2.163  24.724  1.00  0.00    -0.000 C 
BRANCH  23  24
ATOM     24  C   UNL     1      15.536   1.345  25.912  1.00  0.00    -0.000 C 
BRANCH  24  25
ATOM     25  C   UNL     1      14.570   1.334  27.108  1.00  0.00    -0.000 C 
BRANCH  25  26
ATOM     26  C   UNL     1      13.926  -0.045  27.365  1.00  0.00    -0.000 C 
BRANCH  26  27
ATOM     27  C   UNL     1      12.410  -0.032  27.122  1.00  0.00    -0.000 C 
BRANCH  27  28
ATOM     28  C   UNL     1      12.081  -0.361  25.659  1.00  0.00    -0.000 C 
BRANCH  28  29
ATOM     29  C   UNL     1      11.016   0.575  25.068  1.00  0.00    -0.003 C 
ATOM     30  C   UNL     1      10.913   0.469  23.547  1.00  0.00     0.004 C 
ENDBRANCH  28  29
ENDBRANCH  27  28
ENDBRANCH  26  27
ENDBRANCH  25  26
ENDBRANCH  24  25
ENDBRANCH  23  24
ENDBRANCH  22  23
ENDBRANCH  21  22
ENDBRANCH  20  21
ENDBRANCH  19  20
ENDBRANCH  18  19
ENDBRANCH  17  18
ENDBRANCH   1  17
TORSDOF 26
ENDMDL
MODEL 9
REMARK VINA RESULT:    -5.377      1.393      3.757
REMARK INTER + INTRA:         -17.627
REMARK INTER:                 -14.053
REMARK INTRA:                  -3.574
REMARK UNBOUND:                -4.077
REMARK SMILES CCCCCCCCCCCCCCCCCCCCCCCCCCCC(=O)[O-]
REMARK SMILES IDX 15 1 16 2 17 3 18 4 19 5 20 6 21 7 22 8 23 9 24 10 25 11
REMARK SMILES IDX 26 12 27 13 28 14 29 15 30 16 14 17 13 18 12 19 11 20 10 21
REMARK SMILES IDX 9 22 8 23 7 24 6 25 5 26 4 27 3 28 2 29 1 30
REMARK H PARENT
REMARK Flexibility Score: inf
ROOT
ATOM      1  C   UNL     1       7.973   5.418  20.896  1.00  0.00     0.000 C 
ENDROOT
BRANCH   1   2
ATOM      2  C   UNL     1       7.645   5.873  19.465  1.00  0.00     0.000 C 
BRANCH   2   3
ATOM      3  C   UNL     1       7.760   4.734  18.436  1.00  0.00     0.000 C 
BRANCH   3   4
ATOM      4  C   UNL     1       7.763   3.342  19.088  1.00  0.00     0.000 C 
BRANCH   4   5
ATOM      5  C   UNL     1       8.990   2.503  18.690  1.00  0.00     0.000 C 
BRANCH   5   6
ATOM      6  C   UNL     1       9.910   3.238  17.693  1.00  0.00     0.000 C 
BRANCH   6   7
ATOM      7  C   UNL     1      11.360   3.396  18.187  1.00  0.00     0.000 C 
BRANCH   7   8
ATOM      8  C   UNL     1      11.867   4.846  18.106  1.00  0.00     0.000 C 
BRANCH   8   9
ATOM      9  C   UNL     1      10.748   5.848  17.786  1.00  0.00     0.000 C 
BRANCH   9  10
ATOM     10  C   UNL     1      11.205   7.307  17.930  1.00  0.00     0.000 C 
BRANCH  10  11
ATOM     11  C   UNL     1      11.502   7.650  19.398  1.00  0.00     0.000 C 
BRANCH  11  12
ATOM     12  C   UNL     1      13.008   7.720  19.709  1.00  0.00     0.006 C 
BRANCH  12  13
ATOM     13  C   UNL     1      13.433   8.995  20.458  1.00  0.00     0.053 C 
BRANCH  13  14
ATOM     14  C   UNL     1      13.035   8.976  21.903  1.00  0.00     0.041 C 
ATOM     15  O   UNL     1      13.561   8.148  22.692  1.00  0.00    -0.550 OA
ATOM     16  O   UNL     1      12.107   9.889  22.385  1.00  0.00    -0.550 OA
ENDBRANCH  13  14
ENDBRANCH  12  13
ENDBRANCH  11  12
ENDBRANCH  10  11
ENDBRANCH   9  10
ENDBRANCH   8   9
ENDBRANCH   7   8
ENDBRANCH   6   7
ENDBRANCH   5   6
ENDBRANCH   4   5
ENDBRANCH   3   4
ENDBRANCH   2   3
ENDBRANCH   1   2
BRANCH   1  17
ATOM     17  C   UNL     1       9.399   5.802  21.331  1.00  0.00     0.000 C 
BRANCH  17  18
ATOM     18  C   UNL     1      10.355   4.592  21.356  1.00  0.00     0.000 C 
BRANCH  18  19
ATOM     19  C   UNL     1      11.792   4.940  21.787  1.00  0.00     0.000 C 
BRANCH  19  20
ATOM     20  C   UNL     1      12.309   4.045  22.925  1.00  0.00     0.000 C 
BRANCH  20  21
ATOM     21  C   UNL     1      13.253   4.791  23.881  1.00  0.00     0.000 C 
BRANCH  21  22
ATOM     22  C   UNL     1      13.687   3.923  25.076  1.00  0.00    -0.000 C 
BRANCH  22  23
ATOM     23  C   UNL     1      13.891   2.449  24.691  1.00  0.00    -0.000 C 
BRANCH  23  24
ATOM     24  C   UNL     1      15.126   1.824  25.361  1.00  0.00    -0.000 C 
BRANCH  24  25
ATOM     25  C   UNL     1      14.769   0.968  26.587  1.00  0.00    -0.000 C 
BRANCH  25  26
ATOM     26  C   UNL     1      14.824  -0.550  26.313  1.00  0.00    -0.000 C 
BRANCH  26  27
ATOM     27  C   UNL     1      13.494  -1.247  26.640  1.00  0.00    -0.000 C 
BRANCH  27  28
ATOM     28  C   UNL     1      12.426  -0.229  27.061  1.00  0.00    -0.000 C 
BRANCH  28  29
ATOM     29  C   UNL     1      11.097  -0.423  26.316  1.00  0.00    -0.003 C 
ATOM     30  C   UNL     1      10.924   0.547  25.149  1.00  0.00     0.004 C 
ENDBRANCH  28  29
ENDBRANCH  27  28
ENDBRANCH  26  27
ENDBRANCH  25  26
ENDBRANCH  24  25
ENDBRANCH  23  24
ENDBRANCH  22  23
ENDBRANCH  21  22
ENDBRANCH  20  21
ENDBRANCH  19  20
ENDBRANCH  18  19
ENDBRANCH  17  18
ENDBRANCH   1  17
TORSDOF 26
ENDMDL
