MODEL 1
REMARK VINA RESULT:    -3.616      0.000      0.000
REMARK INTER + INTRA:          -9.411
REMARK INTER:                  -8.267
REMARK INTRA:                  -1.145
REMARK UNBOUND:                -1.145
REMARK SMILES CCCCCCCCCCCCCCCCCCCCCCCC(=O)[O-]
REMARK SMILES IDX 13 1 14 2 15 3 16 4 17 5 18 6 19 7 20 8 21 9 22 10 23 11
REMARK SMILES IDX 24 12 25 13 26 14 12 15 11 16 10 17 9 18 8 19 7 20 6 21 5 22
REMARK SMILES IDX 4 23 3 24 2 25 1 26
REMARK H PARENT
REMARK Flexibility Score: inf
ROOT
ATOM      1  C   UNL     1      25.791  37.426  32.037  1.00  0.00     0.000 C 
ENDROOT
BRANCH   1   2
ATOM      2  C   UNL     1      25.525  38.190  33.343  1.00  0.00     0.000 C 
BRANCH   2   3
ATOM      3  C   UNL     1      25.639  37.288  34.585  1.00  0.00     0.000 C 
BRANCH   3   4
ATOM      4  C   UNL     1      25.307  38.031  35.893  1.00  0.00     0.000 C 
BRANCH   4   5
ATOM      5  C   UNL     1      25.865  37.370  37.170  1.00  0.00     0.000 C 
BRANCH   5   6
ATOM      6  C   UNL     1      27.405  37.361  37.211  1.00  0.00     0.000 C 
BRANCH   6   7
ATOM      7  C   UNL     1      27.982  38.466  38.115  1.00  0.00     0.000 C 
BRANCH   7   8
ATOM      8  C   UNL     1      29.433  38.874  37.797  1.00  0.00     0.000 C 
BRANCH   8   9
ATOM      9  C   UNL     1      30.177  37.818  36.962  1.00  0.00     0.000 C 
BRANCH   9  10
ATOM     10  C   UNL     1      31.690  38.080  36.888  1.00  0.00     0.006 C 
BRANCH  10  11
ATOM     11  C   UNL     1      32.306  37.648  35.550  1.00  0.00     0.053 C 
BRANCH  11  12
ATOM     12  C   UNL     1      32.559  38.839  34.679  1.00  0.00     0.041 C 
ATOM     13  O   UNL     1      32.459  38.740  33.428  1.00  0.00    -0.550 OA
ATOM     14  O   UNL     1      32.851  40.070  35.253  1.00  0.00    -0.550 OA
ENDBRANCH  11  12
ENDBRANCH  10  11
ENDBRANCH   9  10
ENDBRANCH   8   9
ENDBRANCH   7   8
ENDBRANCH   6   7
ENDBRANCH   5   6
ENDBRANCH   4   5
ENDBRANCH   3   4
ENDBRANCH   2   3
ENDBRANCH   1   2
BRANCH   1  15
ATOM     15  C   UNL     1      26.361  38.327  30.928  1.00  0.00     0.000 C 
BRANCH  15  16
ATOM     16  C   UNL     1      25.322  38.638  29.830  1.00  0.00     0.000 C 
BRANCH  16  17
ATOM     17  C   UNL     1      25.752  39.762  28.869  1.00  0.00     0.000 C 
BRANCH  17  18
ATOM     18  C   UNL     1      25.159  39.670  27.451  1.00  0.00    -0.000 C 
BRANCH  18  19
ATOM     19  C   UNL     1      25.099  41.003  26.682  1.00  0.00    -0.000 C 
BRANCH  19  20
ATOM     20  C   UNL     1      26.028  41.031  25.460  1.00  0.00    -0.000 C 
BRANCH  20  21
ATOM     21  C   UNL     1      26.594  42.443  25.235  1.00  0.00    -0.000 C 
BRANCH  21  22
ATOM     22  C   UNL     1      27.224  43.045  26.505  1.00  0.00    -0.000 C 
BRANCH  22  23
ATOM     23  C   UNL     1      28.206  42.117  27.243  1.00  0.00    -0.000 C 
BRANCH  23  24
ATOM     24  C   UNL     1      29.650  42.647  27.234  1.00  0.00    -0.000 C 
BRANCH  24  25
ATOM     25  C   UNL     1      30.141  42.991  25.819  1.00  0.00    -0.003 C 
ATOM     26  C   UNL     1      30.729  44.399  25.726  1.00  0.00     0.004 C 
ENDBRANCH  24  25
ENDBRANCH  23  24
ENDBRANCH  22  23
ENDBRANCH  21  22
ENDBRANCH  20  21
ENDBRANCH  19  20
ENDBRANCH  18  19
ENDBRANCH  17  18
ENDBRANCH  16  17
ENDBRANCH  15  16
ENDBRANCH   1  15
TORSDOF 22
ENDMDL
MODEL 2
REMARK VINA RESULT:    -3.326      3.609     10.576
REMARK INTER + INTRA:          -8.748
REMARK INTER:                  -7.250
REMARK INTRA:                  -1.498
REMARK UNBOUND:                -1.145
REMARK SMILES CCCCCCCCCCCCCCCCCCCCCCCC(=O)[O-]
REMARK SMILES IDX 13 1 14 2 15 3 16 4 17 5 18 6 19 7 20 8 21 9 22 10 23 11
REMARK SMILES IDX 24 12 25 13 26 14 12 15 11 16 10 17 9 18 8 19 7 20 6 21 5 22
REMARK SMILES IDX 4 23 3 24 2 25 1 26
REMARK H PARENT
REMARK Flexibility Score: inf
ROOT
ATOM      1  C   UNL     1      25.999  38.002  31.920  1.00  0.00     0.000 C 
ENDROOT
BRANCH   1   2
ATOM      2  C   UNL     1      25.796  37.940  30.398  1.00  0.00     0.000 C 
BRANCH   2   3
ATOM      3  C   UNL     1      26.768  36.962  29.714  1.00  0.00     0.000 C 
BRANCH   3   4
ATOM      4  C   UNL     1      26.706  37.038  28.177  1.00  0.00     0.000 C 
BRANCH   4   5
ATOM      5  C   UNL     1      25.400  37.634  27.612  1.00  0.00     0.000 C 
BRANCH   5   6
ATOM      6  C   UNL     1      25.517  38.024  26.127  1.00  0.00     0.000 C 
BRANCH   6   7
ATOM      7  C   UNL     1      26.714  38.952  25.848  1.00  0.00     0.000 C 
BRANCH   7   8
ATOM      8  C   UNL     1      26.558  40.390  26.375  1.00  0.00     0.000 C 
BRANCH   8   9
ATOM      9  C   UNL     1      26.070  41.369  25.293  1.00  0.00     0.000 C 
BRANCH   9  10
ATOM     10  C   UNL     1      26.932  42.640  25.212  1.00  0.00     0.006 C 
BRANCH  10  11
ATOM     11  C   UNL     1      27.536  43.039  26.566  1.00  0.00     0.053 C 
BRANCH  11  12
ATOM     12  C   UNL     1      29.028  43.100  26.478  1.00  0.00     0.041 C 
ATOM     13  O   UNL     1      29.689  42.064  26.197  1.00  0.00    -0.550 OA
ATOM     14  O   UNL     1      29.686  44.312  26.651  1.00  0.00    -0.550 OA
ENDBRANCH  11  12
ENDBRANCH  10  11
ENDBRANCH   9  10
ENDBRANCH   8   9
ENDBRANCH   7   8
ENDBRANCH   6   7
ENDBRANCH   5   6
ENDBRANCH   4   5
ENDBRANCH   3   4
ENDBRANCH   2   3
ENDBRANCH   1   2
BRANCH   1  15
ATOM     15  C   UNL     1      24.878  38.773  32.637  1.00  0.00     0.000 C 
BRANCH  15  16
ATOM     16  C   UNL     1      24.898  38.555  34.165  1.00  0.00     0.000 C 
BRANCH  16  17
ATOM     17  C   UNL     1      25.611  37.260  34.599  1.00  0.00     0.000 C 
BRANCH  17  18
ATOM     18  C   UNL     1      26.385  37.355  35.926  1.00  0.00    -0.000 C 
BRANCH  18  19
ATOM     19  C   UNL     1      25.506  37.489  37.184  1.00  0.00    -0.000 C 
BRANCH  19  20
ATOM     20  C   UNL     1      25.688  38.835  37.900  1.00  0.00    -0.000 C 
BRANCH  20  21
ATOM     21  C   UNL     1      25.832  38.633  39.417  1.00  0.00    -0.000 C 
BRANCH  21  22
ATOM     22  C   UNL     1      25.885  39.960  40.197  1.00  0.00    -0.000 C 
BRANCH  22  23
ATOM     23  C   UNL     1      27.020  40.912  39.778  1.00  0.00    -0.000 C 
BRANCH  23  24
ATOM     24  C   UNL     1      26.553  42.371  39.636  1.00  0.00    -0.000 C 
BRANCH  24  25
ATOM     25  C   UNL     1      25.074  42.479  39.234  1.00  0.00    -0.003 C 
ATOM     26  C   UNL     1      24.877  42.525  37.719  1.00  0.00     0.004 C 
ENDBRANCH  24  25
ENDBRANCH  23  24
ENDBRANCH  22  23
ENDBRANCH  21  22
ENDBRANCH  20  21
ENDBRANCH  19  20
ENDBRANCH  18  19
ENDBRANCH  17  18
ENDBRANCH  16  17
ENDBRANCH  15  16
ENDBRANCH   1  15
TORSDOF 22
ENDMDL
MODEL 3
REMARK VINA RESULT:    -2.895      2.871     10.340
REMARK INTER + INTRA:          -7.764
REMARK INTER:                  -6.438
REMARK INTRA:                  -1.326
REMARK UNBOUND:                -1.145
REMARK SMILES CCCCCCCCCCCCCCCCCCCCCCCC(=O)[O-]
REMARK SMILES IDX 13 1 14 2 15 3 16 4 17 5 18 6 19 7 20 8 21 9 22 10 23 11
REMARK SMILES IDX 24 12 25 13 26 14 12 15 11 16 10 17 9 18 8 19 7 20 6 21 5 22
REMARK SMILES IDX 4 23 3 24 2 25 1 26
REMARK H PARENT
REMARK Flexibility Score: inf
ROOT
ATOM      1  C   UNL     1      26.252  38.370  31.385  1.00  0.00     0.000 C 
ENDROOT
BRANCH   1   2
ATOM      2  C   UNL     1      26.120  38.304  29.855  1.00  0.00     0.000 C 
BRANCH   2   3
ATOM      3  C   UNL     1      26.695  37.001  29.271  1.00  0.00     0.000 C 
BRANCH   3   4
ATOM      4  C   UNL     1      26.540  36.914  27.741  1.00  0.00     0.000 C 
BRANCH   4   5
ATOM      5  C   UNL     1      25.363  37.727  27.165  1.00  0.00     0.000 C 
BRANCH   5   6
ATOM      6  C   UNL     1      25.714  38.422  25.836  1.00  0.00     0.000 C 
BRANCH   6   7
ATOM      7  C   UNL     1      26.774  39.527  26.004  1.00  0.00     0.000 C 
BRANCH   7   8
ATOM      8  C   UNL     1      26.352  40.700  26.908  1.00  0.00     0.000 C 
BRANCH   8   9
ATOM      9  C   UNL     1      26.123  42.003  26.123  1.00  0.00     0.000 C 
BRANCH   9  10
ATOM     10  C   UNL     1      27.438  42.664  25.678  1.00  0.00     0.006 C 
BRANCH  10  11
ATOM     11  C   UNL     1      28.343  43.046  26.856  1.00  0.00     0.053 C 
BRANCH  11  12
ATOM     12  C   UNL     1      29.763  43.186  26.404  1.00  0.00     0.041 C 
ATOM     13  O   UNL     1      30.206  44.311  26.050  1.00  0.00    -0.550 OA
ATOM     14  O   UNL     1      30.612  42.087  26.427  1.00  0.00    -0.550 OA
ENDBRANCH  11  12
ENDBRANCH  10  11
ENDBRANCH   9  10
ENDBRANCH   8   9
ENDBRANCH   7   8
ENDBRANCH   6   7
ENDBRANCH   5   6
ENDBRANCH   4   5
ENDBRANCH   3   4
ENDBRANCH   2   3
ENDBRANCH   1   2
BRANCH   1  15
ATOM     15  C   UNL     1      24.889  38.378  32.098  1.00  0.00     0.000 C 
BRANCH  15  16
ATOM     16  C   UNL     1      25.026  38.526  33.629  1.00  0.00     0.000 C 
BRANCH  16  17
ATOM     17  C   UNL     1      25.296  37.197  34.359  1.00  0.00     0.000 C 
BRANCH  17  18
ATOM     18  C   UNL     1      26.118  37.321  35.654  1.00  0.00    -0.000 C 
BRANCH  18  19
ATOM     19  C   UNL     1      25.306  37.697  36.907  1.00  0.00    -0.000 C 
BRANCH  19  20
ATOM     20  C   UNL     1      25.321  39.205  37.200  1.00  0.00    -0.000 C 
BRANCH  20  21
ATOM     21  C   UNL     1      25.036  39.477  38.686  1.00  0.00    -0.000 C 
BRANCH  21  22
ATOM     22  C   UNL     1      26.315  39.530  39.541  1.00  0.00    -0.000 C 
BRANCH  22  23
ATOM     23  C   UNL     1      27.630  39.422  38.748  1.00  0.00    -0.000 C 
BRANCH  23  24
ATOM     24  C   UNL     1      28.839  39.087  39.638  1.00  0.00    -0.000 C 
BRANCH  24  25
ATOM     25  C   UNL     1      29.821  38.121  38.957  1.00  0.00    -0.003 C 
ATOM     26  C   UNL     1      30.634  38.791  37.850  1.00  0.00     0.004 C 
ENDBRANCH  24  25
ENDBRANCH  23  24
ENDBRANCH  22  23
ENDBRANCH  21  22
ENDBRANCH  20  21
ENDBRANCH  19  20
ENDBRANCH  18  19
ENDBRANCH  17  18
ENDBRANCH  16  17
ENDBRANCH  15  16
ENDBRANCH   1  15
TORSDOF 22
ENDMDL
MODEL 4
REMARK VINA RESULT:    -2.849      9.520     13.827
REMARK INTER + INTRA:          -7.658
REMARK INTER:                  -6.321
REMARK INTRA:                  -1.337
REMARK UNBOUND:                -1.145
REMARK SMILES CCCCCCCCCCCCCCCCCCCCCCCC(=O)[O-]
REMARK SMILES IDX 13 1 14 2 15 3 16 4 17 5 18 6 19 7 20 8 21 9 22 10 23 11
REMARK SMILES IDX 24 12 25 13 26 14 12 15 11 16 10 17 9 18 8 19 7 20 6 21 5 22
REMARK SMILES IDX 4 23 3 24 2 25 1 26
REMARK H PARENT
REMARK Flexibility Score: inf
ROOT
ATOM      1  C   UNL     1      28.892  45.604  41.623  1.00  0.00     0.000 C 
ENDROOT
BRANCH   1   2
ATOM      2  C   UNL     1      30.412  45.560  41.847  1.00  0.00     0.000 C 
BRANCH   2   3
ATOM      3  C   UNL     1      31.006  46.952  42.124  1.00  0.00     0.000 C 
BRANCH   3   4
ATOM      4  C   UNL     1      31.038  47.847  40.871  1.00  0.00     0.000 C 
BRANCH   4   5
ATOM      5  C   UNL     1      30.898  49.356  41.151  1.00  0.00     0.000 C 
BRANCH   5   6
ATOM      6  C   UNL     1      29.752  50.007  40.355  1.00  0.00     0.000 C 
BRANCH   6   7
ATOM      7  C   UNL     1      30.238  50.689  39.062  1.00  0.00     0.000 C 
BRANCH   7   8
ATOM      8  C   UNL     1      29.798  52.156  38.896  1.00  0.00     0.000 C 
BRANCH   8   9
ATOM      9  C   UNL     1      28.296  52.294  38.593  1.00  0.00     0.000 C 
BRANCH   9  10
ATOM     10  C   UNL     1      27.607  53.340  39.484  1.00  0.00     0.006 C 
BRANCH  10  11
ATOM     11  C   UNL     1      27.797  53.067  40.982  1.00  0.00     0.053 C 
BRANCH  11  12
ATOM     12  C   UNL     1      26.841  52.014  41.450  1.00  0.00     0.041 C 
ATOM     13  O   UNL     1      27.265  51.010  42.081  1.00  0.00    -0.550 OA
ATOM     14  O   UNL     1      25.477  52.171  41.239  1.00  0.00    -0.550 OA
ENDBRANCH  11  12
ENDBRANCH  10  11
ENDBRANCH   9  10
ENDBRANCH   8   9
ENDBRANCH   7   8
ENDBRANCH   6   7
ENDBRANCH   5   6
ENDBRANCH   4   5
ENDBRANCH   3   4
ENDBRANCH   2   3
ENDBRANCH   1   2
BRANCH   1  15
ATOM     15  C   UNL     1      28.211  44.255  41.910  1.00  0.00     0.000 C 
BRANCH  15  16
ATOM     16  C   UNL     1      26.688  44.397  42.117  1.00  0.00     0.000 C 
BRANCH  16  17
ATOM     17  C   UNL     1      25.926  43.060  42.061  1.00  0.00     0.000 C 
BRANCH  17  18
ATOM     18  C   UNL     1      25.209  42.774  40.729  1.00  0.00    -0.000 C 
BRANCH  18  19
ATOM     19  C   UNL     1      26.126  42.308  39.583  1.00  0.00    -0.000 C 
BRANCH  19  20
ATOM     20  C   UNL     1      25.369  42.078  38.266  1.00  0.00    -0.000 C 
BRANCH  20  21
ATOM     21  C   UNL     1      25.196  40.576  37.989  1.00  0.00    -0.000 C 
BRANCH  21  22
ATOM     22  C   UNL     1      26.013  39.691  38.949  1.00  0.00    -0.000 C 
BRANCH  22  23
ATOM     23  C   UNL     1      27.125  38.864  38.279  1.00  0.00    -0.000 C 
BRANCH  23  24
ATOM     24  C   UNL     1      28.535  39.283  38.730  1.00  0.00    -0.000 C 
BRANCH  24  25
ATOM     25  C   UNL     1      29.129  38.324  39.772  1.00  0.00    -0.003 C 
ATOM     26  C   UNL     1      29.191  36.879  39.275  1.00  0.00     0.004 C 
ENDBRANCH  24  25
ENDBRANCH  23  24
ENDBRANCH  22  23
ENDBRANCH  21  22
ENDBRANCH  20  21
ENDBRANCH  19  20
ENDBRANCH  18  19
ENDBRANCH  17  18
ENDBRANCH  16  17
ENDBRANCH  15  16
ENDBRANCH   1  15
TORSDOF 22
ENDMDL
MODEL 5
REMARK VINA RESULT:    -2.763      3.338     10.665
REMARK INTER + INTRA:          -7.462
REMARK INTER:                  -6.272
REMARK INTRA:                  -1.190
REMARK UNBOUND:                -1.145
REMARK SMILES CCCCCCCCCCCCCCCCCCCCCCCC(=O)[O-]
REMARK SMILES IDX 13 1 14 2 15 3 16 4 17 5 18 6 19 7 20 8 21 9 22 10 23 11
REMARK SMILES IDX 24 12 25 13 26 14 12 15 11 16 10 17 9 18 8 19 7 20 6 21 5 22
REMARK SMILES IDX 4 23 3 24 2 25 1 26
REMARK H PARENT
REMARK Flexibility Score: inf
ROOT
ATOM      1  C   UNL     1      30.222  37.283  32.421  1.00  0.00     0.000 C 
ENDROOT
BRANCH   1   2
ATOM      2  C   UNL     1      28.773  36.875  32.732  1.00  0.00     0.000 C 
BRANCH   2   3
ATOM      3  C   UNL     1      27.856  36.981  31.501  1.00  0.00     0.000 C 
BRANCH   3   4
ATOM      4  C   UNL     1      26.384  37.238  31.875  1.00  0.00     0.000 C 
BRANCH   4   5
ATOM      5  C   UNL     1      25.539  37.887  30.760  1.00  0.00     0.000 C 
BRANCH   5   6
ATOM      6  C   UNL     1      26.332  38.918  29.935  1.00  0.00     0.000 C 
BRANCH   6   7
ATOM      7  C   UNL     1      25.549  39.430  28.711  1.00  0.00     0.000 C 
BRANCH   7   8
ATOM      8  C   UNL     1      25.728  38.594  27.429  1.00  0.00     0.000 C 
BRANCH   8   9
ATOM      9  C   UNL     1      26.368  39.395  26.283  1.00  0.00     0.000 C 
BRANCH   9  10
ATOM     10  C   UNL     1      25.416  40.448  25.693  1.00  0.00     0.006 C 
BRANCH  10  11
ATOM     11  C   UNL     1      26.152  41.676  25.141  1.00  0.00     0.053 C 
BRANCH  11  12
ATOM     12  C   UNL     1      26.949  42.340  26.220  1.00  0.00     0.041 C 
ATOM     13  O   UNL     1      26.373  42.783  27.250  1.00  0.00    -0.550 OA
ATOM     14  O   UNL     1      28.332  42.420  26.115  1.00  0.00    -0.550 OA
ENDBRANCH  11  12
ENDBRANCH  10  11
ENDBRANCH   9  10
ENDBRANCH   8   9
ENDBRANCH   7   8
ENDBRANCH   6   7
ENDBRANCH   5   6
ENDBRANCH   4   5
ENDBRANCH   3   4
ENDBRANCH   2   3
ENDBRANCH   1   2
BRANCH   1  15
ATOM     15  C   UNL     1      31.167  37.068  33.615  1.00  0.00     0.000 C 
BRANCH  15  16
ATOM     16  C   UNL     1      32.077  38.289  33.872  1.00  0.00     0.000 C 
BRANCH  16  17
ATOM     17  C   UNL     1      32.081  38.763  35.338  1.00  0.00     0.000 C 
BRANCH  17  18
ATOM     18  C   UNL     1      31.375  37.821  36.329  1.00  0.00    -0.000 C 
BRANCH  18  19
ATOM     19  C   UNL     1      30.681  38.523  37.512  1.00  0.00    -0.000 C 
BRANCH  19  20
ATOM     20  C   UNL     1      29.653  37.627  38.220  1.00  0.00    -0.000 C 
BRANCH  20  21
ATOM     21  C   UNL     1      28.250  38.250  38.158  1.00  0.00    -0.000 C 
BRANCH  21  22
ATOM     22  C   UNL     1      28.227  39.722  38.611  1.00  0.00    -0.000 C 
BRANCH  22  23
ATOM     23  C   UNL     1      27.176  40.052  39.686  1.00  0.00    -0.000 C 
BRANCH  23  24
ATOM     24  C   UNL     1      26.290  41.251  39.307  1.00  0.00    -0.000 C 
BRANCH  24  25
ATOM     25  C   UNL     1      26.310  42.358  40.373  1.00  0.00    -0.003 C 
ATOM     26  C   UNL     1      27.310  42.078  41.495  1.00  0.00     0.004 C 
ENDBRANCH  24  25
ENDBRANCH  23  24
ENDBRANCH  22  23
ENDBRANCH  21  22
ENDBRANCH  20  21
ENDBRANCH  19  20
ENDBRANCH  18  19
ENDBRANCH  17  18
ENDBRANCH  16  17
ENDBRANCH  15  16
ENDBRANCH   1  15
TORSDOF 22
ENDMDL
MODEL 6
REMARK VINA RESULT:    -2.684      2.971     10.392
REMARK INTER + INTRA:          -7.282
REMARK INTER:                  -6.266
REMARK INTRA:                  -1.016
REMARK UNBOUND:                -1.145
REMARK SMILES CCCCCCCCCCCCCCCCCCCCCCCC(=O)[O-]
REMARK SMILES IDX 13 1 14 2 15 3 16 4 17 5 18 6 19 7 20 8 21 9 22 10 23 11
REMARK SMILES IDX 24 12 25 13 26 14 12 15 11 16 10 17 9 18 8 19 7 20 6 21 5 22
REMARK SMILES IDX 4 23 3 24 2 25 1 26
REMARK H PARENT
REMARK Flexibility Score: inf
ROOT
ATOM      1  C   UNL     1      29.522  37.592  32.019  1.00  0.00     0.000 C 
ENDROOT
BRANCH   1   2
ATOM      2  C   UNL     1      28.207  36.875  31.675  1.00  0.00     0.000 C 
BRANCH   2   3
ATOM      3  C   UNL     1      27.050  37.858  31.425  1.00  0.00     0.000 C 
BRANCH   3   4
ATOM      4  C   UNL     1      25.789  37.167  30.872  1.00  0.00     0.000 C 
BRANCH   4   5
ATOM      5  C   UNL     1      25.578  37.329  29.354  1.00  0.00     0.000 C 
BRANCH   5   6
ATOM      6  C   UNL     1      24.926  38.674  28.983  1.00  0.00     0.000 C 
BRANCH   6   7
ATOM      7  C   UNL     1      25.961  39.758  28.628  1.00  0.00     0.000 C 
BRANCH   7   8
ATOM      8  C   UNL     1      25.421  40.912  27.762  1.00  0.00     0.000 C 
BRANCH   8   9
ATOM      9  C   UNL     1      26.427  41.375  26.695  1.00  0.00     0.000 C 
BRANCH   9  10
ATOM     10  C   UNL     1      27.411  42.430  27.226  1.00  0.00     0.006 C 
BRANCH  10  11
ATOM     11  C   UNL     1      28.217  43.110  26.111  1.00  0.00     0.053 C 
BRANCH  11  12
ATOM     12  C   UNL     1      29.653  43.245  26.509  1.00  0.00     0.041 C 
ATOM     13  O   UNL     1      30.158  42.444  27.339  1.00  0.00    -0.550 OA
ATOM     14  O   UNL     1      30.448  44.221  25.921  1.00  0.00    -0.550 OA
ENDBRANCH  11  12
ENDBRANCH  10  11
ENDBRANCH   9  10
ENDBRANCH   8   9
ENDBRANCH   7   8
ENDBRANCH   6   7
ENDBRANCH   5   6
ENDBRANCH   4   5
ENDBRANCH   3   4
ENDBRANCH   2   3
ENDBRANCH   1   2
BRANCH   1  15
ATOM     15  C   UNL     1      30.314  36.879  33.129  1.00  0.00     0.000 C 
BRANCH  15  16
ATOM     16  C   UNL     1      31.810  37.261  33.123  1.00  0.00     0.000 C 
BRANCH  16  17
ATOM     17  C   UNL     1      32.488  37.134  34.500  1.00  0.00     0.000 C 
BRANCH  17  18
ATOM     18  C   UNL     1      31.544  37.276  35.708  1.00  0.00    -0.000 C 
BRANCH  18  19
ATOM     19  C   UNL     1      31.339  38.718  36.208  1.00  0.00    -0.000 C 
BRANCH  19  20
ATOM     20  C   UNL     1      30.590  38.785  37.548  1.00  0.00    -0.000 C 
BRANCH  20  21
ATOM     21  C   UNL     1      29.255  38.028  37.466  1.00  0.00    -0.000 C 
BRANCH  21  22
ATOM     22  C   UNL     1      28.232  38.501  38.516  1.00  0.00    -0.000 C 
BRANCH  22  23
ATOM     23  C   UNL     1      26.765  38.473  38.050  1.00  0.00    -0.000 C 
BRANCH  23  24
ATOM     24  C   UNL     1      25.825  39.248  38.989  1.00  0.00    -0.000 C 
BRANCH  24  25
ATOM     25  C   UNL     1      26.343  39.292  40.435  1.00  0.00    -0.003 C 
ATOM     26  C   UNL     1      26.300  40.697  41.034  1.00  0.00     0.004 C 
ENDBRANCH  24  25
ENDBRANCH  23  24
ENDBRANCH  22  23
ENDBRANCH  21  22
ENDBRANCH  20  21
ENDBRANCH  19  20
ENDBRANCH  18  19
ENDBRANCH  17  18
ENDBRANCH  16  17
ENDBRANCH  15  16
ENDBRANCH   1  15
TORSDOF 22
ENDMDL
MODEL 7
REMARK VINA RESULT:    -2.662      2.210      3.906
REMARK INTER + INTRA:          -7.230
REMARK INTER:                  -5.674
REMARK INTRA:                  -1.556
REMARK UNBOUND:                -1.145
REMARK SMILES CCCCCCCCCCCCCCCCCCCCCCCC(=O)[O-]
REMARK SMILES IDX 13 1 14 2 15 3 16 4 17 5 18 6 19 7 20 8 21 9 22 10 23 11
REMARK SMILES IDX 24 12 25 13 26 14 12 15 11 16 10 17 9 18 8 19 7 20 6 21 5 22
REMARK SMILES IDX 4 23 3 24 2 25 1 26
REMARK H PARENT
REMARK Flexibility Score: inf
ROOT
ATOM      1  C   UNL     1      25.960  38.584  28.463  1.00  0.00     0.000 C 
ENDROOT
BRANCH   1   2
ATOM      2  C   UNL     1      24.923  37.557  28.942  1.00  0.00     0.000 C 
BRANCH   2   3
ATOM      3  C   UNL     1      25.077  37.219  30.436  1.00  0.00     0.000 C 
BRANCH   3   4
ATOM      4  C   UNL     1      26.133  38.092  31.138  1.00  0.00     0.000 C 
BRANCH   4   5
ATOM      5  C   UNL     1      26.804  37.434  32.361  1.00  0.00     0.000 C 
BRANCH   5   6
ATOM      6  C   UNL     1      25.785  36.906  33.388  1.00  0.00     0.000 C 
BRANCH   6   7
ATOM      7  C   UNL     1      25.833  37.673  34.723  1.00  0.00     0.000 C 
BRANCH   7   8
ATOM      8  C   UNL     1      24.988  37.061  35.855  1.00  0.00     0.000 C 
BRANCH   8   9
ATOM      9  C   UNL     1      25.079  37.863  37.164  1.00  0.00     0.000 C 
BRANCH   9  10
ATOM     10  C   UNL     1      26.241  37.405  38.059  1.00  0.00     0.006 C 
BRANCH  10  11
ATOM     11  C   UNL     1      27.308  38.491  38.255  1.00  0.00     0.053 C 
BRANCH  11  12
ATOM     12  C   UNL     1      28.607  38.067  37.646  1.00  0.00     0.041 C 
ATOM     13  O   UNL     1      28.619  37.267  36.673  1.00  0.00    -0.550 OA
ATOM     14  O   UNL     1      29.802  38.598  38.117  1.00  0.00    -0.550 OA
ENDBRANCH  11  12
ENDBRANCH  10  11
ENDBRANCH   9  10
ENDBRANCH   8   9
ENDBRANCH   7   8
ENDBRANCH   6   7
ENDBRANCH   5   6
ENDBRANCH   4   5
ENDBRANCH   3   4
ENDBRANCH   2   3
ENDBRANCH   1   2
BRANCH   1  15
ATOM     15  C   UNL     1      26.671  38.150  27.170  1.00  0.00     0.000 C 
BRANCH  15  16
ATOM     16  C   UNL     1      25.882  37.069  26.399  1.00  0.00     0.000 C 
BRANCH  16  17
ATOM     17  C   UNL     1      24.875  37.640  25.384  1.00  0.00     0.000 C 
BRANCH  17  18
ATOM     18  C   UNL     1      25.501  38.411  24.208  1.00  0.00    -0.000 C 
BRANCH  18  19
ATOM     19  C   UNL     1      25.038  39.873  24.068  1.00  0.00    -0.000 C 
BRANCH  19  20
ATOM     20  C   UNL     1      25.177  40.673  25.372  1.00  0.00    -0.000 C 
BRANCH  20  21
ATOM     21  C   UNL     1      26.499  41.457  25.395  1.00  0.00    -0.000 C 
BRANCH  21  22
ATOM     22  C   UNL     1      26.423  42.735  26.249  1.00  0.00    -0.000 C 
BRANCH  22  23
ATOM     23  C   UNL     1      27.638  42.975  27.164  1.00  0.00    -0.000 C 
BRANCH  23  24
ATOM     24  C   UNL     1      28.976  42.924  26.406  1.00  0.00    -0.000 C 
BRANCH  24  25
ATOM     25  C   UNL     1      29.792  44.216  26.564  1.00  0.00    -0.003 C 
ATOM     26  C   UNL     1      30.999  44.269  25.628  1.00  0.00     0.004 C 
ENDBRANCH  24  25
ENDBRANCH  23  24
ENDBRANCH  22  23
ENDBRANCH  21  22
ENDBRANCH  20  21
ENDBRANCH  19  20
ENDBRANCH  18  19
ENDBRANCH  17  18
ENDBRANCH  16  17
ENDBRANCH  15  16
ENDBRANCH   1  15
TORSDOF 22
ENDMDL
MODEL 8
REMARK VINA RESULT:    -2.628      8.807     12.342
REMARK INTER + INTRA:          -7.153
REMARK INTER:                  -5.373
REMARK INTRA:                  -1.780
REMARK UNBOUND:                -1.145
REMARK SMILES CCCCCCCCCCCCCCCCCCCCCCCC(=O)[O-]
REMARK SMILES IDX 13 1 14 2 15 3 16 4 17 5 18 6 19 7 20 8 21 9 22 10 23 11
REMARK SMILES IDX 24 12 25 13 26 14 12 15 11 16 10 17 9 18 8 19 7 20 6 21 5 22
REMARK SMILES IDX 4 23 3 24 2 25 1 26
REMARK H PARENT
REMARK Flexibility Score: inf
ROOT
ATOM      1  C   UNL     1      28.680  45.844  42.125  1.00  0.00     0.000 C 
ENDROOT
BRANCH   1   2
ATOM      2  C   UNL     1      28.755  44.315  41.991  1.00  0.00     0.000 C 
BRANCH   2   3
ATOM      3  C   UNL     1      27.482  43.716  41.368  1.00  0.00     0.000 C 
BRANCH   3   4
ATOM      4  C   UNL     1      27.041  42.409  42.054  1.00  0.00     0.000 C 
BRANCH   4   5
ATOM      5  C   UNL     1      25.948  41.623  41.302  1.00  0.00     0.000 C 
BRANCH   5   6
ATOM      6  C   UNL     1      25.890  41.969  39.803  1.00  0.00     0.000 C 
BRANCH   6   7
ATOM      7  C   UNL     1      25.356  40.807  38.944  1.00  0.00     0.000 C 
BRANCH   7   8
ATOM      8  C   UNL     1      25.219  39.463  39.682  1.00  0.00     0.000 C 
BRANCH   8   9
ATOM      9  C   UNL     1      26.157  38.380  39.123  1.00  0.00     0.000 C 
BRANCH   9  10
ATOM     10  C   UNL     1      27.359  38.970  38.369  1.00  0.00     0.006 C 
BRANCH  10  11
ATOM     11  C   UNL     1      28.619  39.074  39.239  1.00  0.00     0.053 C 
BRANCH  11  12
ATOM     12  C   UNL     1      29.789  38.449  38.547  1.00  0.00     0.041 C 
ATOM     13  O   UNL     1      30.346  37.431  39.038  1.00  0.00    -0.550 OA
ATOM     14  O   UNL     1      30.230  38.956  37.331  1.00  0.00    -0.550 OA
ENDBRANCH  11  12
ENDBRANCH  10  11
ENDBRANCH   9  10
ENDBRANCH   8   9
ENDBRANCH   7   8
ENDBRANCH   6   7
ENDBRANCH   5   6
ENDBRANCH   4   5
ENDBRANCH   3   4
ENDBRANCH   2   3
ENDBRANCH   1   2
BRANCH   1  15
ATOM     15  C   UNL     1      29.200  46.575  40.875  1.00  0.00     0.000 C 
BRANCH  15  16
ATOM     16  C   UNL     1      30.742  46.580  40.796  1.00  0.00     0.000 C 
BRANCH  16  17
ATOM     17  C   UNL     1      31.427  47.143  42.055  1.00  0.00     0.000 C 
BRANCH  17  18
ATOM     18  C   UNL     1      31.810  48.632  41.979  1.00  0.00    -0.000 C 
BRANCH  18  19
ATOM     19  C   UNL     1      30.634  49.615  42.125  1.00  0.00    -0.000 C 
BRANCH  19  20
ATOM     20  C   UNL     1      30.749  50.828  41.189  1.00  0.00    -0.000 C 
BRANCH  20  21
ATOM     21  C   UNL     1      30.749  50.385  39.717  1.00  0.00    -0.000 C 
BRANCH  21  22
ATOM     22  C   UNL     1      29.763  51.187  38.848  1.00  0.00    -0.000 C 
BRANCH  22  23
ATOM     23  C   UNL     1      28.277  50.965  39.183  1.00  0.00    -0.000 C 
BRANCH  23  24
ATOM     24  C   UNL     1      27.424  52.229  38.980  1.00  0.00    -0.000 C 
BRANCH  24  25
ATOM     25  C   UNL     1      28.267  53.513  38.970  1.00  0.00    -0.003 C 
ATOM     26  C   UNL     1      28.691  53.950  40.373  1.00  0.00     0.004 C 
ENDBRANCH  24  25
ENDBRANCH  23  24
ENDBRANCH  22  23
ENDBRANCH  21  22
ENDBRANCH  20  21
ENDBRANCH  19  20
ENDBRANCH  18  19
ENDBRANCH  17  18
ENDBRANCH  16  17
ENDBRANCH  15  16
ENDBRANCH   1  15
TORSDOF 22
ENDMDL
MODEL 9
REMARK VINA RESULT:    -2.587      8.967     12.254
REMARK INTER + INTRA:          -7.059
REMARK INTER:                  -6.570
REMARK INTRA:                  -0.489
REMARK UNBOUND:                -1.145
REMARK SMILES CCCCCCCCCCCCCCCCCCCCCCCC(=O)[O-]
REMARK SMILES IDX 13 1 14 2 15 3 16 4 17 5 18 6 19 7 20 8 21 9 22 10 23 11
REMARK SMILES IDX 24 12 25 13 26 14 12 15 11 16 10 17 9 18 8 19 7 20 6 21 5 22
REMARK SMILES IDX 4 23 3 24 2 25 1 26
REMARK H PARENT
REMARK Flexibility Score: inf
ROOT
ATOM      1  C   UNL     1      29.233  45.582  40.950  1.00  0.00     0.000 C 
ENDROOT
BRANCH   1   2
ATOM      2  C   UNL     1      28.365  45.104  42.125  1.00  0.00     0.000 C 
BRANCH   2   3
ATOM      3  C   UNL     1      28.073  43.594  42.064  1.00  0.00     0.000 C 
BRANCH   3   4
ATOM      4  C   UNL     1      26.847  43.259  41.194  1.00  0.00     0.000 C 
BRANCH   4   5
ATOM      5  C   UNL     1      26.537  41.753  41.070  1.00  0.00     0.000 C 
BRANCH   5   6
ATOM      6  C   UNL     1      26.606  41.250  39.616  1.00  0.00     0.000 C 
BRANCH   6   7
ATOM      7  C   UNL     1      25.749  39.992  39.381  1.00  0.00     0.000 C 
BRANCH   7   8
ATOM      8  C   UNL     1      26.548  38.692  39.166  1.00  0.00     0.000 C 
BRANCH   8   9
ATOM      9  C   UNL     1      27.644  38.840  38.097  1.00  0.00     0.000 C 
BRANCH   9  10
ATOM     10  C   UNL     1      28.849  37.920  38.354  1.00  0.00     0.006 C 
BRANCH  10  11
ATOM     11  C   UNL     1      30.194  38.649  38.230  1.00  0.00     0.053 C 
BRANCH  11  12
ATOM     12  C   UNL     1      30.786  38.431  36.874  1.00  0.00     0.041 C 
ATOM     13  O   UNL     1      31.739  39.153  36.476  1.00  0.00    -0.550 OA
ATOM     14  O   UNL     1      30.325  37.395  36.071  1.00  0.00    -0.550 OA
ENDBRANCH  11  12
ENDBRANCH  10  11
ENDBRANCH   9  10
ENDBRANCH   8   9
ENDBRANCH   7   8
ENDBRANCH   6   7
ENDBRANCH   5   6
ENDBRANCH   4   5
ENDBRANCH   3   4
ENDBRANCH   2   3
ENDBRANCH   1   2
BRANCH   1  15
ATOM     15  C   UNL     1      30.644  46.007  41.390  1.00  0.00     0.000 C 
BRANCH  15  16
ATOM     16  C   UNL     1      30.833  47.540  41.361  1.00  0.00     0.000 C 
BRANCH  16  17
ATOM     17  C   UNL     1      29.511  48.329  41.411  1.00  0.00     0.000 C 
BRANCH  17  18
ATOM     18  C   UNL     1      29.194  49.151  40.149  1.00  0.00    -0.000 C 
BRANCH  18  19
ATOM     19  C   UNL     1      29.623  50.629  40.208  1.00  0.00    -0.000 C 
BRANCH  19  20
ATOM     20  C   UNL     1      30.496  51.047  39.016  1.00  0.00    -0.000 C 
BRANCH  20  21
ATOM     21  C   UNL     1      30.038  52.402  38.452  1.00  0.00    -0.000 C 
BRANCH  21  22
ATOM     22  C   UNL     1      28.508  52.568  38.458  1.00  0.00    -0.000 C 
BRANCH  22  23
ATOM     23  C   UNL     1      27.906  52.977  39.815  1.00  0.00    -0.000 C 
BRANCH  23  24
ATOM     24  C   UNL     1      26.712  52.098  40.227  1.00  0.00    -0.000 C 
BRANCH  24  25
ATOM     25  C   UNL     1      26.489  52.086  41.747  1.00  0.00    -0.003 C 
ATOM     26  C   UNL     1      25.011  51.982  42.125  1.00  0.00     0.004 C 
ENDBRANCH  24  25
ENDBRANCH  23  24
ENDBRANCH  22  23
ENDBRANCH  21  22
ENDBRANCH  20  21
ENDBRANCH  19  20
ENDBRANCH  18  19
ENDBRANCH  17  18
ENDBRANCH  16  17
ENDBRANCH  15  16
ENDBRANCH   1  15
TORSDOF 22
ENDMDL
