MODEL 1
REMARK VINA RESULT:    -7.024      0.000      0.000
REMARK INTER + INTRA:          -8.622
REMARK INTER:                  -8.461
REMARK INTRA:                  -0.161
REMARK UNBOUND:                -0.161
REMARK SMILES Oc1cc(O)c2cc(O)c(-c3ccc(O)c(O)c3)[o+]c2c1
REMARK SMILES IDX 10 1 19 2 20 3 21 4 2 5 3 6 4 7 6 8 7 9 8 10 11 11 12 12
REMARK SMILES IDX 13 13 14 14 18 15 16 16 15 17 17 19 9 21 1 23 5 25
REMARK H PARENT 15 18 17 20 9 22 1 24 5 26
REMARK Flexibility Score: inf
ROOT
ATOM      1  C   UNL     1      17.623  -1.282  10.578  1.00  0.00     0.402 A 
ATOM      2  O   UNL     1      17.620  -1.641   9.297  1.00  0.00    -0.202 OA
ATOM      3  C   UNL     1      16.520  -1.994   8.641  1.00  0.00     0.368 A 
ATOM      4  C   UNL     1      16.617  -2.353   7.294  1.00  0.00     0.162 A 
ATOM      5  C   UNL     1      15.476  -2.725   6.579  1.00  0.00     0.128 A 
ATOM      6  C   UNL     1      14.231  -2.738   7.213  1.00  0.00     0.093 A 
ATOM      7  C   UNL     1      14.107  -2.383   8.561  1.00  0.00     0.136 A 
ATOM      8  C   UNL     1      15.263  -2.007   9.293  1.00  0.00     0.125 A 
ATOM      9  C   UNL     1      15.236  -1.648  10.651  1.00  0.00     0.078 A 
ATOM     10  C   UNL     1      16.418  -1.293  11.306  1.00  0.00     0.223 A 
ENDROOT
BRANCH   1  11
ATOM     11  C   UNL     1      18.913  -0.901  11.196  1.00  0.00     0.087 A 
ATOM     12  C   UNL     1      19.584   0.244  10.744  1.00  0.00     0.022 A 
ATOM     13  C   UNL     1      20.792   0.632  11.326  1.00  0.00     0.051 A 
ATOM     14  C   UNL     1      21.346  -0.104  12.379  1.00  0.00     0.157 A 
ATOM     15  C   UNL     1      19.456  -1.631  12.269  1.00  0.00     0.068 A 
ATOM     16  C   UNL     1      20.665  -1.247  12.862  1.00  0.00     0.158 A 
BRANCH  14  17
ATOM     17  O   UNL     1      22.560   0.333  12.913  1.00  0.00    -0.504 OA
ATOM     18  H   UNL     1      23.156   1.020  12.474  1.00  0.00     0.293 HD
ENDBRANCH  14  17
BRANCH  16  19
ATOM     19  O   UNL     1      21.147  -2.019  13.922  1.00  0.00    -0.504 OA
ATOM     20  H   UNL     1      21.802  -1.684  14.612  1.00  0.00     0.293 HD
ENDBRANCH  16  19
ENDBRANCH   1  11
BRANCH  10  21
ATOM     21  O   UNL     1      16.399  -0.986  12.667  1.00  0.00    -0.500 OA
ATOM     22  H   UNL     1      16.393  -0.029  12.996  1.00  0.00     0.294 HD
ENDBRANCH  10  21
BRANCH   5  23
ATOM     23  O   UNL     1      15.566  -3.084   5.235  1.00  0.00    -0.507 OA
ATOM     24  H   UNL     1      15.205  -3.968   4.897  1.00  0.00     0.293 HD
ENDBRANCH   5  23
BRANCH   7  25
ATOM     25  O   UNL     1      12.826  -2.418   9.120  1.00  0.00    -0.507 OA
ATOM     26  H   UNL     1      11.972  -2.285   8.599  1.00  0.00     0.293 HD
ENDBRANCH   7  25
TORSDOF 6
ENDMDL
MODEL 2
REMARK VINA RESULT:    -6.632      3.312      5.507
REMARK INTER + INTRA:          -8.150
REMARK INTER:                  -7.977
REMARK INTRA:                  -0.172
REMARK UNBOUND:                -0.161
REMARK SMILES Oc1cc(O)c2cc(O)c(-c3ccc(O)c(O)c3)[o+]c2c1
REMARK SMILES IDX 10 1 19 2 20 3 21 4 2 5 3 6 4 7 6 8 7 9 8 10 11 11 12 12
REMARK SMILES IDX 13 13 14 14 18 15 16 16 15 17 17 19 9 21 1 23 5 25
REMARK H PARENT 15 18 17 20 9 22 1 24 5 26
REMARK Flexibility Score: inf
ROOT
ATOM      1  C   UNL     1      14.396  -1.994  11.292  1.00  0.00     0.402 A 
ATOM      2  O   UNL     1      13.490  -2.319  10.373  1.00  0.00    -0.202 OA
ATOM      3  C   UNL     1      13.754  -2.359   9.072  1.00  0.00     0.368 A 
ATOM      4  C   UNL     1      12.738  -2.715   8.182  1.00  0.00     0.162 A 
ATOM      5  C   UNL     1      12.989  -2.769   6.808  1.00  0.00     0.128 A 
ATOM      6  C   UNL     1      14.263  -2.467   6.322  1.00  0.00     0.093 A 
ATOM      7  C   UNL     1      15.299  -2.108   7.192  1.00  0.00     0.136 A 
ATOM      8  C   UNL     1      15.048  -2.049   8.587  1.00  0.00     0.125 A 
ATOM      9  C   UNL     1      16.023  -1.687   9.533  1.00  0.00     0.078 A 
ATOM     10  C   UNL     1      15.700  -1.647  10.892  1.00  0.00     0.223 A 
ENDROOT
BRANCH   1  11
ATOM     11  C   UNL     1      13.981  -1.994  12.714  1.00  0.00     0.087 A 
ATOM     12  C   UNL     1      14.618  -2.854  13.619  1.00  0.00     0.022 A 
ATOM     13  C   UNL     1      14.256  -2.855  14.968  1.00  0.00     0.051 A 
ATOM     14  C   UNL     1      13.266  -1.989  15.442  1.00  0.00     0.157 A 
ATOM     15  C   UNL     1      13.000  -1.106  13.191  1.00  0.00     0.068 A 
ATOM     16  C   UNL     1      12.634  -1.097  14.542  1.00  0.00     0.158 A 
BRANCH  14  17
ATOM     17  O   UNL     1      12.945  -2.044  16.799  1.00  0.00    -0.504 OA
ATOM     18  H   UNL     1      12.474  -2.822  17.238  1.00  0.00     0.293 HD
ENDBRANCH  14  17
BRANCH  16  19
ATOM     19  O   UNL     1      11.651  -0.190  14.946  1.00  0.00    -0.504 OA
ATOM     20  H   UNL     1      10.920   0.157  14.342  1.00  0.00     0.293 HD
ENDBRANCH  16  19
ENDBRANCH   1  11
BRANCH  10  21
ATOM     21  O   UNL     1      16.652  -1.238  11.826  1.00  0.00    -0.500 OA
ATOM     22  H   UNL     1      16.442  -1.193  12.815  1.00  0.00     0.294 HD
ENDBRANCH  10  21
BRANCH   5  23
ATOM     23  O   UNL     1      11.979  -3.123   5.916  1.00  0.00    -0.507 OA
ATOM     24  H   UNL     1      12.187  -3.425   4.971  1.00  0.00     0.293 HD
ENDBRANCH   5  23
BRANCH   7  25
ATOM     25  O   UNL     1      16.545  -1.825   6.626  1.00  0.00    -0.507 OA
ATOM     26  H   UNL     1      17.371  -1.585   7.156  1.00  0.00     0.293 HD
ENDBRANCH   7  25
TORSDOF 6
ENDMDL
MODEL 3
REMARK VINA RESULT:    -6.451      4.612      7.435
REMARK INTER + INTRA:          -7.932
REMARK INTER:                  -7.585
REMARK INTRA:                  -0.347
REMARK UNBOUND:                -0.161
REMARK SMILES Oc1cc(O)c2cc(O)c(-c3ccc(O)c(O)c3)[o+]c2c1
REMARK SMILES IDX 10 1 19 2 20 3 21 4 2 5 3 6 4 7 6 8 7 9 8 10 11 11 12 12
REMARK SMILES IDX 13 13 14 14 18 15 16 16 15 17 17 19 9 21 1 23 5 25
REMARK H PARENT 15 18 17 20 9 22 1 24 5 26
REMARK Flexibility Score: inf
ROOT
ATOM      1  C   UNL     1      17.658  -0.613  14.588  1.00  0.00     0.402 A 
ATOM      2  O   UNL     1      18.357  -1.424  13.799  1.00  0.00    -0.202 OA
ATOM      3  C   UNL     1      19.578  -1.140  13.359  1.00  0.00     0.368 A 
ATOM      4  C   UNL     1      20.236  -2.057  12.535  1.00  0.00     0.162 A 
ATOM      5  C   UNL     1      21.522  -1.785  12.062  1.00  0.00     0.128 A 
ATOM      6  C   UNL     1      22.155  -0.591  12.415  1.00  0.00     0.093 A 
ATOM      7  C   UNL     1      21.519   0.345  13.240  1.00  0.00     0.136 A 
ATOM      8  C   UNL     1      20.212   0.074  13.721  1.00  0.00     0.125 A 
ATOM      9  C   UNL     1      19.492   0.959  14.542  1.00  0.00     0.078 A 
ATOM     10  C   UNL     1      18.205   0.626  14.973  1.00  0.00     0.223 A 
ENDROOT
BRANCH   1  11
ATOM     11  C   UNL     1      16.309  -1.046  15.019  1.00  0.00     0.087 A 
ATOM     12  C   UNL     1      16.165  -1.782  16.203  1.00  0.00     0.022 A 
ATOM     13  C   UNL     1      14.900  -2.184  16.637  1.00  0.00     0.051 A 
ATOM     14  C   UNL     1      13.755  -1.846  15.908  1.00  0.00     0.157 A 
ATOM     15  C   UNL     1      15.159  -0.686  14.295  1.00  0.00     0.068 A 
ATOM     16  C   UNL     1      13.886  -1.080  14.725  1.00  0.00     0.158 A 
BRANCH  14  17
ATOM     17  O   UNL     1      12.521  -2.284  16.391  1.00  0.00    -0.504 OA
ATOM     18  H   UNL     1      12.298  -3.251  16.579  1.00  0.00     0.293 HD
ENDBRANCH  14  17
BRANCH  16  19
ATOM     19  O   UNL     1      12.787  -0.689  13.956  1.00  0.00    -0.504 OA
ATOM     20  H   UNL     1      11.894  -0.420  14.343  1.00  0.00     0.293 HD
ENDBRANCH  16  19
ENDBRANCH   1  11
BRANCH  10  21
ATOM     21  O   UNL     1      17.471   1.525  15.746  1.00  0.00    -0.500 OA
ATOM     22  H   UNL     1      16.468   1.444  15.848  1.00  0.00     0.294 HD
ENDBRANCH  10  21
BRANCH   5  23
ATOM     23  O   UNL     1      22.183  -2.695  11.239  1.00  0.00    -0.507 OA
ATOM     24  H   UNL     1      22.298  -3.665  11.506  1.00  0.00     0.293 HD
ENDBRANCH   5  23
BRANCH   7  25
ATOM     25  O   UNL     1      22.222   1.512  13.550  1.00  0.00    -0.507 OA
ATOM     26  H   UNL     1      22.625   1.712  14.454  1.00  0.00     0.293 HD
ENDBRANCH   7  25
TORSDOF 6
ENDMDL
MODEL 4
REMARK VINA RESULT:    -6.284      3.522      7.085
REMARK INTER + INTRA:          -7.731
REMARK INTER:                  -8.041
REMARK INTRA:                   0.310
REMARK UNBOUND:                -0.161
REMARK SMILES Oc1cc(O)c2cc(O)c(-c3ccc(O)c(O)c3)[o+]c2c1
REMARK SMILES IDX 10 1 19 2 20 3 21 4 2 5 3 6 4 7 6 8 7 9 8 10 11 11 12 12
REMARK SMILES IDX 13 13 14 14 18 15 16 16 15 17 17 19 9 21 1 23 5 25
REMARK H PARENT 15 18 17 20 9 22 1 24 5 26
REMARK Flexibility Score: inf
ROOT
ATOM      1  C   UNL     1      14.346  -2.066  10.033  1.00  0.00     0.402 A 
ATOM      2  O   UNL     1      13.150  -2.394  10.515  1.00  0.00    -0.202 OA
ATOM      3  C   UNL     1      12.799  -2.213  11.783  1.00  0.00     0.368 A 
ATOM      4  C   UNL     1      11.518  -2.587  12.196  1.00  0.00     0.162 A 
ATOM      5  C   UNL     1      11.122  -2.403  13.524  1.00  0.00     0.128 A 
ATOM      6  C   UNL     1      12.011  -1.842  14.443  1.00  0.00     0.093 A 
ATOM      7  C   UNL     1      13.300  -1.458  14.056  1.00  0.00     0.136 A 
ATOM      8  C   UNL     1      13.708  -1.646  12.710  1.00  0.00     0.125 A 
ATOM      9  C   UNL     1      14.986  -1.303  12.234  1.00  0.00     0.078 A 
ATOM     10  C   UNL     1      15.317  -1.521  10.894  1.00  0.00     0.223 A 
ENDROOT
BRANCH   1  11
ATOM     11  C   UNL     1      14.613  -2.311   8.598  1.00  0.00     0.087 A 
ATOM     12  C   UNL     1      15.926  -2.561   8.173  1.00  0.00     0.022 A 
ATOM     13  C   UNL     1      16.198  -2.813   6.827  1.00  0.00     0.051 A 
ATOM     14  C   UNL     1      15.166  -2.837   5.883  1.00  0.00     0.157 A 
ATOM     15  C   UNL     1      13.571  -2.356   7.655  1.00  0.00     0.068 A 
ATOM     16  C   UNL     1      13.833  -2.612   6.304  1.00  0.00     0.158 A 
BRANCH  14  17
ATOM     17  O   UNL     1      15.505  -3.087   4.552  1.00  0.00    -0.504 OA
ATOM     18  H   UNL     1      16.102  -2.491   3.998  1.00  0.00     0.293 HD
ENDBRANCH  14  17
BRANCH  16  19
ATOM     19  O   UNL     1      12.750  -2.640   5.422  1.00  0.00    -0.504 OA
ATOM     20  H   UNL     1      12.694  -2.088   4.579  1.00  0.00     0.293 HD
ENDBRANCH  16  19
ENDBRANCH   1  11
BRANCH  10  21
ATOM     21  O   UNL     1      16.601  -1.228  10.434  1.00  0.00    -0.500 OA
ATOM     22  H   UNL     1      17.316  -0.864  11.051  1.00  0.00     0.294 HD
ENDBRANCH  10  21
BRANCH   5  23
ATOM     23  O   UNL     1       9.845  -2.774  13.941  1.00  0.00    -0.507 OA
ATOM     24  H   UNL     1       9.674  -3.661  14.401  1.00  0.00     0.293 HD
ENDBRANCH   5  23
BRANCH   7  25
ATOM     25  O   UNL     1      14.127  -0.902  15.035  1.00  0.00    -0.507 OA
ATOM     26  H   UNL     1      14.079   0.058  15.345  1.00  0.00     0.293 HD
ENDBRANCH   7  25
TORSDOF 6
ENDMDL
MODEL 5
REMARK VINA RESULT:    -6.203      4.392      5.595
REMARK INTER + INTRA:          -7.633
REMARK INTER:                  -7.444
REMARK INTRA:                  -0.189
REMARK UNBOUND:                -0.161
REMARK SMILES Oc1cc(O)c2cc(O)c(-c3ccc(O)c(O)c3)[o+]c2c1
REMARK SMILES IDX 10 1 19 2 20 3 21 4 2 5 3 6 4 7 6 8 7 9 8 10 11 11 12 12
REMARK SMILES IDX 13 13 14 14 18 15 16 16 15 17 17 19 9 21 1 23 5 25
REMARK H PARENT 15 18 17 20 9 22 1 24 5 26
REMARK Flexibility Score: inf
ROOT
ATOM      1  C   UNL     1      13.307  -2.463  11.131  1.00  0.00     0.402 A 
ATOM      2  O   UNL     1      14.428  -2.310  10.430  1.00  0.00    -0.202 OA
ATOM      3  C   UNL     1      14.482  -2.425   9.108  1.00  0.00     0.368 A 
ATOM      4  C   UNL     1      15.706  -2.245   8.459  1.00  0.00     0.162 A 
ATOM      5  C   UNL     1      15.791  -2.356   7.068  1.00  0.00     0.128 A 
ATOM      6  C   UNL     1      14.647  -2.649   6.323  1.00  0.00     0.093 A 
ATOM      7  C   UNL     1      13.408  -2.834   6.948  1.00  0.00     0.136 A 
ATOM      8  C   UNL     1      13.317  -2.725   8.360  1.00  0.00     0.125 A 
ATOM      9  C   UNL     1      12.121  -2.907   9.074  1.00  0.00     0.078 A 
ATOM     10  C   UNL     1      12.109  -2.788  10.466  1.00  0.00     0.223 A 
ENDROOT
BRANCH   1  11
ATOM     11  C   UNL     1      13.373  -2.301  12.601  1.00  0.00     0.087 A 
ATOM     12  C   UNL     1      14.242  -3.111  13.346  1.00  0.00     0.022 A 
ATOM     13  C   UNL     1      14.334  -2.962  14.731  1.00  0.00     0.051 A 
ATOM     14  C   UNL     1      13.576  -1.993  15.397  1.00  0.00     0.157 A 
ATOM     15  C   UNL     1      12.626  -1.311  13.264  1.00  0.00     0.068 A 
ATOM     16  C   UNL     1      12.715  -1.151  14.652  1.00  0.00     0.158 A 
BRANCH  14  17
ATOM     17  O   UNL     1      13.708  -1.900  16.784  1.00  0.00    -0.504 OA
ATOM     18  H   UNL     1      14.574  -1.686  17.256  1.00  0.00     0.293 HD
ENDBRANCH  14  17
BRANCH  16  19
ATOM     19  O   UNL     1      11.943  -0.149  15.245  1.00  0.00    -0.504 OA
ATOM     20  H   UNL     1      12.305   0.534  15.893  1.00  0.00     0.293 HD
ENDBRANCH  16  19
ENDBRANCH   1  11
BRANCH  10  21
ATOM     21  O   UNL     1      10.933  -3.018  11.179  1.00  0.00    -0.500 OA
ATOM     22  H   UNL     1      10.090  -2.487  11.000  1.00  0.00     0.294 HD
ENDBRANCH  10  21
BRANCH   5  23
ATOM     23  O   UNL     1      17.009  -2.178   6.415  1.00  0.00    -0.507 OA
ATOM     24  H   UNL     1      17.882  -2.490   6.825  1.00  0.00     0.293 HD
ENDBRANCH   5  23
BRANCH   7  25
ATOM     25  O   UNL     1      12.311  -3.120   6.131  1.00  0.00    -0.507 OA
ATOM     26  H   UNL     1      11.908  -2.472   5.469  1.00  0.00     0.293 HD
ENDBRANCH   7  25
TORSDOF 6
ENDMDL
MODEL 6
REMARK VINA RESULT:    -6.194      3.875      7.393
REMARK INTER + INTRA:          -7.623
REMARK INTER:                  -7.334
REMARK INTRA:                  -0.289
REMARK UNBOUND:                -0.161
REMARK SMILES Oc1cc(O)c2cc(O)c(-c3ccc(O)c(O)c3)[o+]c2c1
REMARK SMILES IDX 10 1 19 2 20 3 21 4 2 5 3 6 4 7 6 8 7 9 8 10 11 11 12 12
REMARK SMILES IDX 13 13 14 14 18 15 16 16 15 17 17 19 9 21 1 23 5 25
REMARK H PARENT 15 18 17 20 9 22 1 24 5 26
REMARK Flexibility Score: inf
ROOT
ATOM      1  C   UNL     1      16.562  -1.726  14.080  1.00  0.00     0.402 A 
ATOM      2  O   UNL     1      17.214  -1.263  13.016  1.00  0.00    -0.202 OA
ATOM      3  C   UNL     1      18.532  -1.105  12.981  1.00  0.00     0.368 A 
ATOM      4  C   UNL     1      19.128  -0.613  11.817  1.00  0.00     0.162 A 
ATOM      5  C   UNL     1      20.513  -0.441  11.751  1.00  0.00     0.128 A 
ATOM      6  C   UNL     1      21.307  -0.761  12.855  1.00  0.00     0.093 A 
ATOM      7  C   UNL     1      20.736  -1.255  14.033  1.00  0.00     0.136 A 
ATOM      8  C   UNL     1      19.329  -1.430  14.106  1.00  0.00     0.125 A 
ATOM      9  C   UNL     1      18.668  -1.907  15.250  1.00  0.00     0.078 A 
ATOM     10  C   UNL     1      17.278  -2.049  15.249  1.00  0.00     0.223 A 
ENDROOT
BRANCH   1  11
ATOM     11  C   UNL     1      15.091  -1.866  13.993  1.00  0.00     0.087 A 
ATOM     12  C   UNL     1      14.540  -2.964  13.317  1.00  0.00     0.022 A 
ATOM     13  C   UNL     1      13.155  -3.125  13.240  1.00  0.00     0.051 A 
ATOM     14  C   UNL     1      12.295  -2.206  13.848  1.00  0.00     0.157 A 
ATOM     15  C   UNL     1      14.229  -0.952  14.625  1.00  0.00     0.068 A 
ATOM     16  C   UNL     1      12.839  -1.108  14.557  1.00  0.00     0.158 A 
BRANCH  14  17
ATOM     17  O   UNL     1      10.920  -2.419  13.729  1.00  0.00    -0.504 OA
ATOM     18  H   UNL     1      10.278  -1.756  13.320  1.00  0.00     0.293 HD
ENDBRANCH  14  17
BRANCH  16  19
ATOM     19  O   UNL     1      12.044  -0.161  15.206  1.00  0.00    -0.504 OA
ATOM     20  H   UNL     1      11.993   0.812  14.941  1.00  0.00     0.293 HD
ENDBRANCH  16  19
ENDBRANCH   1  11
BRANCH  10  21
ATOM     21  O   UNL     1      16.616  -2.474  16.401  1.00  0.00    -0.500 OA
ATOM     22  H   UNL     1      16.265  -1.817  17.086  1.00  0.00     0.294 HD
ENDBRANCH  10  21
BRANCH   5  23
ATOM     23  O   UNL     1      21.113   0.049  10.593  1.00  0.00    -0.507 OA
ATOM     24  H   UNL     1      20.642   0.716   9.993  1.00  0.00     0.293 HD
ENDBRANCH   5  23
BRANCH   7  25
ATOM     25  O   UNL     1      21.599  -1.555  15.090  1.00  0.00    -0.507 OA
ATOM     26  H   UNL     1      21.601  -1.076  15.979  1.00  0.00     0.293 HD
ENDBRANCH   7  25
TORSDOF 6
ENDMDL
MODEL 7
REMARK VINA RESULT:    -6.044      2.166      3.655
REMARK INTER + INTRA:          -7.442
REMARK INTER:                  -7.098
REMARK INTRA:                  -0.344
REMARK UNBOUND:                -0.161
REMARK SMILES Oc1cc(O)c2cc(O)c(-c3ccc(O)c(O)c3)[o+]c2c1
REMARK SMILES IDX 10 1 19 2 20 3 21 4 2 5 3 6 4 7 6 8 7 9 8 10 11 11 12 12
REMARK SMILES IDX 13 13 14 14 18 15 16 16 15 17 17 19 9 21 1 23 5 25
REMARK H PARENT 15 18 17 20 9 22 1 24 5 26
REMARK Flexibility Score: inf
ROOT
ATOM      1  C   UNL     1      18.230  -0.951  12.305  1.00  0.00     0.402 A 
ATOM      2  O   UNL     1      16.995  -1.226  12.719  1.00  0.00    -0.202 OA
ATOM      3  C   UNL     1      16.007  -1.556  11.895  1.00  0.00     0.368 A 
ATOM      4  C   UNL     1      14.743  -1.831  12.423  1.00  0.00     0.162 A 
ATOM      5  C   UNL     1      13.687  -2.185  11.580  1.00  0.00     0.128 A 
ATOM      6  C   UNL     1      13.895  -2.266  10.201  1.00  0.00     0.093 A 
ATOM      7  C   UNL     1      15.152  -1.997   9.646  1.00  0.00     0.136 A 
ATOM      8  C   UNL     1      16.227  -1.634  10.498  1.00  0.00     0.125 A 
ATOM      9  C   UNL     1      17.517  -1.334  10.029  1.00  0.00     0.078 A 
ATOM     10  C   UNL     1      18.525  -0.980  10.929  1.00  0.00     0.223 A 
ENDROOT
BRANCH   1  11
ATOM     11  C   UNL     1      19.248  -0.603  13.323  1.00  0.00     0.087 A 
ATOM     12  C   UNL     1      20.110  -1.598  13.805  1.00  0.00     0.022 A 
ATOM     13  C   UNL     1      21.089  -1.287  14.750  1.00  0.00     0.051 A 
ATOM     14  C   UNL     1      21.239   0.022  15.220  1.00  0.00     0.157 A 
ATOM     15  C   UNL     1      19.409   0.718  13.776  1.00  0.00     0.068 A 
ATOM     16  C   UNL     1      20.392   1.040  14.720  1.00  0.00     0.158 A 
BRANCH  14  17
ATOM     17  O   UNL     1      22.232   0.266  16.170  1.00  0.00    -0.504 OA
ATOM     18  H   UNL     1      23.186  -0.054  16.086  1.00  0.00     0.293 HD
ENDBRANCH  14  17
BRANCH  16  19
ATOM     19  O   UNL     1      20.494   2.373  15.127  1.00  0.00    -0.504 OA
ATOM     20  H   UNL     1      19.800   3.078  14.931  1.00  0.00     0.293 HD
ENDBRANCH  16  19
ENDBRANCH   1  11
BRANCH  10  21
ATOM     21  O   UNL     1      19.792  -0.633  10.460  1.00  0.00    -0.500 OA
ATOM     22  H   UNL     1      20.633  -0.868  10.973  1.00  0.00     0.294 HD
ENDBRANCH  10  21
BRANCH   5  23
ATOM     23  O   UNL     1      12.424  -2.459  12.101  1.00  0.00    -0.507 OA
ATOM     24  H   UNL     1      11.581  -2.291  11.565  1.00  0.00     0.293 HD
ENDBRANCH   5  23
BRANCH   7  25
ATOM     25  O   UNL     1      15.278  -2.104   8.258  1.00  0.00    -0.507 OA
ATOM     26  H   UNL     1      16.065  -2.528   7.788  1.00  0.00     0.293 HD
ENDBRANCH   7  25
TORSDOF 6
ENDMDL
MODEL 8
REMARK VINA RESULT:    -5.979      3.155      3.734
REMARK INTER + INTRA:          -7.363
REMARK INTER:                  -7.065
REMARK INTRA:                  -0.298
REMARK UNBOUND:                -0.161
REMARK SMILES Oc1cc(O)c2cc(O)c(-c3ccc(O)c(O)c3)[o+]c2c1
REMARK SMILES IDX 10 1 19 2 20 3 21 4 2 5 3 6 4 7 6 8 7 9 8 10 11 11 12 12
REMARK SMILES IDX 13 13 14 14 18 15 16 16 15 17 17 19 9 21 1 23 5 25
REMARK H PARENT 15 18 17 20 9 22 1 24 5 26
REMARK Flexibility Score: inf
ROOT
ATOM      1  C   UNL     1      15.175  -1.601  12.377  1.00  0.00     0.402 A 
ATOM      2  O   UNL     1      15.918  -1.615  11.274  1.00  0.00    -0.202 OA
ATOM      3  C   UNL     1      15.413  -1.788  10.057  1.00  0.00     0.368 A 
ATOM      4  C   UNL     1      16.274  -1.785   8.957  1.00  0.00     0.162 A 
ATOM      5  C   UNL     1      15.770  -1.961   7.665  1.00  0.00     0.128 A 
ATOM      6  C   UNL     1      14.398  -2.139   7.473  1.00  0.00     0.093 A 
ATOM      7  C   UNL     1      13.514  -2.145   8.558  1.00  0.00     0.136 A 
ATOM      8  C   UNL     1      14.021  -1.970   9.872  1.00  0.00     0.125 A 
ATOM      9  C   UNL     1      13.211  -1.976  11.020  1.00  0.00     0.078 A 
ATOM     10  C   UNL     1      13.784  -1.801  12.282  1.00  0.00     0.223 A 
ENDROOT
BRANCH   1  11
ATOM     11  C   UNL     1      15.854  -1.392  13.676  1.00  0.00     0.087 A 
ATOM     12  C   UNL     1      16.098  -2.490  14.513  1.00  0.00     0.022 A 
ATOM     13  C   UNL     1      16.754  -2.317  15.733  1.00  0.00     0.051 A 
ATOM     14  C   UNL     1      17.193  -1.052  16.135  1.00  0.00     0.157 A 
ATOM     15  C   UNL     1      16.313  -0.121  14.067  1.00  0.00     0.068 A 
ATOM     16  C   UNL     1      16.976   0.061  15.287  1.00  0.00     0.158 A 
BRANCH  14  17
ATOM     17  O   UNL     1      17.836  -0.945  17.370  1.00  0.00    -0.504 OA
ATOM     18  H   UNL     1      18.670  -1.456  17.619  1.00  0.00     0.293 HD
ENDBRANCH  14  17
BRANCH  16  19
ATOM     19  O   UNL     1      17.403   1.351  15.611  1.00  0.00    -0.504 OA
ATOM     20  H   UNL     1      17.976   1.924  15.010  1.00  0.00     0.293 HD
ENDBRANCH  16  19
ENDBRANCH   1  11
BRANCH  10  21
ATOM     21  O   UNL     1      12.988  -1.857  13.426  1.00  0.00    -0.500 OA
ATOM     22  H   UNL     1      11.978  -1.802  13.374  1.00  0.00     0.294 HD
ENDBRANCH  10  21
BRANCH   5  23
ATOM     23  O   UNL     1      16.624  -1.959   6.564  1.00  0.00    -0.507 OA
ATOM     24  H   UNL     1      16.275  -1.824   5.622  1.00  0.00     0.293 HD
ENDBRANCH   5  23
BRANCH   7  25
ATOM     25  O   UNL     1      12.156  -2.325   8.280  1.00  0.00    -0.507 OA
ATOM     26  H   UNL     1      11.755  -2.305   7.354  1.00  0.00     0.293 HD
ENDBRANCH   7  25
TORSDOF 6
ENDMDL
MODEL 9
REMARK VINA RESULT:    -5.941      2.617      3.544
REMARK INTER + INTRA:          -7.318
REMARK INTER:                  -6.964
REMARK INTRA:                  -0.354
REMARK UNBOUND:                -0.161
REMARK SMILES Oc1cc(O)c2cc(O)c(-c3ccc(O)c(O)c3)[o+]c2c1
REMARK SMILES IDX 10 1 19 2 20 3 21 4 2 5 3 6 4 7 6 8 7 9 8 10 11 11 12 12
REMARK SMILES IDX 13 13 14 14 18 15 16 16 15 17 17 19 9 21 1 23 5 25
REMARK H PARENT 15 18 17 20 9 22 1 24 5 26
REMARK Flexibility Score: inf
ROOT
ATOM      1  C   UNL     1      17.084  -1.247  13.757  1.00  0.00     0.402 A 
ATOM      2  O   UNL     1      16.797  -1.219  12.458  1.00  0.00    -0.202 OA
ATOM      3  C   UNL     1      15.634  -1.626  11.960  1.00  0.00     0.368 A 
ATOM      4  C   UNL     1      15.423  -1.556  10.581  1.00  0.00     0.162 A 
ATOM      5  C   UNL     1      14.208  -1.973  10.030  1.00  0.00     0.128 A 
ATOM      6  C   UNL     1      13.199  -2.461  10.863  1.00  0.00     0.093 A 
ATOM      7  C   UNL     1      13.384  -2.542  12.248  1.00  0.00     0.136 A 
ATOM      8  C   UNL     1      14.617  -2.122  12.812  1.00  0.00     0.125 A 
ATOM      9  C   UNL     1      14.897  -2.178  14.187  1.00  0.00     0.078 A 
ATOM     10  C   UNL     1      16.137  -1.751  14.669  1.00  0.00     0.223 A 
ENDROOT
BRANCH   1  11
ATOM     11  C   UNL     1      18.413  -0.758  14.191  1.00  0.00     0.087 A 
ATOM     12  C   UNL     1      19.521  -1.615  14.118  1.00  0.00     0.022 A 
ATOM     13  C   UNL     1      20.786  -1.168  14.503  1.00  0.00     0.051 A 
ATOM     14  C   UNL     1      20.974   0.143  14.952  1.00  0.00     0.157 A 
ATOM     15  C   UNL     1      18.602   0.567  14.620  1.00  0.00     0.068 A 
ATOM     16  C   UNL     1      19.868   1.025  15.005  1.00  0.00     0.158 A 
BRANCH  14  17
ATOM     17  O   UNL     1      22.263   0.526  15.330  1.00  0.00    -0.504 OA
ATOM     18  H   UNL     1      22.560   0.645  16.287  1.00  0.00     0.293 HD
ENDBRANCH  14  17
BRANCH  16  19
ATOM     19  O   UNL     1      19.983   2.353  15.423  1.00  0.00    -0.504 OA
ATOM     20  H   UNL     1      20.793   2.730  15.892  1.00  0.00     0.293 HD
ENDBRANCH  16  19
ENDBRANCH   1  11
BRANCH  10  21
ATOM     21  O   UNL     1      16.434  -1.853  16.028  1.00  0.00    -0.500 OA
ATOM     22  H   UNL     1      17.254  -1.416  16.428  1.00  0.00     0.294 HD
ENDBRANCH  10  21
BRANCH   5  23
ATOM     23  O   UNL     1      13.992  -1.906   8.655  1.00  0.00    -0.507 OA
ATOM     24  H   UNL     1      13.057  -1.877   8.266  1.00  0.00     0.293 HD
ENDBRANCH   5  23
BRANCH   7  25
ATOM     25  O   UNL     1      12.324  -3.038  13.011  1.00  0.00    -0.507 OA
ATOM     26  H   UNL     1      11.424  -3.299  12.636  1.00  0.00     0.293 HD
ENDBRANCH   7  25
TORSDOF 6
ENDMDL
