MODEL 1
REMARK VINA RESULT:    -5.044      0.000      0.000
REMARK INTER + INTRA:          -6.186
REMARK INTER:                  -5.928
REMARK INTRA:                  -0.258
REMARK UNBOUND:                -0.258
REMARK SMILES O=c1c(O)c(-c2ccc(O)cc2)oc2cc(O)cc(O)c12
REMARK SMILES IDX 5 1 3 2 2 3 1 4 21 5 19 6 18 7 16 8 15 9 14 10 13 11 6 12
REMARK SMILES IDX 7 13 8 14 9 15 12 16 11 17 10 18 4 20 20 22 17 24
REMARK H PARENT 10 19 4 21 20 23 17 25
REMARK Flexibility Score: inf
ROOT
ATOM      1  C   UNL     1      72.374 -79.764  32.531  1.00  0.00     0.180 A 
ATOM      2  C   UNL     1      71.524 -79.077  33.414  1.00  0.00     0.208 A 
ATOM      3  C   UNL     1      70.623 -79.811  34.204  1.00  0.00     0.238 A 
ATOM      4  O   UNL     1      69.903 -79.194  35.031  1.00  0.00    -0.285 OA
ATOM      5  C   UNL     1      70.574 -81.221  34.089  1.00  0.00     0.111 A 
ATOM      6  C   UNL     1      69.673 -82.061  34.811  1.00  0.00     0.134 A 
ATOM      7  C   UNL     1      69.801 -83.452  34.716  1.00  0.00     0.093 A 
ATOM      8  C   UNL     1      70.754 -84.032  33.874  1.00  0.00     0.123 A 
ATOM      9  C   UNL     1      71.598 -83.220  33.121  1.00  0.00     0.094 A 
ATOM     10  C   UNL     1      71.518 -81.829  33.222  1.00  0.00     0.146 A 
ATOM     11  O   UNL     1      72.349 -81.091  32.494  1.00  0.00    -0.452 OA
ENDROOT
BRANCH   1  12
ATOM     12  C   UNL     1      73.331 -79.058  31.649  1.00  0.00     0.021 A 
ATOM     13  C   UNL     1      72.905 -78.409  30.476  1.00  0.00     0.016 A 
ATOM     14  C   UNL     1      73.831 -77.771  29.646  1.00  0.00     0.047 A 
ATOM     15  C   UNL     1      75.194 -77.783  29.969  1.00  0.00     0.115 A 
ATOM     16  C   UNL     1      74.702 -79.085  31.955  1.00  0.00     0.016 A 
ATOM     17  C   UNL     1      75.626 -78.445  31.123  1.00  0.00     0.047 A 
BRANCH  15  18
ATOM     18  O   UNL     1      76.125 -77.149  29.150  1.00  0.00    -0.508 OA
ATOM     19  H   UNL     1      75.851 -76.417  28.506  1.00  0.00     0.293 HD
ENDBRANCH  15  18
ENDBRANCH   1  12
BRANCH   2  20
ATOM     20  O   UNL     1      71.605 -77.686  33.529  1.00  0.00    -0.502 OA
ATOM     21  H   UNL     1      70.817 -77.077  33.340  1.00  0.00     0.293 HD
ENDBRANCH   2  20
BRANCH   6  22
ATOM     22  O   UNL     1      68.627 -81.583  35.605  1.00  0.00    -0.507 OA
ATOM     23  H   UNL     1      68.385 -81.945  36.515  1.00  0.00     0.293 HD
ENDBRANCH   6  22
BRANCH   8  24
ATOM     24  O   UNL     1      70.864 -85.418  33.773  1.00  0.00    -0.508 OA
ATOM     25  H   UNL     1      70.086 -86.028  33.995  1.00  0.00     0.293 HD
ENDBRANCH   8  24
TORSDOF 5
ENDMDL
MODEL 2
REMARK VINA RESULT:    -4.483      1.404      6.418
REMARK INTER + INTRA:          -5.527
REMARK INTER:                  -5.353
REMARK INTRA:                  -0.174
REMARK UNBOUND:                -0.258
REMARK SMILES O=c1c(O)c(-c2ccc(O)cc2)oc2cc(O)cc(O)c12
REMARK SMILES IDX 5 1 3 2 2 3 1 4 21 5 19 6 18 7 16 8 15 9 14 10 13 11 6 12
REMARK SMILES IDX 7 13 8 14 9 15 12 16 11 17 10 18 4 20 20 22 17 24
REMARK H PARENT 10 19 4 21 20 23 17 25
REMARK Flexibility Score: inf
ROOT
ATOM      1  C   UNL     1      71.298 -80.632  32.530  1.00  0.00     0.180 A 
ATOM      2  C   UNL     1      70.466 -79.597  32.988  1.00  0.00     0.208 A 
ATOM      3  C   UNL     1      70.784 -78.270  32.658  1.00  0.00     0.238 A 
ATOM      4  O   UNL     1      70.005 -77.352  33.025  1.00  0.00    -0.285 OA
ATOM      5  C   UNL     1      71.939 -77.994  31.887  1.00  0.00     0.111 A 
ATOM      6  C   UNL     1      72.379 -76.684  31.527  1.00  0.00     0.134 A 
ATOM      7  C   UNL     1      73.463 -76.536  30.653  1.00  0.00     0.093 A 
ATOM      8  C   UNL     1      74.162 -77.648  30.178  1.00  0.00     0.123 A 
ATOM      9  C   UNL     1      73.776 -78.928  30.570  1.00  0.00     0.094 A 
ATOM     10  C   UNL     1      72.677 -79.109  31.413  1.00  0.00     0.146 A 
ATOM     11  O   UNL     1      72.337 -80.346  31.754  1.00  0.00    -0.452 OA
ENDROOT
BRANCH   1  12
ATOM     12  C   UNL     1      71.042 -82.054  32.858  1.00  0.00     0.021 A 
ATOM     13  C   UNL     1      71.132 -82.528  34.179  1.00  0.00     0.016 A 
ATOM     14  C   UNL     1      70.910 -83.880  34.461  1.00  0.00     0.047 A 
ATOM     15  C   UNL     1      70.607 -84.775  33.427  1.00  0.00     0.115 A 
ATOM     16  C   UNL     1      70.758 -82.962  31.823  1.00  0.00     0.016 A 
ATOM     17  C   UNL     1      70.536 -84.312  32.109  1.00  0.00     0.047 A 
BRANCH  15  18
ATOM     18  O   UNL     1      70.382 -86.123  33.696  1.00  0.00    -0.508 OA
ATOM     19  H   UNL     1      71.140 -86.746  33.949  1.00  0.00     0.293 HD
ENDBRANCH  15  18
ENDBRANCH   1  12
BRANCH   2  20
ATOM     20  O   UNL     1      69.317 -79.893  33.728  1.00  0.00    -0.502 OA
ATOM     21  H   UNL     1      68.738 -79.175  34.145  1.00  0.00     0.293 HD
ENDBRANCH   2  20
BRANCH   6  22
ATOM     22  O   UNL     1      71.809 -75.506  32.020  1.00  0.00    -0.507 OA
ATOM     23  H   UNL     1      71.897 -74.600  31.587  1.00  0.00     0.293 HD
ENDBRANCH   6  22
BRANCH   8  24
ATOM     24  O   UNL     1      75.249 -77.491  29.320  1.00  0.00    -0.508 OA
ATOM     25  H   UNL     1      75.883 -76.705  29.407  1.00  0.00     0.293 HD
ENDBRANCH   8  24
TORSDOF 5
ENDMDL
MODEL 3
REMARK VINA RESULT:    -3.894      2.087      6.155
REMARK INTER + INTRA:          -4.834
REMARK INTER:                  -4.770
REMARK INTRA:                  -0.064
REMARK UNBOUND:                -0.258
REMARK SMILES O=c1c(O)c(-c2ccc(O)cc2)oc2cc(O)cc(O)c12
REMARK SMILES IDX 5 1 3 2 2 3 1 4 21 5 19 6 18 7 16 8 15 9 14 10 13 11 6 12
REMARK SMILES IDX 7 13 8 14 9 15 12 16 11 17 10 18 4 20 20 22 17 24
REMARK H PARENT 10 19 4 21 20 23 17 25
REMARK Flexibility Score: inf
ROOT
ATOM      1  C   UNL     1      70.743 -80.875  32.682  1.00  0.00     0.180 A 
ATOM      2  C   UNL     1      70.289 -80.459  33.946  1.00  0.00     0.208 A 
ATOM      3  C   UNL     1      70.551 -79.146  34.367  1.00  0.00     0.238 A 
ATOM      4  O   UNL     1      70.095 -78.764  35.476  1.00  0.00    -0.285 OA
ATOM      5  C   UNL     1      71.277 -78.269  33.525  1.00  0.00     0.111 A 
ATOM      6  C   UNL     1      71.634 -76.929  33.867  1.00  0.00     0.134 A 
ATOM      7  C   UNL     1      72.240 -76.110  32.906  1.00  0.00     0.093 A 
ATOM      8  C   UNL     1      72.560 -76.603  31.638  1.00  0.00     0.123 A 
ATOM      9  C   UNL     1      72.269 -77.926  31.316  1.00  0.00     0.094 A 
ATOM     10  C   UNL     1      71.633 -78.757  32.241  1.00  0.00     0.146 A 
ATOM     11  O   UNL     1      71.364 -80.009  31.890  1.00  0.00    -0.452 OA
ENDROOT
BRANCH   1  12
ATOM     12  C   UNL     1      70.527 -82.251  32.180  1.00  0.00     0.021 A 
ATOM     13  C   UNL     1      70.965 -83.373  32.906  1.00  0.00     0.016 A 
ATOM     14  C   UNL     1      70.772 -84.662  32.400  1.00  0.00     0.047 A 
ATOM     15  C   UNL     1      70.151 -84.846  31.158  1.00  0.00     0.115 A 
ATOM     16  C   UNL     1      69.924 -82.442  30.926  1.00  0.00     0.016 A 
ATOM     17  C   UNL     1      69.731 -83.733  30.422  1.00  0.00     0.047 A 
BRANCH  15  18
ATOM     18  O   UNL     1      69.952 -86.125  30.644  1.00  0.00    -0.508 OA
ATOM     19  H   UNL     1      69.089 -86.632  30.805  1.00  0.00     0.293 HD
ENDBRANCH  15  18
ENDBRANCH   1  12
BRANCH   2  20
ATOM     20  O   UNL     1      69.554 -81.334  34.752  1.00  0.00    -0.502 OA
ATOM     21  H   UNL     1      69.988 -82.078  35.285  1.00  0.00     0.293 HD
ENDBRANCH   2  20
BRANCH   6  22
ATOM     22  O   UNL     1      71.443 -76.369  35.133  1.00  0.00    -0.507 OA
ATOM     23  H   UNL     1      72.186 -76.089  35.756  1.00  0.00     0.293 HD
ENDBRANCH   6  22
BRANCH   8  24
ATOM     24  O   UNL     1      73.177 -75.785  30.693  1.00  0.00    -0.508 OA
ATOM     25  H   UNL     1      72.929 -74.808  30.595  1.00  0.00     0.293 HD
ENDBRANCH   8  24
TORSDOF 5
ENDMDL
