MODEL 1
REMARK VINA RESULT:    -4.145      0.000      0.000
REMARK INTER + INTRA:         -15.349
REMARK INTER:                 -10.445
REMARK INTRA:                  -4.905
REMARK UNBOUND:                -4.905
REMARK SMILES CCCCCCCCCCCCCCCCCCCCCCCCCCCC(=O)[O-]
REMARK SMILES IDX 15 1 16 2 17 3 18 4 19 5 20 6 21 7 22 8 23 9 24 10 25 11
REMARK SMILES IDX 26 12 27 13 28 14 29 15 30 16 14 17 13 18 12 19 11 20 10 21
REMARK SMILES IDX 9 22 8 23 7 24 6 25 5 26 4 27 3 28 2 29 1 30
REMARK H PARENT
REMARK Flexibility Score: inf
ROOT
ATOM      1  C   UNL     1      21.750   0.712  18.360  1.00  0.00     0.000 C 
ENDROOT
BRANCH   1   2
ATOM      2  C   UNL     1      20.701  -0.404  18.218  1.00  0.00     0.000 C 
BRANCH   2   3
ATOM      3  C   UNL     1      20.730  -1.395  19.392  1.00  0.00     0.000 C 
BRANCH   3   4
ATOM      4  C   UNL     1      21.199  -2.797  18.970  1.00  0.00     0.000 C 
BRANCH   4   5
ATOM      5  C   UNL     1      20.775  -3.104  17.527  1.00  0.00     0.000 C 
BRANCH   5   6
ATOM      6  C   UNL     1      21.756  -4.042  16.800  1.00  0.00     0.000 C 
BRANCH   6   7
ATOM      7  C   UNL     1      23.250  -3.737  17.037  1.00  0.00     0.000 C 
BRANCH   7   8
ATOM      8  C   UNL     1      23.937  -2.925  15.924  1.00  0.00     0.000 C 
BRANCH   8   9
ATOM      9  C   UNL     1      23.058  -2.630  14.693  1.00  0.00     0.000 C 
BRANCH   9  10
ATOM     10  C   UNL     1      22.845  -1.125  14.426  1.00  0.00     0.000 C 
BRANCH  10  11
ATOM     11  C   UNL     1      21.400  -0.676  14.692  1.00  0.00     0.000 C 
BRANCH  11  12
ATOM     12  C   UNL     1      20.408  -1.476  13.834  1.00  0.00     0.006 C 
BRANCH  12  13
ATOM     13  C   UNL     1      20.325  -0.945  12.397  1.00  0.00     0.053 C 
BRANCH  13  14
ATOM     14  C   UNL     1      19.340  -1.718  11.574  1.00  0.00     0.041 C 
ATOM     15  O   UNL     1      18.147  -1.325  11.482  1.00  0.00    -0.550 OA
ATOM     16  O   UNL     1      19.729  -2.891  10.940  1.00  0.00    -0.550 OA
ENDBRANCH  13  14
ENDBRANCH  12  13
ENDBRANCH  11  12
ENDBRANCH  10  11
ENDBRANCH   9  10
ENDBRANCH   8   9
ENDBRANCH   7   8
ENDBRANCH   6   7
ENDBRANCH   5   6
ENDBRANCH   4   5
ENDBRANCH   3   4
ENDBRANCH   2   3
ENDBRANCH   1   2
BRANCH   1  17
ATOM     17  C   UNL     1      23.151   0.275  17.897  1.00  0.00     0.000 C 
BRANCH  17  18
ATOM     18  C   UNL     1      24.147  -0.049  19.028  1.00  0.00     0.000 C 
BRANCH  18  19
ATOM     19  C   UNL     1      24.671   1.169  19.811  1.00  0.00     0.000 C 
BRANCH  19  20
ATOM     20  C   UNL     1      24.850   2.413  18.925  1.00  0.00     0.000 C 
BRANCH  20  21
ATOM     21  C   UNL     1      26.198   2.433  18.179  1.00  0.00     0.000 C 
BRANCH  21  22
ATOM     22  C   UNL     1      26.103   2.565  16.649  1.00  0.00    -0.000 C 
BRANCH  22  23
ATOM     23  C   UNL     1      24.804   3.206  16.124  1.00  0.00    -0.000 C 
BRANCH  23  24
ATOM     24  C   UNL     1      24.045   2.336  15.099  1.00  0.00    -0.000 C 
BRANCH  24  25
ATOM     25  C   UNL     1      22.635   2.872  14.797  1.00  0.00    -0.000 C 
BRANCH  25  26
ATOM     26  C   UNL     1      22.203   2.615  13.344  1.00  0.00    -0.000 C 
BRANCH  26  27
ATOM     27  C   UNL     1      22.493   3.807  12.420  1.00  0.00    -0.000 C 
BRANCH  27  28
ATOM     28  C   UNL     1      22.450   5.128  13.200  1.00  0.00    -0.000 C 
BRANCH  28  29
ATOM     29  C   UNL     1      23.650   6.014  12.850  1.00  0.00    -0.003 C 
ATOM     30  C   UNL     1      24.959   5.236  12.959  1.00  0.00     0.004 C 
ENDBRANCH  28  29
ENDBRANCH  27  28
ENDBRANCH  26  27
ENDBRANCH  25  26
ENDBRANCH  24  25
ENDBRANCH  23  24
ENDBRANCH  22  23
ENDBRANCH  21  22
ENDBRANCH  20  21
ENDBRANCH  19  20
ENDBRANCH  18  19
ENDBRANCH  17  18
ENDBRANCH   1  17
TORSDOF 26
ENDMDL
MODEL 2
REMARK VINA RESULT:    -4.130      1.498      3.269
REMARK INTER + INTRA:         -15.311
REMARK INTER:                 -10.867
REMARK INTRA:                  -4.444
REMARK UNBOUND:                -4.905
REMARK SMILES CCCCCCCCCCCCCCCCCCCCCCCCCCCC(=O)[O-]
REMARK SMILES IDX 15 1 16 2 17 3 18 4 19 5 20 6 21 7 22 8 23 9 24 10 25 11
REMARK SMILES IDX 26 12 27 13 28 14 29 15 30 16 14 17 13 18 12 19 11 20 10 21
REMARK SMILES IDX 9 22 8 23 7 24 6 25 5 26 4 27 3 28 2 29 1 30
REMARK H PARENT
REMARK Flexibility Score: inf
ROOT
ATOM      1  C   UNL     1      20.200  -3.346  16.768  1.00  0.00     0.000 C 
ENDROOT
BRANCH   1   2
ATOM      2  C   UNL     1      21.232  -4.381  17.248  1.00  0.00     0.000 C 
BRANCH   2   3
ATOM      3  C   UNL     1      22.550  -3.733  17.701  1.00  0.00     0.000 C 
BRANCH   3   4
ATOM      4  C   UNL     1      23.727  -4.081  16.775  1.00  0.00     0.000 C 
BRANCH   4   5
ATOM      5  C   UNL     1      23.632  -3.305  15.453  1.00  0.00     0.000 C 
BRANCH   5   6
ATOM      6  C   UNL     1      23.712  -1.780  15.646  1.00  0.00     0.000 C 
BRANCH   6   7
ATOM      7  C   UNL     1      22.991  -0.945  14.566  1.00  0.00     0.000 C 
BRANCH   7   8
ATOM      8  C   UNL     1      21.966  -1.719  13.717  1.00  0.00     0.000 C 
BRANCH   8   9
ATOM      9  C   UNL     1      21.070  -0.845  12.817  1.00  0.00     0.000 C 
BRANCH   9  10
ATOM     10  C   UNL     1      19.820  -1.576  12.284  1.00  0.00     0.000 C 
BRANCH  10  11
ATOM     11  C   UNL     1      19.244  -2.577  13.296  1.00  0.00     0.000 C 
BRANCH  11  12
ATOM     12  C   UNL     1      18.068  -3.358  12.691  1.00  0.00     0.006 C 
BRANCH  12  13
ATOM     13  C   UNL     1      16.793  -2.509  12.600  1.00  0.00     0.053 C 
BRANCH  13  14
ATOM     14  C   UNL     1      16.372  -2.287  11.180  1.00  0.00     0.041 C 
ATOM     15  O   UNL     1      16.839  -3.010  10.261  1.00  0.00    -0.550 OA
ATOM     16  O   UNL     1      15.493  -1.257  10.866  1.00  0.00    -0.550 OA
ENDBRANCH  13  14
ENDBRANCH  12  13
ENDBRANCH  11  12
ENDBRANCH  10  11
ENDBRANCH   9  10
ENDBRANCH   8   9
ENDBRANCH   7   8
ENDBRANCH   6   7
ENDBRANCH   5   6
ENDBRANCH   4   5
ENDBRANCH   3   4
ENDBRANCH   2   3
ENDBRANCH   1   2
BRANCH   1  17
ATOM     17  C   UNL     1      20.381  -1.971  17.434  1.00  0.00     0.000 C 
BRANCH  17  18
ATOM     18  C   UNL     1      20.017  -0.759  16.553  1.00  0.00     0.000 C 
BRANCH  18  19
ATOM     19  C   UNL     1      20.583   0.592  17.028  1.00  0.00     0.000 C 
BRANCH  19  20
ATOM     20  C   UNL     1      21.414   0.469  18.315  1.00  0.00     0.000 C 
BRANCH  20  21
ATOM     21  C   UNL     1      22.897   0.836  18.113  1.00  0.00     0.000 C 
BRANCH  21  22
ATOM     22  C   UNL     1      23.154   2.214  17.477  1.00  0.00    -0.000 C 
BRANCH  22  23
ATOM     23  C   UNL     1      24.451   2.325  16.651  1.00  0.00    -0.000 C 
BRANCH  23  24
ATOM     24  C   UNL     1      24.237   2.188  15.128  1.00  0.00    -0.000 C 
BRANCH  24  25
ATOM     25  C   UNL     1      22.875   2.739  14.670  1.00  0.00    -0.000 C 
BRANCH  25  26
ATOM     26  C   UNL     1      22.895   3.232  13.214  1.00  0.00    -0.000 C 
BRANCH  26  27
ATOM     27  C   UNL     1      23.024   4.759  13.108  1.00  0.00    -0.000 C 
BRANCH  27  28
ATOM     28  C   UNL     1      24.375   5.153  12.499  1.00  0.00    -0.000 C 
BRANCH  28  29
ATOM     29  C   UNL     1      25.093   6.186  13.374  1.00  0.00    -0.003 C 
ATOM     30  C   UNL     1      24.956   5.842  14.856  1.00  0.00     0.004 C 
ENDBRANCH  28  29
ENDBRANCH  27  28
ENDBRANCH  26  27
ENDBRANCH  25  26
ENDBRANCH  24  25
ENDBRANCH  23  24
ENDBRANCH  22  23
ENDBRANCH  21  22
ENDBRANCH  20  21
ENDBRANCH  19  20
ENDBRANCH  18  19
ENDBRANCH  17  18
ENDBRANCH   1  17
TORSDOF 26
ENDMDL
MODEL 3
REMARK VINA RESULT:    -4.046      1.450      2.539
REMARK INTER + INTRA:         -15.099
REMARK INTER:                 -10.297
REMARK INTRA:                  -4.802
REMARK UNBOUND:                -4.905
REMARK SMILES CCCCCCCCCCCCCCCCCCCCCCCCCCCC(=O)[O-]
REMARK SMILES IDX 15 1 16 2 17 3 18 4 19 5 20 6 21 7 22 8 23 9 24 10 25 11
REMARK SMILES IDX 26 12 27 13 28 14 29 15 30 16 14 17 13 18 12 19 11 20 10 21
REMARK SMILES IDX 9 22 8 23 7 24 6 25 5 26 4 27 3 28 2 29 1 30
REMARK H PARENT
REMARK Flexibility Score: inf
ROOT
ATOM      1  C   UNL     1      19.820  -0.706  17.562  1.00  0.00     0.000 C 
ENDROOT
BRANCH   1   2
ATOM      2  C   UNL     1      20.525  -2.029  17.909  1.00  0.00     0.000 C 
BRANCH   2   3
ATOM      3  C   UNL     1      19.944  -3.226  17.139  1.00  0.00     0.000 C 
BRANCH   3   4
ATOM      4  C   UNL     1      20.591  -4.559  17.547  1.00  0.00     0.000 C 
BRANCH   4   5
ATOM      5  C   UNL     1      21.863  -4.321  18.374  1.00  0.00     0.000 C 
BRANCH   5   6
ATOM      6  C   UNL     1      23.029  -5.237  17.961  1.00  0.00     0.000 C 
BRANCH   6   7
ATOM      7  C   UNL     1      24.229  -4.517  17.311  1.00  0.00     0.000 C 
BRANCH   7   8
ATOM      8  C   UNL     1      23.925  -3.118  16.745  1.00  0.00     0.000 C 
BRANCH   8   9
ATOM      9  C   UNL     1      23.797  -3.048  15.211  1.00  0.00     0.000 C 
BRANCH   9  10
ATOM     10  C   UNL     1      22.370  -2.730  14.718  1.00  0.00     0.000 C 
BRANCH  10  11
ATOM     11  C   UNL     1      22.355  -1.722  13.559  1.00  0.00     0.000 C 
BRANCH  11  12
ATOM     12  C   UNL     1      21.022  -0.961  13.507  1.00  0.00     0.006 C 
BRANCH  12  13
ATOM     13  C   UNL     1      20.296  -1.155  12.169  1.00  0.00     0.053 C 
BRANCH  13  14
ATOM     14  C   UNL     1      18.997  -1.881  12.340  1.00  0.00     0.041 C 
ATOM     15  O   UNL     1      17.971  -1.498  11.720  1.00  0.00    -0.550 OA
ATOM     16  O   UNL     1      18.911  -2.959  13.213  1.00  0.00    -0.550 OA
ENDBRANCH  13  14
ENDBRANCH  12  13
ENDBRANCH  11  12
ENDBRANCH  10  11
ENDBRANCH   9  10
ENDBRANCH   8   9
ENDBRANCH   7   8
ENDBRANCH   6   7
ENDBRANCH   5   6
ENDBRANCH   4   5
ENDBRANCH   3   4
ENDBRANCH   2   3
ENDBRANCH   1   2
BRANCH   1  17
ATOM     17  C   UNL     1      20.737   0.279  16.816  1.00  0.00     0.000 C 
BRANCH  17  18
ATOM     18  C   UNL     1      22.249   0.066  17.035  1.00  0.00     0.000 C 
BRANCH  18  19
ATOM     19  C   UNL     1      22.978   1.219  17.749  1.00  0.00     0.000 C 
BRANCH  19  20
ATOM     20  C   UNL     1      24.203   1.722  16.969  1.00  0.00     0.000 C 
BRANCH  20  21
ATOM     21  C   UNL     1      24.147   1.373  15.469  1.00  0.00     0.000 C 
BRANCH  21  22
ATOM     22  C   UNL     1      23.689   2.514  14.543  1.00  0.00    -0.000 C 
BRANCH  22  23
ATOM     23  C   UNL     1      22.510   2.172  13.612  1.00  0.00    -0.000 C 
BRANCH  23  24
ATOM     24  C   UNL     1      22.028   3.359  12.749  1.00  0.00    -0.000 C 
BRANCH  24  25
ATOM     25  C   UNL     1      23.110   4.440  12.575  1.00  0.00    -0.000 C 
BRANCH  25  26
ATOM     26  C   UNL     1      22.781   5.734  13.337  1.00  0.00    -0.000 C 
BRANCH  26  27
ATOM     27  C   UNL     1      21.271   5.963  13.492  1.00  0.00    -0.000 C 
BRANCH  27  28
ATOM     28  C   UNL     1      20.903   6.213  14.960  1.00  0.00    -0.000 C 
BRANCH  28  29
ATOM     29  C   UNL     1      21.898   5.526  15.902  1.00  0.00    -0.003 C 
ATOM     30  C   UNL     1      21.253   4.338  16.612  1.00  0.00     0.004 C 
ENDBRANCH  28  29
ENDBRANCH  27  28
ENDBRANCH  26  27
ENDBRANCH  25  26
ENDBRANCH  24  25
ENDBRANCH  23  24
ENDBRANCH  22  23
ENDBRANCH  21  22
ENDBRANCH  20  21
ENDBRANCH  19  20
ENDBRANCH  18  19
ENDBRANCH  17  18
ENDBRANCH   1  17
TORSDOF 26
ENDMDL
MODEL 4
REMARK VINA RESULT:    -4.037      3.026      7.380
REMARK INTER + INTRA:         -15.077
REMARK INTER:                  -9.550
REMARK INTRA:                  -5.527
REMARK UNBOUND:                -4.905
REMARK SMILES CCCCCCCCCCCCCCCCCCCCCCCCCCCC(=O)[O-]
REMARK SMILES IDX 15 1 16 2 17 3 18 4 19 5 20 6 21 7 22 8 23 9 24 10 25 11
REMARK SMILES IDX 26 12 27 13 28 14 29 15 30 16 14 17 13 18 12 19 11 20 10 21
REMARK SMILES IDX 9 22 8 23 7 24 6 25 5 26 4 27 3 28 2 29 1 30
REMARK H PARENT
REMARK Flexibility Score: inf
ROOT
ATOM      1  C   UNL     1      23.279   2.696  15.016  1.00  0.00     0.000 C 
ENDROOT
BRANCH   1   2
ATOM      2  C   UNL     1      22.685   1.873  13.859  1.00  0.00     0.000 C 
BRANCH   2   3
ATOM      3  C   UNL     1      21.871   2.734  12.880  1.00  0.00     0.000 C 
BRANCH   3   4
ATOM      4  C   UNL     1      21.722   4.188  13.356  1.00  0.00     0.000 C 
BRANCH   4   5
ATOM      5  C   UNL     1      21.965   5.170  12.201  1.00  0.00     0.000 C 
BRANCH   5   6
ATOM      6  C   UNL     1      23.228   6.028  12.398  1.00  0.00     0.000 C 
BRANCH   6   7
ATOM      7  C   UNL     1      24.552   5.237  12.469  1.00  0.00     0.000 C 
BRANCH   7   8
ATOM      8  C   UNL     1      25.395   5.485  13.733  1.00  0.00     0.000 C 
BRANCH   8   9
ATOM      9  C   UNL     1      25.526   6.962  14.152  1.00  0.00     0.000 C 
BRANCH   9  10
ATOM     10  C   UNL     1      24.911   7.275  15.532  1.00  0.00     0.000 C 
BRANCH  10  11
ATOM     11  C   UNL     1      24.409   6.016  16.255  1.00  0.00     0.000 C 
BRANCH  11  12
ATOM     12  C   UNL     1      22.881   6.040  16.406  1.00  0.00     0.006 C 
BRANCH  12  13
ATOM     13  C   UNL     1      22.247   7.243  15.695  1.00  0.00     0.053 C 
BRANCH  13  14
ATOM     14  C   UNL     1      20.753   7.138  15.648  1.00  0.00     0.041 C 
ATOM     15  O   UNL     1      20.102   6.903  16.701  1.00  0.00    -0.550 OA
ATOM     16  O   UNL     1      20.082   7.263  14.438  1.00  0.00    -0.550 OA
ENDBRANCH  13  14
ENDBRANCH  12  13
ENDBRANCH  11  12
ENDBRANCH  10  11
ENDBRANCH   9  10
ENDBRANCH   8   9
ENDBRANCH   7   8
ENDBRANCH   6   7
ENDBRANCH   5   6
ENDBRANCH   4   5
ENDBRANCH   3   4
ENDBRANCH   2   3
ENDBRANCH   1   2
BRANCH   1  17
ATOM     17  C   UNL     1      24.671   2.201  15.446  1.00  0.00     0.000 C 
BRANCH  17  18
ATOM     18  C   UNL     1      24.933   2.210  16.965  1.00  0.00     0.000 C 
BRANCH  18  19
ATOM     19  C   UNL     1      23.717   2.571  17.839  1.00  0.00     0.000 C 
BRANCH  19  20
ATOM     20  C   UNL     1      23.413   1.505  18.904  1.00  0.00     0.000 C 
BRANCH  20  21
ATOM     21  C   UNL     1      24.583   0.526  19.129  1.00  0.00     0.000 C 
BRANCH  21  22
ATOM     22  C   UNL     1      24.185  -0.953  19.280  1.00  0.00    -0.000 C 
BRANCH  22  23
ATOM     23  C   UNL     1      23.076  -1.436  18.325  1.00  0.00    -0.000 C 
BRANCH  23  24
ATOM     24  C   UNL     1      23.582  -1.802  16.913  1.00  0.00    -0.000 C 
BRANCH  24  25
ATOM     25  C   UNL     1      22.773  -1.113  15.799  1.00  0.00    -0.000 C 
BRANCH  25  26
ATOM     26  C   UNL     1      21.508  -0.419  16.329  1.00  0.00    -0.000 C 
BRANCH  26  27
ATOM     27  C   UNL     1      20.241  -0.833  15.566  1.00  0.00    -0.000 C 
BRANCH  27  28
ATOM     28  C   UNL     1      20.589  -1.741  14.379  1.00  0.00    -0.000 C 
BRANCH  28  29
ATOM     29  C   UNL     1      20.184  -1.092  13.052  1.00  0.00    -0.003 C 
ATOM     30  C   UNL     1      21.343  -1.102  12.058  1.00  0.00     0.004 C 
ENDBRANCH  28  29
ENDBRANCH  27  28
ENDBRANCH  26  27
ENDBRANCH  25  26
ENDBRANCH  24  25
ENDBRANCH  23  24
ENDBRANCH  22  23
ENDBRANCH  21  22
ENDBRANCH  20  21
ENDBRANCH  19  20
ENDBRANCH  18  19
ENDBRANCH  17  18
ENDBRANCH   1  17
TORSDOF 26
ENDMDL
MODEL 5
REMARK VINA RESULT:    -3.976      2.830      7.784
REMARK INTER + INTRA:         -14.923
REMARK INTER:                  -9.757
REMARK INTRA:                  -5.166
REMARK UNBOUND:                -4.905
REMARK SMILES CCCCCCCCCCCCCCCCCCCCCCCCCCCC(=O)[O-]
REMARK SMILES IDX 15 1 16 2 17 3 18 4 19 5 20 6 21 7 22 8 23 9 24 10 25 11
REMARK SMILES IDX 26 12 27 13 28 14 29 15 30 16 14 17 13 18 12 19 11 20 10 21
REMARK SMILES IDX 9 22 8 23 7 24 6 25 5 26 4 27 3 28 2 29 1 30
REMARK H PARENT
REMARK Flexibility Score: inf
ROOT
ATOM      1  C   UNL     1      22.376   3.261  14.737  1.00  0.00     0.000 C 
ENDROOT
BRANCH   1   2
ATOM      2  C   UNL     1      21.705   3.837  13.478  1.00  0.00     0.000 C 
BRANCH   2   3
ATOM      3  C   UNL     1      22.695   4.035  12.320  1.00  0.00     0.000 C 
BRANCH   3   4
ATOM      4  C   UNL     1      23.393   5.403  12.368  1.00  0.00     0.000 C 
BRANCH   4   5
ATOM      5  C   UNL     1      24.879   5.248  12.723  1.00  0.00     0.000 C 
BRANCH   5   6
ATOM      6  C   UNL     1      25.342   6.234  13.811  1.00  0.00     0.000 C 
BRANCH   6   7
ATOM      7  C   UNL     1      24.975   5.835  15.256  1.00  0.00     0.000 C 
BRANCH   7   8
ATOM      8  C   UNL     1      24.091   6.845  16.009  1.00  0.00     0.000 C 
BRANCH   8   9
ATOM      9  C   UNL     1      22.596   6.477  16.084  1.00  0.00     0.000 C 
BRANCH   9  10
ATOM     10  C   UNL     1      21.707   7.274  15.107  1.00  0.00     0.000 C 
BRANCH  10  11
ATOM     11  C   UNL     1      20.486   7.901  15.796  1.00  0.00     0.000 C 
BRANCH  11  12
ATOM     12  C   UNL     1      19.238   7.799  14.906  1.00  0.00     0.006 C 
BRANCH  12  13
ATOM     13  C   UNL     1      18.823   6.343  14.654  1.00  0.00     0.053 C 
BRANCH  13  14
ATOM     14  C   UNL     1      18.562   6.083  13.202  1.00  0.00     0.041 C 
ATOM     15  O   UNL     1      19.313   6.584  12.324  1.00  0.00    -0.550 OA
ATOM     16  O   UNL     1      17.468   5.317  12.817  1.00  0.00    -0.550 OA
ENDBRANCH  13  14
ENDBRANCH  12  13
ENDBRANCH  11  12
ENDBRANCH  10  11
ENDBRANCH   9  10
ENDBRANCH   8   9
ENDBRANCH   7   8
ENDBRANCH   6   7
ENDBRANCH   5   6
ENDBRANCH   4   5
ENDBRANCH   3   4
ENDBRANCH   2   3
ENDBRANCH   1   2
BRANCH   1  17
ATOM     17  C   UNL     1      23.463   2.221  14.409  1.00  0.00     0.000 C 
BRANCH  17  18
ATOM     18  C   UNL     1      24.381   1.836  15.587  1.00  0.00     0.000 C 
BRANCH  18  19
ATOM     19  C   UNL     1      23.704   1.820  16.969  1.00  0.00     0.000 C 
BRANCH  19  20
ATOM     20  C   UNL     1      23.530   0.399  17.530  1.00  0.00     0.000 C 
BRANCH  20  21
ATOM     21  C   UNL     1      22.060   0.045  17.829  1.00  0.00     0.000 C 
BRANCH  21  22
ATOM     22  C   UNL     1      21.033   0.590  16.821  1.00  0.00    -0.000 C 
BRANCH  22  23
ATOM     23  C   UNL     1      20.402  -0.464  15.890  1.00  0.00    -0.000 C 
BRANCH  23  24
ATOM     24  C   UNL     1      20.890  -0.378  14.427  1.00  0.00    -0.000 C 
BRANCH  24  25
ATOM     25  C   UNL     1      21.692  -1.619  13.999  1.00  0.00    -0.000 C 
BRANCH  25  26
ATOM     26  C   UNL     1      23.148  -1.582  14.492  1.00  0.00    -0.000 C 
BRANCH  26  27
ATOM     27  C   UNL     1      23.565  -2.876  15.206  1.00  0.00    -0.000 C 
BRANCH  27  28
ATOM     28  C   UNL     1      22.405  -3.441  16.036  1.00  0.00    -0.000 C 
BRANCH  28  29
ATOM     29  C   UNL     1      22.827  -3.661  17.493  1.00  0.00    -0.003 C 
ATOM     30  C   UNL     1      24.298  -3.306  17.700  1.00  0.00     0.004 C 
ENDBRANCH  28  29
ENDBRANCH  27  28
ENDBRANCH  26  27
ENDBRANCH  25  26
ENDBRANCH  24  25
ENDBRANCH  23  24
ENDBRANCH  22  23
ENDBRANCH  21  22
ENDBRANCH  20  21
ENDBRANCH  19  20
ENDBRANCH  18  19
ENDBRANCH  17  18
ENDBRANCH   1  17
TORSDOF 26
ENDMDL
MODEL 6
REMARK VINA RESULT:    -3.958      1.604      4.357
REMARK INTER + INTRA:         -14.879
REMARK INTER:                  -9.515
REMARK INTRA:                  -5.365
REMARK UNBOUND:                -4.905
REMARK SMILES CCCCCCCCCCCCCCCCCCCCCCCCCCCC(=O)[O-]
REMARK SMILES IDX 15 1 16 2 17 3 18 4 19 5 20 6 21 7 22 8 23 9 24 10 25 11
REMARK SMILES IDX 26 12 27 13 28 14 29 15 30 16 14 17 13 18 12 19 11 20 10 21
REMARK SMILES IDX 9 22 8 23 7 24 6 25 5 26 4 27 3 28 2 29 1 30
REMARK H PARENT
REMARK Flexibility Score: inf
ROOT
ATOM      1  C   UNL     1      21.391   0.720  16.273  1.00  0.00     0.000 C 
ENDROOT
BRANCH   1   2
ATOM      2  C   UNL     1      20.495  -0.385  16.859  1.00  0.00     0.000 C 
BRANCH   2   3
ATOM      3  C   UNL     1      21.077  -0.999  18.142  1.00  0.00     0.000 C 
BRANCH   3   4
ATOM      4  C   UNL     1      20.557  -2.421  18.405  1.00  0.00     0.000 C 
BRANCH   4   5
ATOM      5  C   UNL     1      21.700  -3.444  18.338  1.00  0.00     0.000 C 
BRANCH   5   6
ATOM      6  C   UNL     1      21.981  -3.938  16.907  1.00  0.00     0.000 C 
BRANCH   6   7
ATOM      7  C   UNL     1      23.381  -3.590  16.358  1.00  0.00     0.000 C 
BRANCH   7   8
ATOM      8  C   UNL     1      23.388  -2.798  15.038  1.00  0.00     0.000 C 
BRANCH   8   9
ATOM      9  C   UNL     1      22.015  -2.664  14.349  1.00  0.00     0.000 C 
BRANCH   9  10
ATOM     10  C   UNL     1      21.997  -1.647  13.188  1.00  0.00     0.000 C 
BRANCH  10  11
ATOM     11  C   UNL     1      20.654  -0.910  13.070  1.00  0.00     0.000 C 
BRANCH  11  12
ATOM     12  C   UNL     1      19.476  -1.887  13.199  1.00  0.00     0.006 C 
BRANCH  12  13
ATOM     13  C   UNL     1      19.060  -2.476  11.844  1.00  0.00     0.053 C 
BRANCH  13  14
ATOM     14  C   UNL     1      17.721  -1.966  11.404  1.00  0.00     0.041 C 
ATOM     15  O   UNL     1      17.617  -0.820  10.893  1.00  0.00    -0.550 OA
ATOM     16  O   UNL     1      16.584  -2.742  11.591  1.00  0.00    -0.550 OA
ENDBRANCH  13  14
ENDBRANCH  12  13
ENDBRANCH  11  12
ENDBRANCH  10  11
ENDBRANCH   9  10
ENDBRANCH   8   9
ENDBRANCH   7   8
ENDBRANCH   6   7
ENDBRANCH   5   6
ENDBRANCH   4   5
ENDBRANCH   3   4
ENDBRANCH   2   3
ENDBRANCH   1   2
BRANCH   1  17
ATOM     17  C   UNL     1      22.891   0.432  16.462  1.00  0.00     0.000 C 
BRANCH  17  18
ATOM     18  C   UNL     1      23.814   1.007  15.369  1.00  0.00     0.000 C 
BRANCH  18  19
ATOM     19  C   UNL     1      23.093   1.709  14.203  1.00  0.00     0.000 C 
BRANCH  19  20
ATOM     20  C   UNL     1      23.472   3.194  14.077  1.00  0.00     0.000 C 
BRANCH  20  21
ATOM     21  C   UNL     1      24.691   3.580  14.938  1.00  0.00     0.000 C 
BRANCH  21  22
ATOM     22  C   UNL     1      24.422   4.634  16.027  1.00  0.00    -0.000 C 
BRANCH  22  23
ATOM     23  C   UNL     1      24.429   4.101  17.473  1.00  0.00    -0.000 C 
BRANCH  23  24
ATOM     24  C   UNL     1      23.023   3.807  18.039  1.00  0.00    -0.000 C 
BRANCH  24  25
ATOM     25  C   UNL     1      23.045   2.746  19.153  1.00  0.00    -0.000 C 
BRANCH  25  26
ATOM     26  C   UNL     1      24.446   2.547  19.753  1.00  0.00    -0.000 C 
BRANCH  26  27
ATOM     27  C   UNL     1      24.881   1.074  19.769  1.00  0.00    -0.000 C 
BRANCH  27  28
ATOM     28  C   UNL     1      24.284   0.340  20.976  1.00  0.00    -0.000 C 
BRANCH  28  29
ATOM     29  C   UNL     1      23.785  -1.055  20.581  1.00  0.00    -0.003 C 
ATOM     30  C   UNL     1      24.576  -1.608  19.398  1.00  0.00     0.004 C 
ENDBRANCH  28  29
ENDBRANCH  27  28
ENDBRANCH  26  27
ENDBRANCH  25  26
ENDBRANCH  24  25
ENDBRANCH  23  24
ENDBRANCH  22  23
ENDBRANCH  21  22
ENDBRANCH  20  21
ENDBRANCH  19  20
ENDBRANCH  18  19
ENDBRANCH  17  18
ENDBRANCH   1  17
TORSDOF 26
ENDMDL
MODEL 7
REMARK VINA RESULT:    -3.946      2.773      5.673
REMARK INTER + INTRA:         -14.849
REMARK INTER:                 -11.022
REMARK INTRA:                  -3.827
REMARK UNBOUND:                -4.905
REMARK SMILES CCCCCCCCCCCCCCCCCCCCCCCCCCCC(=O)[O-]
REMARK SMILES IDX 15 1 16 2 17 3 18 4 19 5 20 6 21 7 22 8 23 9 24 10 25 11
REMARK SMILES IDX 26 12 27 13 28 14 29 15 30 16 14 17 13 18 12 19 11 20 10 21
REMARK SMILES IDX 9 22 8 23 7 24 6 25 5 26 4 27 3 28 2 29 1 30
REMARK H PARENT
REMARK Flexibility Score: inf
ROOT
ATOM      1  C   UNL     1      23.601  -2.539  15.363  1.00  0.00     0.000 C 
ENDROOT
BRANCH   1   2
ATOM      2  C   UNL     1      22.560  -2.633  14.234  1.00  0.00     0.000 C 
BRANCH   2   3
ATOM      3  C   UNL     1      22.385  -1.306  13.480  1.00  0.00     0.000 C 
BRANCH   3   4
ATOM      4  C   UNL     1      20.968  -0.727  13.625  1.00  0.00     0.000 C 
BRANCH   4   5
ATOM      5  C   UNL     1      20.020  -1.335  12.581  1.00  0.00     0.000 C 
BRANCH   5   6
ATOM      6  C   UNL     1      18.987  -2.297  13.197  1.00  0.00     0.000 C 
BRANCH   6   7
ATOM      7  C   UNL     1      17.929  -2.838  12.212  1.00  0.00     0.000 C 
BRANCH   7   8
ATOM      8  C   UNL     1      16.468  -2.523  12.583  1.00  0.00     0.000 C 
BRANCH   8   9
ATOM      9  C   UNL     1      15.624  -1.910  11.449  1.00  0.00     0.000 C 
BRANCH   9  10
ATOM     10  C   UNL     1      16.054  -0.482  11.053  1.00  0.00     0.000 C 
BRANCH  10  11
ATOM     11  C   UNL     1      16.858  -0.448   9.746  1.00  0.00     0.000 C 
BRANCH  11  12
ATOM     12  C   UNL     1      16.369  -1.529   8.770  1.00  0.00     0.006 C 
BRANCH  12  13
ATOM     13  C   UNL     1      15.342  -0.983   7.768  1.00  0.00     0.053 C 
BRANCH  13  14
ATOM     14  C   UNL     1      13.936  -1.217   8.231  1.00  0.00     0.041 C 
ATOM     15  O   UNL     1      13.242  -0.256   8.655  1.00  0.00    -0.550 OA
ATOM     16  O   UNL     1      13.405  -2.501   8.229  1.00  0.00    -0.550 OA
ENDBRANCH  13  14
ENDBRANCH  12  13
ENDBRANCH  11  12
ENDBRANCH  10  11
ENDBRANCH   9  10
ENDBRANCH   8   9
ENDBRANCH   7   8
ENDBRANCH   6   7
ENDBRANCH   5   6
ENDBRANCH   4   5
ENDBRANCH   3   4
ENDBRANCH   2   3
ENDBRANCH   1   2
BRANCH   1  17
ATOM     17  C   UNL     1      23.531  -3.727  16.339  1.00  0.00     0.000 C 
BRANCH  17  18
ATOM     18  C   UNL     1      23.600  -3.355  17.834  1.00  0.00     0.000 C 
BRANCH  18  19
ATOM     19  C   UNL     1      22.476  -2.429  18.333  1.00  0.00     0.000 C 
BRANCH  19  20
ATOM     20  C   UNL     1      21.078  -2.910  17.910  1.00  0.00     0.000 C 
BRANCH  20  21
ATOM     21  C   UNL     1      20.329  -1.889  17.031  1.00  0.00     0.000 C 
BRANCH  21  22
ATOM     22  C   UNL     1      20.151  -0.492  17.650  1.00  0.00    -0.000 C 
BRANCH  22  23
ATOM     23  C   UNL     1      20.928   0.641  16.951  1.00  0.00    -0.000 C 
BRANCH  23  24
ATOM     24  C   UNL     1      21.963   1.342  17.858  1.00  0.00    -0.000 C 
BRANCH  24  25
ATOM     25  C   UNL     1      23.414   1.037  17.444  1.00  0.00    -0.000 C 
BRANCH  25  26
ATOM     26  C   UNL     1      23.591   0.966  15.918  1.00  0.00    -0.000 C 
BRANCH  26  27
ATOM     27  C   UNL     1      24.451   2.113  15.368  1.00  0.00    -0.000 C 
BRANCH  27  28
ATOM     28  C   UNL     1      23.585   3.334  15.031  1.00  0.00    -0.000 C 
BRANCH  28  29
ATOM     29  C   UNL     1      23.360   3.449  13.519  1.00  0.00    -0.003 C 
ATOM     30  C   UNL     1      22.033   2.815  13.110  1.00  0.00     0.004 C 
ENDBRANCH  28  29
ENDBRANCH  27  28
ENDBRANCH  26  27
ENDBRANCH  25  26
ENDBRANCH  24  25
ENDBRANCH  23  24
ENDBRANCH  22  23
ENDBRANCH  21  22
ENDBRANCH  20  21
ENDBRANCH  19  20
ENDBRANCH  18  19
ENDBRANCH  17  18
ENDBRANCH   1  17
TORSDOF 26
ENDMDL
MODEL 8
REMARK VINA RESULT:    -3.929      1.259      2.483
REMARK INTER + INTRA:         -14.806
REMARK INTER:                 -10.043
REMARK INTRA:                  -4.763
REMARK UNBOUND:                -4.905
REMARK SMILES CCCCCCCCCCCCCCCCCCCCCCCCCCCC(=O)[O-]
REMARK SMILES IDX 15 1 16 2 17 3 18 4 19 5 20 6 21 7 22 8 23 9 24 10 25 11
REMARK SMILES IDX 26 12 27 13 28 14 29 15 30 16 14 17 13 18 12 19 11 20 10 21
REMARK SMILES IDX 9 22 8 23 7 24 6 25 5 26 4 27 3 28 2 29 1 30
REMARK H PARENT
REMARK Flexibility Score: inf
ROOT
ATOM      1  C   UNL     1      24.103  -2.830  16.759  1.00  0.00     0.000 C 
ENDROOT
BRANCH   1   2
ATOM      2  C   UNL     1      23.717  -4.319  16.747  1.00  0.00     0.000 C 
BRANCH   2   3
ATOM      3  C   UNL     1      23.831  -4.970  18.135  1.00  0.00     0.000 C 
BRANCH   3   4
ATOM      4  C   UNL     1      22.592  -5.803  18.499  1.00  0.00     0.000 C 
BRANCH   4   5
ATOM      5  C   UNL     1      21.308  -5.119  18.004  1.00  0.00     0.000 C 
BRANCH   5   6
ATOM      6  C   UNL     1      20.747  -4.097  19.010  1.00  0.00     0.000 C 
BRANCH   6   7
ATOM      7  C   UNL     1      20.061  -2.867  18.378  1.00  0.00     0.000 C 
BRANCH   7   8
ATOM      8  C   UNL     1      20.310  -2.682  16.871  1.00  0.00     0.000 C 
BRANCH   8   9
ATOM      9  C   UNL     1      20.201  -1.230  16.364  1.00  0.00     0.000 C 
BRANCH   9  10
ATOM     10  C   UNL     1      20.856  -1.000  14.985  1.00  0.00     0.000 C 
BRANCH  10  11
ATOM     11  C   UNL     1      21.355  -2.303  14.344  1.00  0.00     0.000 C 
BRANCH  11  12
ATOM     12  C   UNL     1      20.511  -2.671  13.115  1.00  0.00     0.006 C 
BRANCH  12  13
ATOM     13  C   UNL     1      19.681  -1.484  12.605  1.00  0.00     0.053 C 
BRANCH  13  14
ATOM     14  C   UNL     1      18.678  -1.908  11.576  1.00  0.00     0.041 C 
ATOM     15  O   UNL     1      17.891  -1.063  11.074  1.00  0.00    -0.550 OA
ATOM     16  O   UNL     1      18.587  -3.242  11.198  1.00  0.00    -0.550 OA
ENDBRANCH  13  14
ENDBRANCH  12  13
ENDBRANCH  11  12
ENDBRANCH  10  11
ENDBRANCH   9  10
ENDBRANCH   8   9
ENDBRANCH   7   8
ENDBRANCH   6   7
ENDBRANCH   5   6
ENDBRANCH   4   5
ENDBRANCH   3   4
ENDBRANCH   2   3
ENDBRANCH   1   2
BRANCH   1  17
ATOM     17  C   UNL     1      23.804  -2.149  18.107  1.00  0.00     0.000 C 
BRANCH  17  18
ATOM     18  C   UNL     1      23.640  -0.617  18.048  1.00  0.00     0.000 C 
BRANCH  18  19
ATOM     19  C   UNL     1      22.478  -0.048  18.883  1.00  0.00     0.000 C 
BRANCH  19  20
ATOM     20  C   UNL     1      22.215   1.440  18.599  1.00  0.00     0.000 C 
BRANCH  20  21
ATOM     21  C   UNL     1      23.504   2.284  18.562  1.00  0.00     0.000 C 
BRANCH  21  22
ATOM     22  C   UNL     1      23.721   3.099  17.275  1.00  0.00    -0.000 C 
BRANCH  22  23
ATOM     23  C   UNL     1      24.642   2.443  16.228  1.00  0.00    -0.000 C 
BRANCH  23  24
ATOM     24  C   UNL     1      23.896   1.564  15.201  1.00  0.00    -0.000 C 
BRANCH  24  25
ATOM     25  C   UNL     1      22.509   2.126  14.840  1.00  0.00    -0.000 C 
BRANCH  25  26
ATOM     26  C   UNL     1      22.201   2.020  13.337  1.00  0.00    -0.000 C 
BRANCH  26  27
ATOM     27  C   UNL     1      22.107   3.393  12.654  1.00  0.00    -0.000 C 
BRANCH  27  28
ATOM     28  C   UNL     1      22.655   4.497  13.567  1.00  0.00    -0.000 C 
BRANCH  28  29
ATOM     29  C   UNL     1      23.533   5.477  12.779  1.00  0.00    -0.003 C 
ATOM     30  C   UNL     1      25.014   5.154  12.957  1.00  0.00     0.004 C 
ENDBRANCH  28  29
ENDBRANCH  27  28
ENDBRANCH  26  27
ENDBRANCH  25  26
ENDBRANCH  24  25
ENDBRANCH  23  24
ENDBRANCH  22  23
ENDBRANCH  21  22
ENDBRANCH  20  21
ENDBRANCH  19  20
ENDBRANCH  18  19
ENDBRANCH  17  18
ENDBRANCH   1  17
TORSDOF 26
ENDMDL
MODEL 9
REMARK VINA RESULT:    -3.918      1.547      2.340
REMARK INTER + INTRA:         -14.778
REMARK INTER:                  -9.771
REMARK INTRA:                  -5.007
REMARK UNBOUND:                -4.905
REMARK SMILES CCCCCCCCCCCCCCCCCCCCCCCCCCCC(=O)[O-]
REMARK SMILES IDX 15 1 16 2 17 3 18 4 19 5 20 6 21 7 22 8 23 9 24 10 25 11
REMARK SMILES IDX 26 12 27 13 28 14 29 15 30 16 14 17 13 18 12 19 11 20 10 21
REMARK SMILES IDX 9 22 8 23 7 24 6 25 5 26 4 27 3 28 2 29 1 30
REMARK H PARENT
REMARK Flexibility Score: inf
ROOT
ATOM      1  C   UNL     1      21.107   1.017  17.040  1.00  0.00     0.000 C 
ENDROOT
BRANCH   1   2
ATOM      2  C   UNL     1      19.948   0.023  16.849  1.00  0.00     0.000 C 
BRANCH   2   3
ATOM      3  C   UNL     1      19.871  -1.016  17.979  1.00  0.00     0.000 C 
BRANCH   3   4
ATOM      4  C   UNL     1      21.102  -1.936  18.020  1.00  0.00     0.000 C 
BRANCH   4   5
ATOM      5  C   UNL     1      20.815  -3.267  17.309  1.00  0.00     0.000 C 
BRANCH   5   6
ATOM      6  C   UNL     1      22.039  -3.821  16.557  1.00  0.00     0.000 C 
BRANCH   6   7
ATOM      7  C   UNL     1      23.194  -2.818  16.357  1.00  0.00     0.000 C 
BRANCH   7   8
ATOM      8  C   UNL     1      23.541  -2.504  14.890  1.00  0.00     0.000 C 
BRANCH   8   9
ATOM      9  C   UNL     1      22.380  -2.682  13.892  1.00  0.00     0.000 C 
BRANCH   9  10
ATOM     10  C   UNL     1      21.941  -1.371  13.206  1.00  0.00     0.000 C 
BRANCH  10  11
ATOM     11  C   UNL     1      20.434  -1.112  13.337  1.00  0.00     0.000 C 
BRANCH  11  12
ATOM     12  C   UNL     1      19.709  -2.343  13.901  1.00  0.00     0.006 C 
BRANCH  12  13
ATOM     13  C   UNL     1      18.488  -2.735  13.058  1.00  0.00     0.053 C 
BRANCH  13  14
ATOM     14  C   UNL     1      18.889  -3.324  11.740  1.00  0.00     0.041 C 
ATOM     15  O   UNL     1      19.390  -4.478  11.688  1.00  0.00    -0.550 OA
ATOM     16  O   UNL     1      18.743  -2.584  10.572  1.00  0.00    -0.550 OA
ENDBRANCH  13  14
ENDBRANCH  12  13
ENDBRANCH  11  12
ENDBRANCH  10  11
ENDBRANCH   9  10
ENDBRANCH   8   9
ENDBRANCH   7   8
ENDBRANCH   6   7
ENDBRANCH   5   6
ENDBRANCH   4   5
ENDBRANCH   3   4
ENDBRANCH   2   3
ENDBRANCH   1   2
BRANCH   1  17
ATOM     17  C   UNL     1      22.011   1.123  15.799  1.00  0.00     0.000 C 
BRANCH  17  18
ATOM     18  C   UNL     1      23.518   0.925  16.063  1.00  0.00     0.000 C 
BRANCH  18  19
ATOM     19  C   UNL     1      24.416   2.110  15.663  1.00  0.00     0.000 C 
BRANCH  19  20
ATOM     20  C   UNL     1      24.681   3.076  16.830  1.00  0.00     0.000 C 
BRANCH  20  21
ATOM     21  C   UNL     1      23.937   4.417  16.684  1.00  0.00     0.000 C 
BRANCH  21  22
ATOM     22  C   UNL     1      22.586   4.505  17.417  1.00  0.00    -0.000 C 
BRANCH  22  23
ATOM     23  C   UNL     1      21.350   4.629  16.505  1.00  0.00    -0.000 C 
BRANCH  23  24
ATOM     24  C   UNL     1      21.417   5.815  15.518  1.00  0.00    -0.000 C 
BRANCH  24  25
ATOM     25  C   UNL     1      21.221   5.378  14.055  1.00  0.00    -0.000 C 
BRANCH  25  26
ATOM     26  C   UNL     1      22.133   4.205  13.662  1.00  0.00    -0.000 C 
BRANCH  26  27
ATOM     27  C   UNL     1      22.940   4.484  12.385  1.00  0.00    -0.000 C 
BRANCH  27  28
ATOM     28  C   UNL     1      24.373   4.913  12.725  1.00  0.00    -0.000 C 
BRANCH  28  29
ATOM     29  C   UNL     1      24.419   6.380  13.167  1.00  0.00    -0.003 C 
ATOM     30  C   UNL     1      25.396   6.576  14.323  1.00  0.00     0.004 C 
ENDBRANCH  28  29
ENDBRANCH  27  28
ENDBRANCH  26  27
ENDBRANCH  25  26
ENDBRANCH  24  25
ENDBRANCH  23  24
ENDBRANCH  22  23
ENDBRANCH  21  22
ENDBRANCH  20  21
ENDBRANCH  19  20
ENDBRANCH  18  19
ENDBRANCH  17  18
ENDBRANCH   1  17
TORSDOF 26
ENDMDL
