MODEL 1
REMARK VINA RESULT:    -5.001      0.000      0.000
REMARK INTER + INTRA:         -10.221
REMARK INTER:                  -8.509
REMARK INTRA:                  -1.712
REMARK UNBOUND:                -1.712
REMARK SMILES CCCCCCCCCCCCCC(=O)[O-]
REMARK SMILES IDX 8 1 9 2 10 3 11 4 12 5 13 6 14 7 15 8 16 9 7 10 6 11 5 12
REMARK SMILES IDX 4 13 3 14 2 15 1 16
REMARK H PARENT
REMARK Flexibility Score: inf
ROOT
ATOM      1  C   UNL     1       5.524   3.712   7.978  1.00  0.00     0.000 C 
ENDROOT
BRANCH   1   2
ATOM      2  C   UNL     1       4.218   4.508   7.804  1.00  0.00     0.000 C 
BRANCH   2   3
ATOM      3  C   UNL     1       4.286   5.908   8.431  1.00  0.00     0.000 C 
BRANCH   3   4
ATOM      4  C   UNL     1       3.906   6.986   7.409  1.00  0.00     0.000 C 
BRANCH   4   5
ATOM      5  C   UNL     1       4.108   8.393   7.991  1.00  0.00     0.006 C 
BRANCH   5   6
ATOM      6  C   UNL     1       2.802   9.199   8.027  1.00  0.00     0.053 C 
BRANCH   6   7
ATOM      7  C   UNL     1       2.050   8.978   9.303  1.00  0.00     0.041 C 
ATOM      8  O   UNL     1       2.229   9.745  10.286  1.00  0.00    -0.550 OA
ATOM      9  O   UNL     1       1.174   7.907   9.418  1.00  0.00    -0.550 OA
ENDBRANCH   6   7
ENDBRANCH   5   6
ENDBRANCH   4   5
ENDBRANCH   3   4
ENDBRANCH   2   3
ENDBRANCH   1   2
BRANCH   1  10
ATOM     10  C   UNL     1       6.778   4.366   7.360  1.00  0.00     0.000 C 
BRANCH  10  11
ATOM     11  C   UNL     1       7.867   4.780   8.366  1.00  0.00    -0.000 C 
BRANCH  11  12
ATOM     12  C   UNL     1       8.586   6.079   7.966  1.00  0.00    -0.000 C 
BRANCH  12  13
ATOM     13  C   UNL     1       7.617   7.152   7.443  1.00  0.00    -0.000 C 
BRANCH  13  14
ATOM     14  C   UNL     1       7.997   7.663   6.042  1.00  0.00    -0.000 C 
BRANCH  14  15
ATOM     15  C   UNL     1       6.768   7.908   5.152  1.00  0.00    -0.003 C 
ATOM     16  C   UNL     1       6.221   6.621   4.535  1.00  0.00     0.004 C 
ENDBRANCH  14  15
ENDBRANCH  13  14
ENDBRANCH  12  13
ENDBRANCH  11  12
ENDBRANCH  10  11
ENDBRANCH   1  10
TORSDOF 12
ENDMDL
MODEL 2
REMARK VINA RESULT:    -4.935      1.943      2.549
REMARK INTER + INTRA:         -10.109
REMARK INTER:                  -8.495
REMARK INTRA:                  -1.614
REMARK UNBOUND:                -1.712
REMARK SMILES CCCCCCCCCCCCCC(=O)[O-]
REMARK SMILES IDX 8 1 9 2 10 3 11 4 12 5 13 6 14 7 15 8 16 9 7 10 6 11 5 12
REMARK SMILES IDX 4 13 3 14 2 15 1 16
REMARK H PARENT
REMARK Flexibility Score: inf
ROOT
ATOM      1  C   UNL     1       6.840   4.101   8.330  1.00  0.00     0.000 C 
ENDROOT
BRANCH   1   2
ATOM      2  C   UNL     1       5.781   4.474   7.276  1.00  0.00     0.000 C 
BRANCH   2   3
ATOM      3  C   UNL     1       4.371   4.608   7.869  1.00  0.00     0.000 C 
BRANCH   3   4
ATOM      4  C   UNL     1       4.053   6.071   8.202  1.00  0.00     0.000 C 
BRANCH   4   5
ATOM      5  C   UNL     1       3.205   6.173   9.480  1.00  0.00     0.006 C 
BRANCH   5   6
ATOM      6  C   UNL     1       2.370   4.909   9.725  1.00  0.00     0.053 C 
BRANCH   6   7
ATOM      7  C   UNL     1       0.915   5.146   9.463  1.00  0.00     0.041 C 
ATOM      8  O   UNL     1       0.552   5.806   8.453  1.00  0.00    -0.550 OA
ATOM      9  O   UNL     1      -0.039   4.667  10.350  1.00  0.00    -0.550 OA
ENDBRANCH   6   7
ENDBRANCH   5   6
ENDBRANCH   4   5
ENDBRANCH   3   4
ENDBRANCH   2   3
ENDBRANCH   1   2
BRANCH   1  10
ATOM     10  C   UNL     1       8.041   5.065   8.422  1.00  0.00     0.000 C 
BRANCH  10  11
ATOM     11  C   UNL     1       7.754   6.516   7.997  1.00  0.00    -0.000 C 
BRANCH  11  12
ATOM     12  C   UNL     1       8.706   7.015   6.897  1.00  0.00    -0.000 C 
BRANCH  12  13
ATOM     13  C   UNL     1       7.984   7.850   5.827  1.00  0.00    -0.000 C 
BRANCH  13  14
ATOM     14  C   UNL     1       6.524   8.161   6.200  1.00  0.00    -0.000 C 
BRANCH  14  15
ATOM     15  C   UNL     1       5.523   7.608   5.174  1.00  0.00    -0.003 C 
ATOM     16  C   UNL     1       6.117   6.494   4.312  1.00  0.00     0.004 C 
ENDBRANCH  14  15
ENDBRANCH  13  14
ENDBRANCH  12  13
ENDBRANCH  11  12
ENDBRANCH  10  11
ENDBRANCH   1  10
TORSDOF 12
ENDMDL
MODEL 3
REMARK VINA RESULT:    -4.904      3.426      6.750
REMARK INTER + INTRA:         -10.056
REMARK INTER:                  -8.347
REMARK INTRA:                  -1.709
REMARK UNBOUND:                -1.712
REMARK SMILES CCCCCCCCCCCCCC(=O)[O-]
REMARK SMILES IDX 8 1 9 2 10 3 11 4 12 5 13 6 14 7 15 8 16 9 7 10 6 11 5 12
REMARK SMILES IDX 4 13 3 14 2 15 1 16
REMARK H PARENT
REMARK Flexibility Score: inf
ROOT
ATOM      1  C   UNL     1       1.762   9.253  10.477  1.00  0.00     0.000 C 
ENDROOT
BRANCH   1   2
ATOM      2  C   UNL     1       1.917   8.767   9.024  1.00  0.00     0.000 C 
BRANCH   2   3
ATOM      3  C   UNL     1       2.641   7.417   8.922  1.00  0.00     0.000 C 
BRANCH   3   4
ATOM      4  C   UNL     1       2.256   6.685   7.631  1.00  0.00     0.000 C 
BRANCH   4   5
ATOM      5  C   UNL     1       2.976   7.292   6.417  1.00  0.00     0.006 C 
BRANCH   5   6
ATOM      6  C   UNL     1       4.502   7.262   6.573  1.00  0.00     0.053 C 
BRANCH   6   7
ATOM      7  C   UNL     1       5.110   8.612   6.347  1.00  0.00     0.041 C 
ATOM      8  O   UNL     1       4.641   9.624   6.932  1.00  0.00    -0.550 OA
ATOM      9  O   UNL     1       6.173   8.758   5.466  1.00  0.00    -0.550 OA
ENDBRANCH   6   7
ENDBRANCH   5   6
ENDBRANCH   4   5
ENDBRANCH   3   4
ENDBRANCH   2   3
ENDBRANCH   1   2
BRANCH   1  10
ATOM     10  C   UNL     1       2.007   8.179  11.557  1.00  0.00     0.000 C 
BRANCH  10  11
ATOM     11  C   UNL     1       0.850   7.969  12.550  1.00  0.00    -0.000 C 
BRANCH  11  12
ATOM     12  C   UNL     1       0.498   6.486  12.751  1.00  0.00    -0.000 C 
BRANCH  12  13
ATOM     13  C   UNL     1      -0.569   5.994  11.760  1.00  0.00    -0.000 C 
BRANCH  13  14
ATOM     14  C   UNL     1       0.032   5.210  10.580  1.00  0.00    -0.000 C 
BRANCH  14  15
ATOM     15  C   UNL     1      -0.720   5.460   9.263  1.00  0.00    -0.003 C 
ATOM     16  C   UNL     1      -1.299   6.871   9.174  1.00  0.00     0.004 C 
ENDBRANCH  14  15
ENDBRANCH  13  14
ENDBRANCH  12  13
ENDBRANCH  11  12
ENDBRANCH  10  11
ENDBRANCH   1  10
TORSDOF 12
ENDMDL
MODEL 4
REMARK VINA RESULT:    -4.883      1.375      1.996
REMARK INTER + INTRA:         -10.021
REMARK INTER:                  -8.459
REMARK INTRA:                  -1.561
REMARK UNBOUND:                -1.712
REMARK SMILES CCCCCCCCCCCCCC(=O)[O-]
REMARK SMILES IDX 8 1 9 2 10 3 11 4 12 5 13 6 14 7 15 8 16 9 7 10 6 11 5 12
REMARK SMILES IDX 4 13 3 14 2 15 1 16
REMARK H PARENT
REMARK Flexibility Score: inf
ROOT
ATOM      1  C   UNL     1       6.573   4.377   7.236  1.00  0.00     0.000 C 
ENDROOT
BRANCH   1   2
ATOM      2  C   UNL     1       5.224   4.171   7.949  1.00  0.00     0.000 C 
BRANCH   2   3
ATOM      3  C   UNL     1       4.232   5.314   7.688  1.00  0.00     0.000 C 
BRANCH   3   4
ATOM      4  C   UNL     1       2.826   4.768   7.410  1.00  0.00     0.000 C 
BRANCH   4   5
ATOM      5  C   UNL     1       1.810   5.911   7.268  1.00  0.00     0.006 C 
BRANCH   5   6
ATOM      6  C   UNL     1       2.413   7.142   6.577  1.00  0.00     0.053 C 
BRANCH   6   7
ATOM      7  C   UNL     1       2.421   8.336   7.481  1.00  0.00     0.041 C 
ATOM      8  O   UNL     1       1.626   8.400   8.455  1.00  0.00    -0.550 OA
ATOM      9  O   UNL     1       3.286   9.393   7.229  1.00  0.00    -0.550 OA
ENDBRANCH   6   7
ENDBRANCH   5   6
ENDBRANCH   4   5
ENDBRANCH   3   4
ENDBRANCH   2   3
ENDBRANCH   1   2
BRANCH   1  10
ATOM     10  C   UNL     1       7.685   5.001   8.105  1.00  0.00     0.000 C 
BRANCH  10  11
ATOM     11  C   UNL     1       7.804   6.533   8.018  1.00  0.00    -0.000 C 
BRANCH  11  12
ATOM     12  C   UNL     1       8.733   6.996   6.883  1.00  0.00    -0.000 C 
BRANCH  12  13
ATOM     13  C   UNL     1       8.012   7.883   5.855  1.00  0.00    -0.000 C 
BRANCH  13  14
ATOM     14  C   UNL     1       6.542   8.147   6.226  1.00  0.00    -0.000 C 
BRANCH  14  15
ATOM     15  C   UNL     1       5.566   7.672   5.139  1.00  0.00    -0.003 C 
ATOM     16  C   UNL     1       6.117   6.505   4.321  1.00  0.00     0.004 C 
ENDBRANCH  14  15
ENDBRANCH  13  14
ENDBRANCH  12  13
ENDBRANCH  11  12
ENDBRANCH  10  11
ENDBRANCH   1  10
TORSDOF 12
ENDMDL
MODEL 5
REMARK VINA RESULT:    -4.872      3.056      6.692
REMARK INTER + INTRA:         -10.002
REMARK INTER:                  -8.507
REMARK INTRA:                  -1.495
REMARK UNBOUND:                -1.712
REMARK SMILES CCCCCCCCCCCCCC(=O)[O-]
REMARK SMILES IDX 8 1 9 2 10 3 11 4 12 5 13 6 14 7 15 8 16 9 7 10 6 11 5 12
REMARK SMILES IDX 4 13 3 14 2 15 1 16
REMARK H PARENT
REMARK Flexibility Score: inf
ROOT
ATOM      1  C   UNL     1       1.984   9.456  10.247  1.00  0.00     0.000 C 
ENDROOT
BRANCH   1   2
ATOM      2  C   UNL     1       1.903   8.691   8.913  1.00  0.00     0.000 C 
BRANCH   2   3
ATOM      3  C   UNL     1       2.892   9.217   7.863  1.00  0.00     0.000 C 
BRANCH   3   4
ATOM      4  C   UNL     1       4.163   8.359   7.829  1.00  0.00     0.000 C 
BRANCH   4   5
ATOM      5  C   UNL     1       4.140   7.389   6.638  1.00  0.00     0.006 C 
BRANCH   5   6
ATOM      6  C   UNL     1       4.084   5.922   7.086  1.00  0.00     0.053 C 
BRANCH   6   7
ATOM      7  C   UNL     1       2.685   5.388   7.064  1.00  0.00     0.041 C 
ATOM      8  O   UNL     1       2.418   4.287   7.613  1.00  0.00    -0.550 OA
ATOM      9  O   UNL     1       1.682   6.092   6.411  1.00  0.00    -0.550 OA
ENDBRANCH   6   7
ENDBRANCH   5   6
ENDBRANCH   4   5
ENDBRANCH   3   4
ENDBRANCH   2   3
ENDBRANCH   1   2
BRANCH   1  10
ATOM     10  C   UNL     1       1.178   8.838  11.408  1.00  0.00     0.000 C 
BRANCH  10  11
ATOM     11  C   UNL     1       1.481   7.358  11.704  1.00  0.00    -0.000 C 
BRANCH  11  12
ATOM     12  C   UNL     1       0.374   6.676  12.525  1.00  0.00    -0.000 C 
BRANCH  12  13
ATOM     13  C   UNL     1      -0.540   5.790  11.663  1.00  0.00    -0.000 C 
BRANCH  13  14
ATOM     14  C   UNL     1       0.158   5.277  10.391  1.00  0.00    -0.000 C 
BRANCH  14  15
ATOM     15  C   UNL     1      -0.651   5.567   9.118  1.00  0.00    -0.003 C 
ATOM     16  C   UNL     1      -1.362   6.919   9.166  1.00  0.00     0.004 C 
ENDBRANCH  14  15
ENDBRANCH  13  14
ENDBRANCH  12  13
ENDBRANCH  11  12
ENDBRANCH  10  11
ENDBRANCH   1  10
TORSDOF 12
ENDMDL
MODEL 6
REMARK VINA RESULT:    -4.832      3.184      6.370
REMARK INTER + INTRA:          -9.933
REMARK INTER:                  -8.239
REMARK INTRA:                  -1.694
REMARK UNBOUND:                -1.712
REMARK SMILES CCCCCCCCCCCCCC(=O)[O-]
REMARK SMILES IDX 8 1 9 2 10 3 11 4 12 5 13 6 14 7 15 8 16 9 7 10 6 11 5 12
REMARK SMILES IDX 4 13 3 14 2 15 1 16
REMARK H PARENT
REMARK Flexibility Score: inf
ROOT
ATOM      1  C   UNL     1       0.581   5.006   9.951  1.00  0.00     0.000 C 
ENDROOT
BRANCH   1   2
ATOM      2  C   UNL     1       1.718   4.458   9.070  1.00  0.00     0.000 C 
BRANCH   2   3
ATOM      3  C   UNL     1       3.077   5.099   9.384  1.00  0.00     0.000 C 
BRANCH   3   4
ATOM      4  C   UNL     1       3.598   5.898   8.182  1.00  0.00     0.000 C 
BRANCH   4   5
ATOM      5  C   UNL     1       4.274   7.200   8.638  1.00  0.00     0.006 C 
BRANCH   5   6
ATOM      6  C   UNL     1       5.520   7.529   7.805  1.00  0.00     0.053 C 
BRANCH   6   7
ATOM      7  C   UNL     1       5.242   8.593   6.788  1.00  0.00     0.041 C 
ATOM      8  O   UNL     1       4.475   9.551   7.067  1.00  0.00    -0.550 OA
ATOM      9  O   UNL     1       5.806   8.508   5.522  1.00  0.00    -0.550 OA
ENDBRANCH   6   7
ENDBRANCH   5   6
ENDBRANCH   4   5
ENDBRANCH   3   4
ENDBRANCH   2   3
ENDBRANCH   1   2
BRANCH   1  10
ATOM     10  C   UNL     1      -0.528   5.764   9.193  1.00  0.00     0.000 C 
BRANCH  10  11
ATOM     11  C   UNL     1      -0.610   7.273   9.485  1.00  0.00    -0.000 C 
BRANCH  11  12
ATOM     12  C   UNL     1       0.716   8.005   9.222  1.00  0.00    -0.000 C 
BRANCH  12  13
ATOM     13  C   UNL     1       1.167   8.858  10.419  1.00  0.00    -0.000 C 
BRANCH  13  14
ATOM     14  C   UNL     1       1.878   8.030  11.504  1.00  0.00    -0.000 C 
BRANCH  14  15
ATOM     15  C   UNL     1       1.144   8.074  12.854  1.00  0.00    -0.003 C 
ATOM     16  C   UNL     1       0.415   6.769  13.171  1.00  0.00     0.004 C 
ENDBRANCH  14  15
ENDBRANCH  13  14
ENDBRANCH  12  13
ENDBRANCH  11  12
ENDBRANCH  10  11
ENDBRANCH   1  10
TORSDOF 12
ENDMDL
MODEL 7
REMARK VINA RESULT:    -4.828      3.323      6.085
REMARK INTER + INTRA:          -9.927
REMARK INTER:                  -7.968
REMARK INTRA:                  -1.958
REMARK UNBOUND:                -1.712
REMARK SMILES CCCCCCCCCCCCCC(=O)[O-]
REMARK SMILES IDX 8 1 9 2 10 3 11 4 12 5 13 6 14 7 15 8 16 9 7 10 6 11 5 12
REMARK SMILES IDX 4 13 3 14 2 15 1 16
REMARK H PARENT
REMARK Flexibility Score: inf
ROOT
ATOM      1  C   UNL     1       2.644   7.178   6.445  1.00  0.00     0.000 C 
ENDROOT
BRANCH   1   2
ATOM      2  C   UNL     1       2.731   8.140   7.643  1.00  0.00     0.000 C 
BRANCH   2   3
ATOM      3  C   UNL     1       4.178   8.472   8.037  1.00  0.00     0.000 C 
BRANCH   3   4
ATOM      4  C   UNL     1       4.955   7.199   8.395  1.00  0.00     0.000 C 
BRANCH   4   5
ATOM      5  C   UNL     1       6.159   7.008   7.461  1.00  0.00     0.006 C 
BRANCH   5   6
ATOM      6  C   UNL     1       6.149   5.634   6.777  1.00  0.00     0.053 C 
BRANCH   6   7
ATOM      7  C   UNL     1       6.655   4.557   7.686  1.00  0.00     0.041 C 
ATOM      8  O   UNL     1       5.858   3.710   8.169  1.00  0.00    -0.550 OA
ATOM      9  O   UNL     1       8.000   4.508   8.026  1.00  0.00    -0.550 OA
ENDBRANCH   6   7
ENDBRANCH   5   6
ENDBRANCH   4   5
ENDBRANCH   3   4
ENDBRANCH   2   3
ENDBRANCH   1   2
BRANCH   1  10
ATOM     10  C   UNL     1       1.805   5.905   6.686  1.00  0.00     0.000 C 
BRANCH  10  11
ATOM     11  C   UNL     1       2.584   4.700   7.241  1.00  0.00    -0.000 C 
BRANCH  11  12
ATOM     12  C   UNL     1       1.975   4.140   8.537  1.00  0.00    -0.000 C 
BRANCH  12  13
ATOM     13  C   UNL     1       2.397   4.940   9.781  1.00  0.00    -0.000 C 
BRANCH  13  14
ATOM     14  C   UNL     1       1.282   5.862  10.302  1.00  0.00    -0.000 C 
BRANCH  14  15
ATOM     15  C   UNL     1      -0.115   5.411   9.847  1.00  0.00    -0.003 C 
ATOM     16  C   UNL     1      -0.894   6.522   9.146  1.00  0.00     0.004 C 
ENDBRANCH  14  15
ENDBRANCH  13  14
ENDBRANCH  12  13
ENDBRANCH  11  12
ENDBRANCH  10  11
ENDBRANCH   1  10
TORSDOF 12
ENDMDL
MODEL 8
REMARK VINA RESULT:    -4.803      2.093      4.003
REMARK INTER + INTRA:          -9.884
REMARK INTER:                  -7.983
REMARK INTRA:                  -1.902
REMARK UNBOUND:                -1.712
REMARK SMILES CCCCCCCCCCCCCC(=O)[O-]
REMARK SMILES IDX 8 1 9 2 10 3 11 4 12 5 13 6 14 7 15 8 16 9 7 10 6 11 5 12
REMARK SMILES IDX 4 13 3 14 2 15 1 16
REMARK H PARENT
REMARK Flexibility Score: inf
ROOT
ATOM      1  C   UNL     1       3.461   7.463   8.396  1.00  0.00     0.000 C 
ENDROOT
BRANCH   1   2
ATOM      2  C   UNL     1       2.511   7.431   7.185  1.00  0.00     0.000 C 
BRANCH   2   3
ATOM      3  C   UNL     1       2.102   6.006   6.786  1.00  0.00     0.000 C 
BRANCH   3   4
ATOM      4  C   UNL     1       2.969   4.965   7.504  1.00  0.00     0.000 C 
BRANCH   4   5
ATOM      5  C   UNL     1       2.102   3.996   8.323  1.00  0.00     0.006 C 
BRANCH   5   6
ATOM      6  C   UNL     1       1.960   4.440   9.785  1.00  0.00     0.053 C 
BRANCH   6   7
ATOM      7  C   UNL     1       0.619   5.053  10.051  1.00  0.00     0.041 C 
ATOM      8  O   UNL     1      -0.361   4.778   9.309  1.00  0.00    -0.550 OA
ATOM      9  O   UNL     1       0.461   5.951  11.098  1.00  0.00    -0.550 OA
ENDBRANCH   6   7
ENDBRANCH   5   6
ENDBRANCH   4   5
ENDBRANCH   3   4
ENDBRANCH   2   3
ENDBRANCH   1   2
BRANCH   1  10
ATOM     10  C   UNL     1       4.582   8.521   8.322  1.00  0.00     0.000 C 
BRANCH  10  11
ATOM     11  C   UNL     1       4.866   9.080   6.916  1.00  0.00    -0.000 C 
BRANCH  11  12
ATOM     12  C   UNL     1       6.042   8.375   6.220  1.00  0.00    -0.000 C 
BRANCH  12  13
ATOM     13  C   UNL     1       5.578   7.354   5.169  1.00  0.00    -0.000 C 
BRANCH  13  14
ATOM     14  C   UNL     1       5.861   5.901   5.587  1.00  0.00    -0.000 C 
BRANCH  14  15
ATOM     15  C   UNL     1       6.606   5.808   6.928  1.00  0.00    -0.003 C 
ATOM     16  C   UNL     1       6.594   4.397   7.513  1.00  0.00     0.004 C 
ENDBRANCH  14  15
ENDBRANCH  13  14
ENDBRANCH  12  13
ENDBRANCH  11  12
ENDBRANCH  10  11
ENDBRANCH   1  10
TORSDOF 12
ENDMDL
MODEL 9
REMARK VINA RESULT:    -4.795      2.321      3.962
REMARK INTER + INTRA:          -9.871
REMARK INTER:                  -7.841
REMARK INTRA:                  -2.030
REMARK UNBOUND:                -1.712
REMARK SMILES CCCCCCCCCCCCCC(=O)[O-]
REMARK SMILES IDX 8 1 9 2 10 3 11 4 12 5 13 6 14 7 15 8 16 9 7 10 6 11 5 12
REMARK SMILES IDX 4 13 3 14 2 15 1 16
REMARK H PARENT
REMARK Flexibility Score: inf
ROOT
ATOM      1  C   UNL     1       2.600   7.376   6.230  1.00  0.00     0.000 C 
ENDROOT
BRANCH   1   2
ATOM      2  C   UNL     1       1.934   6.014   6.494  1.00  0.00     0.000 C 
BRANCH   2   3
ATOM      3  C   UNL     1       1.338   5.905   7.905  1.00  0.00     0.000 C 
BRANCH   3   4
ATOM      4  C   UNL     1       2.008   4.776   8.698  1.00  0.00     0.000 C 
BRANCH   4   5
ATOM      5  C   UNL     1       2.389   5.246  10.111  1.00  0.00     0.006 C 
BRANCH   5   6
ATOM      6  C   UNL     1       1.636   6.518  10.522  1.00  0.00     0.053 C 
BRANCH   6   7
ATOM      7  C   UNL     1       0.566   6.229  11.529  1.00  0.00     0.041 C 
ATOM      8  O   UNL     1       0.620   6.745  12.677  1.00  0.00    -0.550 OA
ATOM      9  O   UNL     1      -0.473   5.365  11.211  1.00  0.00    -0.550 OA
ENDBRANCH   6   7
ENDBRANCH   5   6
ENDBRANCH   4   5
ENDBRANCH   3   4
ENDBRANCH   2   3
ENDBRANCH   1   2
BRANCH   1  10
ATOM     10  C   UNL     1       2.590   8.354   7.423  1.00  0.00     0.000 C 
BRANCH  10  11
ATOM     11  C   UNL     1       3.977   8.766   7.947  1.00  0.00    -0.000 C 
BRANCH  11  12
ATOM     12  C   UNL     1       4.855   7.561   8.324  1.00  0.00    -0.000 C 
BRANCH  12  13
ATOM     13  C   UNL     1       6.173   7.521   7.534  1.00  0.00    -0.000 C 
BRANCH  13  14
ATOM     14  C   UNL     1       6.620   6.089   7.195  1.00  0.00    -0.000 C 
BRANCH  14  15
ATOM     15  C   UNL     1       5.434   5.124   7.036  1.00  0.00    -0.003 C 
ATOM     16  C   UNL     1       5.561   3.884   7.919  1.00  0.00     0.004 C 
ENDBRANCH  14  15
ENDBRANCH  13  14
ENDBRANCH  12  13
ENDBRANCH  11  12
ENDBRANCH  10  11
ENDBRANCH   1  10
TORSDOF 12
ENDMDL
