MODEL 1
REMARK VINA RESULT:    -6.264      0.000      0.000
REMARK INTER + INTRA:          -7.759
REMARK INTER:                  -7.546
REMARK INTRA:                  -0.213
REMARK UNBOUND:                -0.213
REMARK SMILES O=c1c(O)c(-c2ccc(O)c(O)c2)oc2cc(O)cc(O)c12
REMARK SMILES IDX 5 1 3 2 2 3 1 4 22 5 20 6 19 7 17 8 16 9 15 10 14 11 6 12
REMARK SMILES IDX 7 13 8 14 9 15 13 16 11 17 10 18 12 20 4 22 21 24 18 26
REMARK H PARENT 10 19 12 21 4 23 21 25 18 27
REMARK Flexibility Score: inf
ROOT
ATOM      1  C   UNL     1      69.551  48.883   8.470  1.00  0.00     0.180 A 
ATOM      2  C   UNL     1      68.975  50.031   9.040  1.00  0.00     0.208 A 
ATOM      3  C   UNL     1      67.587  50.067   9.246  1.00  0.00     0.238 A 
ATOM      4  O   UNL     1      67.089  51.066   9.825  1.00  0.00    -0.285 OA
ATOM      5  C   UNL     1      66.784  48.977   8.829  1.00  0.00     0.111 A 
ATOM      6  C   UNL     1      65.362  48.923   8.948  1.00  0.00     0.134 A 
ATOM      7  C   UNL     1      64.684  47.748   8.598  1.00  0.00     0.093 A 
ATOM      8  C   UNL     1      65.368  46.649   8.075  1.00  0.00     0.123 A 
ATOM      9  C   UNL     1      66.748  46.712   7.904  1.00  0.00     0.094 A 
ATOM     10  C   UNL     1      67.459  47.855   8.279  1.00  0.00     0.146 A 
ATOM     11  O   UNL     1      68.776  47.862   8.119  1.00  0.00    -0.452 OA
ENDROOT
BRANCH   1  12
ATOM     12  C   UNL     1      71.008  48.765   8.234  1.00  0.00     0.025 A 
ATOM     13  C   UNL     1      71.488  48.663   6.920  1.00  0.00     0.016 A 
ATOM     14  C   UNL     1      72.857  48.530   6.674  1.00  0.00     0.051 A 
ATOM     15  C   UNL     1      73.765  48.481   7.737  1.00  0.00     0.157 A 
ATOM     16  C   UNL     1      71.919  48.694   9.303  1.00  0.00     0.062 A 
ATOM     17  C   UNL     1      73.295  48.557   9.059  1.00  0.00     0.158 A 
BRANCH  15  18
ATOM     18  O   UNL     1      75.125  48.349   7.462  1.00  0.00    -0.504 OA
ATOM     19  H   UNL     1      75.501  48.481   6.530  1.00  0.00     0.293 HD
ENDBRANCH  15  18
BRANCH  17  20
ATOM     20  O   UNL     1      74.192  48.494  10.123  1.00  0.00    -0.504 OA
ATOM     21  H   UNL     1      74.121  49.121  10.916  1.00  0.00     0.293 HD
ENDBRANCH  17  20
ENDBRANCH   1  12
BRANCH   2  22
ATOM     22  O   UNL     1      69.776  51.126   9.374  1.00  0.00    -0.502 OA
ATOM     23  H   UNL     1      69.700  51.604  10.265  1.00  0.00     0.293 HD
ENDBRANCH   2  22
BRANCH   6  24
ATOM     24  O   UNL     1      64.571  49.994   9.375  1.00  0.00    -0.507 OA
ATOM     25  H   UNL     1      63.913  49.958  10.138  1.00  0.00     0.293 HD
ENDBRANCH   6  24
BRANCH   8  26
ATOM     26  O   UNL     1      64.683  45.491   7.714  1.00  0.00    -0.508 OA
ATOM     27  H   UNL     1      64.253  45.392   6.802  1.00  0.00     0.293 HD
ENDBRANCH   8  26
TORSDOF 6
ENDMDL
MODEL 2
REMARK VINA RESULT:    -6.024      0.594      1.442
REMARK INTER + INTRA:          -7.469
REMARK INTER:                  -7.329
REMARK INTRA:                  -0.140
REMARK UNBOUND:                -0.213
REMARK SMILES O=c1c(O)c(-c2ccc(O)c(O)c2)oc2cc(O)cc(O)c12
REMARK SMILES IDX 5 1 3 2 2 3 1 4 22 5 20 6 19 7 17 8 16 9 15 10 14 11 6 12
REMARK SMILES IDX 7 13 8 14 9 15 13 16 11 17 10 18 12 20 4 22 21 24 18 26
REMARK H PARENT 10 19 12 21 4 23 21 25 18 27
REMARK Flexibility Score: inf
ROOT
ATOM      1  C   UNL     1      69.489  48.865   8.583  1.00  0.00     0.180 A 
ATOM      2  C   UNL     1      68.875  50.035   9.060  1.00  0.00     0.208 A 
ATOM      3  C   UNL     1      67.486  50.042   9.260  1.00  0.00     0.238 A 
ATOM      4  O   UNL     1      66.953  51.067   9.758  1.00  0.00    -0.285 OA
ATOM      5  C   UNL     1      66.720  48.898   8.928  1.00  0.00     0.111 A 
ATOM      6  C   UNL     1      65.300  48.808   9.048  1.00  0.00     0.134 A 
ATOM      7  C   UNL     1      64.661  47.588   8.790  1.00  0.00     0.093 A 
ATOM      8  C   UNL     1      65.382  46.474   8.355  1.00  0.00     0.123 A 
ATOM      9  C   UNL     1      66.760  46.567   8.183  1.00  0.00     0.094 A 
ATOM     10  C   UNL     1      67.432  47.759   8.469  1.00  0.00     0.146 A 
ATOM     11  O   UNL     1      68.749  47.796   8.312  1.00  0.00    -0.452 OA
ENDROOT
BRANCH   1  12
ATOM     12  C   UNL     1      70.951  48.776   8.360  1.00  0.00     0.025 A 
ATOM     13  C   UNL     1      71.824  48.922   9.449  1.00  0.00     0.016 A 
ATOM     14  C   UNL     1      73.208  48.863   9.260  1.00  0.00     0.051 A 
ATOM     15  C   UNL     1      73.739  48.675   7.980  1.00  0.00     0.157 A 
ATOM     16  C   UNL     1      71.487  48.609   7.072  1.00  0.00     0.062 A 
ATOM     17  C   UNL     1      72.876  48.552   6.878  1.00  0.00     0.158 A 
BRANCH  15  18
ATOM     18  O   UNL     1      75.123  48.618   7.822  1.00  0.00    -0.504 OA
ATOM     19  H   UNL     1      75.649  49.382   7.415  1.00  0.00     0.293 HD
ENDBRANCH  15  18
BRANCH  17  20
ATOM     20  O   UNL     1      73.398  48.379   5.598  1.00  0.00    -0.504 OA
ATOM     21  H   UNL     1      74.139  47.714   5.411  1.00  0.00     0.293 HD
ENDBRANCH  17  20
ENDBRANCH   1  12
BRANCH   2  22
ATOM     22  O   UNL     1      69.639  51.179   9.310  1.00  0.00    -0.502 OA
ATOM     23  H   UNL     1      69.399  51.845  10.034  1.00  0.00     0.293 HD
ENDBRANCH   2  22
BRANCH   6  24
ATOM     24  O   UNL     1      64.473  49.883   9.388  1.00  0.00    -0.507 OA
ATOM     25  H   UNL     1      64.068  50.035  10.299  1.00  0.00     0.293 HD
ENDBRANCH   6  24
BRANCH   8  26
ATOM     26  O   UNL     1      64.736  45.270   8.085  1.00  0.00    -0.508 OA
ATOM     27  H   UNL     1      64.156  45.153   7.263  1.00  0.00     0.293 HD
ENDBRANCH   8  26
TORSDOF 6
ENDMDL
MODEL 3
REMARK VINA RESULT:    -5.955      1.973      6.908
REMARK INTER + INTRA:          -7.386
REMARK INTER:                  -7.108
REMARK INTRA:                  -0.278
REMARK UNBOUND:                -0.213
REMARK SMILES O=c1c(O)c(-c2ccc(O)c(O)c2)oc2cc(O)cc(O)c12
REMARK SMILES IDX 5 1 3 2 2 3 1 4 22 5 20 6 19 7 17 8 16 9 15 10 14 11 6 12
REMARK SMILES IDX 7 13 8 14 9 15 13 16 11 17 10 18 12 20 4 22 21 24 18 26
REMARK H PARENT 10 19 12 21 4 23 21 25 18 27
REMARK Flexibility Score: inf
ROOT
ATOM      1  C   UNL     1      69.962  48.109   8.102  1.00  0.00     0.180 A 
ATOM      2  C   UNL     1      70.805  49.127   8.579  1.00  0.00     0.208 A 
ATOM      3  C   UNL     1      72.185  49.036   8.340  1.00  0.00     0.238 A 
ATOM      4  O   UNL     1      72.924  49.986   8.704  1.00  0.00    -0.285 OA
ATOM      5  C   UNL     1      72.712  47.901   7.677  1.00  0.00     0.111 A 
ATOM      6  C   UNL     1      74.100  47.682   7.419  1.00  0.00     0.134 A 
ATOM      7  C   UNL     1      74.495  46.572   6.660  1.00  0.00     0.093 A 
ATOM      8  C   UNL     1      73.559  45.641   6.203  1.00  0.00     0.123 A 
ATOM      9  C   UNL     1      72.209  45.817   6.495  1.00  0.00     0.094 A 
ATOM     10  C   UNL     1      71.780  46.934   7.217  1.00  0.00     0.146 A 
ATOM     11  O   UNL     1      70.481  47.073   7.454  1.00  0.00    -0.452 OA
ENDROOT
BRANCH   1  12
ATOM     12  C   UNL     1      68.494  48.142   8.303  1.00  0.00     0.025 A 
ATOM     13  C   UNL     1      67.961  47.781   9.550  1.00  0.00     0.016 A 
ATOM     14  C   UNL     1      66.579  47.784   9.757  1.00  0.00     0.051 A 
ATOM     15  C   UNL     1      65.709  48.131   8.718  1.00  0.00     0.157 A 
ATOM     16  C   UNL     1      67.619  48.470   7.254  1.00  0.00     0.062 A 
ATOM     17  C   UNL     1      66.230  48.471   7.457  1.00  0.00     0.158 A 
BRANCH  15  18
ATOM     18  O   UNL     1      64.336  48.127   8.953  1.00  0.00    -0.504 OA
ATOM     19  H   UNL     1      63.694  48.688   8.405  1.00  0.00     0.293 HD
ENDBRANCH  15  18
BRANCH  17  20
ATOM     20  O   UNL     1      65.369  48.804   6.413  1.00  0.00    -0.504 OA
ATOM     21  H   UNL     1      64.819  49.654   6.428  1.00  0.00     0.293 HD
ENDBRANCH  17  20
ENDBRANCH   1  12
BRANCH   2  22
ATOM     22  O   UNL     1      70.273  50.200   9.299  1.00  0.00    -0.502 OA
ATOM     23  H   UNL     1      70.856  50.859   9.803  1.00  0.00     0.293 HD
ENDBRANCH   2  22
BRANCH   6  24
ATOM     24  O   UNL     1      75.125  48.500   7.904  1.00  0.00    -0.507 OA
ATOM     25  H   UNL     1      76.065  48.527   7.539  1.00  0.00     0.293 HD
ENDBRANCH   6  24
BRANCH   8  26
ATOM     26  O   UNL     1      73.963  44.533   5.463  1.00  0.00    -0.508 OA
ATOM     27  H   UNL     1      74.941  44.354   5.268  1.00  0.00     0.293 HD
ENDBRANCH   8  26
TORSDOF 6
ENDMDL
MODEL 4
REMARK VINA RESULT:    -5.868      4.271      8.041
REMARK INTER + INTRA:          -7.281
REMARK INTER:                  -6.999
REMARK INTRA:                  -0.282
REMARK UNBOUND:                -0.213
REMARK SMILES O=c1c(O)c(-c2ccc(O)c(O)c2)oc2cc(O)cc(O)c12
REMARK SMILES IDX 5 1 3 2 2 3 1 4 22 5 20 6 19 7 17 8 16 9 15 10 14 11 6 12
REMARK SMILES IDX 7 13 8 14 9 15 13 16 11 17 10 18 12 20 4 22 21 24 18 26
REMARK H PARENT 10 19 12 21 4 23 21 25 18 27
REMARK Flexibility Score: inf
ROOT
ATOM      1  C   UNL     1      71.351  44.749   6.857  1.00  0.00     0.180 A 
ATOM      2  C   UNL     1      71.861  44.745   5.548  1.00  0.00     0.208 A 
ATOM      3  C   UNL     1      72.740  45.766   5.156  1.00  0.00     0.238 A 
ATOM      4  O   UNL     1      73.251  45.715   4.008  1.00  0.00    -0.285 OA
ATOM      5  C   UNL     1      73.054  46.811   6.059  1.00  0.00     0.111 A 
ATOM      6  C   UNL     1      73.899  47.922   5.755  1.00  0.00     0.134 A 
ATOM      7  C   UNL     1      74.223  48.840   6.763  1.00  0.00     0.093 A 
ATOM      8  C   UNL     1      73.684  48.722   8.046  1.00  0.00     0.123 A 
ATOM      9  C   UNL     1      72.816  47.673   8.337  1.00  0.00     0.094 A 
ATOM     10  C   UNL     1      72.504  46.720   7.365  1.00  0.00     0.146 A 
ATOM     11  O   UNL     1      71.690  45.724   7.693  1.00  0.00    -0.452 OA
ENDROOT
BRANCH   1  12
ATOM     12  C   UNL     1      70.430  43.698   7.348  1.00  0.00     0.025 A 
ATOM     13  C   UNL     1      70.946  42.444   7.709  1.00  0.00     0.016 A 
ATOM     14  C   UNL     1      70.094  41.430   8.155  1.00  0.00     0.051 A 
ATOM     15  C   UNL     1      68.715  41.648   8.232  1.00  0.00     0.157 A 
ATOM     16  C   UNL     1      69.041  43.909   7.406  1.00  0.00     0.062 A 
ATOM     17  C   UNL     1      68.183  42.891   7.851  1.00  0.00     0.158 A 
BRANCH  15  18
ATOM     18  O   UNL     1      67.889  40.619   8.682  1.00  0.00    -0.504 OA
ATOM     19  H   UNL     1      67.182  40.767   9.392  1.00  0.00     0.293 HD
ENDBRANCH  15  18
BRANCH  17  20
ATOM     20  O   UNL     1      66.809  43.111   7.910  1.00  0.00    -0.504 OA
ATOM     21  H   UNL     1      66.285  42.976   8.767  1.00  0.00     0.293 HD
ENDBRANCH  17  20
ENDBRANCH   1  12
BRANCH   2  22
ATOM     22  O   UNL     1      71.478  43.747   4.648  1.00  0.00    -0.502 OA
ATOM     23  H   UNL     1      71.725  43.777   3.666  1.00  0.00     0.293 HD
ENDBRANCH   2  22
BRANCH   6  24
ATOM     24  O   UNL     1      74.419  48.185   4.484  1.00  0.00    -0.507 OA
ATOM     25  H   UNL     1      73.871  48.426   3.673  1.00  0.00     0.293 HD
ENDBRANCH   6  24
BRANCH   8  26
ATOM     26  O   UNL     1      74.000  49.648   9.037  1.00  0.00    -0.508 OA
ATOM     27  H   UNL     1      74.604  49.407   9.814  1.00  0.00     0.293 HD
ENDBRANCH   8  26
TORSDOF 6
ENDMDL
MODEL 5
REMARK VINA RESULT:    -5.749      2.440      3.457
REMARK INTER + INTRA:          -7.138
REMARK INTER:                  -6.818
REMARK INTRA:                  -0.320
REMARK UNBOUND:                -0.213
REMARK SMILES O=c1c(O)c(-c2ccc(O)c(O)c2)oc2cc(O)cc(O)c12
REMARK SMILES IDX 5 1 3 2 2 3 1 4 22 5 20 6 19 7 17 8 16 9 15 10 14 11 6 12
REMARK SMILES IDX 7 13 8 14 9 15 13 16 11 17 10 18 12 20 4 22 21 24 18 26
REMARK H PARENT 10 19 12 21 4 23 21 25 18 27
REMARK Flexibility Score: inf
ROOT
ATOM      1  C   UNL     1      70.941  47.515   7.427  1.00  0.00     0.180 A 
ATOM      2  C   UNL     1      71.316  48.610   8.224  1.00  0.00     0.208 A 
ATOM      3  C   UNL     1      70.318  49.460   8.726  1.00  0.00     0.238 A 
ATOM      4  O   UNL     1      70.654  50.394   9.500  1.00  0.00    -0.285 OA
ATOM      5  C   UNL     1      68.963  49.239   8.380  1.00  0.00     0.111 A 
ATOM      6  C   UNL     1      67.873  50.063   8.795  1.00  0.00     0.134 A 
ATOM      7  C   UNL     1      66.561  49.684   8.479  1.00  0.00     0.093 A 
ATOM      8  C   UNL     1      66.305  48.548   7.708  1.00  0.00     0.123 A 
ATOM      9  C   UNL     1      67.364  47.768   7.252  1.00  0.00     0.094 A 
ATOM     10  C   UNL     1      68.681  48.097   7.584  1.00  0.00     0.146 A 
ATOM     11  O   UNL     1      69.658  47.313   7.146  1.00  0.00    -0.452 OA
ENDROOT
BRANCH   1  12
ATOM     12  C   UNL     1      71.934  46.567   6.872  1.00  0.00     0.025 A 
ATOM     13  C   UNL     1      72.358  45.479   7.651  1.00  0.00     0.016 A 
ATOM     14  C   UNL     1      73.310  44.583   7.157  1.00  0.00     0.051 A 
ATOM     15  C   UNL     1      73.863  44.768   5.887  1.00  0.00     0.157 A 
ATOM     16  C   UNL     1      72.507  46.765   5.604  1.00  0.00     0.062 A 
ATOM     17  C   UNL     1      73.465  45.868   5.107  1.00  0.00     0.158 A 
BRANCH  15  18
ATOM     18  O   UNL     1      74.810  43.858   5.419  1.00  0.00    -0.504 OA
ATOM     19  H   UNL     1      75.653  44.155   4.943  1.00  0.00     0.293 HD
ENDBRANCH  15  18
BRANCH  17  20
ATOM     20  O   UNL     1      74.024  46.068   3.846  1.00  0.00    -0.504 OA
ATOM     21  H   UNL     1      73.992  45.351   3.131  1.00  0.00     0.293 HD
ENDBRANCH  17  20
ENDBRANCH   1  12
BRANCH   2  22
ATOM     22  O   UNL     1      72.665  48.856   8.491  1.00  0.00    -0.502 OA
ATOM     23  H   UNL     1      73.213  49.521   7.957  1.00  0.00     0.293 HD
ENDBRANCH   2  22
BRANCH   6  24
ATOM     24  O   UNL     1      68.022  51.266   9.492  1.00  0.00    -0.507 OA
ATOM     25  H   UNL     1      67.692  51.436  10.430  1.00  0.00     0.293 HD
ENDBRANCH   6  24
BRANCH   8  26
ATOM     26  O   UNL     1      64.999  48.189   7.385  1.00  0.00    -0.508 OA
ATOM     27  H   UNL     1      64.524  48.583   6.580  1.00  0.00     0.293 HD
ENDBRANCH   8  26
TORSDOF 6
ENDMDL
MODEL 6
REMARK VINA RESULT:    -5.645      2.164      7.449
REMARK INTER + INTRA:          -7.012
REMARK INTER:                  -6.910
REMARK INTRA:                  -0.102
REMARK UNBOUND:                -0.213
REMARK SMILES O=c1c(O)c(-c2ccc(O)c(O)c2)oc2cc(O)cc(O)c12
REMARK SMILES IDX 5 1 3 2 2 3 1 4 22 5 20 6 19 7 17 8 16 9 15 10 14 11 6 12
REMARK SMILES IDX 7 13 8 14 9 15 13 16 11 17 10 18 12 20 4 22 21 24 18 26
REMARK H PARENT 10 19 12 21 4 23 21 25 18 27
REMARK Flexibility Score: inf
ROOT
ATOM      1  C   UNL     1      69.070  46.822   7.767  1.00  0.00     0.180 A 
ATOM      2  C   UNL     1      69.612  45.587   7.375  1.00  0.00     0.208 A 
ATOM      3  C   UNL     1      71.007  45.435   7.338  1.00  0.00     0.238 A 
ATOM      4  O   UNL     1      71.484  44.305   7.058  1.00  0.00    -0.285 OA
ATOM      5  C   UNL     1      71.844  46.537   7.640  1.00  0.00     0.111 A 
ATOM      6  C   UNL     1      73.271  46.510   7.591  1.00  0.00     0.134 A 
ATOM      7  C   UNL     1      73.997  47.631   8.014  1.00  0.00     0.093 A 
ATOM      8  C   UNL     1      73.348  48.799   8.423  1.00  0.00     0.123 A 
ATOM      9  C   UNL     1      71.958  48.853   8.421  1.00  0.00     0.094 A 
ATOM     10  C   UNL     1      71.204  47.739   8.042  1.00  0.00     0.146 A 
ATOM     11  O   UNL     1      69.881  47.828   8.077  1.00  0.00    -0.452 OA
ENDROOT
BRANCH   1  12
ATOM     12  C   UNL     1      67.610  47.055   7.844  1.00  0.00     0.025 A 
ATOM     13  C   UNL     1      67.045  48.133   7.146  1.00  0.00     0.016 A 
ATOM     14  C   UNL     1      65.673  48.384   7.220  1.00  0.00     0.051 A 
ATOM     15  C   UNL     1      64.847  47.573   8.005  1.00  0.00     0.157 A 
ATOM     16  C   UNL     1      66.782  46.253   8.650  1.00  0.00     0.062 A 
ATOM     17  C   UNL     1      65.404  46.505   8.728  1.00  0.00     0.158 A 
BRANCH  15  18
ATOM     18  O   UNL     1      63.481  47.846   8.059  1.00  0.00    -0.504 OA
ATOM     19  H   UNL     1      63.110  48.635   8.575  1.00  0.00     0.293 HD
ENDBRANCH  15  18
BRANCH  17  20
ATOM     20  O   UNL     1      64.590  45.701   9.524  1.00  0.00    -0.504 OA
ATOM     21  H   UNL     1      64.873  45.412  10.453  1.00  0.00     0.293 HD
ENDBRANCH  17  20
ENDBRANCH   1  12
BRANCH   2  22
ATOM     22  O   UNL     1      68.769  44.535   7.007  1.00  0.00    -0.502 OA
ATOM     23  H   UNL     1      67.833  44.688   6.649  1.00  0.00     0.293 HD
ENDBRANCH   2  22
BRANCH   6  24
ATOM     24  O   UNL     1      74.019  45.428   7.116  1.00  0.00    -0.507 OA
ATOM     25  H   UNL     1      74.922  45.500   6.674  1.00  0.00     0.293 HD
ENDBRANCH   6  24
BRANCH   8  26
ATOM     26  O   UNL     1      74.079  49.914   8.826  1.00  0.00    -0.508 OA
ATOM     27  H   UNL     1      73.695  50.850   8.765  1.00  0.00     0.293 HD
ENDBRANCH   8  26
TORSDOF 6
ENDMDL
MODEL 7
REMARK VINA RESULT:    -5.640      2.318      7.350
REMARK INTER + INTRA:          -7.006
REMARK INTER:                  -6.747
REMARK INTRA:                  -0.259
REMARK UNBOUND:                -0.213
REMARK SMILES O=c1c(O)c(-c2ccc(O)c(O)c2)oc2cc(O)cc(O)c12
REMARK SMILES IDX 5 1 3 2 2 3 1 4 22 5 20 6 19 7 17 8 16 9 15 10 14 11 6 12
REMARK SMILES IDX 7 13 8 14 9 15 13 16 11 17 10 18 12 20 4 22 21 24 18 26
REMARK H PARENT 10 19 12 21 4 23 21 25 18 27
REMARK Flexibility Score: inf
ROOT
ATOM      1  C   UNL     1      69.831  47.483   7.561  1.00  0.00     0.180 A 
ATOM      2  C   UNL     1      70.128  46.167   7.955  1.00  0.00     0.208 A 
ATOM      3  C   UNL     1      71.348  45.597   7.561  1.00  0.00     0.238 A 
ATOM      4  O   UNL     1      71.640  44.447   7.979  1.00  0.00    -0.285 OA
ATOM      5  C   UNL     1      72.233  46.329   6.732  1.00  0.00     0.111 A 
ATOM      6  C   UNL     1      73.477  45.835   6.235  1.00  0.00     0.134 A 
ATOM      7  C   UNL     1      74.319  46.688   5.510  1.00  0.00     0.093 A 
ATOM      8  C   UNL     1      73.934  47.996   5.209  1.00  0.00     0.123 A 
ATOM      9  C   UNL     1      72.699  48.470   5.642  1.00  0.00     0.094 A 
ATOM     10  C   UNL     1      71.853  47.656   6.401  1.00  0.00     0.146 A 
ATOM     11  O   UNL     1      70.695  48.157   6.811  1.00  0.00    -0.452 OA
ENDROOT
BRANCH   1  12
ATOM     12  C   UNL     1      68.570  48.156   7.949  1.00  0.00     0.025 A 
ATOM     13  C   UNL     1      68.584  49.102   8.986  1.00  0.00     0.016 A 
ATOM     14  C   UNL     1      67.403  49.735   9.384  1.00  0.00     0.051 A 
ATOM     15  C   UNL     1      66.190  49.422   8.764  1.00  0.00     0.157 A 
ATOM     16  C   UNL     1      67.346  47.826   7.342  1.00  0.00     0.062 A 
ATOM     17  C   UNL     1      66.158  48.459   7.741  1.00  0.00     0.158 A 
BRANCH  15  18
ATOM     18  O   UNL     1      65.028  50.070   9.180  1.00  0.00    -0.504 OA
ATOM     19  H   UNL     1      64.151  49.578   9.299  1.00  0.00     0.293 HD
ENDBRANCH  15  18
BRANCH  17  20
ATOM     20  O   UNL     1      64.950  48.130   7.128  1.00  0.00    -0.504 OA
ATOM     21  H   UNL     1      64.313  47.457   7.536  1.00  0.00     0.293 HD
ENDBRANCH  17  20
ENDBRANCH   1  12
BRANCH   2  22
ATOM     22  O   UNL     1      69.207  45.434   8.709  1.00  0.00    -0.502 OA
ATOM     23  H   UNL     1      68.741  44.610   8.348  1.00  0.00     0.293 HD
ENDBRANCH   2  22
BRANCH   6  24
ATOM     24  O   UNL     1      73.920  44.519   6.401  1.00  0.00    -0.507 OA
ATOM     25  H   UNL     1      74.675  44.093   5.886  1.00  0.00     0.293 HD
ENDBRANCH   6  24
BRANCH   8  26
ATOM     26  O   UNL     1      74.771  48.832   4.473  1.00  0.00    -0.508 OA
ATOM     27  H   UNL     1      75.741  48.973   4.733  1.00  0.00     0.293 HD
ENDBRANCH   8  26
TORSDOF 6
ENDMDL
MODEL 8
REMARK VINA RESULT:    -5.616      2.620      7.601
REMARK INTER + INTRA:          -6.977
REMARK INTER:                  -6.659
REMARK INTRA:                  -0.318
REMARK UNBOUND:                -0.213
REMARK SMILES O=c1c(O)c(-c2ccc(O)c(O)c2)oc2cc(O)cc(O)c12
REMARK SMILES IDX 5 1 3 2 2 3 1 4 22 5 20 6 19 7 17 8 16 9 15 10 14 11 6 12
REMARK SMILES IDX 7 13 8 14 9 15 13 16 11 17 10 18 12 20 4 22 21 24 18 26
REMARK H PARENT 10 19 12 21 4 23 21 25 18 27
REMARK Flexibility Score: inf
ROOT
ATOM      1  C   UNL     1      69.494  46.520   7.881  1.00  0.00     0.180 A 
ATOM      2  C   UNL     1      69.721  45.213   7.416  1.00  0.00     0.208 A 
ATOM      3  C   UNL     1      71.040  44.787   7.197  1.00  0.00     0.238 A 
ATOM      4  O   UNL     1      71.239  43.594   6.852  1.00  0.00    -0.285 OA
ATOM      5  C   UNL     1      72.114  45.690   7.391  1.00  0.00     0.111 A 
ATOM      6  C   UNL     1      73.488  45.380   7.157  1.00  0.00     0.134 A 
ATOM      7  C   UNL     1      74.474  46.320   7.487  1.00  0.00     0.093 A 
ATOM      8  C   UNL     1      74.131  47.580   7.981  1.00  0.00     0.123 A 
ATOM      9  C   UNL     1      72.792  47.912   8.161  1.00  0.00     0.094 A 
ATOM     10  C   UNL     1      71.787  46.982   7.879  1.00  0.00     0.146 A 
ATOM     11  O   UNL     1      70.524  47.334   8.086  1.00  0.00    -0.452 OA
ENDROOT
BRANCH   1  12
ATOM     12  C   UNL     1      68.132  47.037   8.148  1.00  0.00     0.025 A 
ATOM     13  C   UNL     1      67.532  46.787   9.392  1.00  0.00     0.016 A 
ATOM     14  C   UNL     1      66.240  47.247   9.660  1.00  0.00     0.051 A 
ATOM     15  C   UNL     1      65.523  47.948   8.685  1.00  0.00     0.157 A 
ATOM     16  C   UNL     1      67.403  47.723   7.162  1.00  0.00     0.062 A 
ATOM     17  C   UNL     1      66.104  48.183   7.427  1.00  0.00     0.158 A 
BRANCH  15  18
ATOM     18  O   UNL     1      64.237  48.396   8.981  1.00  0.00    -0.504 OA
ATOM     19  H   UNL     1      63.984  49.376   8.934  1.00  0.00     0.293 HD
ENDBRANCH  15  18
BRANCH  17  20
ATOM     20  O   UNL     1      65.390  48.868   6.446  1.00  0.00    -0.504 OA
ATOM     21  H   UNL     1      65.748  49.715   6.022  1.00  0.00     0.293 HD
ENDBRANCH  17  20
ENDBRANCH   1  12
BRANCH   2  22
ATOM     22  O   UNL     1      68.642  44.363   7.157  1.00  0.00    -0.502 OA
ATOM     23  H   UNL     1      68.208  44.299   6.244  1.00  0.00     0.293 HD
ENDBRANCH   2  22
BRANCH   6  24
ATOM     24  O   UNL     1      73.935  44.185   6.584  1.00  0.00    -0.507 OA
ATOM     25  H   UNL     1      74.634  43.578   6.984  1.00  0.00     0.293 HD
ENDBRANCH   6  24
BRANCH   8  26
ATOM     26  O   UNL     1      75.118  48.514   8.290  1.00  0.00    -0.508 OA
ATOM     27  H   UNL     1      75.973  48.579   7.751  1.00  0.00     0.293 HD
ENDBRANCH   8  26
TORSDOF 6
ENDMDL
MODEL 9
REMARK VINA RESULT:    -5.560      3.762      6.893
REMARK INTER + INTRA:          -6.910
REMARK INTER:                  -6.607
REMARK INTRA:                  -0.303
REMARK UNBOUND:                -0.213
REMARK SMILES O=c1c(O)c(-c2ccc(O)c(O)c2)oc2cc(O)cc(O)c12
REMARK SMILES IDX 5 1 3 2 2 3 1 4 22 5 20 6 19 7 17 8 16 9 15 10 14 11 6 12
REMARK SMILES IDX 7 13 8 14 9 15 13 16 11 17 10 18 12 20 4 22 21 24 18 26
REMARK H PARENT 10 19 12 21 4 23 21 25 18 27
REMARK Flexibility Score: inf
ROOT
ATOM      1  C   UNL     1      70.039  45.256   7.844  1.00  0.00     0.180 A 
ATOM      2  C   UNL     1      69.238  46.350   7.476  1.00  0.00     0.208 A 
ATOM      3  C   UNL     1      69.708  47.650   7.718  1.00  0.00     0.238 A 
ATOM      4  O   UNL     1      69.020  48.624   7.318  1.00  0.00    -0.285 OA
ATOM      5  C   UNL     1      70.948  47.841   8.376  1.00  0.00     0.111 A 
ATOM      6  C   UNL     1      71.502  49.113   8.712  1.00  0.00     0.134 A 
ATOM      7  C   UNL     1      72.786  49.182   9.268  1.00  0.00     0.093 A 
ATOM      8  C   UNL     1      73.509  48.022   9.558  1.00  0.00     0.123 A 
ATOM      9  C   UNL     1      72.955  46.775   9.284  1.00  0.00     0.094 A 
ATOM     10  C   UNL     1      71.692  46.674   8.694  1.00  0.00     0.146 A 
ATOM     11  O   UNL     1      71.212  45.466   8.430  1.00  0.00    -0.452 OA
ENDROOT
BRANCH   1  12
ATOM     12  C   UNL     1      69.617  43.855   7.609  1.00  0.00     0.025 A 
ATOM     13  C   UNL     1      68.749  43.234   8.520  1.00  0.00     0.016 A 
ATOM     14  C   UNL     1      68.355  41.907   8.329  1.00  0.00     0.051 A 
ATOM     15  C   UNL     1      68.833  41.177   7.238  1.00  0.00     0.157 A 
ATOM     16  C   UNL     1      70.115  43.113   6.523  1.00  0.00     0.062 A 
ATOM     17  C   UNL     1      69.723  41.780   6.331  1.00  0.00     0.158 A 
BRANCH  15  18
ATOM     18  O   UNL     1      68.422  39.855   7.072  1.00  0.00    -0.504 OA
ATOM     19  H   UNL     1      67.514  39.618   6.690  1.00  0.00     0.293 HD
ENDBRANCH  15  18
BRANCH  17  20
ATOM     20  O   UNL     1      70.216  41.054   5.249  1.00  0.00    -0.504 OA
ATOM     21  H   UNL     1      71.207  40.880   5.133  1.00  0.00     0.293 HD
ENDBRANCH  17  20
ENDBRANCH   1  12
BRANCH   2  22
ATOM     22  O   UNL     1      67.983  46.139   6.897  1.00  0.00    -0.502 OA
ATOM     23  H   UNL     1      67.393  45.356   7.149  1.00  0.00     0.293 HD
ENDBRANCH   2  22
BRANCH   6  24
ATOM     24  O   UNL     1      70.830  50.328   8.548  1.00  0.00    -0.507 OA
ATOM     25  H   UNL     1      70.000  50.603   9.052  1.00  0.00     0.293 HD
ENDBRANCH   6  24
BRANCH   8  26
ATOM     26  O   UNL     1      74.779  48.100  10.125  1.00  0.00    -0.508 OA
ATOM     27  H   UNL     1      75.534  47.499   9.818  1.00  0.00     0.293 HD
ENDBRANCH   8  26
TORSDOF 6
ENDMDL
