MODEL 1
REMARK VINA RESULT:    -4.339      0.000      0.000
REMARK INTER + INTRA:          -3.962
REMARK INTER:                  -4.719
REMARK INTRA:                   0.757
REMARK UNBOUND:                 0.757
REMARK SMILES C[C@H]1[C@H](C)CC[C@]2(C(=O)[O-])CC[C@]3(C)C(=CC[C@@H]4[C@@]5(C)CC[C@H](O)C(C)(C)[C@H]5CC[C@@]43C)[C@@H]12
REMARK SMILES IDX 7 1 6 2 11 3 33 4 5 5 12 6 15 7 2 8 3 9 13 10 16 11 1 12
REMARK SMILES IDX 4 13 14 14 31 15 17 16 18 17 30 18 32 19 19 20 29 21 28 22
REMARK SMILES IDX 21 23 20 24 25 25 22 26 23 27 26 28 27 29 8 30 9 31 10 32
REMARK SMILES IDX 24 33
REMARK H PARENT 24 34
REMARK Flexibility Score: inf
ROOT
ATOM      1  C   UNL     1      20.716  18.346  -0.321  1.00  0.00     0.017 C 
ATOM      2  C   UNL     1      22.228  18.690  -0.495  1.00  0.00     0.014 C 
ATOM      3  C   UNL     1      19.889  19.398  -1.117  1.00  0.00     0.014 C 
ATOM      4  C   UNL     1      20.374  18.435   1.209  1.00  0.00     0.030 C 
ATOM      5  C   UNL     1      23.149  17.807   0.367  1.00  0.00     0.004 C 
ATOM      6  C   UNL     1      18.384  19.441  -0.758  1.00  0.00     0.013 C 
ATOM      7  C   UNL     1      18.854  18.492   1.482  1.00  0.00    -0.063 C 
ATOM      8  C   UNL     1      21.296  17.538   2.121  1.00  0.00    -0.003 C 
ATOM      9  C   UNL     1      22.803  17.862   1.872  1.00  0.00    -0.011 C 
ATOM     10  C   UNL     1      18.056  19.608   0.766  1.00  0.00    -0.006 C 
ATOM     11  C   UNL     1      18.257  17.560   2.257  1.00  0.00    -0.027 C 
ATOM     12  C   UNL     1      21.068  16.004   2.032  1.00  0.00     0.008 C 
ATOM     13  C   UNL     1      23.246  19.194   2.513  1.00  0.00     0.008 C 
ATOM     14  C   UNL     1      18.655  21.004   1.175  1.00  0.00     0.017 C 
ATOM     15  C   UNL     1      16.453  19.595   1.128  1.00  0.00    -0.020 C 
ATOM     16  C   UNL     1      16.792  17.464   2.540  1.00  0.00     0.032 C 
ATOM     17  C   UNL     1      15.865  18.181   1.528  1.00  0.00     0.006 C 
ATOM     18  C   UNL     1      15.562  20.232   0.016  1.00  0.00     0.008 C 
ATOM     19  C   UNL     1      16.204  20.509   2.396  1.00  0.00     0.012 C 
ATOM     20  C   UNL     1      15.123  17.251   0.451  1.00  0.00    -0.025 C 
ATOM     21  C   UNL     1      15.135  19.300  -1.124  1.00  0.00     0.005 C 
ATOM     22  C   UNL     1      14.316  18.072  -0.654  1.00  0.00     0.003 C 
ATOM     23  C   UNL     1      14.127  16.301   1.190  1.00  0.00     0.010 C 
ATOM     24  C   UNL     1      16.129  16.306  -0.266  1.00  0.00     0.012 C 
ATOM     25  C   UNL     1      12.753  18.319  -0.377  1.00  0.00    -0.006 C 
ATOM     26  C   UNL     1      12.914  16.999   1.841  1.00  0.00     0.033 C 
ATOM     27  C   UNL     1      12.466  18.310   1.152  1.00  0.00     0.120 C 
ATOM     28  C   UNL     1      11.904  17.217  -1.071  1.00  0.00     0.014 C 
ATOM     29  C   UNL     1      12.221  19.655  -0.968  1.00  0.00     0.014 C 
ENDROOT
BRANCH   1  30
ATOM     30  C   UNL     1      20.408  16.979  -0.926  1.00  0.00     0.048 C 
ATOM     31  O   UNL     1      19.215  16.616  -1.125  1.00  0.00    -0.550 OA
ATOM     32  O   UNL     1      21.422  16.052  -1.125  1.00  0.00    -0.550 OA
ENDBRANCH   1  30
BRANCH  27  33
ATOM     33  O   UNL     1      11.093  18.517   1.397  1.00  0.00    -0.393 OA
ATOM     34  H   UNL     1      10.768  17.729   1.910  1.00  0.00     0.210 HD
ENDBRANCH  27  33
TORSDOF 2
ENDMDL
MODEL 2
REMARK VINA RESULT:    -1.500      1.773      7.576
REMARK INTER + INTRA:          -0.874
REMARK INTER:                  -1.662
REMARK INTRA:                   0.788
REMARK UNBOUND:                 0.757
REMARK SMILES C[C@H]1[C@H](C)CC[C@]2(C(=O)[O-])CC[C@]3(C)C(=CC[C@@H]4[C@@]5(C)CC[C@H](O)C(C)(C)[C@H]5CC[C@@]43C)[C@@H]12
REMARK SMILES IDX 7 1 6 2 11 3 33 4 5 5 12 6 15 7 2 8 3 9 13 10 16 11 1 12
REMARK SMILES IDX 4 13 14 14 31 15 17 16 18 17 30 18 32 19 19 20 29 21 28 22
REMARK SMILES IDX 21 23 20 24 25 25 22 26 23 27 26 28 27 29 8 30 9 31 10 32
REMARK SMILES IDX 24 33
REMARK H PARENT 24 34
REMARK Flexibility Score: inf
ROOT
ATOM      1  C   UNL     1      15.510  18.742   1.755  1.00  0.00     0.017 C 
ATOM      2  C   UNL     1      14.064  19.298   1.936  1.00  0.00     0.014 C 
ATOM      3  C   UNL     1      16.491  19.703   2.490  1.00  0.00     0.014 C 
ATOM      4  C   UNL     1      15.829  18.719   0.218  1.00  0.00     0.030 C 
ATOM      5  C   UNL     1      13.012  18.515   1.130  1.00  0.00     0.004 C 
ATOM      6  C   UNL     1      17.979  19.523   2.106  1.00  0.00     0.013 C 
ATOM      7  C   UNL     1      17.336  18.554  -0.081  1.00  0.00    -0.063 C 
ATOM      8  C   UNL     1      14.773  17.920  -0.640  1.00  0.00    -0.003 C 
ATOM      9  C   UNL     1      13.331  18.458  -0.381  1.00  0.00    -0.011 C 
ATOM     10  C   UNL     1      18.295  19.579   0.571  1.00  0.00    -0.006 C 
ATOM     11  C   UNL     1      17.783  17.518  -0.823  1.00  0.00    -0.027 C 
ATOM     12  C   UNL     1      14.791  16.374  -0.486  1.00  0.00     0.008 C 
ATOM     13  C   UNL     1      13.060  19.811  -1.075  1.00  0.00     0.008 C 
ATOM     14  C   UNL     1      17.884  21.025   0.110  1.00  0.00     0.017 C 
ATOM     15  C   UNL     1      19.873  19.330   0.186  1.00  0.00    -0.020 C 
ATOM     16  C   UNL     1      19.214  17.208  -1.124  1.00  0.00     0.032 C 
ATOM     17  C   UNL     1      20.253  17.833  -0.160  1.00  0.00     0.006 C 
ATOM     18  C   UNL     1      20.866  19.884   1.255  1.00  0.00     0.008 C 
ATOM     19  C   UNL     1      20.217  20.146  -1.125  1.00  0.00     0.012 C 
ATOM     20  C   UNL     1      20.883  16.856   0.946  1.00  0.00    -0.025 C 
ATOM     21  C   UNL     1      21.186  18.952   2.429  1.00  0.00     0.005 C 
ATOM     22  C   UNL     1      21.818  17.603   2.001  1.00  0.00     0.003 C 
ATOM     23  C   UNL     1      21.724  15.747   0.236  1.00  0.00     0.010 C 
ATOM     24  C   UNL     1      19.773  16.090   1.721  1.00  0.00     0.012 C 
ATOM     25  C   UNL     1      23.394  17.621   1.689  1.00  0.00    -0.006 C 
ATOM     26  C   UNL     1      23.007  16.244  -0.465  1.00  0.00     0.033 C 
ATOM     27  C   UNL     1      23.645  17.508   0.158  1.00  0.00     0.120 C 
ATOM     28  C   UNL     1      24.099  16.442   2.418  1.00  0.00     0.014 C 
ATOM     29  C   UNL     1      24.117  18.894   2.211  1.00  0.00     0.014 C 
ENDROOT
BRANCH   1  30
ATOM     30  C   UNL     1      15.641  17.373   2.415  1.00  0.00     0.048 C 
ATOM     31  O   UNL     1      14.626  16.642   2.591  1.00  0.00    -0.550 OA
ATOM     32  O   UNL     1      16.847  16.971   2.972  1.00  0.00    -0.550 OA
ENDBRANCH   1  30
BRANCH  27  33
ATOM     33  O   UNL     1      25.028  17.513  -0.117  1.00  0.00    -0.393 OA
ATOM     34  H   UNL     1      25.158  18.062  -0.936  1.00  0.00     0.210 HD
ENDBRANCH  27  33
TORSDOF 2
ENDMDL
