MODEL 1
REMARK VINA RESULT:    -6.421      0.000      0.000
REMARK INTER + INTRA:          -8.035
REMARK INTER:                  -7.734
REMARK INTRA:                  -0.301
REMARK UNBOUND:                -0.301
REMARK SMILES O=c1c(O)c(-c2ccc(O)c(O)c2)oc2cc(O)cc(O)c12
REMARK SMILES IDX 5 1 3 2 2 3 1 4 22 5 20 6 19 7 17 8 16 9 15 10 14 11 6 12
REMARK SMILES IDX 7 13 8 14 9 15 13 16 11 17 10 18 12 20 4 22 21 24 18 26
REMARK H PARENT 10 19 12 21 4 23 21 25 18 27
REMARK Flexibility Score: inf
ROOT
ATOM      1  C   UNL     1      -1.970 -16.909  12.122  1.00  0.00     0.180 A 
ATOM      2  C   UNL     1      -2.795 -17.841  11.465  1.00  0.00     0.208 A 
ATOM      3  C   UNL     1      -3.458 -17.452  10.291  1.00  0.00     0.238 A 
ATOM      4  O   UNL     1      -4.192 -18.281   9.688  1.00  0.00    -0.285 OA
ATOM      5  C   UNL     1      -3.302 -16.136   9.806  1.00  0.00     0.111 A 
ATOM      6  C   UNL     1      -3.937 -15.663   8.631  1.00  0.00     0.134 A 
ATOM      7  C   UNL     1      -3.739 -14.338   8.219  1.00  0.00     0.093 A 
ATOM      8  C   UNL     1      -2.918 -13.478   8.958  1.00  0.00     0.123 A 
ATOM      9  C   UNL     1      -2.288 -13.939  10.115  1.00  0.00     0.094 A 
ATOM     10  C   UNL     1      -2.473 -15.258  10.541  1.00  0.00     0.146 A 
ATOM     11  O   UNL     1      -1.858 -15.672  11.643  1.00  0.00    -0.452 OA
ENDROOT
BRANCH   1  12
ATOM     12  C   UNL     1      -1.223 -17.249  13.354  1.00  0.00     0.025 A 
ATOM     13  C   UNL     1      -1.723 -16.924  14.627  1.00  0.00     0.016 A 
ATOM     14  C   UNL     1      -1.011 -17.277  15.776  1.00  0.00     0.051 A 
ATOM     15  C   UNL     1       0.202 -17.970  15.674  1.00  0.00     0.157 A 
ATOM     16  C   UNL     1      -0.017 -17.963  13.257  1.00  0.00     0.062 A 
ATOM     17  C   UNL     1       0.699 -18.317  14.406  1.00  0.00     0.158 A 
BRANCH  15  18
ATOM     18  O   UNL     1       0.910 -18.318  16.823  1.00  0.00    -0.504 OA
ATOM     19  H   UNL     1       0.501 -18.230  17.746  1.00  0.00     0.293 HD
ENDBRANCH  15  18
BRANCH  17  20
ATOM     20  O   UNL     1       1.900 -19.013  14.269  1.00  0.00    -0.504 OA
ATOM     21  H   UNL     1       2.551 -18.817  13.518  1.00  0.00     0.293 HD
ENDBRANCH  17  20
ENDBRANCH   1  12
BRANCH   2  22
ATOM     22  O   UNL     1      -2.972 -19.123  11.993  1.00  0.00    -0.502 OA
ATOM     23  H   UNL     1      -3.604 -19.798  11.579  1.00  0.00     0.293 HD
ENDBRANCH   2  22
BRANCH   6  24
ATOM     24  O   UNL     1      -4.762 -16.498   7.876  1.00  0.00    -0.507 OA
ATOM     25  H   UNL     1      -4.763 -16.470   6.863  1.00  0.00     0.293 HD
ENDBRANCH   6  24
BRANCH   8  26
ATOM     26  O   UNL     1      -2.720 -12.160   8.549  1.00  0.00    -0.508 OA
ATOM     27  H   UNL     1      -3.501 -11.544   8.352  1.00  0.00     0.293 HD
ENDBRANCH   8  26
TORSDOF 6
ENDMDL
MODEL 2
REMARK VINA RESULT:    -5.199      1.445      3.142
REMARK INTER + INTRA:          -6.563
REMARK INTER:                  -6.370
REMARK INTRA:                  -0.193
REMARK UNBOUND:                -0.301
REMARK SMILES O=c1c(O)c(-c2ccc(O)c(O)c2)oc2cc(O)cc(O)c12
REMARK SMILES IDX 5 1 3 2 2 3 1 4 22 5 20 6 19 7 17 8 16 9 15 10 14 11 6 12
REMARK SMILES IDX 7 13 8 14 9 15 13 16 11 17 10 18 12 20 4 22 21 24 18 26
REMARK H PARENT 10 19 12 21 4 23 21 25 18 27
REMARK Flexibility Score: inf
ROOT
ATOM      1  C   UNL     1      -2.519 -15.663  11.396  1.00  0.00     0.180 A 
ATOM      2  C   UNL     1      -2.302 -14.319  11.036  1.00  0.00     0.208 A 
ATOM      3  C   UNL     1      -2.870 -13.833   9.849  1.00  0.00     0.238 A 
ATOM      4  O   UNL     1      -2.691 -12.629   9.522  1.00  0.00    -0.285 OA
ATOM      5  C   UNL     1      -3.626 -14.701   9.032  1.00  0.00     0.111 A 
ATOM      6  C   UNL     1      -4.229 -14.292   7.818  1.00  0.00     0.134 A 
ATOM      7  C   UNL     1      -4.958 -15.217   7.057  1.00  0.00     0.093 A 
ATOM      8  C   UNL     1      -5.095 -16.542   7.487  1.00  0.00     0.123 A 
ATOM      9  C   UNL     1      -4.503 -16.950   8.684  1.00  0.00     0.094 A 
ATOM     10  C   UNL     1      -3.774 -16.042   9.457  1.00  0.00     0.146 A 
ATOM     11  O   UNL     1      -3.226 -16.455  10.593  1.00  0.00    -0.452 OA
ENDROOT
BRANCH   1  12
ATOM     12  C   UNL     1      -1.970 -16.243  12.642  1.00  0.00     0.025 A 
ATOM     13  C   UNL     1      -2.386 -15.790  13.906  1.00  0.00     0.016 A 
ATOM     14  C   UNL     1      -1.871 -16.370  15.068  1.00  0.00     0.051 A 
ATOM     15  C   UNL     1      -0.945 -17.418  14.987  1.00  0.00     0.157 A 
ATOM     16  C   UNL     1      -1.058 -17.308  12.565  1.00  0.00     0.062 A 
ATOM     17  C   UNL     1      -0.539 -17.890  13.727  1.00  0.00     0.158 A 
BRANCH  15  18
ATOM     18  O   UNL     1      -0.432 -17.992  16.148  1.00  0.00    -0.504 OA
ATOM     19  H   UNL     1       0.365 -18.617  16.125  1.00  0.00     0.293 HD
ENDBRANCH  15  18
BRANCH  17  20
ATOM     20  O   UNL     1       0.376 -18.937  13.611  1.00  0.00    -0.504 OA
ATOM     21  H   UNL     1       1.202 -18.996  14.193  1.00  0.00     0.293 HD
ENDBRANCH  17  20
ENDBRANCH   1  12
BRANCH   2  22
ATOM     22  O   UNL     1      -1.509 -13.493  11.838  1.00  0.00    -0.502 OA
ATOM     23  H   UNL     1      -1.025 -12.683  11.470  1.00  0.00     0.293 HD
ENDBRANCH   2  22
BRANCH   6  24
ATOM     24  O   UNL     1      -4.109 -12.978   7.363  1.00  0.00    -0.507 OA
ATOM     25  H   UNL     1      -4.164 -12.188   7.996  1.00  0.00     0.293 HD
ENDBRANCH   6  24
BRANCH   8  26
ATOM     26  O   UNL     1      -5.819 -17.462   6.731  1.00  0.00    -0.508 OA
ATOM     27  H   UNL     1      -5.362 -18.085   6.075  1.00  0.00     0.293 HD
ENDBRANCH   8  26
TORSDOF 6
ENDMDL
MODEL 3
REMARK VINA RESULT:    -4.773      1.511      3.352
REMARK INTER + INTRA:          -6.050
REMARK INTER:                  -6.217
REMARK INTRA:                   0.167
REMARK UNBOUND:                -0.301
REMARK SMILES O=c1c(O)c(-c2ccc(O)c(O)c2)oc2cc(O)cc(O)c12
REMARK SMILES IDX 5 1 3 2 2 3 1 4 22 5 20 6 19 7 17 8 16 9 15 10 14 11 6 12
REMARK SMILES IDX 7 13 8 14 9 15 13 16 11 17 10 18 12 20 4 22 21 24 18 26
REMARK H PARENT 10 19 12 21 4 23 21 25 18 27
REMARK Flexibility Score: inf
ROOT
ATOM      1  C   UNL     1      -2.414 -15.832  11.543  1.00  0.00     0.180 A 
ATOM      2  C   UNL     1      -2.194 -14.474  11.241  1.00  0.00     0.208 A 
ATOM      3  C   UNL     1      -2.766 -13.936  10.079  1.00  0.00     0.238 A 
ATOM      4  O   UNL     1      -2.585 -12.719   9.804  1.00  0.00    -0.285 OA
ATOM      5  C   UNL     1      -3.529 -14.765   9.229  1.00  0.00     0.111 A 
ATOM      6  C   UNL     1      -4.137 -14.302   8.037  1.00  0.00     0.134 A 
ATOM      7  C   UNL     1      -4.872 -15.192   7.241  1.00  0.00     0.093 A 
ATOM      8  C   UNL     1      -5.011 -16.533   7.613  1.00  0.00     0.123 A 
ATOM      9  C   UNL     1      -4.415 -16.994   8.788  1.00  0.00     0.094 A 
ATOM     10  C   UNL     1      -3.679 -16.122   9.596  1.00  0.00     0.146 A 
ATOM     11  O   UNL     1      -3.126 -16.587  10.711  1.00  0.00    -0.452 OA
ENDROOT
BRANCH   1  12
ATOM     12  C   UNL     1      -1.860 -16.467  12.761  1.00  0.00     0.025 A 
ATOM     13  C   UNL     1      -1.286 -17.750  12.720  1.00  0.00     0.016 A 
ATOM     14  C   UNL     1      -0.748 -18.320  13.877  1.00  0.00     0.051 A 
ATOM     15  C   UNL     1      -0.763 -17.614  15.087  1.00  0.00     0.157 A 
ATOM     16  C   UNL     1      -1.854 -15.755  13.971  1.00  0.00     0.062 A 
ATOM     17  C   UNL     1      -1.317 -16.323  15.132  1.00  0.00     0.158 A 
BRANCH  15  18
ATOM     18  O   UNL     1      -0.228 -18.186  16.239  1.00  0.00    -0.504 OA
ATOM     19  H   UNL     1      -0.339 -17.753  17.149  1.00  0.00     0.293 HD
ENDBRANCH  15  18
BRANCH  17  20
ATOM     20  O   UNL     1      -1.342 -15.591  16.318  1.00  0.00    -0.504 OA
ATOM     21  H   UNL     1      -0.580 -14.980  16.589  1.00  0.00     0.293 HD
ENDBRANCH  17  20
ENDBRANCH   1  12
BRANCH   2  22
ATOM     22  O   UNL     1      -1.394 -13.686  12.074  1.00  0.00    -0.502 OA
ATOM     23  H   UNL     1      -1.095 -12.754  11.815  1.00  0.00     0.293 HD
ENDBRANCH   2  22
BRANCH   6  24
ATOM     24  O   UNL     1      -4.015 -12.970   7.640  1.00  0.00    -0.507 OA
ATOM     25  H   UNL     1      -4.827 -12.387   7.470  1.00  0.00     0.293 HD
ENDBRANCH   6  24
BRANCH   8  26
ATOM     26  O   UNL     1      -5.741 -17.418   6.822  1.00  0.00    -0.508 OA
ATOM     27  H   UNL     1      -6.722 -17.601   7.000  1.00  0.00     0.293 HD
ENDBRANCH   8  26
TORSDOF 6
ENDMDL
MODEL 4
REMARK VINA RESULT:    -3.985      1.875      2.462
REMARK INTER + INTRA:          -5.101
REMARK INTER:                  -5.596
REMARK INTRA:                   0.495
REMARK UNBOUND:                -0.301
REMARK SMILES O=c1c(O)c(-c2ccc(O)c(O)c2)oc2cc(O)cc(O)c12
REMARK SMILES IDX 5 1 3 2 2 3 1 4 22 5 20 6 19 7 17 8 16 9 15 10 14 11 6 12
REMARK SMILES IDX 7 13 8 14 9 15 13 16 11 17 10 18 12 20 4 22 21 24 18 26
REMARK H PARENT 10 19 12 21 4 23 21 25 18 27
REMARK Flexibility Score: inf
ROOT
ATOM      1  C   UNL     1      -2.931 -16.219  10.463  1.00  0.00     0.180 A 
ATOM      2  C   UNL     1      -2.878 -17.384   9.675  1.00  0.00     0.208 A 
ATOM      3  C   UNL     1      -3.324 -17.326   8.346  1.00  0.00     0.238 A 
ATOM      4  O   UNL     1      -3.272 -18.360   7.627  1.00  0.00    -0.285 OA
ATOM      5  C   UNL     1      -3.832 -16.113   7.834  1.00  0.00     0.111 A 
ATOM      6  C   UNL     1      -4.304 -15.970   6.506  1.00  0.00     0.134 A 
ATOM      7  C   UNL     1      -4.804 -14.733   6.076  1.00  0.00     0.093 A 
ATOM      8  C   UNL     1      -4.839 -13.637   6.946  1.00  0.00     0.123 A 
ATOM      9  C   UNL     1      -4.374 -13.772   8.254  1.00  0.00     0.094 A 
ATOM     10  C   UNL     1      -3.871 -14.998   8.702  1.00  0.00     0.146 A 
ATOM     11  O   UNL     1      -3.430 -15.097   9.951  1.00  0.00    -0.452 OA
ENDROOT
BRANCH   1  12
ATOM     12  C   UNL     1      -2.462 -16.196  11.867  1.00  0.00     0.025 A 
ATOM     13  C   UNL     1      -2.801 -15.143  12.735  1.00  0.00     0.016 A 
ATOM     14  C   UNL     1      -2.366 -15.156  14.063  1.00  0.00     0.051 A 
ATOM     15  C   UNL     1      -1.598 -16.223  14.547  1.00  0.00     0.157 A 
ATOM     16  C   UNL     1      -1.710 -17.273  12.363  1.00  0.00     0.062 A 
ATOM     17  C   UNL     1      -1.272 -17.288  13.692  1.00  0.00     0.158 A 
BRANCH  15  18
ATOM     18  O   UNL     1      -1.165 -16.230  15.872  1.00  0.00    -0.504 OA
ATOM     19  H   UNL     1      -0.179 -16.243  16.108  1.00  0.00     0.293 HD
ENDBRANCH  15  18
BRANCH  17  20
ATOM     20  O   UNL     1      -0.515 -18.370  14.144  1.00  0.00    -0.504 OA
ATOM     21  H   UNL     1       0.489 -18.411  14.021  1.00  0.00     0.293 HD
ENDBRANCH  17  20
ENDBRANCH   1  12
BRANCH   2  22
ATOM     22  O   UNL     1      -2.416 -18.586  10.220  1.00  0.00    -0.502 OA
ATOM     23  H   UNL     1      -2.697 -19.489   9.859  1.00  0.00     0.293 HD
ENDBRANCH   2  22
BRANCH   6  24
ATOM     24  O   UNL     1      -4.282 -17.045   5.617  1.00  0.00    -0.507 OA
ATOM     25  H   UNL     1      -3.779 -17.900   5.826  1.00  0.00     0.293 HD
ENDBRANCH   6  24
BRANCH   8  26
ATOM     26  O   UNL     1      -5.336 -12.407   6.518  1.00  0.00    -0.508 OA
ATOM     27  H   UNL     1      -5.768 -11.757   7.164  1.00  0.00     0.293 HD
ENDBRANCH   8  26
TORSDOF 6
ENDMDL
MODEL 5
REMARK VINA RESULT:    -3.810      1.667      6.947
REMARK INTER + INTRA:          -4.890
REMARK INTER:                  -4.581
REMARK INTRA:                  -0.309
REMARK UNBOUND:                -0.301
REMARK SMILES O=c1c(O)c(-c2ccc(O)c(O)c2)oc2cc(O)cc(O)c12
REMARK SMILES IDX 5 1 3 2 2 3 1 4 22 5 20 6 19 7 17 8 16 9 15 10 14 11 6 12
REMARK SMILES IDX 7 13 8 14 9 15 13 16 11 17 10 18 12 20 4 22 21 24 18 26
REMARK H PARENT 10 19 12 21 4 23 21 25 18 27
REMARK Flexibility Score: inf
ROOT
ATOM      1  C   UNL     1      -2.444 -16.895  11.553  1.00  0.00     0.180 A 
ATOM      2  C   UNL     1      -3.211 -16.347  12.599  1.00  0.00     0.208 A 
ATOM      3  C   UNL     1      -2.732 -16.443  13.915  1.00  0.00     0.238 A 
ATOM      4  O   UNL     1      -3.405 -15.947  14.858  1.00  0.00    -0.285 OA
ATOM      5  C   UNL     1      -1.509 -17.100  14.165  1.00  0.00     0.111 A 
ATOM      6  C   UNL     1      -0.958 -17.243  15.462  1.00  0.00     0.134 A 
ATOM      7  C   UNL     1       0.260 -17.919  15.629  1.00  0.00     0.093 A 
ATOM      8  C   UNL     1       0.935 -18.453  14.526  1.00  0.00     0.123 A 
ATOM      9  C   UNL     1       0.397 -18.314  13.246  1.00  0.00     0.094 A 
ATOM     10  C   UNL     1      -0.815 -17.643  13.058  1.00  0.00     0.146 A 
ATOM     11  O   UNL     1      -1.302 -17.520  11.829  1.00  0.00    -0.452 OA
ENDROOT
BRANCH   1  12
ATOM     12  C   UNL     1      -2.872 -16.817  10.138  1.00  0.00     0.025 A 
ATOM     13  C   UNL     1      -3.795 -17.732   9.601  1.00  0.00     0.016 A 
ATOM     14  C   UNL     1      -4.202 -17.623   8.269  1.00  0.00     0.051 A 
ATOM     15  C   UNL     1      -3.706 -16.595   7.458  1.00  0.00     0.157 A 
ATOM     16  C   UNL     1      -2.394 -15.775   9.327  1.00  0.00     0.062 A 
ATOM     17  C   UNL     1      -2.799 -15.664   7.992  1.00  0.00     0.158 A 
BRANCH  15  18
ATOM     18  O   UNL     1      -4.113 -16.492   6.129  1.00  0.00    -0.504 OA
ATOM     19  H   UNL     1      -4.809 -15.815   5.837  1.00  0.00     0.293 HD
ENDBRANCH  15  18
BRANCH  17  20
ATOM     20  O   UNL     1      -2.291 -14.624   7.214  1.00  0.00    -0.504 OA
ATOM     21  H   UNL     1      -1.317 -14.585   6.939  1.00  0.00     0.293 HD
ENDBRANCH  17  20
ENDBRANCH   1  12
BRANCH   2  22
ATOM     22  O   UNL     1      -4.443 -15.744  12.330  1.00  0.00    -0.502 OA
ATOM     23  H   UNL     1      -4.757 -15.548  11.388  1.00  0.00     0.293 HD
ENDBRANCH   2  22
BRANCH   6  24
ATOM     24  O   UNL     1      -1.609 -16.721  16.580  1.00  0.00    -0.507 OA
ATOM     25  H   UNL     1      -1.190 -16.750  17.502  1.00  0.00     0.293 HD
ENDBRANCH   6  24
BRANCH   8  26
ATOM     26  O   UNL     1       2.145 -19.125  14.691  1.00  0.00    -0.508 OA
ATOM     27  H   UNL     1       2.958 -18.899  14.129  1.00  0.00     0.293 HD
ENDBRANCH   8  26
TORSDOF 6
ENDMDL
MODEL 6
REMARK VINA RESULT:    -3.787      2.151      2.730
REMARK INTER + INTRA:          -4.863
REMARK INTER:                  -5.269
REMARK INTRA:                   0.406
REMARK UNBOUND:                -0.301
REMARK SMILES O=c1c(O)c(-c2ccc(O)c(O)c2)oc2cc(O)cc(O)c12
REMARK SMILES IDX 5 1 3 2 2 3 1 4 22 5 20 6 19 7 17 8 16 9 15 10 14 11 6 12
REMARK SMILES IDX 7 13 8 14 9 15 13 16 11 17 10 18 12 20 4 22 21 24 18 26
REMARK H PARENT 10 19 12 21 4 23 21 25 18 27
REMARK Flexibility Score: inf
ROOT
ATOM      1  C   UNL     1      -2.294 -17.265  12.603  1.00  0.00     0.180 A 
ATOM      2  C   UNL     1      -3.435 -16.474  12.833  1.00  0.00     0.208 A 
ATOM      3  C   UNL     1      -4.374 -16.320  11.802  1.00  0.00     0.238 A 
ATOM      4  O   UNL     1      -5.406 -15.623  12.000  1.00  0.00    -0.285 OA
ATOM      5  C   UNL     1      -4.148 -16.940  10.555  1.00  0.00     0.111 A 
ATOM      6  C   UNL     1      -5.043 -16.833   9.463  1.00  0.00     0.134 A 
ATOM      7  C   UNL     1      -4.741 -17.472   8.251  1.00  0.00     0.093 A 
ATOM      8  C   UNL     1      -3.564 -18.216   8.112  1.00  0.00     0.123 A 
ATOM      9  C   UNL     1      -2.680 -18.326   9.187  1.00  0.00     0.094 A 
ATOM     10  C   UNL     1      -2.963 -17.697  10.402  1.00  0.00     0.146 A 
ATOM     11  O   UNL     1      -2.106 -17.823  11.409  1.00  0.00    -0.452 OA
ENDROOT
BRANCH   1  12
ATOM     12  C   UNL     1      -1.268 -17.491  13.647  1.00  0.00     0.025 A 
ATOM     13  C   UNL     1      -1.510 -17.165  14.993  1.00  0.00     0.016 A 
ATOM     14  C   UNL     1      -0.536 -17.409  15.964  1.00  0.00     0.051 A 
ATOM     15  C   UNL     1       0.687 -17.994  15.609  1.00  0.00     0.157 A 
ATOM     16  C   UNL     1      -0.050 -18.096  13.300  1.00  0.00     0.062 A 
ATOM     17  C   UNL     1       0.929 -18.341  14.270  1.00  0.00     0.158 A 
BRANCH  15  18
ATOM     18  O   UNL     1       1.657 -18.233  16.581  1.00  0.00    -0.504 OA
ATOM     19  H   UNL     1       2.179 -19.102  16.608  1.00  0.00     0.293 HD
ENDBRANCH  15  18
BRANCH  17  20
ATOM     20  O   UNL     1       2.133 -18.931  13.884  1.00  0.00    -0.504 OA
ATOM     21  H   UNL     1       3.017 -18.673  14.305  1.00  0.00     0.293 HD
ENDBRANCH  17  20
ENDBRANCH   1  12
BRANCH   2  22
ATOM     22  O   UNL     1      -3.613 -15.830  14.061  1.00  0.00    -0.502 OA
ATOM     23  H   UNL     1      -3.857 -16.332  14.907  1.00  0.00     0.293 HD
ENDBRANCH   2  22
BRANCH   6  24
ATOM     24  O   UNL     1      -6.223 -16.097   9.572  1.00  0.00    -0.507 OA
ATOM     25  H   UNL     1      -6.255 -15.210  10.062  1.00  0.00     0.293 HD
ENDBRANCH   6  24
BRANCH   8  26
ATOM     26  O   UNL     1      -3.264 -18.851   6.909  1.00  0.00    -0.508 OA
ATOM     27  H   UNL     1      -3.946 -19.427   6.429  1.00  0.00     0.293 HD
ENDBRANCH   8  26
TORSDOF 6
ENDMDL
