MODEL 1
REMARK VINA RESULT:    -3.844      0.000      0.000
REMARK INTER + INTRA:          -9.803
REMARK INTER:                  -7.214
REMARK INTRA:                  -2.589
REMARK UNBOUND:                -2.589
REMARK SMILES CCCCCCCCC=CCCCCCCCC(=O)[O-]
REMARK SMILES IDX 10 1 9 2 11 3 12 4 13 5 14 6 15 7 16 8 17 9 18 10 19 11
REMARK SMILES IDX 20 12 8 13 7 14 6 15 5 16 4 17 3 18 2 19 1 20
REMARK H PARENT
REMARK Flexibility Score: inf
ROOT
ATOM      1  C   UNL     1      44.254  41.899  48.202  1.00  0.00    -0.031 C 
ATOM      2  C   UNL     1      45.271  42.103  49.063  1.00  0.00    -0.031 C 
ENDROOT
BRANCH   1   3
ATOM      3  C   UNL     1      44.071  40.673  47.337  1.00  0.00     0.027 C 
BRANCH   3   4
ATOM      4  C   UNL     1      42.955  39.758  47.873  1.00  0.00     0.004 C 
BRANCH   4   5
ATOM      5  C   UNL     1      43.391  38.304  48.134  1.00  0.00     0.000 C 
BRANCH   5   6
ATOM      6  C   UNL     1      44.878  38.066  47.831  1.00  0.00     0.000 C 
BRANCH   6   7
ATOM      7  C   UNL     1      45.192  36.563  47.776  1.00  0.00     0.000 C 
BRANCH   7   8
ATOM      8  C   UNL     1      46.633  36.273  47.325  1.00  0.00     0.006 C 
BRANCH   8   9
ATOM      9  C   UNL     1      47.071  37.144  46.142  1.00  0.00     0.053 C 
BRANCH   9  10
ATOM     10  C   UNL     1      47.121  36.331  44.887  1.00  0.00     0.041 C 
ATOM     11  O   UNL     1      47.581  36.830  43.827  1.00  0.00    -0.550 OA
ATOM     12  O   UNL     1      46.617  35.036  44.877  1.00  0.00    -0.550 OA
ENDBRANCH   9  10
ENDBRANCH   8   9
ENDBRANCH   7   8
ENDBRANCH   6   7
ENDBRANCH   5   6
ENDBRANCH   4   5
ENDBRANCH   3   4
ENDBRANCH   1   3
BRANCH   2  13
ATOM     13  C   UNL     1      46.387  41.129  49.344  1.00  0.00     0.027 C 
BRANCH  13  14
ATOM     14  C   UNL     1      46.395  40.688  50.815  1.00  0.00     0.004 C 
BRANCH  14  15
ATOM     15  C   UNL     1      45.389  41.476  51.670  1.00  0.00     0.000 C 
BRANCH  15  16
ATOM     16  C   UNL     1      44.432  40.557  52.450  1.00  0.00     0.000 C 
BRANCH  16  17
ATOM     17  C   UNL     1      43.194  40.163  51.628  1.00  0.00    -0.000 C 
BRANCH  17  18
ATOM     18  C   UNL     1      42.877  38.661  51.726  1.00  0.00    -0.000 C 
BRANCH  18  19
ATOM     19  C   UNL     1      44.007  37.866  52.398  1.00  0.00    -0.003 C 
ATOM     20  C   UNL     1      44.830  37.054  51.398  1.00  0.00     0.004 C 
ENDBRANCH  18  19
ENDBRANCH  17  18
ENDBRANCH  16  17
ENDBRANCH  15  16
ENDBRANCH  14  15
ENDBRANCH  13  14
ENDBRANCH   2  13
TORSDOF 15
ENDMDL
MODEL 2
REMARK VINA RESULT:    -3.823      3.329      7.383
REMARK INTER + INTRA:          -9.764
REMARK INTER:                  -7.721
REMARK INTRA:                  -2.043
REMARK UNBOUND:                -2.589
REMARK SMILES CCCCCCCCC=CCCCCCCCC(=O)[O-]
REMARK SMILES IDX 10 1 9 2 11 3 12 4 13 5 14 6 15 7 16 8 17 9 18 10 19 11
REMARK SMILES IDX 20 12 8 13 7 14 6 15 5 16 4 17 3 18 2 19 1 20
REMARK H PARENT
REMARK Flexibility Score: inf
ROOT
ATOM      1  C   UNL     1      46.648  34.731  47.278  1.00  0.00    -0.031 C 
ATOM      2  C   UNL     1      47.037  34.360  46.042  1.00  0.00    -0.031 C 
ENDROOT
BRANCH   1   3
ATOM      3  C   UNL     1      45.752  35.905  47.600  1.00  0.00     0.027 C 
BRANCH   3   4
ATOM      4  C   UNL     1      46.551  37.215  47.723  1.00  0.00     0.004 C 
BRANCH   4   5
ATOM      5  C   UNL     1      45.695  38.493  47.650  1.00  0.00     0.000 C 
BRANCH   5   6
ATOM      6  C   UNL     1      44.315  38.324  48.304  1.00  0.00     0.000 C 
BRANCH   6   7
ATOM      7  C   UNL     1      43.295  39.294  47.689  1.00  0.00     0.000 C 
BRANCH   7   8
ATOM      8  C   UNL     1      43.829  40.732  47.588  1.00  0.00     0.006 C 
BRANCH   8   9
ATOM      9  C   UNL     1      43.994  41.401  48.958  1.00  0.00     0.053 C 
BRANCH   9  10
ATOM     10  C   UNL     1      44.801  42.655  48.831  1.00  0.00     0.041 C 
ATOM     11  O   UNL     1      44.411  43.718  49.380  1.00  0.00    -0.550 OA
ATOM     12  O   UNL     1      45.962  42.659  48.068  1.00  0.00    -0.550 OA
ENDBRANCH   9  10
ENDBRANCH   8   9
ENDBRANCH   7   8
ENDBRANCH   6   7
ENDBRANCH   5   6
ENDBRANCH   4   5
ENDBRANCH   3   4
ENDBRANCH   1   3
BRANCH   2  13
ATOM     13  C   UNL     1      46.619  35.029  44.757  1.00  0.00     0.027 C 
BRANCH  13  14
ATOM     14  C   UNL     1      47.800  35.742  44.081  1.00  0.00     0.004 C 
BRANCH  14  15
ATOM     15  C   UNL     1      47.740  37.268  44.251  1.00  0.00     0.000 C 
BRANCH  15  16
ATOM     16  C   UNL     1      48.992  37.972  43.699  1.00  0.00     0.000 C 
BRANCH  16  17
ATOM     17  C   UNL     1      50.127  38.051  44.733  1.00  0.00    -0.000 C 
BRANCH  17  18
ATOM     18  C   UNL     1      49.602  38.140  46.177  1.00  0.00    -0.000 C 
BRANCH  18  19
ATOM     19  C   UNL     1      50.207  37.060  47.088  1.00  0.00    -0.003 C 
ATOM     20  C   UNL     1      50.567  35.783  46.329  1.00  0.00     0.004 C 
ENDBRANCH  18  19
ENDBRANCH  17  18
ENDBRANCH  16  17
ENDBRANCH  15  16
ENDBRANCH  14  15
ENDBRANCH  13  14
ENDBRANCH   2  13
TORSDOF 15
ENDMDL
MODEL 3
REMARK VINA RESULT:    -3.805      3.532      8.187
REMARK INTER + INTRA:          -9.731
REMARK INTER:                  -8.263
REMARK INTRA:                  -1.467
REMARK UNBOUND:                -2.589
REMARK SMILES CCCCCCCCC=CCCCCCCCC(=O)[O-]
REMARK SMILES IDX 10 1 9 2 11 3 12 4 13 5 14 6 15 7 16 8 17 9 18 10 19 11
REMARK SMILES IDX 20 12 8 13 7 14 6 15 5 16 4 17 3 18 2 19 1 20
REMARK H PARENT
REMARK Flexibility Score: inf
ROOT
ATOM      1  C   UNL     1      46.778  34.462  48.204  1.00  0.00    -0.031 C 
ATOM      2  C   UNL     1      46.718  33.239  47.641  1.00  0.00    -0.031 C 
ENDROOT
BRANCH   1   3
ATOM      3  C   UNL     1      47.135  35.742  47.484  1.00  0.00     0.027 C 
BRANCH   3   4
ATOM      4  C   UNL     1      45.881  36.506  47.023  1.00  0.00     0.004 C 
BRANCH   4   5
ATOM      5  C   UNL     1      45.200  37.338  48.125  1.00  0.00     0.000 C 
BRANCH   5   6
ATOM      6  C   UNL     1      43.677  37.435  47.943  1.00  0.00     0.000 C 
BRANCH   6   7
ATOM      7  C   UNL     1      43.217  38.901  47.947  1.00  0.00     0.000 C 
BRANCH   7   8
ATOM      8  C   UNL     1      44.378  39.889  47.752  1.00  0.00     0.006 C 
BRANCH   8   9
ATOM      9  C   UNL     1      43.918  41.352  47.750  1.00  0.00     0.053 C 
BRANCH   9  10
ATOM     10  C   UNL     1      44.496  42.082  48.921  1.00  0.00     0.041 C 
ATOM     11  O   UNL     1      44.382  43.332  49.007  1.00  0.00    -0.550 OA
ATOM     12  O   UNL     1      45.200  41.385  49.895  1.00  0.00    -0.550 OA
ENDBRANCH   9  10
ENDBRANCH   8   9
ENDBRANCH   7   8
ENDBRANCH   6   7
ENDBRANCH   5   6
ENDBRANCH   4   5
ENDBRANCH   3   4
ENDBRANCH   1   3
BRANCH   2  13
ATOM     13  C   UNL     1      46.963  32.935  46.184  1.00  0.00     0.027 C 
BRANCH  13  14
ATOM     14  C   UNL     1      48.228  32.087  45.988  1.00  0.00     0.004 C 
BRANCH  14  15
ATOM     15  C   UNL     1      49.212  32.721  44.991  1.00  0.00     0.000 C 
BRANCH  15  16
ATOM     16  C   UNL     1      48.657  34.006  44.352  1.00  0.00     0.000 C 
BRANCH  16  17
ATOM     17  C   UNL     1      49.493  34.474  43.150  1.00  0.00    -0.000 C 
BRANCH  17  18
ATOM     18  C   UNL     1      49.689  36.000  43.128  1.00  0.00    -0.000 C 
BRANCH  18  19
ATOM     19  C   UNL     1      48.801  36.719  44.155  1.00  0.00    -0.003 C 
ATOM     20  C   UNL     1      47.813  37.687  43.505  1.00  0.00     0.004 C 
ENDBRANCH  18  19
ENDBRANCH  17  18
ENDBRANCH  16  17
ENDBRANCH  15  16
ENDBRANCH  14  15
ENDBRANCH  13  14
ENDBRANCH   2  13
TORSDOF 15
ENDMDL
MODEL 4
REMARK VINA RESULT:    -3.788      3.607      6.984
REMARK INTER + INTRA:          -9.699
REMARK INTER:                  -7.692
REMARK INTRA:                  -2.007
REMARK UNBOUND:                -2.589
REMARK SMILES CCCCCCCCC=CCCCCCCCC(=O)[O-]
REMARK SMILES IDX 10 1 9 2 11 3 12 4 13 5 14 6 15 7 16 8 17 9 18 10 19 11
REMARK SMILES IDX 20 12 8 13 7 14 6 15 5 16 4 17 3 18 2 19 1 20
REMARK H PARENT
REMARK Flexibility Score: inf
ROOT
ATOM      1  C   UNL     1      43.170  39.808  47.787  1.00  0.00    -0.031 C 
ATOM      2  C   UNL     1      43.633  38.557  47.981  1.00  0.00    -0.031 C 
ENDROOT
BRANCH   1   3
ATOM      3  C   UNL     1      44.004  40.994  47.360  1.00  0.00     0.027 C 
BRANCH   3   4
ATOM      4  C   UNL     1      44.086  42.061  48.467  1.00  0.00     0.004 C 
BRANCH   4   5
ATOM      5  C   UNL     1      45.474  42.196  49.121  1.00  0.00     0.000 C 
BRANCH   5   6
ATOM      6  C   UNL     1      45.478  41.778  50.599  1.00  0.00     0.000 C 
BRANCH   6   7
ATOM      7  C   UNL     1      46.003  40.343  50.762  1.00  0.00     0.000 C 
BRANCH   7   8
ATOM      8  C   UNL     1      44.936  39.377  51.301  1.00  0.00     0.006 C 
BRANCH   8   9
ATOM      9  C   UNL     1      43.608  40.077  51.615  1.00  0.00     0.053 C 
BRANCH   9  10
ATOM     10  C   UNL     1      43.375  40.112  53.093  1.00  0.00     0.041 C 
ATOM     11  O   UNL     1      43.054  41.189  53.658  1.00  0.00    -0.550 OA
ATOM     12  O   UNL     1      43.556  38.963  53.852  1.00  0.00    -0.550 OA
ENDBRANCH   9  10
ENDBRANCH   8   9
ENDBRANCH   7   8
ENDBRANCH   6   7
ENDBRANCH   5   6
ENDBRANCH   4   5
ENDBRANCH   3   4
ENDBRANCH   1   3
BRANCH   2  13
ATOM     13  C   UNL     1      45.058  38.110  47.770  1.00  0.00     0.027 C 
BRANCH  13  14
ATOM     14  C   UNL     1      45.199  36.587  47.911  1.00  0.00     0.004 C 
BRANCH  14  15
ATOM     15  C   UNL     1      46.340  36.020  47.051  1.00  0.00     0.000 C 
BRANCH  15  16
ATOM     16  C   UNL     1      47.013  37.097  46.182  1.00  0.00     0.000 C 
BRANCH  16  17
ATOM     17  C   UNL     1      47.405  36.570  44.792  1.00  0.00    -0.000 C 
BRANCH  17  18
ATOM     18  C   UNL     1      46.915  35.132  44.547  1.00  0.00    -0.000 C 
BRANCH  18  19
ATOM     19  C   UNL     1      48.075  34.131  44.425  1.00  0.00    -0.003 C 
ATOM     20  C   UNL     1      47.941  32.954  45.391  1.00  0.00     0.004 C 
ENDBRANCH  18  19
ENDBRANCH  17  18
ENDBRANCH  16  17
ENDBRANCH  15  16
ENDBRANCH  14  15
ENDBRANCH  13  14
ENDBRANCH   2  13
TORSDOF 15
ENDMDL
MODEL 5
REMARK VINA RESULT:    -3.775      1.609      2.982
REMARK INTER + INTRA:          -9.675
REMARK INTER:                  -7.276
REMARK INTRA:                  -2.399
REMARK UNBOUND:                -2.589
REMARK SMILES CCCCCCCCC=CCCCCCCCC(=O)[O-]
REMARK SMILES IDX 10 1 9 2 11 3 12 4 13 5 14 6 15 7 16 8 17 9 18 10 19 11
REMARK SMILES IDX 20 12 8 13 7 14 6 15 5 16 4 17 3 18 2 19 1 20
REMARK H PARENT
REMARK Flexibility Score: inf
ROOT
ATOM      1  C   UNL     1      43.859  39.679  47.367  1.00  0.00    -0.031 C 
ATOM      2  C   UNL     1      43.975  41.012  47.533  1.00  0.00    -0.031 C 
ENDROOT
BRANCH   1   3
ATOM      3  C   UNL     1      43.490  38.690  48.448  1.00  0.00     0.027 C 
BRANCH   3   4
ATOM      4  C   UNL     1      43.980  37.270  48.113  1.00  0.00     0.004 C 
BRANCH   4   5
ATOM      5  C   UNL     1      45.171  36.788  48.964  1.00  0.00     0.000 C 
BRANCH   5   6
ATOM      6  C   UNL     1      46.494  36.779  48.184  1.00  0.00     0.000 C 
BRANCH   6   7
ATOM      7  C   UNL     1      46.237  36.767  46.669  1.00  0.00     0.000 C 
BRANCH   7   8
ATOM      8  C   UNL     1      46.522  35.398  46.029  1.00  0.00     0.006 C 
BRANCH   8   9
ATOM      9  C   UNL     1      46.940  35.507  44.557  1.00  0.00     0.053 C 
BRANCH   9  10
ATOM     10  C   UNL     1      47.903  36.636  44.371  1.00  0.00     0.041 C 
ATOM     11  O   UNL     1      47.617  37.595  43.608  1.00  0.00    -0.550 OA
ATOM     12  O   UNL     1      49.138  36.608  45.008  1.00  0.00    -0.550 OA
ENDBRANCH   9  10
ENDBRANCH   8   9
ENDBRANCH   7   8
ENDBRANCH   6   7
ENDBRANCH   5   6
ENDBRANCH   4   5
ENDBRANCH   3   4
ENDBRANCH   1   3
BRANCH   2  13
ATOM     13  C   UNL     1      43.722  41.757  48.819  1.00  0.00     0.027 C 
BRANCH  13  14
ATOM     14  C   UNL     1      44.717  42.912  49.007  1.00  0.00     0.004 C 
BRANCH  14  15
ATOM     15  C   UNL     1      46.111  42.585  48.447  1.00  0.00     0.000 C 
BRANCH  15  16
ATOM     16  C   UNL     1      47.240  42.944  49.428  1.00  0.00     0.000 C 
BRANCH  16  17
ATOM     17  C   UNL     1      47.545  41.806  50.416  1.00  0.00    -0.000 C 
BRANCH  17  18
ATOM     18  C   UNL     1      47.248  40.417  49.825  1.00  0.00    -0.000 C 
BRANCH  18  19
ATOM     19  C   UNL     1      46.683  39.444  50.871  1.00  0.00    -0.003 C 
ATOM     20  C   UNL     1      45.355  39.919  51.462  1.00  0.00     0.004 C 
ENDBRANCH  18  19
ENDBRANCH  17  18
ENDBRANCH  16  17
ENDBRANCH  15  16
ENDBRANCH  14  15
ENDBRANCH  13  14
ENDBRANCH   2  13
TORSDOF 15
ENDMDL
MODEL 6
REMARK VINA RESULT:    -3.769      1.296      2.268
REMARK INTER + INTRA:          -9.663
REMARK INTER:                  -6.910
REMARK INTRA:                  -2.752
REMARK UNBOUND:                -2.589
REMARK SMILES CCCCCCCCC=CCCCCCCCC(=O)[O-]
REMARK SMILES IDX 10 1 9 2 11 3 12 4 13 5 14 6 15 7 16 8 17 9 18 10 19 11
REMARK SMILES IDX 20 12 8 13 7 14 6 15 5 16 4 17 3 18 2 19 1 20
REMARK H PARENT
REMARK Flexibility Score: inf
ROOT
ATOM      1  C   UNL     1      43.779  41.762  48.458  1.00  0.00    -0.031 C 
ATOM      2  C   UNL     1      44.747  42.606  48.869  1.00  0.00    -0.031 C 
ENDROOT
BRANCH   1   3
ATOM      3  C   UNL     1      43.972  40.602  47.509  1.00  0.00     0.027 C 
BRANCH   3   4
ATOM      4  C   UNL     1      42.940  39.487  47.753  1.00  0.00     0.004 C 
BRANCH   4   5
ATOM      5  C   UNL     1      43.545  38.147  48.212  1.00  0.00     0.000 C 
BRANCH   5   6
ATOM      6  C   UNL     1      44.977  37.935  47.699  1.00  0.00     0.000 C 
BRANCH   6   7
ATOM      7  C   UNL     1      45.402  36.466  47.852  1.00  0.00     0.000 C 
BRANCH   7   8
ATOM      8  C   UNL     1      46.522  36.067  46.878  1.00  0.00     0.006 C 
BRANCH   8   9
ATOM      9  C   UNL     1      47.365  37.264  46.421  1.00  0.00     0.053 C 
BRANCH   9  10
ATOM     10  C   UNL     1      48.028  36.965  45.114  1.00  0.00     0.041 C 
ATOM     11  O   UNL     1      49.166  36.430  45.088  1.00  0.00    -0.550 OA
ATOM     12  O   UNL     1      47.406  37.319  43.923  1.00  0.00    -0.550 OA
ENDBRANCH   9  10
ENDBRANCH   8   9
ENDBRANCH   7   8
ENDBRANCH   6   7
ENDBRANCH   5   6
ENDBRANCH   4   5
ENDBRANCH   3   4
ENDBRANCH   1   3
BRANCH   2  13
ATOM     13  C   UNL     1      46.202  42.521  48.483  1.00  0.00     0.027 C 
BRANCH  13  14
ATOM     14  C   UNL     1      47.122  42.732  49.695  1.00  0.00     0.004 C 
BRANCH  14  15
ATOM     15  C   UNL     1      47.879  41.453  50.088  1.00  0.00     0.000 C 
BRANCH  15  16
ATOM     16  C   UNL     1      47.418  40.225  49.285  1.00  0.00     0.000 C 
BRANCH  16  17
ATOM     17  C   UNL     1      47.467  38.929  50.110  1.00  0.00    -0.000 C 
BRANCH  17  18
ATOM     18  C   UNL     1      46.703  39.050  51.440  1.00  0.00    -0.000 C 
BRANCH  18  19
ATOM     19  C   UNL     1      45.180  39.102  51.239  1.00  0.00    -0.003 C 
ATOM     20  C   UNL     1      44.559  40.390  51.779  1.00  0.00     0.004 C 
ENDBRANCH  18  19
ENDBRANCH  17  18
ENDBRANCH  16  17
ENDBRANCH  15  16
ENDBRANCH  14  15
ENDBRANCH  13  14
ENDBRANCH   2  13
TORSDOF 15
ENDMDL
MODEL 7
REMARK VINA RESULT:    -3.731      1.250      2.859
REMARK INTER + INTRA:          -9.591
REMARK INTER:                  -6.906
REMARK INTRA:                  -2.685
REMARK UNBOUND:                -2.589
REMARK SMILES CCCCCCCCC=CCCCCCCCC(=O)[O-]
REMARK SMILES IDX 10 1 9 2 11 3 12 4 13 5 14 6 15 7 16 8 17 9 18 10 19 11
REMARK SMILES IDX 20 12 8 13 7 14 6 15 5 16 4 17 3 18 2 19 1 20
REMARK H PARENT
REMARK Flexibility Score: inf
ROOT
ATOM      1  C   UNL     1      43.499  38.220  48.094  1.00  0.00    -0.031 C 
ATOM      2  C   UNL     1      43.102  39.494  47.900  1.00  0.00    -0.031 C 
ENDROOT
BRANCH   1   3
ATOM      3  C   UNL     1      44.855  37.661  47.731  1.00  0.00     0.027 C 
BRANCH   3   4
ATOM      4  C   UNL     1      45.686  37.322  48.982  1.00  0.00     0.004 C 
BRANCH   4   5
ATOM      5  C   UNL     1      46.562  38.479  49.499  1.00  0.00     0.000 C 
BRANCH   5   6
ATOM      6  C   UNL     1      47.773  38.757  48.596  1.00  0.00     0.000 C 
BRANCH   6   7
ATOM      7  C   UNL     1      48.446  37.445  48.163  1.00  0.00     0.000 C 
BRANCH   7   8
ATOM      8  C   UNL     1      48.543  37.304  46.635  1.00  0.00     0.006 C 
BRANCH   8   9
ATOM      9  C   UNL     1      48.046  35.943  46.133  1.00  0.00     0.053 C 
BRANCH   9  10
ATOM     10  C   UNL     1      47.283  36.106  44.857  1.00  0.00     0.041 C 
ATOM     11  O   UNL     1      47.479  37.111  44.125  1.00  0.00    -0.550 OA
ATOM     12  O   UNL     1      46.322  35.169  44.496  1.00  0.00    -0.550 OA
ENDBRANCH   9  10
ENDBRANCH   8   9
ENDBRANCH   7   8
ENDBRANCH   6   7
ENDBRANCH   5   6
ENDBRANCH   4   5
ENDBRANCH   3   4
ENDBRANCH   1   3
BRANCH   2  13
ATOM     13  C   UNL     1      43.952  40.596  47.320  1.00  0.00     0.027 C 
BRANCH  13  14
ATOM     14  C   UNL     1      44.068  41.787  48.283  1.00  0.00     0.004 C 
BRANCH  14  15
ATOM     15  C   UNL     1      45.516  42.280  48.434  1.00  0.00     0.000 C 
BRANCH  15  16
ATOM     16  C   UNL     1      46.091  42.001  49.833  1.00  0.00     0.000 C 
BRANCH  16  17
ATOM     17  C   UNL     1      45.008  41.992  50.924  1.00  0.00    -0.000 C 
BRANCH  17  18
ATOM     18  C   UNL     1      44.907  40.634  51.641  1.00  0.00    -0.000 C 
BRANCH  18  19
ATOM     19  C   UNL     1      43.523  39.986  51.476  1.00  0.00    -0.003 C 
ATOM     20  C   UNL     1      43.512  38.511  51.878  1.00  0.00     0.004 C 
ENDBRANCH  18  19
ENDBRANCH  17  18
ENDBRANCH  16  17
ENDBRANCH  15  16
ENDBRANCH  14  15
ENDBRANCH  13  14
ENDBRANCH   2  13
TORSDOF 15
ENDMDL
MODEL 8
REMARK VINA RESULT:    -3.709      1.678      4.509
REMARK INTER + INTRA:          -9.551
REMARK INTER:                  -7.613
REMARK INTRA:                  -1.939
REMARK UNBOUND:                -2.589
REMARK SMILES CCCCCCCCC=CCCCCCCCC(=O)[O-]
REMARK SMILES IDX 10 1 9 2 11 3 12 4 13 5 14 6 15 7 16 8 17 9 18 10 19 11
REMARK SMILES IDX 20 12 8 13 7 14 6 15 5 16 4 17 3 18 2 19 1 20
REMARK H PARENT
REMARK Flexibility Score: inf
ROOT
ATOM      1  C   UNL     1      45.998  37.229  48.579  1.00  0.00    -0.031 C 
ATOM      2  C   UNL     1      44.737  37.459  48.996  1.00  0.00    -0.031 C 
ENDROOT
BRANCH   1   3
ATOM      3  C   UNL     1      46.424  37.032  47.143  1.00  0.00     0.027 C 
BRANCH   3   4
ATOM      4  C   UNL     1      46.775  35.562  46.849  1.00  0.00     0.004 C 
BRANCH   4   5
ATOM      5  C   UNL     1      46.653  35.161  45.366  1.00  0.00     0.000 C 
BRANCH   5   6
ATOM      6  C   UNL     1      47.412  33.868  45.036  1.00  0.00     0.000 C 
BRANCH   6   7
ATOM      7  C   UNL     1      48.842  34.176  44.565  1.00  0.00     0.000 C 
BRANCH   7   8
ATOM      8  C   UNL     1      48.883  35.211  43.429  1.00  0.00     0.006 C 
BRANCH   8   9
ATOM      9  C   UNL     1      49.817  36.389  43.733  1.00  0.00     0.053 C 
BRANCH   9  10
ATOM     10  C   UNL     1      49.068  37.682  43.655  1.00  0.00     0.041 C 
ATOM     11  O   UNL     1      49.625  38.759  43.988  1.00  0.00    -0.550 OA
ATOM     12  O   UNL     1      47.737  37.690  43.255  1.00  0.00    -0.550 OA
ENDBRANCH   9  10
ENDBRANCH   8   9
ENDBRANCH   7   8
ENDBRANCH   6   7
ENDBRANCH   5   6
ENDBRANCH   4   5
ENDBRANCH   3   4
ENDBRANCH   1   3
BRANCH   2  13
ATOM     13  C   UNL     1      43.531  37.594  48.100  1.00  0.00     0.027 C 
BRANCH  13  14
ATOM     14  C   UNL     1      43.033  39.046  48.040  1.00  0.00     0.004 C 
BRANCH  14  15
ATOM     15  C   UNL     1      44.058  39.993  47.396  1.00  0.00     0.000 C 
BRANCH  15  16
ATOM     16  C   UNL     1      43.851  41.459  47.815  1.00  0.00     0.000 C 
BRANCH  16  17
ATOM     17  C   UNL     1      45.078  42.046  48.531  1.00  0.00    -0.000 C 
BRANCH  17  18
ATOM     18  C   UNL     1      46.059  40.959  49.004  1.00  0.00    -0.000 C 
BRANCH  18  19
ATOM     19  C   UNL     1      46.079  40.812  50.533  1.00  0.00    -0.003 C 
ATOM     20  C   UNL     1      44.691  40.545  51.117  1.00  0.00     0.004 C 
ENDBRANCH  18  19
ENDBRANCH  17  18
ENDBRANCH  16  17
ENDBRANCH  15  16
ENDBRANCH  14  15
ENDBRANCH  13  14
ENDBRANCH   2  13
TORSDOF 15
ENDMDL
MODEL 9
REMARK VINA RESULT:    -3.697      2.998      6.923
REMARK INTER + INTRA:          -9.529
REMARK INTER:                  -7.414
REMARK INTRA:                  -2.115
REMARK UNBOUND:                -2.589
REMARK SMILES CCCCCCCCC=CCCCCCCCC(=O)[O-]
REMARK SMILES IDX 10 1 9 2 11 3 12 4 13 5 14 6 15 7 16 8 17 9 18 10 19 11
REMARK SMILES IDX 20 12 8 13 7 14 6 15 5 16 4 17 3 18 2 19 1 20
REMARK H PARENT
REMARK Flexibility Score: inf
ROOT
ATOM      1  C   UNL     1      47.807  36.914  47.068  1.00  0.00    -0.031 C 
ATOM      2  C   UNL     1      48.701  37.000  46.063  1.00  0.00    -0.031 C 
ENDROOT
BRANCH   1   3
ATOM      3  C   UNL     1      46.323  37.176  46.945  1.00  0.00     0.027 C 
BRANCH   3   4
ATOM      4  C   UNL     1      45.550  36.662  48.173  1.00  0.00     0.004 C 
BRANCH   4   5
ATOM      5  C   UNL     1      44.036  36.941  48.136  1.00  0.00     0.000 C 
BRANCH   5   6
ATOM      6  C   UNL     1      43.606  38.028  49.133  1.00  0.00     0.000 C 
BRANCH   6   7
ATOM      7  C   UNL     1      42.934  39.203  48.406  1.00  0.00     0.000 C 
BRANCH   7   8
ATOM      8  C   UNL     1      43.860  39.873  47.377  1.00  0.00     0.006 C 
BRANCH   8   9
ATOM      9  C   UNL     1      43.999  41.384  47.600  1.00  0.00     0.053 C 
BRANCH   9  10
ATOM     10  C   UNL     1      45.295  41.692  48.281  1.00  0.00     0.041 C 
ATOM     11  O   UNL     1      45.747  42.867  48.281  1.00  0.00    -0.550 OA
ATOM     12  O   UNL     1      46.026  40.673  48.879  1.00  0.00    -0.550 OA
ENDBRANCH   9  10
ENDBRANCH   8   9
ENDBRANCH   7   8
ENDBRANCH   6   7
ENDBRANCH   5   6
ENDBRANCH   4   5
ENDBRANCH   3   4
ENDBRANCH   1   3
BRANCH   2  13
ATOM     13  C   UNL     1      48.375  37.338  44.630  1.00  0.00     0.027 C 
BRANCH  13  14
ATOM     14  C   UNL     1      48.743  36.188  43.681  1.00  0.00     0.004 C 
BRANCH  14  15
ATOM     15  C   UNL     1      47.974  34.895  43.999  1.00  0.00     0.000 C 
BRANCH  15  16
ATOM     16  C   UNL     1      48.890  33.781  44.534  1.00  0.00     0.000 C 
BRANCH  16  17
ATOM     17  C   UNL     1      48.522  33.352  45.963  1.00  0.00    -0.000 C 
BRANCH  17  18
ATOM     18  C   UNL     1      47.000  33.299  46.188  1.00  0.00    -0.000 C 
BRANCH  18  19
ATOM     19  C   UNL     1      46.632  33.150  47.672  1.00  0.00    -0.003 C 
ATOM     20  C   UNL     1      47.822  33.387  48.602  1.00  0.00     0.004 C 
ENDBRANCH  18  19
ENDBRANCH  17  18
ENDBRANCH  16  17
ENDBRANCH  15  16
ENDBRANCH  14  15
ENDBRANCH  13  14
ENDBRANCH   2  13
TORSDOF 15
ENDMDL
