MODEL 1
REMARK VINA RESULT:    -3.913      0.000      0.000
REMARK INTER + INTRA:          -8.430
REMARK INTER:                  -6.657
REMARK INTRA:                  -1.772
REMARK UNBOUND:                -1.772
REMARK SMILES CCCCCCCCCCCCCC(=O)[O-]
REMARK SMILES IDX 8 1 9 2 10 3 11 4 12 5 13 6 14 7 15 8 16 9 7 10 6 11 5 12
REMARK SMILES IDX 4 13 3 14 2 15 1 16
REMARK H PARENT
REMARK Flexibility Score: inf
ROOT
ATOM      1  C   UNL     1      18.054  11.800 -13.504  1.00  0.00     0.000 C 
ENDROOT
BRANCH   1   2
ATOM      2  C   UNL     1      17.749  12.387 -14.891  1.00  0.00     0.000 C 
BRANCH   2   3
ATOM      3  C   UNL     1      16.242  12.574 -15.134  1.00  0.00     0.000 C 
BRANCH   3   4
ATOM      4  C   UNL     1      15.399  12.255 -13.889  1.00  0.00     0.000 C 
BRANCH   4   5
ATOM      5  C   UNL     1      14.479  11.038 -14.090  1.00  0.00     0.006 C 
BRANCH   5   6
ATOM      6  C   UNL     1      14.796  10.283 -15.388  1.00  0.00     0.053 C 
BRANCH   6   7
ATOM      7  C   UNL     1      15.431   8.955 -15.116  1.00  0.00     0.041 C 
ATOM      8  O   UNL     1      16.142   8.399 -15.994  1.00  0.00    -0.550 OA
ATOM      9  O   UNL     1      15.210   8.314 -13.902  1.00  0.00    -0.550 OA
ENDBRANCH   6   7
ENDBRANCH   5   6
ENDBRANCH   4   5
ENDBRANCH   3   4
ENDBRANCH   2   3
ENDBRANCH   1   2
BRANCH   1  10
ATOM     10  C   UNL     1      18.884  10.508 -13.576  1.00  0.00     0.000 C 
BRANCH  10  11
ATOM     11  C   UNL     1      19.207  10.143 -15.030  1.00  0.00    -0.000 C 
BRANCH  11  12
ATOM     12  C   UNL     1      20.716   9.941 -15.226  1.00  0.00    -0.000 C 
BRANCH  12  13
ATOM     13  C   UNL     1      21.543  11.094 -14.616  1.00  0.00    -0.000 C 
BRANCH  13  14
ATOM     14  C   UNL     1      21.425  12.415 -15.393  1.00  0.00    -0.000 C 
BRANCH  14  15
ATOM     15  C   UNL     1      21.258  13.635 -14.477  1.00  0.00    -0.003 C 
ATOM     16  C   UNL     1      21.728  13.328 -13.059  1.00  0.00     0.004 C 
ENDBRANCH  14  15
ENDBRANCH  13  14
ENDBRANCH  12  13
ENDBRANCH  11  12
ENDBRANCH  10  11
ENDBRANCH   1  10
TORSDOF 12
ENDMDL
MODEL 2
REMARK VINA RESULT:    -3.840      2.185      3.200
REMARK INTER + INTRA:          -8.305
REMARK INTER:                  -7.265
REMARK INTRA:                  -1.041
REMARK UNBOUND:                -1.772
REMARK SMILES CCCCCCCCCCCCCC(=O)[O-]
REMARK SMILES IDX 8 1 9 2 10 3 11 4 12 5 13 6 14 7 15 8 16 9 7 10 6 11 5 12
REMARK SMILES IDX 4 13 3 14 2 15 1 16
REMARK H PARENT
REMARK Flexibility Score: inf
ROOT
ATOM      1  C   UNL     1      18.816  11.682 -13.379  1.00  0.00     0.000 C 
ENDROOT
BRANCH   1   2
ATOM      2  C   UNL     1      18.780  10.212 -13.823  1.00  0.00     0.000 C 
BRANCH   2   3
ATOM      3  C   UNL     1      18.031  10.014 -15.152  1.00  0.00     0.000 C 
BRANCH   3   4
ATOM      4  C   UNL     1      16.855   9.032 -15.025  1.00  0.00     0.000 C 
BRANCH   4   5
ATOM      5  C   UNL     1      15.505   9.672 -15.395  1.00  0.00     0.006 C 
BRANCH   5   6
ATOM      6  C   UNL     1      14.888  10.440 -14.219  1.00  0.00     0.053 C 
BRANCH   6   7
ATOM      7  C   UNL     1      15.164  11.910 -14.312  1.00  0.00     0.041 C 
ATOM      8  O   UNL     1      15.202  12.478 -15.435  1.00  0.00    -0.550 OA
ATOM      9  O   UNL     1      15.411  12.645 -13.159  1.00  0.00    -0.550 OA
ENDBRANCH   6   7
ENDBRANCH   5   6
ENDBRANCH   4   5
ENDBRANCH   3   4
ENDBRANCH   2   3
ENDBRANCH   1   2
BRANCH   1  10
ATOM     10  C   UNL     1      18.876  12.659 -14.563  1.00  0.00     0.000 C 
BRANCH  10  11
ATOM     11  C   UNL     1      20.176  13.473 -14.540  1.00  0.00    -0.000 C 
BRANCH  11  12
ATOM     12  C   UNL     1      21.117  12.980 -13.431  1.00  0.00    -0.000 C 
BRANCH  12  13
ATOM     13  C   UNL     1      22.318  13.927 -13.222  1.00  0.00    -0.000 C 
BRANCH  13  14
ATOM     14  C   UNL     1      22.545  14.902 -14.389  1.00  0.00    -0.000 C 
BRANCH  14  15
ATOM     15  C   UNL     1      23.064  16.272 -13.931  1.00  0.00    -0.003 C 
ATOM     16  C   UNL     1      22.467  17.396 -14.772  1.00  0.00     0.004 C 
ENDBRANCH  14  15
ENDBRANCH  13  14
ENDBRANCH  12  13
ENDBRANCH  11  12
ENDBRANCH  10  11
ENDBRANCH   1  10
TORSDOF 12
ENDMDL
MODEL 3
REMARK VINA RESULT:    -3.835      1.862      3.123
REMARK INTER + INTRA:          -8.298
REMARK INTER:                  -6.672
REMARK INTRA:                  -1.626
REMARK UNBOUND:                -1.772
REMARK SMILES CCCCCCCCCCCCCC(=O)[O-]
REMARK SMILES IDX 8 1 9 2 10 3 11 4 12 5 13 6 14 7 15 8 16 9 7 10 6 11 5 12
REMARK SMILES IDX 4 13 3 14 2 15 1 16
REMARK H PARENT
REMARK Flexibility Score: inf
ROOT
ATOM      1  C   UNL     1      18.717  11.617 -13.418  1.00  0.00     0.000 C 
ENDROOT
BRANCH   1   2
ATOM      2  C   UNL     1      18.439  10.146 -13.764  1.00  0.00     0.000 C 
BRANCH   2   3
ATOM      3  C   UNL     1      17.828   9.974 -15.165  1.00  0.00     0.000 C 
BRANCH   3   4
ATOM      4  C   UNL     1      16.581   9.075 -15.158  1.00  0.00     0.000 C 
BRANCH   4   5
ATOM      5  C   UNL     1      15.471   9.606 -14.234  1.00  0.00     0.006 C 
BRANCH   5   6
ATOM      6  C   UNL     1      14.575  10.634 -14.939  1.00  0.00     0.053 C 
BRANCH   6   7
ATOM      7  C   UNL     1      15.069  12.033 -14.733  1.00  0.00     0.041 C 
ATOM      8  O   UNL     1      15.295  12.462 -13.572  1.00  0.00    -0.550 OA
ATOM      9  O   UNL     1      15.248  12.874 -15.825  1.00  0.00    -0.550 OA
ENDBRANCH   6   7
ENDBRANCH   5   6
ENDBRANCH   4   5
ENDBRANCH   3   4
ENDBRANCH   2   3
ENDBRANCH   1   2
BRANCH   1  10
ATOM     10  C   UNL     1      18.724  12.528 -14.656  1.00  0.00     0.000 C 
BRANCH  10  11
ATOM     11  C   UNL     1      19.954  13.443 -14.657  1.00  0.00    -0.000 C 
BRANCH  11  12
ATOM     12  C   UNL     1      20.905  13.094 -13.503  1.00  0.00    -0.000 C 
BRANCH  12  13
ATOM     13  C   UNL     1      22.380  13.047 -13.957  1.00  0.00    -0.000 C 
BRANCH  13  14
ATOM     14  C   UNL     1      22.881  11.628 -14.274  1.00  0.00    -0.000 C 
BRANCH  14  15
ATOM     15  C   UNL     1      22.561  11.188 -15.709  1.00  0.00    -0.003 C 
ATOM     16  C   UNL     1      21.516  10.077 -15.724  1.00  0.00     0.004 C 
ENDBRANCH  14  15
ENDBRANCH  13  14
ENDBRANCH  12  13
ENDBRANCH  11  12
ENDBRANCH  10  11
ENDBRANCH   1  10
TORSDOF 12
ENDMDL
MODEL 4
REMARK VINA RESULT:    -3.807      2.995      5.874
REMARK INTER + INTRA:          -8.250
REMARK INTER:                  -6.457
REMARK INTRA:                  -1.793
REMARK UNBOUND:                -1.772
REMARK SMILES CCCCCCCCCCCCCC(=O)[O-]
REMARK SMILES IDX 8 1 9 2 10 3 11 4 12 5 13 6 14 7 15 8 16 9 7 10 6 11 5 12
REMARK SMILES IDX 4 13 3 14 2 15 1 16
REMARK H PARENT
REMARK Flexibility Score: inf
ROOT
ATOM      1  C   UNL     1      17.705   8.987 -15.397  1.00  0.00     0.000 C 
ENDROOT
BRANCH   1   2
ATOM      2  C   UNL     1      18.710  10.128 -15.176  1.00  0.00     0.000 C 
BRANCH   2   3
ATOM      3  C   UNL     1      18.967  10.410 -13.686  1.00  0.00     0.000 C 
BRANCH   3   4
ATOM      4  C   UNL     1      19.030  11.914 -13.373  1.00  0.00     0.000 C 
BRANCH   4   5
ATOM      5  C   UNL     1      19.455  12.756 -14.589  1.00  0.00     0.006 C 
BRANCH   5   6
ATOM      6  C   UNL     1      20.642  13.674 -14.269  1.00  0.00     0.053 C 
BRANCH   6   7
ATOM      7  C   UNL     1      21.746  12.933 -13.580  1.00  0.00     0.041 C 
ATOM      8  O   UNL     1      22.205  13.352 -12.486  1.00  0.00    -0.550 OA
ATOM      9  O   UNL     1      22.291  11.796 -14.165  1.00  0.00    -0.550 OA
ENDBRANCH   6   7
ENDBRANCH   5   6
ENDBRANCH   4   5
ENDBRANCH   3   4
ENDBRANCH   2   3
ENDBRANCH   1   2
BRANCH   1  10
ATOM     10  C   UNL     1      16.728   8.821 -14.222  1.00  0.00     0.000 C 
BRANCH  10  11
ATOM     11  C   UNL     1      15.342   8.389 -14.716  1.00  0.00    -0.000 C 
BRANCH  11  12
ATOM     12  C   UNL     1      14.972   9.107 -16.021  1.00  0.00    -0.000 C 
BRANCH  12  13
ATOM     13  C   UNL     1      14.290  10.468 -15.765  1.00  0.00    -0.000 C 
BRANCH  13  14
ATOM     14  C   UNL     1      15.221  11.674 -15.977  1.00  0.00    -0.000 C 
BRANCH  14  15
ATOM     15  C   UNL     1      15.658  12.332 -14.662  1.00  0.00    -0.003 C 
ATOM     16  C   UNL     1      14.782  11.874 -13.499  1.00  0.00     0.004 C 
ENDBRANCH  14  15
ENDBRANCH  13  14
ENDBRANCH  12  13
ENDBRANCH  11  12
ENDBRANCH  10  11
ENDBRANCH   1  10
TORSDOF 12
ENDMDL
MODEL 5
REMARK VINA RESULT:    -3.801      2.986      6.441
REMARK INTER + INTRA:          -8.240
REMARK INTER:                  -6.544
REMARK INTRA:                  -1.696
REMARK UNBOUND:                -1.772
REMARK SMILES CCCCCCCCCCCCCC(=O)[O-]
REMARK SMILES IDX 8 1 9 2 10 3 11 4 12 5 13 6 14 7 15 8 16 9 7 10 6 11 5 12
REMARK SMILES IDX 4 13 3 14 2 15 1 16
REMARK H PARENT
REMARK Flexibility Score: inf
ROOT
ATOM      1  C   UNL     1      18.056  11.678 -13.480  1.00  0.00     0.000 C 
ENDROOT
BRANCH   1   2
ATOM      2  C   UNL     1      18.921  10.409 -13.523  1.00  0.00     0.000 C 
BRANCH   2   3
ATOM      3  C   UNL     1      19.608  10.207 -14.884  1.00  0.00     0.000 C 
BRANCH   3   4
ATOM      4  C   UNL     1      21.139  10.312 -14.794  1.00  0.00     0.000 C 
BRANCH   4   5
ATOM      5  C   UNL     1      21.685  11.598 -15.437  1.00  0.00     0.006 C 
BRANCH   5   6
ATOM      6  C   UNL     1      22.694  12.315 -14.530  1.00  0.00     0.053 C 
BRANCH   6   7
ATOM      7  C   UNL     1      22.011  13.162 -13.502  1.00  0.00     0.041 C 
ATOM      8  O   UNL     1      20.893  13.685 -13.752  1.00  0.00    -0.550 OA
ATOM      9  O   UNL     1      22.625  13.401 -12.278  1.00  0.00    -0.550 OA
ENDBRANCH   6   7
ENDBRANCH   5   6
ENDBRANCH   4   5
ENDBRANCH   3   4
ENDBRANCH   2   3
ENDBRANCH   1   2
BRANCH   1  10
ATOM     10  C   UNL     1      17.755  12.239 -14.879  1.00  0.00     0.000 C 
BRANCH  10  11
ATOM     11  C   UNL     1      16.249  12.452 -15.074  1.00  0.00    -0.000 C 
BRANCH  11  12
ATOM     12  C   UNL     1      15.508  12.422 -13.730  1.00  0.00    -0.000 C 
BRANCH  12  13
ATOM     13  C   UNL     1      14.345  11.406 -13.727  1.00  0.00    -0.000 C 
BRANCH  13  14
ATOM     14  C   UNL     1      14.436  10.363 -14.853  1.00  0.00    -0.000 C 
BRANCH  14  15
ATOM     15  C   UNL     1      15.140   9.071 -14.417  1.00  0.00    -0.003 C 
ATOM     16  C   UNL     1      16.193   8.646 -15.435  1.00  0.00     0.004 C 
ENDBRANCH  14  15
ENDBRANCH  13  14
ENDBRANCH  12  13
ENDBRANCH  11  12
ENDBRANCH  10  11
ENDBRANCH   1  10
TORSDOF 12
ENDMDL
MODEL 6
REMARK VINA RESULT:    -3.799      3.670      6.478
REMARK INTER + INTRA:          -8.236
REMARK INTER:                  -7.021
REMARK INTRA:                  -1.215
REMARK UNBOUND:                -1.772
REMARK SMILES CCCCCCCCCCCCCC(=O)[O-]
REMARK SMILES IDX 8 1 9 2 10 3 11 4 12 5 13 6 14 7 15 8 16 9 7 10 6 11 5 12
REMARK SMILES IDX 4 13 3 14 2 15 1 16
REMARK H PARENT
REMARK Flexibility Score: inf
ROOT
ATOM      1  C   UNL     1      16.099  12.662 -15.338  1.00  0.00     0.000 C 
ENDROOT
BRANCH   1   2
ATOM      2  C   UNL     1      17.517  12.269 -15.781  1.00  0.00     0.000 C 
BRANCH   2   3
ATOM      3  C   UNL     1      18.608  13.085 -15.066  1.00  0.00     0.000 C 
BRANCH   3   4
ATOM      4  C   UNL     1      19.328  12.277 -13.974  1.00  0.00     0.000 C 
BRANCH   4   5
ATOM      5  C   UNL     1      20.766  12.767 -13.724  1.00  0.00     0.006 C 
BRANCH   5   6
ATOM      6  C   UNL     1      21.063  14.082 -14.456  1.00  0.00     0.053 C 
BRANCH   6   7
ATOM      7  C   UNL     1      22.306  14.737 -13.936  1.00  0.00     0.041 C 
ATOM      8  O   UNL     1      22.931  14.232 -12.968  1.00  0.00    -0.550 OA
ATOM      9  O   UNL     1      22.754  15.925 -14.501  1.00  0.00    -0.550 OA
ENDBRANCH   6   7
ENDBRANCH   5   6
ENDBRANCH   4   5
ENDBRANCH   3   4
ENDBRANCH   2   3
ENDBRANCH   1   2
BRANCH   1  10
ATOM     10  C   UNL     1      15.814  12.301 -13.871  1.00  0.00     0.000 C 
BRANCH  10  11
ATOM     11  C   UNL     1      14.516  11.494 -13.746  1.00  0.00    -0.000 C 
BRANCH  11  12
ATOM     12  C   UNL     1      14.360  10.514 -14.917  1.00  0.00    -0.000 C 
BRANCH  12  13
ATOM     13  C   UNL     1      14.869   9.099 -14.565  1.00  0.00    -0.000 C 
BRANCH  13  14
ATOM     14  C   UNL     1      15.605   8.403 -15.723  1.00  0.00    -0.000 C 
BRANCH  14  15
ATOM     15  C   UNL     1      17.114   8.680 -15.724  1.00  0.00    -0.003 C 
ATOM     16  C   UNL     1      17.603   9.075 -14.334  1.00  0.00     0.004 C 
ENDBRANCH  14  15
ENDBRANCH  13  14
ENDBRANCH  12  13
ENDBRANCH  11  12
ENDBRANCH  10  11
ENDBRANCH   1  10
TORSDOF 12
ENDMDL
MODEL 7
REMARK VINA RESULT:    -3.799      4.878      7.784
REMARK INTER + INTRA:          -8.236
REMARK INTER:                  -7.394
REMARK INTRA:                  -0.842
REMARK UNBOUND:                -1.772
REMARK SMILES CCCCCCCCCCCCCC(=O)[O-]
REMARK SMILES IDX 8 1 9 2 10 3 11 4 12 5 13 6 14 7 15 8 16 9 7 10 6 11 5 12
REMARK SMILES IDX 4 13 3 14 2 15 1 16
REMARK H PARENT
REMARK Flexibility Score: inf
ROOT
ATOM      1  C   UNL     1      20.254  12.896 -14.312  1.00  0.00     0.000 C 
ENDROOT
BRANCH   1   2
ATOM      2  C   UNL     1      21.422  13.483 -13.504  1.00  0.00     0.000 C 
BRANCH   2   3
ATOM      3  C   UNL     1      22.144  14.619 -14.249  1.00  0.00     0.000 C 
BRANCH   3   4
ATOM      4  C   UNL     1      21.259  15.280 -15.318  1.00  0.00     0.000 C 
BRANCH   4   5
ATOM      5  C   UNL     1      21.940  16.485 -15.990  1.00  0.00     0.006 C 
BRANCH   5   6
ATOM      6  C   UNL     1      21.191  17.797 -15.718  1.00  0.00     0.053 C 
BRANCH   6   7
ATOM      7  C   UNL     1      21.970  18.702 -14.813  1.00  0.00     0.041 C 
ATOM      8  O   UNL     1      22.581  18.231 -13.818  1.00  0.00    -0.550 OA
ATOM      9  O   UNL     1      21.993  20.071 -15.051  1.00  0.00    -0.550 OA
ENDBRANCH   6   7
ENDBRANCH   5   6
ENDBRANCH   4   5
ENDBRANCH   3   4
ENDBRANCH   2   3
ENDBRANCH   1   2
BRANCH   1  10
ATOM     10  C   UNL     1      19.341  11.995 -13.467  1.00  0.00     0.000 C 
BRANCH  10  11
ATOM     11  C   UNL     1      18.192  11.430 -14.311  1.00  0.00    -0.000 C 
BRANCH  11  12
ATOM     12  C   UNL     1      17.638  12.491 -15.272  1.00  0.00    -0.000 C 
BRANCH  12  13
ATOM     13  C   UNL     1      16.100  12.601 -15.198  1.00  0.00    -0.000 C 
BRANCH  13  14
ATOM     14  C   UNL     1      15.538  12.420 -13.778  1.00  0.00    -0.000 C 
BRANCH  14  15
ATOM     15  C   UNL     1      14.478  11.314 -13.691  1.00  0.00    -0.003 C 
ATOM     16  C   UNL     1      14.419  10.505 -14.984  1.00  0.00     0.004 C 
ENDBRANCH  14  15
ENDBRANCH  13  14
ENDBRANCH  12  13
ENDBRANCH  11  12
ENDBRANCH  10  11
ENDBRANCH   1  10
TORSDOF 12
ENDMDL
MODEL 8
REMARK VINA RESULT:    -3.771      3.570      6.597
REMARK INTER + INTRA:          -8.189
REMARK INTER:                  -6.896
REMARK INTRA:                  -1.293
REMARK UNBOUND:                -1.772
REMARK SMILES CCCCCCCCCCCCCC(=O)[O-]
REMARK SMILES IDX 8 1 9 2 10 3 11 4 12 5 13 6 14 7 15 8 16 9 7 10 6 11 5 12
REMARK SMILES IDX 4 13 3 14 2 15 1 16
REMARK H PARENT
REMARK Flexibility Score: inf
ROOT
ATOM      1  C   UNL     1      17.951   9.752 -13.871  1.00  0.00     0.000 C 
ENDROOT
BRANCH   1   2
ATOM      2  C   UNL     1      18.922  10.790 -14.457  1.00  0.00     0.000 C 
BRANCH   2   3
ATOM      3  C   UNL     1      19.210  11.945 -13.483  1.00  0.00     0.000 C 
BRANCH   3   4
ATOM      4  C   UNL     1      20.144  13.007 -14.087  1.00  0.00     0.000 C 
BRANCH   4   5
ATOM      5  C   UNL     1      21.605  12.840 -13.632  1.00  0.00     0.006 C 
BRANCH   5   6
ATOM      6  C   UNL     1      22.314  14.190 -13.459  1.00  0.00     0.053 C 
BRANCH   6   7
ATOM      7  C   UNL     1      22.524  14.878 -14.773  1.00  0.00     0.041 C 
ATOM      8  O   UNL     1      23.033  14.254 -15.741  1.00  0.00    -0.550 OA
ATOM      9  O   UNL     1      22.189  16.218 -14.918  1.00  0.00    -0.550 OA
ENDBRANCH   6   7
ENDBRANCH   5   6
ENDBRANCH   4   5
ENDBRANCH   3   4
ENDBRANCH   2   3
ENDBRANCH   1   2
BRANCH   1  10
ATOM     10  C   UNL     1      17.028   9.137 -14.934  1.00  0.00     0.000 C 
BRANCH  10  11
ATOM     11  C   UNL     1      15.717   8.646 -14.306  1.00  0.00    -0.000 C 
BRANCH  11  12
ATOM     12  C   UNL     1      14.512   9.023 -15.179  1.00  0.00    -0.000 C 
BRANCH  12  13
ATOM     13  C   UNL     1      14.302  10.550 -15.256  1.00  0.00    -0.000 C 
BRANCH  13  14
ATOM     14  C   UNL     1      14.384  11.253 -13.891  1.00  0.00    -0.000 C 
BRANCH  14  15
ATOM     15  C   UNL     1      15.403  12.400 -13.869  1.00  0.00    -0.003 C 
ATOM     16  C   UNL     1      15.865  12.754 -15.280  1.00  0.00     0.004 C 
ENDBRANCH  14  15
ENDBRANCH  13  14
ENDBRANCH  12  13
ENDBRANCH  11  12
ENDBRANCH  10  11
ENDBRANCH   1  10
TORSDOF 12
ENDMDL
MODEL 9
REMARK VINA RESULT:    -3.747      1.481      2.459
REMARK INTER + INTRA:          -8.148
REMARK INTER:                  -7.348
REMARK INTRA:                  -0.800
REMARK UNBOUND:                -1.772
REMARK SMILES CCCCCCCCCCCCCC(=O)[O-]
REMARK SMILES IDX 8 1 9 2 10 3 11 4 12 5 13 6 14 7 15 8 16 9 7 10 6 11 5 12
REMARK SMILES IDX 4 13 3 14 2 15 1 16
REMARK H PARENT
REMARK Flexibility Score: inf
ROOT
ATOM      1  C   UNL     1      17.552  12.756 -15.249  1.00  0.00     0.000 C 
ENDROOT
BRANCH   1   2
ATOM      2  C   UNL     1      17.029  11.988 -14.025  1.00  0.00     0.000 C 
BRANCH   2   3
ATOM      3  C   UNL     1      15.583  12.367 -13.664  1.00  0.00     0.000 C 
BRANCH   3   4
ATOM      4  C   UNL     1      14.590  11.223 -13.928  1.00  0.00     0.000 C 
BRANCH   4   5
ATOM      5  C   UNL     1      14.454  10.889 -15.424  1.00  0.00     0.006 C 
BRANCH   5   6
ATOM      6  C   UNL     1      14.289   9.383 -15.667  1.00  0.00     0.053 C 
BRANCH   6   7
ATOM      7  C   UNL     1      15.275   8.582 -14.874  1.00  0.00     0.041 C 
ATOM      8  O   UNL     1      14.887   7.875 -13.908  1.00  0.00    -0.550 OA
ATOM      9  O   UNL     1      16.629   8.644 -15.183  1.00  0.00    -0.550 OA
ENDBRANCH   6   7
ENDBRANCH   5   6
ENDBRANCH   4   5
ENDBRANCH   3   4
ENDBRANCH   2   3
ENDBRANCH   1   2
BRANCH   1  10
ATOM     10  C   UNL     1      19.035  13.138 -15.121  1.00  0.00     0.000 C 
BRANCH  10  11
ATOM     11  C   UNL     1      19.730  12.291 -14.048  1.00  0.00    -0.000 C 
BRANCH  11  12
ATOM     12  C   UNL     1      20.965  13.011 -13.488  1.00  0.00    -0.000 C 
BRANCH  12  13
ATOM     13  C   UNL     1      21.473  14.120 -14.435  1.00  0.00    -0.000 C 
BRANCH  13  14
ATOM     14  C   UNL     1      22.578  14.996 -13.822  1.00  0.00    -0.000 C 
BRANCH  14  15
ATOM     15  C   UNL     1      22.741  16.342 -14.540  1.00  0.00    -0.003 C 
ATOM     16  C   UNL     1      21.690  16.515 -15.633  1.00  0.00     0.004 C 
ENDBRANCH  14  15
ENDBRANCH  13  14
ENDBRANCH  12  13
ENDBRANCH  11  12
ENDBRANCH  10  11
ENDBRANCH   1  10
TORSDOF 12
ENDMDL
