MODEL 1
REMARK VINA RESULT:     2.802      0.000      0.000
REMARK INTER + INTRA:           3.153
REMARK INTER:                   3.702
REMARK INTRA:                  -0.550
REMARK UNBOUND:                -0.550
REMARK SMILES CC[C@H](C=C[C@H](C)[C@H]1CC[C@H]2[C@@H]3CC=C4C[C@@H](O)CC[C@@]4(C)[C@H]3CC[C@@]12C)C(C)C
REMARK SMILES IDX 6 1 7 2 5 3 4 4 3 5 2 6 1 7 28 8 29 9 30 10 8 11 9 12 26 13
REMARK SMILES IDX 10 14 11 15 25 16 27 17 12 18 24 19 23 20 13 21 21 22 14 23
REMARK SMILES IDX 15 24 20 25 22 26 16 27 19 28 17 29 18 30
REMARK H PARENT 18 31
REMARK Flexibility Score: inf
ROOT
ATOM      1  C   UNL     1       2.605  43.239  12.366  1.00  0.00     0.012 C 
ATOM      2  C   UNL     1       3.459  44.378  12.953  1.00  0.00     0.012 C 
ENDROOT
BRANCH   1   3
ATOM      3  C   UNL     1       2.001  42.454  13.510  1.00  0.00    -0.028 C 
ATOM      4  C   UNL     1       1.190  41.408  13.287  1.00  0.00    -0.027 C 
BRANCH   4   5
ATOM      5  C   UNL     1       0.565  40.627  14.424  1.00  0.00     0.014 C 
BRANCH   5   6
ATOM      6  C   UNL     1      -0.625  41.411  15.024  1.00  0.00     0.004 C 
ATOM      7  C   UNL     1      -0.373  41.818  16.477  1.00  0.00     0.004 C 
ENDBRANCH   5   6
BRANCH   5   8
ATOM      8  C   UNL     1       0.151  39.191  13.983  1.00  0.00    -0.011 C 
ATOM      9  C   UNL     1       1.299  38.475  13.254  1.00  0.00     0.008 C 
ATOM     10  C   UNL     1      -1.123  39.158  13.119  1.00  0.00     0.008 C 
ENDBRANCH   5   8
ENDBRANCH   4   5
ENDBRANCH   1   3
BRANCH   1  11
ATOM     11  C   UNL     1       1.475  43.688  11.373  1.00  0.00     0.002 C 
ATOM     12  C   UNL     1       0.439  44.652  11.928  1.00  0.00     0.005 C 
ATOM     13  C   UNL     1       1.902  44.296  10.002  1.00  0.00    -0.026 C 
ATOM     14  C   UNL     1      -0.360  45.068  10.706  1.00  0.00     0.005 C 
ATOM     15  C   UNL     1       0.626  45.062   9.514  1.00  0.00    -0.001 C 
ATOM     16  C   UNL     1       3.098  45.275  10.129  1.00  0.00     0.007 C 
ATOM     17  C   UNL     1       2.261  43.146   9.021  1.00  0.00     0.012 C 
ATOM     18  C   UNL     1       0.875  46.519   8.996  1.00  0.00     0.000 C 
ATOM     19  C   UNL     1       3.412  45.978   8.806  1.00  0.00     0.005 C 
ATOM     20  C   UNL     1       2.171  46.663   8.154  1.00  0.00     0.003 C 
ATOM     21  C   UNL     1      -0.316  46.965   8.127  1.00  0.00     0.031 C 
ATOM     22  C   UNL     1       2.417  48.166   7.709  1.00  0.00    -0.008 C 
ATOM     23  C   UNL     1      -0.109  48.330   7.548  1.00  0.00    -0.027 C 
ATOM     24  C   UNL     1       1.107  48.848   7.276  1.00  0.00    -0.065 C 
ATOM     25  C   UNL     1       3.010  49.050   8.861  1.00  0.00     0.014 C 
ATOM     26  C   UNL     1       3.399  48.137   6.508  1.00  0.00     0.016 C 
ATOM     27  C   UNL     1       1.178  50.306   6.874  1.00  0.00     0.063 C 
ATOM     28  C   UNL     1       3.071  50.560   8.530  1.00  0.00     0.033 C 
ATOM     29  C   UNL     1       1.724  51.124   8.053  1.00  0.00     0.118 C 
BRANCH  29  30
ATOM     30  O   UNL     1       0.809  51.117   9.119  1.00  0.00    -0.393 OA
ATOM     31  H   UNL     1       1.153  50.469   9.788  1.00  0.00     0.210 HD
ENDBRANCH  29  30
ENDBRANCH   1  11
TORSDOF 6
ENDMDL
