MODEL 1
REMARK VINA RESULT:    -6.854      0.000      0.000
REMARK INTER + INTRA:          -8.361
REMARK INTER:                  -8.257
REMARK INTRA:                  -0.104
REMARK UNBOUND:                -0.104
REMARK SMILES O=c1c(O)c(-c2ccc(O)c(O)c2)oc2cc(O)cc(O)c12
REMARK SMILES IDX 5 1 3 2 2 3 1 4 22 5 20 6 19 7 17 8 16 9 15 10 14 11 6 12
REMARK SMILES IDX 7 13 8 14 9 15 13 16 11 17 10 18 12 20 4 22 21 24 18 26
REMARK H PARENT 10 19 12 21 4 23 21 25 18 27
REMARK Flexibility Score: inf
ROOT
ATOM      1  C   UNL     1      57.776  -1.912  -0.069  1.00  0.00     0.180 A 
ATOM      2  C   UNL     1      56.472  -2.150   0.399  1.00  0.00     0.208 A 
ATOM      3  C   UNL     1      56.252  -3.213   1.290  1.00  0.00     0.238 A 
ATOM      4  O   UNL     1      55.092  -3.387   1.747  1.00  0.00    -0.285 OA
ATOM      5  C   UNL     1      57.334  -4.033   1.690  1.00  0.00     0.111 A 
ATOM      6  C   UNL     1      57.218  -5.161   2.557  1.00  0.00     0.134 A 
ATOM      7  C   UNL     1      58.375  -5.820   2.989  1.00  0.00     0.093 A 
ATOM      8  C   UNL     1      59.638  -5.433   2.533  1.00  0.00     0.123 A 
ATOM      9  C   UNL     1      59.755  -4.372   1.640  1.00  0.00     0.094 A 
ATOM     10  C   UNL     1      58.623  -3.670   1.220  1.00  0.00     0.146 A 
ATOM     11  O   UNL     1      58.781  -2.658   0.376  1.00  0.00    -0.452 OA
ENDROOT
BRANCH   1  12
ATOM     12  C   UNL     1      58.083  -0.828  -1.029  1.00  0.00     0.025 A 
ATOM     13  C   UNL     1      58.665  -1.100  -2.280  1.00  0.00     0.016 A 
ATOM     14  C   UNL     1      58.968  -0.058  -3.160  1.00  0.00     0.051 A 
ATOM     15  C   UNL     1      58.708   1.271  -2.799  1.00  0.00     0.157 A 
ATOM     16  C   UNL     1      57.844   0.507  -0.664  1.00  0.00     0.062 A 
ATOM     17  C   UNL     1      58.146   1.554  -1.544  1.00  0.00     0.158 A 
BRANCH  15  18
ATOM     18  O   UNL     1      59.010   2.308  -3.680  1.00  0.00    -0.504 OA
ATOM     19  H   UNL     1      58.661   2.315  -4.632  1.00  0.00     0.293 HD
ENDBRANCH  15  18
BRANCH  17  20
ATOM     20  O   UNL     1      57.881   2.865  -1.151  1.00  0.00    -0.504 OA
ATOM     21  H   UNL     1      58.622   3.527  -0.951  1.00  0.00     0.293 HD
ENDBRANCH  17  20
ENDBRANCH   1  12
BRANCH   2  22
ATOM     22  O   UNL     1      55.422  -1.315   0.008  1.00  0.00    -0.502 OA
ATOM     23  H   UNL     1      54.917  -1.446  -0.861  1.00  0.00     0.293 HD
ENDBRANCH   2  22
BRANCH   6  24
ATOM     24  O   UNL     1      56.000  -5.686   2.997  1.00  0.00    -0.507 OA
ATOM     25  H   UNL     1      55.491  -5.356   3.803  1.00  0.00     0.293 HD
ENDBRANCH   6  24
BRANCH   8  26
ATOM     26  O   UNL     1      60.783  -6.105   2.956  1.00  0.00    -0.508 OA
ATOM     27  H   UNL     1      61.127  -6.926   2.469  1.00  0.00     0.293 HD
ENDBRANCH   8  26
TORSDOF 6
ENDMDL
MODEL 2
REMARK VINA RESULT:    -6.813      1.607      2.244
REMARK INTER + INTRA:          -8.311
REMARK INTER:                  -8.036
REMARK INTRA:                  -0.275
REMARK UNBOUND:                -0.104
REMARK SMILES O=c1c(O)c(-c2ccc(O)c(O)c2)oc2cc(O)cc(O)c12
REMARK SMILES IDX 5 1 3 2 2 3 1 4 22 5 20 6 19 7 17 8 16 9 15 10 14 11 6 12
REMARK SMILES IDX 7 13 8 14 9 15 13 16 11 17 10 18 12 20 4 22 21 24 18 26
REMARK H PARENT 10 19 12 21 4 23 21 25 18 27
REMARK Flexibility Score: inf
ROOT
ATOM      1  C   UNL     1      58.478  -0.681  -0.176  1.00  0.00     0.180 A 
ATOM      2  C   UNL     1      57.329  -1.478  -0.030  1.00  0.00     0.208 A 
ATOM      3  C   UNL     1      57.355  -2.551   0.874  1.00  0.00     0.238 A 
ATOM      4  O   UNL     1      56.305  -3.227   1.040  1.00  0.00    -0.285 OA
ATOM      5  C   UNL     1      58.532  -2.823   1.612  1.00  0.00     0.111 A 
ATOM      6  C   UNL     1      58.683  -3.908   2.526  1.00  0.00     0.134 A 
ATOM      7  C   UNL     1      59.847  -4.004   3.298  1.00  0.00     0.093 A 
ATOM      8  C   UNL     1      60.894  -3.092   3.139  1.00  0.00     0.123 A 
ATOM      9  C   UNL     1      60.780  -2.065   2.206  1.00  0.00     0.094 A 
ATOM     10  C   UNL     1      59.615  -1.921   1.448  1.00  0.00     0.146 A 
ATOM     11  O   UNL     1      59.545  -0.922   0.578  1.00  0.00    -0.452 OA
ENDROOT
BRANCH   1  12
ATOM     12  C   UNL     1      58.536   0.452  -1.128  1.00  0.00     0.025 A 
ATOM     13  C   UNL     1      57.912   1.679  -0.844  1.00  0.00     0.016 A 
ATOM     14  C   UNL     1      57.959   2.727  -1.768  1.00  0.00     0.051 A 
ATOM     15  C   UNL     1      58.618   2.559  -2.993  1.00  0.00     0.157 A 
ATOM     16  C   UNL     1      59.176   0.282  -2.366  1.00  0.00     0.062 A 
ATOM     17  C   UNL     1      59.226   1.330  -3.294  1.00  0.00     0.158 A 
BRANCH  15  18
ATOM     18  O   UNL     1      58.665   3.606  -3.912  1.00  0.00    -0.504 OA
ATOM     19  H   UNL     1      59.543   3.939  -4.293  1.00  0.00     0.293 HD
ENDBRANCH  15  18
BRANCH  17  20
ATOM     20  O   UNL     1      59.883   1.128  -4.507  1.00  0.00    -0.504 OA
ATOM     21  H   UNL     1      60.574   0.397  -4.630  1.00  0.00     0.293 HD
ENDBRANCH  17  20
ENDBRANCH   1  12
BRANCH   2  22
ATOM     22  O   UNL     1      56.170  -1.178  -0.752  1.00  0.00    -0.502 OA
ATOM     23  H   UNL     1      55.336  -0.808  -0.312  1.00  0.00     0.293 HD
ENDBRANCH   2  22
BRANCH   6  24
ATOM     24  O   UNL     1      57.738  -4.925   2.695  1.00  0.00    -0.507 OA
ATOM     25  H   UNL     1      57.295  -5.426   1.940  1.00  0.00     0.293 HD
ENDBRANCH   6  24
BRANCH   8  26
ATOM     26  O   UNL     1      62.056  -3.204   3.899  1.00  0.00    -0.508 OA
ATOM     27  H   UNL     1      62.971  -3.027   3.499  1.00  0.00     0.293 HD
ENDBRANCH   8  26
TORSDOF 6
ENDMDL
MODEL 3
REMARK VINA RESULT:    -6.692      1.719      2.567
REMARK INTER + INTRA:          -8.165
REMARK INTER:                  -7.855
REMARK INTRA:                  -0.310
REMARK UNBOUND:                -0.104
REMARK SMILES O=c1c(O)c(-c2ccc(O)c(O)c2)oc2cc(O)cc(O)c12
REMARK SMILES IDX 5 1 3 2 2 3 1 4 22 5 20 6 19 7 17 8 16 9 15 10 14 11 6 12
REMARK SMILES IDX 7 13 8 14 9 15 13 16 11 17 10 18 12 20 4 22 21 24 18 26
REMARK H PARENT 10 19 12 21 4 23 21 25 18 27
REMARK Flexibility Score: inf
ROOT
ATOM      1  C   UNL     1      58.502  -1.629  -0.423  1.00  0.00     0.180 A 
ATOM      2  C   UNL     1      59.012  -1.652   0.887  1.00  0.00     0.208 A 
ATOM      3  C   UNL     1      58.746  -2.763   1.702  1.00  0.00     0.238 A 
ATOM      4  O   UNL     1      59.251  -2.803   2.855  1.00  0.00    -0.285 OA
ATOM      5  C   UNL     1      57.962  -3.832   1.204  1.00  0.00     0.111 A 
ATOM      6  C   UNL     1      57.598  -4.989   1.955  1.00  0.00     0.134 A 
ATOM      7  C   UNL     1      56.930  -6.043   1.319  1.00  0.00     0.093 A 
ATOM      8  C   UNL     1      56.554  -5.952  -0.024  1.00  0.00     0.123 A 
ATOM      9  C   UNL     1      56.854  -4.801  -0.749  1.00  0.00     0.094 A 
ATOM     10  C   UNL     1      57.552  -3.749  -0.153  1.00  0.00     0.146 A 
ATOM     11  O   UNL     1      57.825  -2.675  -0.883  1.00  0.00    -0.452 OA
ENDROOT
BRANCH   1  12
ATOM     12  C   UNL     1      58.718  -0.482  -1.333  1.00  0.00     0.025 A 
ATOM     13  C   UNL     1      59.776  -0.471  -2.259  1.00  0.00     0.016 A 
ATOM     14  C   UNL     1      59.975   0.634  -3.091  1.00  0.00     0.051 A 
ATOM     15  C   UNL     1      59.131   1.749  -3.002  1.00  0.00     0.157 A 
ATOM     16  C   UNL     1      57.887   0.647  -1.233  1.00  0.00     0.062 A 
ATOM     17  C   UNL     1      58.084   1.754  -2.066  1.00  0.00     0.158 A 
BRANCH  15  18
ATOM     18  O   UNL     1      59.331   2.848  -3.834  1.00  0.00    -0.504 OA
ATOM     19  H   UNL     1      59.249   2.773  -4.842  1.00  0.00     0.293 HD
ENDBRANCH  15  18
BRANCH  17  20
ATOM     20  O   UNL     1      57.230   2.850  -1.947  1.00  0.00    -0.504 OA
ATOM     21  H   UNL     1      57.532   3.794  -2.158  1.00  0.00     0.293 HD
ENDBRANCH  17  20
ENDBRANCH   1  12
BRANCH   2  22
ATOM     22  O   UNL     1      59.802  -0.596   1.352  1.00  0.00    -0.502 OA
ATOM     23  H   UNL     1      59.990  -0.451   2.338  1.00  0.00     0.293 HD
ENDBRANCH   2  22
BRANCH   6  24
ATOM     24  O   UNL     1      57.843  -5.141   3.323  1.00  0.00    -0.507 OA
ATOM     25  H   UNL     1      57.395  -5.825   3.913  1.00  0.00     0.293 HD
ENDBRANCH   6  24
BRANCH   8  26
ATOM     26  O   UNL     1      55.876  -6.998  -0.644  1.00  0.00    -0.508 OA
ATOM     27  H   UNL     1      55.324  -6.850  -1.482  1.00  0.00     0.293 HD
ENDBRANCH   8  26
TORSDOF 6
ENDMDL
MODEL 4
REMARK VINA RESULT:    -6.398      1.863      2.084
REMARK INTER + INTRA:          -7.812
REMARK INTER:                  -7.503
REMARK INTRA:                  -0.309
REMARK UNBOUND:                -0.104
REMARK SMILES O=c1c(O)c(-c2ccc(O)c(O)c2)oc2cc(O)cc(O)c12
REMARK SMILES IDX 5 1 3 2 2 3 1 4 22 5 20 6 19 7 17 8 16 9 15 10 14 11 6 12
REMARK SMILES IDX 7 13 8 14 9 15 13 16 11 17 10 18 12 20 4 22 21 24 18 26
REMARK H PARENT 10 19 12 21 4 23 21 25 18 27
REMARK Flexibility Score: inf
ROOT
ATOM      1  C   UNL     1      58.374  -1.523  -1.311  1.00  0.00     0.180 A 
ATOM      2  C   UNL     1      57.693  -2.574  -1.952  1.00  0.00     0.208 A 
ATOM      3  C   UNL     1      57.512  -3.785  -1.267  1.00  0.00     0.238 A 
ATOM      4  O   UNL     1      56.855  -4.703  -1.825  1.00  0.00    -0.285 OA
ATOM      5  C   UNL     1      58.025  -3.938   0.044  1.00  0.00     0.111 A 
ATOM      6  C   UNL     1      57.934  -5.134   0.816  1.00  0.00     0.134 A 
ATOM      7  C   UNL     1      58.361  -5.130   2.149  1.00  0.00     0.093 A 
ATOM      8  C   UNL     1      58.938  -3.991   2.717  1.00  0.00     0.123 A 
ATOM      9  C   UNL     1      59.086  -2.837   1.953  1.00  0.00     0.094 A 
ATOM     10  C   UNL     1      58.635  -2.798   0.631  1.00  0.00     0.146 A 
ATOM     11  O   UNL     1      58.786  -1.675  -0.058  1.00  0.00    -0.452 OA
ENDROOT
BRANCH   1  12
ATOM     12  C   UNL     1      58.626  -0.226  -1.978  1.00  0.00     0.025 A 
ATOM     13  C   UNL     1      59.675  -0.069  -2.901  1.00  0.00     0.016 A 
ATOM     14  C   UNL     1      59.910   1.172  -3.500  1.00  0.00     0.051 A 
ATOM     15  C   UNL     1      59.110   2.276  -3.176  1.00  0.00     0.157 A 
ATOM     16  C   UNL     1      57.842   0.890  -1.641  1.00  0.00     0.062 A 
ATOM     17  C   UNL     1      58.074   2.133  -2.240  1.00  0.00     0.158 A 
BRANCH  15  18
ATOM     18  O   UNL     1      59.346   3.511  -3.777  1.00  0.00    -0.504 OA
ATOM     19  H   UNL     1      59.560   4.337  -3.228  1.00  0.00     0.293 HD
ENDBRANCH  15  18
BRANCH  17  20
ATOM     20  O   UNL     1      57.265   3.214  -1.890  1.00  0.00    -0.504 OA
ATOM     21  H   UNL     1      56.300   3.284  -2.193  1.00  0.00     0.293 HD
ENDBRANCH  17  20
ENDBRANCH   1  12
BRANCH   2  22
ATOM     22  O   UNL     1      57.176  -2.394  -3.238  1.00  0.00    -0.502 OA
ATOM     23  H   UNL     1      56.356  -2.891  -3.568  1.00  0.00     0.293 HD
ENDBRANCH   2  22
BRANCH   6  24
ATOM     24  O   UNL     1      57.460  -6.351   0.317  1.00  0.00    -0.507 OA
ATOM     25  H   UNL     1      56.490  -6.625   0.301  1.00  0.00     0.293 HD
ENDBRANCH   6  24
BRANCH   8  26
ATOM     26  O   UNL     1      59.376  -4.000   4.040  1.00  0.00    -0.508 OA
ATOM     27  H   UNL     1      60.356  -4.108   4.273  1.00  0.00     0.293 HD
ENDBRANCH   8  26
TORSDOF 6
ENDMDL
MODEL 5
REMARK VINA RESULT:    -6.326      2.274      7.361
REMARK INTER + INTRA:          -7.724
REMARK INTER:                  -7.891
REMARK INTRA:                   0.167
REMARK UNBOUND:                -0.104
REMARK SMILES O=c1c(O)c(-c2ccc(O)c(O)c2)oc2cc(O)cc(O)c12
REMARK SMILES IDX 5 1 3 2 2 3 1 4 22 5 20 6 19 7 17 8 16 9 15 10 14 11 6 12
REMARK SMILES IDX 7 13 8 14 9 15 13 16 11 17 10 18 12 20 4 22 21 24 18 26
REMARK H PARENT 10 19 12 21 4 23 21 25 18 27
REMARK Flexibility Score: inf
ROOT
ATOM      1  C   UNL     1      58.008  -1.579  -0.894  1.00  0.00     0.180 A 
ATOM      2  C   UNL     1      59.316  -1.959  -1.245  1.00  0.00     0.208 A 
ATOM      3  C   UNL     1      60.102  -1.073  -1.998  1.00  0.00     0.238 A 
ATOM      4  O   UNL     1      61.290  -1.395  -2.263  1.00  0.00    -0.285 OA
ATOM      5  C   UNL     1      59.568   0.174  -2.403  1.00  0.00     0.111 A 
ATOM      6  C   UNL     1      60.262   1.132  -3.202  1.00  0.00     0.134 A 
ATOM      7  C   UNL     1      59.685   2.387  -3.432  1.00  0.00     0.093 A 
ATOM      8  C   UNL     1      58.410   2.693  -2.948  1.00  0.00     0.123 A 
ATOM      9  C   UNL     1      57.701   1.743  -2.218  1.00  0.00     0.094 A 
ATOM     10  C   UNL     1      58.266   0.496  -1.940  1.00  0.00     0.146 A 
ATOM     11  O   UNL     1      57.559  -0.376  -1.233  1.00  0.00    -0.452 OA
ENDROOT
BRANCH   1  12
ATOM     12  C   UNL     1      57.110  -2.469  -0.123  1.00  0.00     0.025 A 
ATOM     13  C   UNL     1      56.310  -1.974   0.923  1.00  0.00     0.016 A 
ATOM     14  C   UNL     1      55.487  -2.837   1.652  1.00  0.00     0.051 A 
ATOM     15  C   UNL     1      55.461  -4.207   1.357  1.00  0.00     0.157 A 
ATOM     16  C   UNL     1      57.095  -3.846  -0.401  1.00  0.00     0.062 A 
ATOM     17  C   UNL     1      56.272  -4.712   0.327  1.00  0.00     0.158 A 
BRANCH  15  18
ATOM     18  O   UNL     1      54.639  -5.064   2.085  1.00  0.00    -0.504 OA
ATOM     19  H   UNL     1      53.981  -5.685   1.627  1.00  0.00     0.293 HD
ENDBRANCH  15  18
BRANCH  17  20
ATOM     20  O   UNL     1      56.274  -6.071   0.014  1.00  0.00    -0.504 OA
ATOM     21  H   UNL     1      55.722  -6.744   0.532  1.00  0.00     0.293 HD
ENDBRANCH  17  20
ENDBRANCH   1  12
BRANCH   2  22
ATOM     22  O   UNL     1      59.830  -3.186  -0.816  1.00  0.00    -0.502 OA
ATOM     23  H   UNL     1      59.962  -3.407   0.164  1.00  0.00     0.293 HD
ENDBRANCH   2  22
BRANCH   6  24
ATOM     24  O   UNL     1      61.499   0.893  -3.809  1.00  0.00    -0.507 OA
ATOM     25  H   UNL     1      61.817   1.339  -4.655  1.00  0.00     0.293 HD
ENDBRANCH   6  24
BRANCH   8  26
ATOM     26  O   UNL     1      57.837   3.939  -3.195  1.00  0.00    -0.508 OA
ATOM     27  H   UNL     1      56.838   4.045  -3.329  1.00  0.00     0.293 HD
ENDBRANCH   8  26
TORSDOF 6
ENDMDL
MODEL 6
REMARK VINA RESULT:    -6.110      2.228      3.203
REMARK INTER + INTRA:          -7.464
REMARK INTER:                  -7.140
REMARK INTRA:                  -0.324
REMARK UNBOUND:                -0.104
REMARK SMILES O=c1c(O)c(-c2ccc(O)c(O)c2)oc2cc(O)cc(O)c12
REMARK SMILES IDX 5 1 3 2 2 3 1 4 22 5 20 6 19 7 17 8 16 9 15 10 14 11 6 12
REMARK SMILES IDX 7 13 8 14 9 15 13 16 11 17 10 18 12 20 4 22 21 24 18 26
REMARK H PARENT 10 19 12 21 4 23 21 25 18 27
REMARK Flexibility Score: inf
ROOT
ATOM      1  C   UNL     1      58.878  -1.632  -1.319  1.00  0.00     0.180 A 
ATOM      2  C   UNL     1      59.609  -1.922  -0.153  1.00  0.00     0.208 A 
ATOM      3  C   UNL     1      59.455  -3.180   0.451  1.00  0.00     0.238 A 
ATOM      4  O   UNL     1      60.152  -3.454   1.463  1.00  0.00    -0.285 OA
ATOM      5  C   UNL     1      58.563  -4.127  -0.109  1.00  0.00     0.111 A 
ATOM      6  C   UNL     1      58.299  -5.416   0.443  1.00  0.00     0.134 A 
ATOM      7  C   UNL     1      57.498  -6.320  -0.266  1.00  0.00     0.093 A 
ATOM      8  C   UNL     1      56.897  -5.955  -1.474  1.00  0.00     0.123 A 
ATOM      9  C   UNL     1      57.101  -4.678  -1.990  1.00  0.00     0.094 A 
ATOM     10  C   UNL     1      57.925  -3.768  -1.325  1.00  0.00     0.146 A 
ATOM     11  O   UNL     1      58.099  -2.564  -1.856  1.00  0.00    -0.452 OA
ENDROOT
BRANCH   1  12
ATOM     12  C   UNL     1      58.968  -0.320  -1.999  1.00  0.00     0.025 A 
ATOM     13  C   UNL     1      59.932  -0.074  -2.992  1.00  0.00     0.016 A 
ATOM     14  C   UNL     1      60.014   1.180  -3.603  1.00  0.00     0.051 A 
ATOM     15  C   UNL     1      59.144   2.211  -3.222  1.00  0.00     0.157 A 
ATOM     16  C   UNL     1      58.113   0.723  -1.606  1.00  0.00     0.062 A 
ATOM     17  C   UNL     1      58.191   1.980  -2.216  1.00  0.00     0.158 A 
BRANCH  15  18
ATOM     18  O   UNL     1      59.227   3.459  -3.834  1.00  0.00    -0.504 OA
ATOM     19  H   UNL     1      58.520   3.779  -4.486  1.00  0.00     0.293 HD
ENDBRANCH  15  18
BRANCH  17  20
ATOM     20  O   UNL     1      57.316   2.986  -1.809  1.00  0.00    -0.504 OA
ATOM     21  H   UNL     1      57.553   3.639  -1.071  1.00  0.00     0.293 HD
ENDBRANCH  17  20
ENDBRANCH   1  12
BRANCH   2  22
ATOM     22  O   UNL     1      60.500  -0.981   0.370  1.00  0.00    -0.502 OA
ATOM     23  H   UNL     1      61.339  -1.248   0.872  1.00  0.00     0.293 HD
ENDBRANCH   2  22
BRANCH   6  24
ATOM     24  O   UNL     1      58.775  -5.846   1.685  1.00  0.00    -0.507 OA
ATOM     25  H   UNL     1      59.681  -5.617   2.063  1.00  0.00     0.293 HD
ENDBRANCH   6  24
BRANCH   8  26
ATOM     26  O   UNL     1      56.088  -6.855  -2.166  1.00  0.00    -0.508 OA
ATOM     27  H   UNL     1      56.087  -7.844  -1.944  1.00  0.00     0.293 HD
ENDBRANCH   8  26
TORSDOF 6
ENDMDL
MODEL 7
REMARK VINA RESULT:    -6.100      2.030      7.141
REMARK INTER + INTRA:          -7.452
REMARK INTER:                  -7.117
REMARK INTRA:                  -0.335
REMARK UNBOUND:                -0.104
REMARK SMILES O=c1c(O)c(-c2ccc(O)c(O)c2)oc2cc(O)cc(O)c12
REMARK SMILES IDX 5 1 3 2 2 3 1 4 22 5 20 6 19 7 17 8 16 9 15 10 14 11 6 12
REMARK SMILES IDX 7 13 8 14 9 15 13 16 11 17 10 18 12 20 4 22 21 24 18 26
REMARK H PARENT 10 19 12 21 4 23 21 25 18 27
REMARK Flexibility Score: inf
ROOT
ATOM      1  C   UNL     1      57.203  -3.720  -0.188  1.00  0.00     0.180 A 
ATOM      2  C   UNL     1      58.165  -4.174  -1.108  1.00  0.00     0.208 A 
ATOM      3  C   UNL     1      58.832  -3.237  -1.913  1.00  0.00     0.238 A 
ATOM      4  O   UNL     1      59.730  -3.643  -2.696  1.00  0.00    -0.285 OA
ATOM      5  C   UNL     1      58.520  -1.860  -1.799  1.00  0.00     0.111 A 
ATOM      6  C   UNL     1      59.105  -0.829  -2.591  1.00  0.00     0.134 A 
ATOM      7  C   UNL     1      58.818   0.511  -2.302  1.00  0.00     0.093 A 
ATOM      8  C   UNL     1      57.914   0.852  -1.293  1.00  0.00     0.123 A 
ATOM      9  C   UNL     1      57.293  -0.151  -0.554  1.00  0.00     0.094 A 
ATOM     10  C   UNL     1      57.588  -1.495  -0.793  1.00  0.00     0.146 A 
ATOM     11  O   UNL     1      56.980  -2.418  -0.059  1.00  0.00    -0.452 OA
ENDROOT
BRANCH   1  12
ATOM     12  C   UNL     1      56.440  -4.649   0.676  1.00  0.00     0.025 A 
ATOM     13  C   UNL     1      55.223  -5.212   0.251  1.00  0.00     0.016 A 
ATOM     14  C   UNL     1      54.508  -6.068   1.094  1.00  0.00     0.051 A 
ATOM     15  C   UNL     1      54.989  -6.363   2.376  1.00  0.00     0.157 A 
ATOM     16  C   UNL     1      56.907  -4.932   1.970  1.00  0.00     0.062 A 
ATOM     17  C   UNL     1      56.193  -5.789   2.816  1.00  0.00     0.158 A 
BRANCH  15  18
ATOM     18  O   UNL     1      54.275  -7.218   3.213  1.00  0.00    -0.504 OA
ATOM     19  H   UNL     1      54.728  -7.729   3.962  1.00  0.00     0.293 HD
ENDBRANCH  15  18
BRANCH  17  20
ATOM     20  O   UNL     1      56.696  -6.057   4.089  1.00  0.00    -0.504 OA
ATOM     21  H   UNL     1      57.690  -6.144   4.267  1.00  0.00     0.293 HD
ENDBRANCH  17  20
ENDBRANCH   1  12
BRANCH   2  22
ATOM     22  O   UNL     1      58.473  -5.535  -1.189  1.00  0.00    -0.502 OA
ATOM     23  H   UNL     1      58.430  -6.051  -2.060  1.00  0.00     0.293 HD
ENDBRANCH   2  22
BRANCH   6  24
ATOM     24  O   UNL     1      59.948  -1.065  -3.682  1.00  0.00    -0.507 OA
ATOM     25  H   UNL     1      60.730  -0.482  -3.938  1.00  0.00     0.293 HD
ENDBRANCH   6  24
BRANCH   8  26
ATOM     26  O   UNL     1      57.621   2.187  -1.022  1.00  0.00    -0.508 OA
ATOM     27  H   UNL     1      57.320   2.488  -0.102  1.00  0.00     0.293 HD
ENDBRANCH   8  26
TORSDOF 6
ENDMDL
MODEL 8
REMARK VINA RESULT:    -6.014      1.463      3.055
REMARK INTER + INTRA:          -7.349
REMARK INTER:                  -7.071
REMARK INTRA:                  -0.278
REMARK UNBOUND:                -0.104
REMARK SMILES O=c1c(O)c(-c2ccc(O)c(O)c2)oc2cc(O)cc(O)c12
REMARK SMILES IDX 5 1 3 2 2 3 1 4 22 5 20 6 19 7 17 8 16 9 15 10 14 11 6 12
REMARK SMILES IDX 7 13 8 14 9 15 13 16 11 17 10 18 12 20 4 22 21 24 18 26
REMARK H PARENT 10 19 12 21 4 23 21 25 18 27
REMARK Flexibility Score: inf
ROOT
ATOM      1  C   UNL     1      57.766  -2.760   0.123  1.00  0.00     0.180 A 
ATOM      2  C   UNL     1      58.829  -3.452   0.729  1.00  0.00     0.208 A 
ATOM      3  C   UNL     1      58.540  -4.494   1.624  1.00  0.00     0.238 A 
ATOM      4  O   UNL     1      59.496  -5.145   2.122  1.00  0.00    -0.285 OA
ATOM      5  C   UNL     1      57.193  -4.822   1.914  1.00  0.00     0.111 A 
ATOM      6  C   UNL     1      56.786  -5.832   2.835  1.00  0.00     0.134 A 
ATOM      7  C   UNL     1      55.428  -6.159   2.945  1.00  0.00     0.093 A 
ATOM      8  C   UNL     1      54.459  -5.466   2.215  1.00  0.00     0.123 A 
ATOM      9  C   UNL     1      54.843  -4.438   1.358  1.00  0.00     0.094 A 
ATOM     10  C   UNL     1      56.192  -4.114   1.199  1.00  0.00     0.146 A 
ATOM     11  O   UNL     1      56.514  -3.134   0.364  1.00  0.00    -0.452 OA
ENDROOT
BRANCH   1  12
ATOM     12  C   UNL     1      57.990  -1.634  -0.812  1.00  0.00     0.025 A 
ATOM     13  C   UNL     1      58.389  -1.855  -2.142  1.00  0.00     0.016 A 
ATOM     14  C   UNL     1      58.618  -0.776  -3.000  1.00  0.00     0.051 A 
ATOM     15  C   UNL     1      58.467   0.539  -2.539  1.00  0.00     0.157 A 
ATOM     16  C   UNL     1      57.860  -0.314  -0.349  1.00  0.00     0.062 A 
ATOM     17  C   UNL     1      58.088   0.769  -1.206  1.00  0.00     0.158 A 
BRANCH  15  18
ATOM     18  O   UNL     1      58.694   1.613  -3.397  1.00  0.00    -0.504 OA
ATOM     19  H   UNL     1      59.445   1.598  -4.078  1.00  0.00     0.293 HD
ENDBRANCH  15  18
BRANCH  17  20
ATOM     20  O   UNL     1      57.935   2.065  -0.714  1.00  0.00    -0.504 OA
ATOM     21  H   UNL     1      57.369   2.267   0.101  1.00  0.00     0.293 HD
ENDBRANCH  17  20
ENDBRANCH   1  12
BRANCH   2  22
ATOM     22  O   UNL     1      60.151  -3.126   0.413  1.00  0.00    -0.502 OA
ATOM     23  H   UNL     1      60.556  -3.320  -0.496  1.00  0.00     0.293 HD
ENDBRANCH   2  22
BRANCH   6  24
ATOM     24  O   UNL     1      57.663  -6.520   3.679  1.00  0.00    -0.507 OA
ATOM     25  H   UNL     1      58.176  -6.100   4.439  1.00  0.00     0.293 HD
ENDBRANCH   6  24
BRANCH   8  26
ATOM     26  O   UNL     1      53.109  -5.787   2.342  1.00  0.00    -0.508 OA
ATOM     27  H   UNL     1      52.709  -6.051   3.235  1.00  0.00     0.293 HD
ENDBRANCH   8  26
TORSDOF 6
ENDMDL
MODEL 9
REMARK VINA RESULT:    -5.924      4.093      7.069
REMARK INTER + INTRA:          -7.240
REMARK INTER:                  -6.906
REMARK INTRA:                  -0.334
REMARK UNBOUND:                -0.104
REMARK SMILES O=c1c(O)c(-c2ccc(O)c(O)c2)oc2cc(O)cc(O)c12
REMARK SMILES IDX 5 1 3 2 2 3 1 4 22 5 20 6 19 7 17 8 16 9 15 10 14 11 6 12
REMARK SMILES IDX 7 13 8 14 9 15 13 16 11 17 10 18 12 20 4 22 21 24 18 26
REMARK H PARENT 10 19 12 21 4 23 21 25 18 27
REMARK Flexibility Score: inf
ROOT
ATOM      1  C   UNL     1      59.598  -2.534  -3.659  1.00  0.00     0.180 A 
ATOM      2  C   UNL     1      58.699  -2.888  -2.638  1.00  0.00     0.208 A 
ATOM      3  C   UNL     1      58.100  -1.873  -1.876  1.00  0.00     0.238 A 
ATOM      4  O   UNL     1      57.254  -2.193  -1.000  1.00  0.00    -0.285 OA
ATOM      5  C   UNL     1      58.417  -0.517  -2.134  1.00  0.00     0.111 A 
ATOM      6  C   UNL     1      57.900   0.590  -1.399  1.00  0.00     0.134 A 
ATOM      7  C   UNL     1      58.180   1.894  -1.825  1.00  0.00     0.093 A 
ATOM      8  C   UNL     1      59.014   2.129  -2.922  1.00  0.00     0.123 A 
ATOM      9  C   UNL     1      59.572   1.055  -3.609  1.00  0.00     0.094 A 
ATOM     10  C   UNL     1      59.280  -0.258  -3.231  1.00  0.00     0.146 A 
ATOM     11  O   UNL     1      59.825  -1.252  -3.920  1.00  0.00    -0.452 OA
ENDROOT
BRANCH   1  12
ATOM     12  C   UNL     1      60.288  -3.549  -4.487  1.00  0.00     0.025 A 
ATOM     13  C   UNL     1      61.512  -4.113  -4.085  1.00  0.00     0.016 A 
ATOM     14  C   UNL     1      62.158  -5.051  -4.895  1.00  0.00     0.051 A 
ATOM     15  C   UNL     1      61.599  -5.430  -6.123  1.00  0.00     0.157 A 
ATOM     16  C   UNL     1      59.744  -3.916  -5.729  1.00  0.00     0.062 A 
ATOM     17  C   UNL     1      60.388  -4.856  -6.542  1.00  0.00     0.158 A 
BRANCH  15  18
ATOM     18  O   UNL     1      62.245  -6.367  -6.927  1.00  0.00    -0.504 OA
ATOM     19  H   UNL     1      62.893  -6.086  -7.654  1.00  0.00     0.293 HD
ENDBRANCH  15  18
BRANCH  17  20
ATOM     20  O   UNL     1      59.809  -5.205  -7.761  1.00  0.00    -0.504 OA
ATOM     21  H   UNL     1      59.477  -6.144  -7.950  1.00  0.00     0.293 HD
ENDBRANCH  17  20
ENDBRANCH   1  12
BRANCH   2  22
ATOM     22  O   UNL     1      58.383  -4.232  -2.414  1.00  0.00    -0.502 OA
ATOM     23  H   UNL     1      57.526  -4.520  -1.955  1.00  0.00     0.293 HD
ENDBRANCH   2  22
BRANCH   6  24
ATOM     24  O   UNL     1      57.133   0.466  -0.236  1.00  0.00    -0.507 OA
ATOM     25  H   UNL     1      57.029   1.186   0.462  1.00  0.00     0.293 HD
ENDBRANCH   6  24
BRANCH   8  26
ATOM     26  O   UNL     1      59.301   3.430  -3.330  1.00  0.00    -0.508 OA
ATOM     27  H   UNL     1      58.723   3.912  -4.010  1.00  0.00     0.293 HD
ENDBRANCH   8  26
TORSDOF 6
ENDMDL
