MODEL 1
REMARK VINA RESULT:    -3.467      0.000      0.000
REMARK INTER + INTRA:          -9.037
REMARK INTER:                  -6.709
REMARK INTRA:                  -2.329
REMARK UNBOUND:                -2.329
REMARK SMILES CCCCCCCCCCCCCCCCCC(=O)[O-]
REMARK SMILES IDX 10 1 11 2 12 3 13 4 14 5 15 6 16 7 17 8 18 9 19 10 20 11
REMARK SMILES IDX 9 12 8 13 7 14 6 15 5 16 4 17 3 18 2 19 1 20
REMARK H PARENT
REMARK Flexibility Score: inf
ROOT
ATOM      1  C   UNL     1       1.900 108.138 180.079  1.00  0.00     0.000 C 
ENDROOT
BRANCH   1   2
ATOM      2  C   UNL     1       0.716 108.121 179.098  1.00  0.00     0.000 C 
BRANCH   2   3
ATOM      3  C   UNL     1       0.285 106.696 178.717  1.00  0.00     0.000 C 
BRANCH   3   4
ATOM      4  C   UNL     1       0.520 106.380 177.232  1.00  0.00     0.000 C 
BRANCH   4   5
ATOM      5  C   UNL     1       1.470 105.183 177.072  1.00  0.00     0.000 C 
BRANCH   5   6
ATOM      6  C   UNL     1       2.115 104.748 178.399  1.00  0.00     0.000 C 
BRANCH   6   7
ATOM      7  C   UNL     1       3.582 104.288 178.297  1.00  0.00     0.006 C 
BRANCH   7   8
ATOM      8  C   UNL     1       4.299 104.755 177.016  1.00  0.00     0.053 C 
BRANCH   8   9
ATOM      9  C   UNL     1       4.861 103.615 176.220  1.00  0.00     0.041 C 
ATOM     10  O   UNL     1       4.785 103.620 174.963  1.00  0.00    -0.550 OA
ATOM     11  O   UNL     1       5.432 102.528 176.869  1.00  0.00    -0.550 OA
ENDBRANCH   8   9
ENDBRANCH   7   8
ENDBRANCH   6   7
ENDBRANCH   5   6
ENDBRANCH   4   5
ENDBRANCH   3   4
ENDBRANCH   2   3
ENDBRANCH   1   2
BRANCH   1  12
ATOM     12  C   UNL     1       3.266 108.183 179.371  1.00  0.00     0.000 C 
BRANCH  12  13
ATOM     13  C   UNL     1       4.386 107.379 180.057  1.00  0.00    -0.000 C 
BRANCH  13  14
ATOM     14  C   UNL     1       3.880 106.527 181.231  1.00  0.00    -0.000 C 
BRANCH  14  15
ATOM     15  C   UNL     1       4.688 106.807 182.503  1.00  0.00    -0.000 C 
BRANCH  15  16
ATOM     16  C   UNL     1       4.404 108.219 183.036  1.00  0.00    -0.000 C 
BRANCH  16  17
ATOM     17  C   UNL     1       2.907 108.480 183.280  1.00  0.00    -0.000 C 
BRANCH  17  18
ATOM     18  C   UNL     1       2.482 109.957 183.190  1.00  0.00    -0.000 C 
BRANCH  18  19
ATOM     19  C   UNL     1       3.638 110.890 182.805  1.00  0.00    -0.003 C 
ATOM     20  C   UNL     1       3.908 111.915 183.904  1.00  0.00     0.004 C 
ENDBRANCH  18  19
ENDBRANCH  17  18
ENDBRANCH  16  17
ENDBRANCH  15  16
ENDBRANCH  14  15
ENDBRANCH  13  14
ENDBRANCH  12  13
ENDBRANCH   1  12
TORSDOF 16
ENDMDL
MODEL 2
REMARK VINA RESULT:    -3.371      3.771      8.103
REMARK INTER + INTRA:          -8.853
REMARK INTER:                  -6.863
REMARK INTRA:                  -1.990
REMARK UNBOUND:                -2.329
REMARK SMILES CCCCCCCCCCCCCCCCCC(=O)[O-]
REMARK SMILES IDX 10 1 11 2 12 3 13 4 14 5 15 6 16 7 17 8 18 9 19 10 20 11
REMARK SMILES IDX 9 12 8 13 7 14 6 15 5 16 4 17 3 18 2 19 1 20
REMARK H PARENT
REMARK Flexibility Score: inf
ROOT
ATOM      1  C   UNL     1       2.604 105.561 176.611  1.00  0.00     0.000 C 
ENDROOT
BRANCH   1   2
ATOM      2  C   UNL     1       2.904 106.333 177.907  1.00  0.00     0.000 C 
BRANCH   2   3
ATOM      3  C   UNL     1       2.107 105.803 179.109  1.00  0.00     0.000 C 
BRANCH   3   4
ATOM      4  C   UNL     1       3.007 105.203 180.201  1.00  0.00     0.000 C 
BRANCH   4   5
ATOM      5  C   UNL     1       4.363 105.922 180.246  1.00  0.00     0.000 C 
BRANCH   5   6
ATOM      6  C   UNL     1       4.617 106.641 181.582  1.00  0.00     0.000 C 
BRANCH   6   7
ATOM      7  C   UNL     1       3.363 107.219 182.266  1.00  0.00     0.006 C 
BRANCH   7   8
ATOM      8  C   UNL     1       2.910 108.579 181.701  1.00  0.00     0.053 C 
BRANCH   8   9
ATOM      9  C   UNL     1       2.556 109.562 182.776  1.00  0.00     0.041 C 
ATOM     10  O   UNL     1       3.282 110.571 182.979  1.00  0.00    -0.550 OA
ATOM     11  O   UNL     1       1.446 109.343 183.583  1.00  0.00    -0.550 OA
ENDBRANCH   8   9
ENDBRANCH   7   8
ENDBRANCH   6   7
ENDBRANCH   5   6
ENDBRANCH   4   5
ENDBRANCH   3   4
ENDBRANCH   2   3
ENDBRANCH   1   2
BRANCH   1  12
ATOM     12  C   UNL     1       3.819 104.775 176.086  1.00  0.00     0.000 C 
BRANCH  12  13
ATOM     13  C   UNL     1       4.557 103.928 177.139  1.00  0.00    -0.000 C 
BRANCH  13  14
ATOM     14  C   UNL     1       6.066 104.214 177.189  1.00  0.00    -0.000 C 
BRANCH  14  15
ATOM     15  C   UNL     1       6.875 102.970 176.803  1.00  0.00    -0.000 C 
BRANCH  15  16
ATOM     16  C   UNL     1       5.953 101.764 176.572  1.00  0.00    -0.000 C 
BRANCH  16  17
ATOM     17  C   UNL     1       6.018 101.224 175.132  1.00  0.00    -0.000 C 
BRANCH  17  18
ATOM     18  C   UNL     1       4.796 101.559 174.258  1.00  0.00    -0.000 C 
BRANCH  18  19
ATOM     19  C   UNL     1       5.053 102.722 173.290  1.00  0.00    -0.003 C 
ATOM     20  C   UNL     1       6.549 102.930 173.065  1.00  0.00     0.004 C 
ENDBRANCH  18  19
ENDBRANCH  17  18
ENDBRANCH  16  17
ENDBRANCH  15  16
ENDBRANCH  14  15
ENDBRANCH  13  14
ENDBRANCH  12  13
ENDBRANCH   1  12
TORSDOF 16
ENDMDL
MODEL 3
REMARK VINA RESULT:    -3.365      3.414      7.153
REMARK INTER + INTRA:          -8.840
REMARK INTER:                  -6.205
REMARK INTRA:                  -2.635
REMARK UNBOUND:                -2.329
REMARK SMILES CCCCCCCCCCCCCCCCCC(=O)[O-]
REMARK SMILES IDX 10 1 11 2 12 3 13 4 14 5 15 6 16 7 17 8 18 9 19 10 20 11
REMARK SMILES IDX 9 12 8 13 7 14 6 15 5 16 4 17 3 18 2 19 1 20
REMARK H PARENT
REMARK Flexibility Score: inf
ROOT
ATOM      1  C   UNL     1       3.594 108.087 179.387  1.00  0.00     0.000 C 
ENDROOT
BRANCH   1   2
ATOM      2  C   UNL     1       3.626 106.840 180.287  1.00  0.00     0.000 C 
BRANCH   2   3
ATOM      3  C   UNL     1       4.901 106.005 180.095  1.00  0.00     0.000 C 
BRANCH   3   4
ATOM      4  C   UNL     1       5.889 106.150 181.264  1.00  0.00     0.000 C 
BRANCH   4   5
ATOM      5  C   UNL     1       5.172 106.660 182.523  1.00  0.00     0.000 C 
BRANCH   5   6
ATOM      6  C   UNL     1       6.057 107.574 183.388  1.00  0.00     0.000 C 
BRANCH   6   7
ATOM      7  C   UNL     1       5.448 108.948 183.727  1.00  0.00     0.006 C 
BRANCH   7   8
ATOM      8  C   UNL     1       4.697 109.609 182.555  1.00  0.00     0.053 C 
BRANCH   8   9
ATOM      9  C   UNL     1       3.278 109.949 182.898  1.00  0.00     0.041 C 
ATOM     10  O   UNL     1       2.356 109.119 182.684  1.00  0.00    -0.550 OA
ATOM     11  O   UNL     1       2.967 111.200 183.416  1.00  0.00    -0.550 OA
ENDBRANCH   8   9
ENDBRANCH   7   8
ENDBRANCH   6   7
ENDBRANCH   5   6
ENDBRANCH   4   5
ENDBRANCH   3   4
ENDBRANCH   2   3
ENDBRANCH   1   2
BRANCH   1  12
ATOM     12  C   UNL     1       2.178 108.439 178.897  1.00  0.00     0.000 C 
BRANCH  12  13
ATOM     13  C   UNL     1       1.029 107.794 179.696  1.00  0.00    -0.000 C 
BRANCH  13  14
ATOM     14  C   UNL     1       0.081 106.964 178.818  1.00  0.00    -0.000 C 
BRANCH  14  15
ATOM     15  C   UNL     1       0.714 106.665 177.455  1.00  0.00    -0.000 C 
BRANCH  15  16
ATOM     16  C   UNL     1       0.979 105.162 177.288  1.00  0.00    -0.000 C 
BRANCH  16  17
ATOM     17  C   UNL     1       2.472 104.800 177.384  1.00  0.00    -0.000 C 
BRANCH  17  18
ATOM     18  C   UNL     1       3.404 105.646 176.497  1.00  0.00    -0.000 C 
BRANCH  18  19
ATOM     19  C   UNL     1       4.866 105.184 176.553  1.00  0.00    -0.003 C 
ATOM     20  C   UNL     1       4.971 103.749 177.065  1.00  0.00     0.004 C 
ENDBRANCH  18  19
ENDBRANCH  17  18
ENDBRANCH  16  17
ENDBRANCH  15  16
ENDBRANCH  14  15
ENDBRANCH  13  14
ENDBRANCH  12  13
ENDBRANCH   1  12
TORSDOF 16
ENDMDL
MODEL 4
REMARK VINA RESULT:    -3.335      3.807      7.271
REMARK INTER + INTRA:          -8.783
REMARK INTER:                  -6.487
REMARK INTRA:                  -2.295
REMARK UNBOUND:                -2.329
REMARK SMILES CCCCCCCCCCCCCCCCCC(=O)[O-]
REMARK SMILES IDX 10 1 11 2 12 3 13 4 14 5 15 6 16 7 17 8 18 9 19 10 20 11
REMARK SMILES IDX 9 12 8 13 7 14 6 15 5 16 4 17 3 18 2 19 1 20
REMARK H PARENT
REMARK Flexibility Score: inf
ROOT
ATOM      1  C   UNL     1       3.300 108.694 180.271  1.00  0.00     0.000 C 
ENDROOT
BRANCH   1   2
ATOM      2  C   UNL     1       2.769 108.814 181.709  1.00  0.00     0.000 C 
BRANCH   2   3
ATOM      3  C   UNL     1       3.612 108.019 182.719  1.00  0.00     0.000 C 
BRANCH   3   4
ATOM      4  C   UNL     1       4.192 106.727 182.123  1.00  0.00     0.000 C 
BRANCH   4   5
ATOM      5  C   UNL     1       5.724 106.718 182.227  1.00  0.00     0.000 C 
BRANCH   5   6
ATOM      6  C   UNL     1       6.234 107.110 183.625  1.00  0.00     0.000 C 
BRANCH   6   7
ATOM      7  C   UNL     1       7.182 108.324 183.662  1.00  0.00     0.006 C 
BRANCH   7   8
ATOM      8  C   UNL     1       6.749 109.429 184.644  1.00  0.00     0.053 C 
BRANCH   8   9
ATOM      9  C   UNL     1       6.198 110.638 183.948  1.00  0.00     0.041 C 
ATOM     10  O   UNL     1       5.987 110.614 182.706  1.00  0.00    -0.550 OA
ATOM     11  O   UNL     1       5.956 111.804 184.663  1.00  0.00    -0.550 OA
ENDBRANCH   8   9
ENDBRANCH   7   8
ENDBRANCH   6   7
ENDBRANCH   5   6
ENDBRANCH   4   5
ENDBRANCH   3   4
ENDBRANCH   2   3
ENDBRANCH   1   2
BRANCH   1  12
ATOM     12  C   UNL     1       2.185 108.471 179.235  1.00  0.00     0.000 C 
BRANCH  12  13
ATOM     13  C   UNL     1       0.859 107.931 179.804  1.00  0.00    -0.000 C 
BRANCH  13  14
ATOM     14  C   UNL     1      -0.117 107.467 178.713  1.00  0.00    -0.000 C 
BRANCH  14  15
ATOM     15  C   UNL     1       0.626 107.139 177.413  1.00  0.00    -0.000 C 
BRANCH  15  16
ATOM     16  C   UNL     1       0.347 105.696 176.967  1.00  0.00    -0.000 C 
BRANCH  16  17
ATOM     17  C   UNL     1       1.494 104.728 177.310  1.00  0.00    -0.000 C 
BRANCH  17  18
ATOM     18  C   UNL     1       2.905 105.340 177.236  1.00  0.00    -0.000 C 
BRANCH  18  19
ATOM     19  C   UNL     1       3.701 105.168 178.536  1.00  0.00    -0.003 C 
ATOM     20  C   UNL     1       2.778 104.838 179.707  1.00  0.00     0.004 C 
ENDBRANCH  18  19
ENDBRANCH  17  18
ENDBRANCH  16  17
ENDBRANCH  15  16
ENDBRANCH  14  15
ENDBRANCH  13  14
ENDBRANCH  12  13
ENDBRANCH   1  12
TORSDOF 16
ENDMDL
MODEL 5
REMARK VINA RESULT:    -3.310      3.273      6.642
REMARK INTER + INTRA:          -8.735
REMARK INTER:                  -6.278
REMARK INTRA:                  -2.456
REMARK UNBOUND:                -2.329
REMARK SMILES CCCCCCCCCCCCCCCCCC(=O)[O-]
REMARK SMILES IDX 10 1 11 2 12 3 13 4 14 5 15 6 16 7 17 8 18 9 19 10 20 11
REMARK SMILES IDX 9 12 8 13 7 14 6 15 5 16 4 17 3 18 2 19 1 20
REMARK H PARENT
REMARK Flexibility Score: inf
ROOT
ATOM      1  C   UNL     1       4.064 105.451 179.248  1.00  0.00     0.000 C 
ENDROOT
BRANCH   1   2
ATOM      2  C   UNL     1       3.207 105.527 180.522  1.00  0.00     0.000 C 
BRANCH   2   3
ATOM      3  C   UNL     1       3.718 106.582 181.516  1.00  0.00     0.000 C 
BRANCH   3   4
ATOM      4  C   UNL     1       5.246 106.742 181.480  1.00  0.00     0.000 C 
BRANCH   4   5
ATOM      5  C   UNL     1       5.834 106.684 182.898  1.00  0.00     0.000 C 
BRANCH   5   6
ATOM      6  C   UNL     1       5.428 107.886 183.767  1.00  0.00     0.000 C 
BRANCH   6   7
ATOM      7  C   UNL     1       6.008 109.243 183.323  1.00  0.00     0.006 C 
BRANCH   7   8
ATOM      8  C   UNL     1       4.996 110.404 183.370  1.00  0.00     0.053 C 
BRANCH   8   9
ATOM      9  C   UNL     1       3.823 110.184 182.462  1.00  0.00     0.041 C 
ATOM     10  O   UNL     1       3.971 110.219 181.212  1.00  0.00    -0.550 OA
ATOM     11  O   UNL     1       2.557 109.981 182.997  1.00  0.00    -0.550 OA
ENDBRANCH   8   9
ENDBRANCH   7   8
ENDBRANCH   6   7
ENDBRANCH   5   6
ENDBRANCH   4   5
ENDBRANCH   3   4
ENDBRANCH   2   3
ENDBRANCH   1   2
BRANCH   1  12
ATOM     12  C   UNL     1       3.543 104.416 178.234  1.00  0.00     0.000 C 
BRANCH  12  13
ATOM     13  C   UNL     1       2.705 104.995 177.079  1.00  0.00    -0.000 C 
BRANCH  13  14
ATOM     14  C   UNL     1       1.197 104.760 177.257  1.00  0.00    -0.000 C 
BRANCH  14  15
ATOM     15  C   UNL     1       0.408 106.056 177.034  1.00  0.00    -0.000 C 
BRANCH  15  16
ATOM     16  C   UNL     1       0.174 106.793 178.361  1.00  0.00    -0.000 C 
BRANCH  16  17
ATOM     17  C   UNL     1       0.630 108.263 178.321  1.00  0.00    -0.000 C 
BRANCH  17  18
ATOM     18  C   UNL     1       2.022 108.528 178.923  1.00  0.00    -0.000 C 
BRANCH  18  19
ATOM     19  C   UNL     1       3.084 108.841 177.859  1.00  0.00    -0.003 C 
ATOM     20  C   UNL     1       2.439 109.141 176.509  1.00  0.00     0.004 C 
ENDBRANCH  18  19
ENDBRANCH  17  18
ENDBRANCH  16  17
ENDBRANCH  15  16
ENDBRANCH  14  15
ENDBRANCH  13  14
ENDBRANCH  12  13
ENDBRANCH   1  12
TORSDOF 16
ENDMDL
MODEL 6
REMARK VINA RESULT:    -3.296      3.199      5.149
REMARK INTER + INTRA:          -8.708
REMARK INTER:                  -6.116
REMARK INTRA:                  -2.592
REMARK UNBOUND:                -2.329
REMARK SMILES CCCCCCCCCCCCCCCCCC(=O)[O-]
REMARK SMILES IDX 10 1 11 2 12 3 13 4 14 5 15 6 16 7 17 8 18 9 19 10 20 11
REMARK SMILES IDX 9 12 8 13 7 14 6 15 5 16 4 17 3 18 2 19 1 20
REMARK H PARENT
REMARK Flexibility Score: inf
ROOT
ATOM      1  C   UNL     1       3.907 109.255 181.010  1.00  0.00     0.000 C 
ENDROOT
BRANCH   1   2
ATOM      2  C   UNL     1       3.182 108.347 182.017  1.00  0.00     0.000 C 
BRANCH   2   3
ATOM      3  C   UNL     1       3.737 106.914 182.027  1.00  0.00     0.000 C 
BRANCH   3   4
ATOM      4  C   UNL     1       4.846 106.698 180.985  1.00  0.00     0.000 C 
BRANCH   4   5
ATOM      5  C   UNL     1       4.387 105.718 179.895  1.00  0.00     0.000 C 
BRANCH   5   6
ATOM      6  C   UNL     1       2.969 105.174 180.134  1.00  0.00     0.000 C 
BRANCH   6   7
ATOM      7  C   UNL     1       1.937 105.525 179.044  1.00  0.00     0.006 C 
BRANCH   7   8
ATOM      8  C   UNL     1       2.230 106.843 178.304  1.00  0.00     0.053 C 
BRANCH   8   9
ATOM      9  C   UNL     1       1.267 107.935 178.665  1.00  0.00     0.041 C 
ATOM     10  O   UNL     1       1.101 108.917 177.894  1.00  0.00    -0.550 OA
ATOM     11  O   UNL     1       0.584 107.888 179.874  1.00  0.00    -0.550 OA
ENDBRANCH   8   9
ENDBRANCH   7   8
ENDBRANCH   6   7
ENDBRANCH   5   6
ENDBRANCH   4   5
ENDBRANCH   3   4
ENDBRANCH   2   3
ENDBRANCH   1   2
BRANCH   1  12
ATOM     12  C   UNL     1       4.378 110.583 181.629  1.00  0.00     0.000 C 
BRANCH  12  13
ATOM     13  C   UNL     1       4.376 110.626 183.169  1.00  0.00    -0.000 C 
BRANCH  13  14
ATOM     14  C   UNL     1       5.783 110.511 183.773  1.00  0.00    -0.000 C 
BRANCH  14  15
ATOM     15  C   UNL     1       6.141 109.048 184.060  1.00  0.00    -0.000 C 
BRANCH  15  16
ATOM     16  C   UNL     1       7.222 108.545 183.092  1.00  0.00    -0.000 C 
BRANCH  16  17
ATOM     17  C   UNL     1       8.038 107.370 183.659  1.00  0.00    -0.000 C 
BRANCH  17  18
ATOM     18  C   UNL     1       7.310 106.013 183.657  1.00  0.00    -0.000 C 
BRANCH  18  19
ATOM     19  C   UNL     1       8.115 104.904 182.965  1.00  0.00    -0.003 C 
ATOM     20  C   UNL     1       8.216 105.153 181.463  1.00  0.00     0.004 C 
ENDBRANCH  18  19
ENDBRANCH  17  18
ENDBRANCH  16  17
ENDBRANCH  15  16
ENDBRANCH  14  15
ENDBRANCH  13  14
ENDBRANCH  12  13
ENDBRANCH   1  12
TORSDOF 16
ENDMDL
MODEL 7
REMARK VINA RESULT:    -3.296      4.025      7.328
REMARK INTER + INTRA:          -8.707
REMARK INTER:                  -5.743
REMARK INTRA:                  -2.964
REMARK UNBOUND:                -2.329
REMARK SMILES CCCCCCCCCCCCCCCCCC(=O)[O-]
REMARK SMILES IDX 10 1 11 2 12 3 13 4 14 5 15 6 16 7 17 8 18 9 19 10 20 11
REMARK SMILES IDX 9 12 8 13 7 14 6 15 5 16 4 17 3 18 2 19 1 20
REMARK H PARENT
REMARK Flexibility Score: inf
ROOT
ATOM      1  C   UNL     1       4.192 108.617 179.023  1.00  0.00     0.000 C 
ENDROOT
BRANCH   1   2
ATOM      2  C   UNL     1       5.282 107.563 179.279  1.00  0.00     0.000 C 
BRANCH   2   3
ATOM      3  C   UNL     1       5.337 107.115 180.748  1.00  0.00     0.000 C 
BRANCH   3   4
ATOM      4  C   UNL     1       3.978 106.623 181.272  1.00  0.00     0.000 C 
BRANCH   4   5
ATOM      5  C   UNL     1       3.558 107.411 182.522  1.00  0.00     0.000 C 
BRANCH   5   6
ATOM      6  C   UNL     1       2.496 108.484 182.226  1.00  0.00     0.000 C 
BRANCH   6   7
ATOM      7  C   UNL     1       2.613 109.772 183.063  1.00  0.00     0.006 C 
BRANCH   7   8
ATOM      8  C   UNL     1       3.832 110.644 182.708  1.00  0.00     0.053 C 
BRANCH   8   9
ATOM      9  C   UNL     1       3.893 111.907 183.515  1.00  0.00     0.041 C 
ATOM     10  O   UNL     1       4.912 112.646 183.463  1.00  0.00    -0.550 OA
ATOM     11  O   UNL     1       2.842 112.247 184.357  1.00  0.00    -0.550 OA
ENDBRANCH   8   9
ENDBRANCH   7   8
ENDBRANCH   6   7
ENDBRANCH   5   6
ENDBRANCH   4   5
ENDBRANCH   3   4
ENDBRANCH   2   3
ENDBRANCH   1   2
BRANCH   1  12
ATOM     12  C   UNL     1       3.654 108.587 177.581  1.00  0.00     0.000 C 
BRANCH  12  13
ATOM     13  C   UNL     1       2.144 108.312 177.450  1.00  0.00    -0.000 C 
BRANCH  13  14
ATOM     14  C   UNL     1       1.415 108.315 178.802  1.00  0.00    -0.000 C 
BRANCH  14  15
ATOM     15  C   UNL     1       0.890 106.916 179.147  1.00  0.00    -0.000 C 
BRANCH  15  16
ATOM     16  C   UNL     1       1.388 105.876 178.134  1.00  0.00    -0.000 C 
BRANCH  16  17
ATOM     17  C   UNL     1       2.211 104.749 178.783  1.00  0.00    -0.000 C 
BRANCH  17  18
ATOM     18  C   UNL     1       3.601 104.520 178.163  1.00  0.00    -0.000 C 
BRANCH  18  19
ATOM     19  C   UNL     1       3.627 104.760 176.648  1.00  0.00    -0.003 C 
ATOM     20  C   UNL     1       4.966 105.346 176.206  1.00  0.00     0.004 C 
ENDBRANCH  18  19
ENDBRANCH  17  18
ENDBRANCH  16  17
ENDBRANCH  15  16
ENDBRANCH  14  15
ENDBRANCH  13  14
ENDBRANCH  12  13
ENDBRANCH   1  12
TORSDOF 16
ENDMDL
MODEL 8
REMARK VINA RESULT:    -3.272      1.727      3.756
REMARK INTER + INTRA:          -8.661
REMARK INTER:                  -6.516
REMARK INTRA:                  -2.145
REMARK UNBOUND:                -2.329
REMARK SMILES CCCCCCCCCCCCCCCCCC(=O)[O-]
REMARK SMILES IDX 10 1 11 2 12 3 13 4 14 5 15 6 16 7 17 8 18 9 19 10 20 11
REMARK SMILES IDX 9 12 8 13 7 14 6 15 5 16 4 17 3 18 2 19 1 20
REMARK H PARENT
REMARK Flexibility Score: inf
ROOT
ATOM      1  C   UNL     1       5.032 108.124 183.266  1.00  0.00     0.000 C 
ENDROOT
BRANCH   1   2
ATOM      2  C   UNL     1       5.338 106.664 182.893  1.00  0.00     0.000 C 
BRANCH   2   3
ATOM      3  C   UNL     1       6.127 106.541 181.580  1.00  0.00     0.000 C 
BRANCH   3   4
ATOM      4  C   UNL     1       5.219 106.519 180.340  1.00  0.00     0.000 C 
BRANCH   4   5
ATOM      5  C   UNL     1       3.913 105.765 180.634  1.00  0.00     0.000 C 
BRANCH   5   6
ATOM      6  C   UNL     1       2.913 105.820 179.466  1.00  0.00     0.000 C 
BRANCH   6   7
ATOM      7  C   UNL     1       2.887 104.571 178.564  1.00  0.00     0.006 C 
BRANCH   7   8
ATOM      8  C   UNL     1       3.464 104.802 177.155  1.00  0.00     0.053 C 
BRANCH   8   9
ATOM      9  C   UNL     1       4.747 104.060 176.927  1.00  0.00     0.041 C 
ATOM     10  O   UNL     1       5.747 104.280 177.659  1.00  0.00    -0.550 OA
ATOM     11  O   UNL     1       4.850 103.153 175.879  1.00  0.00    -0.550 OA
ENDBRANCH   8   9
ENDBRANCH   7   8
ENDBRANCH   6   7
ENDBRANCH   5   6
ENDBRANCH   4   5
ENDBRANCH   3   4
ENDBRANCH   2   3
ENDBRANCH   1   2
BRANCH   1  12
ATOM     12  C   UNL     1       3.538 108.474 183.150  1.00  0.00     0.000 C 
BRANCH  12  13
ATOM     13  C   UNL     1       3.146 109.269 181.890  1.00  0.00    -0.000 C 
BRANCH  13  14
ATOM     14  C   UNL     1       4.336 110.000 181.249  1.00  0.00    -0.000 C 
BRANCH  14  15
ATOM     15  C   UNL     1       4.355 111.479 181.652  1.00  0.00    -0.000 C 
BRANCH  15  16
ATOM     16  C   UNL     1       5.491 111.764 182.645  1.00  0.00    -0.000 C 
BRANCH  16  17
ATOM     17  C   UNL     1       4.985 112.237 184.019  1.00  0.00    -0.000 C 
BRANCH  17  18
ATOM     18  C   UNL     1       3.461 112.145 184.218  1.00  0.00    -0.000 C 
BRANCH  18  19
ATOM     19  C   UNL     1       2.832 113.478 184.644  1.00  0.00    -0.003 C 
ATOM     20  C   UNL     1       3.769 114.647 184.355  1.00  0.00     0.004 C 
ENDBRANCH  18  19
ENDBRANCH  17  18
ENDBRANCH  16  17
ENDBRANCH  15  16
ENDBRANCH  14  15
ENDBRANCH  13  14
ENDBRANCH  12  13
ENDBRANCH   1  12
TORSDOF 16
ENDMDL
MODEL 9
REMARK VINA RESULT:    -3.235      4.250      7.276
REMARK INTER + INTRA:          -8.589
REMARK INTER:                  -6.015
REMARK INTRA:                  -2.574
REMARK UNBOUND:                -2.329
REMARK SMILES CCCCCCCCCCCCCCCCCC(=O)[O-]
REMARK SMILES IDX 10 1 11 2 12 3 13 4 14 5 15 6 16 7 17 8 18 9 19 10 20 11
REMARK SMILES IDX 9 12 8 13 7 14 6 15 5 16 4 17 3 18 2 19 1 20
REMARK H PARENT
REMARK Flexibility Score: inf
ROOT
ATOM      1  C   UNL     1       5.247 105.808 179.188  1.00  0.00     0.000 C 
ENDROOT
BRANCH   1   2
ATOM      2  C   UNL     1       5.571 106.656 180.430  1.00  0.00     0.000 C 
BRANCH   2   3
ATOM      3  C   UNL     1       4.474 106.576 181.503  1.00  0.00     0.000 C 
BRANCH   3   4
ATOM      4  C   UNL     1       4.384 107.850 182.358  1.00  0.00     0.000 C 
BRANCH   4   5
ATOM      5  C   UNL     1       2.937 108.107 182.804  1.00  0.00     0.000 C 
BRANCH   5   6
ATOM      6  C   UNL     1       2.623 109.601 182.992  1.00  0.00     0.000 C 
BRANCH   6   7
ATOM      7  C   UNL     1       3.716 110.570 182.499  1.00  0.00     0.006 C 
BRANCH   7   8
ATOM      8  C   UNL     1       4.695 111.022 183.599  1.00  0.00     0.053 C 
BRANCH   8   9
ATOM      9  C   UNL     1       4.240 112.267 184.301  1.00  0.00     0.041 C 
ATOM     10  O   UNL     1       5.077 113.021 184.865  1.00  0.00    -0.550 OA
ATOM     11  O   UNL     1       2.887 112.574 184.366  1.00  0.00    -0.550 OA
ENDBRANCH   8   9
ENDBRANCH   7   8
ENDBRANCH   6   7
ENDBRANCH   5   6
ENDBRANCH   4   5
ENDBRANCH   3   4
ENDBRANCH   2   3
ENDBRANCH   1   2
BRANCH   1  12
ATOM     12  C   UNL     1       3.881 105.103 179.282  1.00  0.00     0.000 C 
BRANCH  12  13
ATOM     13  C   UNL     1       3.234 104.746 177.930  1.00  0.00    -0.000 C 
BRANCH  13  14
ATOM     14  C   UNL     1       1.751 105.139 177.853  1.00  0.00    -0.000 C 
BRANCH  14  15
ATOM     15  C   UNL     1       1.299 105.834 179.143  1.00  0.00    -0.000 C 
BRANCH  15  16
ATOM     16  C   UNL     1       0.352 107.003 178.836  1.00  0.00    -0.000 C 
BRANCH  16  17
ATOM     17  C   UNL     1       1.096 108.302 178.476  1.00  0.00    -0.000 C 
BRANCH  17  18
ATOM     18  C   UNL     1       2.385 108.555 179.279  1.00  0.00    -0.000 C 
BRANCH  18  19
ATOM     19  C   UNL     1       3.547 109.049 178.406  1.00  0.00    -0.003 C 
ATOM     20  C   UNL     1       3.518 108.392 177.029  1.00  0.00     0.004 C 
ENDBRANCH  18  19
ENDBRANCH  17  18
ENDBRANCH  16  17
ENDBRANCH  15  16
ENDBRANCH  14  15
ENDBRANCH  13  14
ENDBRANCH  12  13
ENDBRANCH   1  12
TORSDOF 16
ENDMDL
