MODEL 1
REMARK VINA RESULT:    -3.133      0.000      0.000
REMARK INTER + INTRA:          -8.508
REMARK INTER:                  -5.880
REMARK INTRA:                  -2.628
REMARK UNBOUND:                -2.628
REMARK SMILES CCCCCCCCC=CCCCCCCCC(=O)[O-]
REMARK SMILES IDX 10 1 9 2 11 3 12 4 13 5 14 6 15 7 16 8 17 9 18 10 19 11
REMARK SMILES IDX 20 12 8 13 7 14 6 15 5 16 4 17 3 18 2 19 1 20
REMARK H PARENT
REMARK Flexibility Score: inf
ROOT
ATOM      1  C   UNL     1      -7.380  24.126  11.984  1.00  0.00    -0.031 C 
ATOM      2  C   UNL     1      -8.072  24.352  13.116  1.00  0.00    -0.031 C 
ENDROOT
BRANCH   1   3
ATOM      3  C   UNL     1      -6.365  23.024  11.800  1.00  0.00     0.027 C 
BRANCH   3   4
ATOM      4  C   UNL     1      -6.674  22.150  10.572  1.00  0.00     0.004 C 
BRANCH   4   5
ATOM      5  C   UNL     1      -7.188  22.933   9.347  1.00  0.00     0.000 C 
BRANCH   5   6
ATOM      6  C   UNL     1      -6.143  23.834   8.658  1.00  0.00     0.000 C 
BRANCH   6   7
ATOM      7  C   UNL     1      -4.956  23.088   8.026  1.00  0.00     0.000 C 
BRANCH   7   8
ATOM      8  C   UNL     1      -3.631  23.851   8.165  1.00  0.00     0.006 C 
BRANCH   8   9
ATOM      9  C   UNL     1      -3.681  24.828   9.343  1.00  0.00     0.053 C 
BRANCH   9  10
ATOM     10  C   UNL     1      -2.810  24.346  10.460  1.00  0.00     0.041 C 
ATOM     11  O   UNL     1      -1.729  24.937  10.721  1.00  0.00    -0.550 OA
ATOM     12  O   UNL     1      -3.217  23.278  11.249  1.00  0.00    -0.550 OA
ENDBRANCH   9  10
ENDBRANCH   8   9
ENDBRANCH   7   8
ENDBRANCH   6   7
ENDBRANCH   5   6
ENDBRANCH   4   5
ENDBRANCH   3   4
ENDBRANCH   1   3
BRANCH   2  13
ATOM     13  C   UNL     1      -8.019  23.476  14.342  1.00  0.00     0.027 C 
BRANCH  13  14
ATOM     14  C   UNL     1      -9.302  22.646  14.469  1.00  0.00     0.004 C 
BRANCH  14  15
ATOM     15  C   UNL     1      -8.979  21.160  14.668  1.00  0.00     0.000 C 
BRANCH  15  16
ATOM     16  C   UNL     1      -8.649  20.437  13.351  1.00  0.00     0.000 C 
BRANCH  16  17
ATOM     17  C   UNL     1      -9.896  20.064  12.521  1.00  0.00    -0.000 C 
BRANCH  17  18
ATOM     18  C   UNL     1      -9.989  20.879  11.218  1.00  0.00    -0.000 C 
BRANCH  18  19
ATOM     19  C   UNL     1     -11.099  21.939  11.264  1.00  0.00    -0.003 C 
ATOM     20  C   UNL     1     -10.657  23.280  10.677  1.00  0.00     0.004 C 
ENDBRANCH  18  19
ENDBRANCH  17  18
ENDBRANCH  16  17
ENDBRANCH  15  16
ENDBRANCH  14  15
ENDBRANCH  13  14
ENDBRANCH   2  13
TORSDOF 15
ENDMDL
MODEL 2
REMARK VINA RESULT:    -3.132      1.474      2.804
REMARK INTER + INTRA:          -8.506
REMARK INTER:                  -6.324
REMARK INTRA:                  -2.182
REMARK UNBOUND:                -2.628
REMARK SMILES CCCCCCCCC=CCCCCCCCC(=O)[O-]
REMARK SMILES IDX 10 1 9 2 11 3 12 4 13 5 14 6 15 7 16 8 17 9 18 10 19 11
REMARK SMILES IDX 20 12 8 13 7 14 6 15 5 16 4 17 3 18 2 19 1 20
REMARK H PARENT
REMARK Flexibility Score: inf
ROOT
ATOM      1  C   UNL     1      -6.369  22.176  11.715  1.00  0.00    -0.031 C 
ATOM      2  C   UNL     1      -7.115  21.373  12.496  1.00  0.00    -0.031 C 
ENDROOT
BRANCH   1   3
ATOM      3  C   UNL     1      -6.880  22.916  10.503  1.00  0.00     0.027 C 
BRANCH   3   4
ATOM      4  C   UNL     1      -6.920  22.020   9.252  1.00  0.00     0.004 C 
BRANCH   4   5
ATOM      5  C   UNL     1      -6.140  22.578   8.044  1.00  0.00     0.000 C 
BRANCH   5   6
ATOM      6  C   UNL     1      -5.416  23.917   8.292  1.00  0.00     0.000 C 
BRANCH   6   7
ATOM      7  C   UNL     1      -3.887  23.815   8.422  1.00  0.00     0.000 C 
BRANCH   7   8
ATOM      8  C   UNL     1      -3.322  24.718   9.528  1.00  0.00     0.006 C 
BRANCH   8   9
ATOM      9  C   UNL     1      -3.143  23.939  10.834  1.00  0.00     0.053 C 
BRANCH   9  10
ATOM     10  C   UNL     1      -2.175  24.640  11.735  1.00  0.00     0.041 C 
ATOM     11  O   UNL     1      -0.947  24.369  11.679  1.00  0.00    -0.550 OA
ATOM     12  O   UNL     1      -2.621  25.631  12.599  1.00  0.00    -0.550 OA
ENDBRANCH   9  10
ENDBRANCH   8   9
ENDBRANCH   7   8
ENDBRANCH   6   7
ENDBRANCH   5   6
ENDBRANCH   4   5
ENDBRANCH   3   4
ENDBRANCH   1   3
BRANCH   2  13
ATOM     13  C   UNL     1      -8.601  21.169  12.343  1.00  0.00     0.027 C 
BRANCH  13  14
ATOM     14  C   UNL     1      -9.169  20.410  13.547  1.00  0.00     0.004 C 
BRANCH  14  15
ATOM     15  C   UNL     1      -9.040  21.238  14.832  1.00  0.00     0.000 C 
BRANCH  15  16
ATOM     16  C   UNL     1     -10.052  22.393  14.905  1.00  0.00     0.000 C 
BRANCH  16  17
ATOM     17  C   UNL     1      -9.446  23.715  15.425  1.00  0.00    -0.000 C 
BRANCH  17  18
ATOM     18  C   UNL     1      -7.946  23.829  15.104  1.00  0.00    -0.000 C 
BRANCH  18  19
ATOM     19  C   UNL     1      -7.639  24.966  14.117  1.00  0.00    -0.003 C 
ATOM     20  C   UNL     1      -8.635  25.024  12.958  1.00  0.00     0.004 C 
ENDBRANCH  18  19
ENDBRANCH  17  18
ENDBRANCH  16  17
ENDBRANCH  15  16
ENDBRANCH  14  15
ENDBRANCH  13  14
ENDBRANCH   2  13
TORSDOF 15
ENDMDL
MODEL 3
REMARK VINA RESULT:    -3.095      1.633      3.625
REMARK INTER + INTRA:          -8.437
REMARK INTER:                  -6.653
REMARK INTRA:                  -1.784
REMARK UNBOUND:                -2.628
REMARK SMILES CCCCCCCCC=CCCCCCCCC(=O)[O-]
REMARK SMILES IDX 10 1 9 2 11 3 12 4 13 5 14 6 15 7 16 8 17 9 18 10 19 11
REMARK SMILES IDX 20 12 8 13 7 14 6 15 5 16 4 17 3 18 2 19 1 20
REMARK H PARENT
REMARK Flexibility Score: inf
ROOT
ATOM      1  C   UNL     1      -7.071  22.677   7.388  1.00  0.00    -0.031 C 
ATOM      2  C   UNL     1      -7.130  23.040   8.683  1.00  0.00    -0.031 C 
ENDROOT
BRANCH   1   3
ATOM      3  C   UNL     1      -6.466  21.390   6.882  1.00  0.00     0.027 C 
BRANCH   3   4
ATOM      4  C   UNL     1      -5.591  21.611   5.636  1.00  0.00     0.004 C 
BRANCH   4   5
ATOM      5  C   UNL     1      -4.988  23.026   5.526  1.00  0.00     0.000 C 
BRANCH   5   6
ATOM      6  C   UNL     1      -3.518  23.150   5.977  1.00  0.00     0.000 C 
BRANCH   6   7
ATOM      7  C   UNL     1      -3.259  24.206   7.065  1.00  0.00     0.000 C 
BRANCH   7   8
ATOM      8  C   UNL     1      -3.502  23.671   8.484  1.00  0.00     0.006 C 
BRANCH   8   9
ATOM      9  C   UNL     1      -3.443  24.801   9.515  1.00  0.00     0.053 C 
BRANCH   9  10
ATOM     10  C   UNL     1      -2.610  24.396  10.689  1.00  0.00     0.041 C 
ATOM     11  O   UNL     1      -1.539  25.007  10.948  1.00  0.00    -0.550 OA
ATOM     12  O   UNL     1      -3.041  23.379  11.530  1.00  0.00    -0.550 OA
ENDBRANCH   9  10
ENDBRANCH   8   9
ENDBRANCH   7   8
ENDBRANCH   6   7
ENDBRANCH   5   6
ENDBRANCH   4   5
ENDBRANCH   3   4
ENDBRANCH   1   3
BRANCH   2  13
ATOM     13  C   UNL     1      -6.697  22.172   9.837  1.00  0.00     0.027 C 
BRANCH  13  14
ATOM     14  C   UNL     1      -6.259  23.035  11.027  1.00  0.00     0.004 C 
BRANCH  14  15
ATOM     15  C   UNL     1      -7.008  22.634  12.304  1.00  0.00     0.000 C 
BRANCH  15  16
ATOM     16  C   UNL     1      -7.124  21.111  12.478  1.00  0.00     0.000 C 
BRANCH  16  17
ATOM     17  C   UNL     1      -8.365  20.674  13.286  1.00  0.00    -0.000 C 
BRANCH  17  18
ATOM     18  C   UNL     1      -9.144  21.876  13.847  1.00  0.00    -0.000 C 
BRANCH  18  19
ATOM     19  C   UNL     1      -9.013  22.005  15.372  1.00  0.00    -0.003 C 
ATOM     20  C   UNL     1      -8.333  23.307  15.797  1.00  0.00     0.004 C 
ENDBRANCH  18  19
ENDBRANCH  17  18
ENDBRANCH  16  17
ENDBRANCH  15  16
ENDBRANCH  14  15
ENDBRANCH  13  14
ENDBRANCH   2  13
TORSDOF 15
ENDMDL
MODEL 4
REMARK VINA RESULT:    -3.089      1.395      2.887
REMARK INTER + INTRA:          -8.425
REMARK INTER:                  -5.986
REMARK INTRA:                  -2.439
REMARK UNBOUND:                -2.628
REMARK SMILES CCCCCCCCC=CCCCCCCCC(=O)[O-]
REMARK SMILES IDX 10 1 9 2 11 3 12 4 13 5 14 6 15 7 16 8 17 9 18 10 19 11
REMARK SMILES IDX 20 12 8 13 7 14 6 15 5 16 4 17 3 18 2 19 1 20
REMARK H PARENT
REMARK Flexibility Score: inf
ROOT
ATOM      1  C   UNL     1      -8.011  22.812   8.206  1.00  0.00    -0.031 C 
ATOM      2  C   UNL     1      -7.538  23.041   9.446  1.00  0.00    -0.031 C 
ENDROOT
BRANCH   1   3
ATOM      3  C   UNL     1      -7.584  21.669   7.319  1.00  0.00     0.027 C 
BRANCH   3   4
ATOM      4  C   UNL     1      -6.891  22.158   6.035  1.00  0.00     0.004 C 
BRANCH   4   5
ATOM      5  C   UNL     1      -5.374  22.394   6.181  1.00  0.00     0.000 C 
BRANCH   5   6
ATOM      6  C   UNL     1      -4.918  23.857   6.010  1.00  0.00     0.000 C 
BRANCH   6   7
ATOM      7  C   UNL     1      -3.741  24.280   6.906  1.00  0.00     0.000 C 
BRANCH   7   8
ATOM      8  C   UNL     1      -3.831  23.695   8.323  1.00  0.00     0.006 C 
BRANCH   8   9
ATOM      9  C   UNL     1      -3.589  24.776   9.379  1.00  0.00     0.053 C 
BRANCH   9  10
ATOM     10  C   UNL     1      -2.757  24.237  10.500  1.00  0.00     0.041 C 
ATOM     11  O   UNL     1      -1.623  24.730  10.742  1.00  0.00    -0.550 OA
ATOM     12  O   UNL     1      -3.255  23.227  11.312  1.00  0.00    -0.550 OA
ENDBRANCH   9  10
ENDBRANCH   8   9
ENDBRANCH   7   8
ENDBRANCH   6   7
ENDBRANCH   5   6
ENDBRANCH   4   5
ENDBRANCH   3   4
ENDBRANCH   1   3
BRANCH   2  13
ATOM     13  C   UNL     1      -6.587  22.131  10.181  1.00  0.00     0.027 C 
BRANCH  13  14
ATOM     14  C   UNL     1      -6.592  22.445  11.682  1.00  0.00     0.004 C 
BRANCH  14  15
ATOM     15  C   UNL     1      -6.712  21.161  12.513  1.00  0.00     0.000 C 
BRANCH  15  16
ATOM     16  C   UNL     1      -8.127  20.938  13.072  1.00  0.00     0.000 C 
BRANCH  16  17
ATOM     17  C   UNL     1      -9.046  22.170  12.934  1.00  0.00    -0.000 C 
BRANCH  17  18
ATOM     18  C   UNL     1     -10.245  21.898  12.009  1.00  0.00    -0.000 C 
BRANCH  18  19
ATOM     19  C   UNL     1     -10.138  20.545  11.288  1.00  0.00    -0.003 C 
ATOM     20  C   UNL     1     -10.453  20.648   9.795  1.00  0.00     0.004 C 
ENDBRANCH  18  19
ENDBRANCH  17  18
ENDBRANCH  16  17
ENDBRANCH  15  16
ENDBRANCH  14  15
ENDBRANCH  13  14
ENDBRANCH   2  13
TORSDOF 15
ENDMDL
MODEL 5
REMARK VINA RESULT:    -3.064      2.878      4.016
REMARK INTER + INTRA:          -8.379
REMARK INTER:                  -6.403
REMARK INTRA:                  -1.976
REMARK UNBOUND:                -2.628
REMARK SMILES CCCCCCCCC=CCCCCCCCC(=O)[O-]
REMARK SMILES IDX 10 1 9 2 11 3 12 4 13 5 14 6 15 7 16 8 17 9 18 10 19 11
REMARK SMILES IDX 20 12 8 13 7 14 6 15 5 16 4 17 3 18 2 19 1 20
REMARK H PARENT
REMARK Flexibility Score: inf
ROOT
ATOM      1  C   UNL     1      -5.734  23.025  10.292  1.00  0.00    -0.031 C 
ATOM      2  C   UNL     1      -6.608  22.232  10.941  1.00  0.00    -0.031 C 
ENDROOT
BRANCH   1   3
ATOM      3  C   UNL     1      -4.475  23.596  10.899  1.00  0.00     0.027 C 
BRANCH   3   4
ATOM      4  C   UNL     1      -3.407  23.905   9.835  1.00  0.00     0.004 C 
BRANCH   4   5
ATOM      5  C   UNL     1      -3.977  24.261   8.447  1.00  0.00     0.000 C 
BRANCH   5   6
ATOM      6  C   UNL     1      -3.183  23.703   7.249  1.00  0.00     0.000 C 
BRANCH   6   7
ATOM      7  C   UNL     1      -3.965  22.738   6.342  1.00  0.00     0.000 C 
BRANCH   7   8
ATOM      8  C   UNL     1      -5.382  22.450   6.861  1.00  0.00     0.006 C 
BRANCH   8   9
ATOM      9  C   UNL     1      -6.360  22.245   5.702  1.00  0.00     0.053 C 
BRANCH   9  10
ATOM     10  C   UNL     1      -6.860  20.835   5.681  1.00  0.00     0.041 C 
ATOM     11  O   UNL     1      -6.057  19.875   5.829  1.00  0.00    -0.550 OA
ATOM     12  O   UNL     1      -8.218  20.580   5.551  1.00  0.00    -0.550 OA
ENDBRANCH   9  10
ENDBRANCH   8   9
ENDBRANCH   7   8
ENDBRANCH   6   7
ENDBRANCH   5   6
ENDBRANCH   4   5
ENDBRANCH   3   4
ENDBRANCH   1   3
BRANCH   2  13
ATOM     13  C   UNL     1      -6.412  21.706  12.340  1.00  0.00     0.027 C 
BRANCH  13  14
ATOM     14  C   UNL     1      -7.715  21.807  13.141  1.00  0.00     0.004 C 
BRANCH  14  15
ATOM     15  C   UNL     1      -8.481  20.478  13.119  1.00  0.00     0.000 C 
BRANCH  15  16
ATOM     16  C   UNL     1      -9.841  20.582  12.408  1.00  0.00     0.000 C 
BRANCH  16  17
ATOM     17  C   UNL     1     -10.227  22.025  12.021  1.00  0.00    -0.000 C 
BRANCH  17  18
ATOM     18  C   UNL     1     -10.765  22.114  10.582  1.00  0.00    -0.000 C 
BRANCH  18  19
ATOM     19  C   UNL     1      -9.922  21.304   9.586  1.00  0.00    -0.003 C 
ATOM     20  C   UNL     1      -9.343  22.168   8.465  1.00  0.00     0.004 C 
ENDBRANCH  18  19
ENDBRANCH  17  18
ENDBRANCH  16  17
ENDBRANCH  15  16
ENDBRANCH  14  15
ENDBRANCH  13  14
ENDBRANCH   2  13
TORSDOF 15
ENDMDL
MODEL 6
REMARK VINA RESULT:    -3.052      1.337      2.730
REMARK INTER + INTRA:          -8.357
REMARK INTER:                  -5.684
REMARK INTRA:                  -2.673
REMARK UNBOUND:                -2.628
REMARK SMILES CCCCCCCCC=CCCCCCCCC(=O)[O-]
REMARK SMILES IDX 10 1 9 2 11 3 12 4 13 5 14 6 15 7 16 8 17 9 18 10 19 11
REMARK SMILES IDX 20 12 8 13 7 14 6 15 5 16 4 17 3 18 2 19 1 20
REMARK H PARENT
REMARK Flexibility Score: inf
ROOT
ATOM      1  C   UNL     1      -8.612  21.245  12.356  1.00  0.00    -0.031 C 
ATOM      2  C   UNL     1      -9.539  21.185  13.330  1.00  0.00    -0.031 C 
ENDROOT
BRANCH   1   3
ATOM      3  C   UNL     1      -7.121  21.293  12.587  1.00  0.00     0.027 C 
BRANCH   3   4
ATOM      4  C   UNL     1      -6.429  22.335  11.691  1.00  0.00     0.004 C 
BRANCH   4   5
ATOM      5  C   UNL     1      -6.676  22.140  10.181  1.00  0.00     0.000 C 
BRANCH   5   6
ATOM      6  C   UNL     1      -6.515  23.409   9.320  1.00  0.00     0.000 C 
BRANCH   6   7
ATOM      7  C   UNL     1      -5.138  23.574   8.655  1.00  0.00     0.000 C 
BRANCH   7   8
ATOM      8  C   UNL     1      -4.473  24.918   8.987  1.00  0.00     0.006 C 
BRANCH   8   9
ATOM      9  C   UNL     1      -3.131  24.707   9.693  1.00  0.00     0.053 C 
BRANCH   9  10
ATOM     10  C   UNL     1      -3.344  24.383  11.138  1.00  0.00     0.041 C 
ATOM     11  O   UNL     1      -3.091  23.228  11.572  1.00  0.00    -0.550 OA
ATOM     12  O   UNL     1      -3.772  25.369  12.017  1.00  0.00    -0.550 OA
ENDBRANCH   9  10
ENDBRANCH   8   9
ENDBRANCH   7   8
ENDBRANCH   6   7
ENDBRANCH   5   6
ENDBRANCH   4   5
ENDBRANCH   3   4
ENDBRANCH   1   3
BRANCH   2  13
ATOM     13  C   UNL     1      -9.230  21.051  14.800  1.00  0.00     0.027 C 
BRANCH  13  14
ATOM     14  C   UNL     1      -9.485  22.375  15.529  1.00  0.00     0.004 C 
BRANCH  14  15
ATOM     15  C   UNL     1      -8.177  23.148  15.742  1.00  0.00     0.000 C 
BRANCH  15  16
ATOM     16  C   UNL     1      -7.990  24.298  14.739  1.00  0.00     0.000 C 
BRANCH  16  17
ATOM     17  C   UNL     1      -9.182  25.279  14.693  1.00  0.00    -0.000 C 
BRANCH  17  18
ATOM     18  C   UNL     1      -9.934  25.214  13.352  1.00  0.00    -0.000 C 
BRANCH  18  19
ATOM     19  C   UNL     1      -9.003  24.915  12.167  1.00  0.00    -0.003 C 
ATOM     20  C   UNL     1      -9.760  24.425  10.933  1.00  0.00     0.004 C 
ENDBRANCH  18  19
ENDBRANCH  17  18
ENDBRANCH  16  17
ENDBRANCH  15  16
ENDBRANCH  14  15
ENDBRANCH  13  14
ENDBRANCH   2  13
TORSDOF 15
ENDMDL
MODEL 7
REMARK VINA RESULT:    -3.014      2.268      4.600
REMARK INTER + INTRA:          -8.285
REMARK INTER:                  -5.830
REMARK INTRA:                  -2.455
REMARK UNBOUND:                -2.628
REMARK SMILES CCCCCCCCC=CCCCCCCCC(=O)[O-]
REMARK SMILES IDX 10 1 9 2 11 3 12 4 13 5 14 6 15 7 16 8 17 9 18 10 19 11
REMARK SMILES IDX 20 12 8 13 7 14 6 15 5 16 4 17 3 18 2 19 1 20
REMARK H PARENT
REMARK Flexibility Score: inf
ROOT
ATOM      1  C   UNL     1     -10.598  22.201  12.687  1.00  0.00    -0.031 C 
ATOM      2  C   UNL     1     -10.384  23.527  12.768  1.00  0.00    -0.031 C 
ENDROOT
BRANCH   1   3
ATOM      3  C   UNL     1     -10.486  21.238  13.844  1.00  0.00     0.027 C 
BRANCH   3   4
ATOM      4  C   UNL     1      -9.062  20.674  13.993  1.00  0.00     0.004 C 
BRANCH   4   5
ATOM      5  C   UNL     1      -8.280  20.564  12.669  1.00  0.00     0.000 C 
BRANCH   5   6
ATOM      6  C   UNL     1      -6.951  21.346  12.625  1.00  0.00     0.000 C 
BRANCH   6   7
ATOM      7  C   UNL     1      -6.622  21.992  11.269  1.00  0.00     0.000 C 
BRANCH   7   8
ATOM      8  C   UNL     1      -5.963  23.372  11.411  1.00  0.00     0.006 C 
BRANCH   8   9
ATOM      9  C   UNL     1      -5.063  23.677  10.211  1.00  0.00     0.053 C 
BRANCH   9  10
ATOM     10  C   UNL     1      -3.631  23.760  10.636  1.00  0.00     0.041 C 
ATOM     11  O   UNL     1      -2.835  24.528  10.036  1.00  0.00    -0.550 OA
ATOM     12  O   UNL     1      -3.187  23.027  11.729  1.00  0.00    -0.550 OA
ENDBRANCH   9  10
ENDBRANCH   8   9
ENDBRANCH   7   8
ENDBRANCH   6   7
ENDBRANCH   5   6
ENDBRANCH   4   5
ENDBRANCH   3   4
ENDBRANCH   1   3
BRANCH   2  13
ATOM     13  C   UNL     1     -10.103  24.273  14.047  1.00  0.00     0.027 C 
BRANCH  13  14
ATOM     14  C   UNL     1      -8.651  24.767  14.076  1.00  0.00     0.004 C 
BRANCH  14  15
ATOM     15  C   UNL     1      -7.812  23.955  15.071  1.00  0.00     0.000 C 
BRANCH  15  16
ATOM     16  C   UNL     1      -8.629  23.448  16.271  1.00  0.00     0.000 C 
BRANCH  16  17
ATOM     17  C   UNL     1      -8.033  23.847  17.638  1.00  0.00    -0.000 C 
BRANCH  17  18
ATOM     18  C   UNL     1      -7.459  25.275  17.625  1.00  0.00    -0.000 C 
BRANCH  18  19
ATOM     19  C   UNL     1      -8.447  26.313  18.180  1.00  0.00    -0.003 C 
ATOM     20  C   UNL     1      -9.102  27.149  17.080  1.00  0.00     0.004 C 
ENDBRANCH  18  19
ENDBRANCH  17  18
ENDBRANCH  16  17
ENDBRANCH  15  16
ENDBRANCH  14  15
ENDBRANCH  13  14
ENDBRANCH   2  13
TORSDOF 15
ENDMDL
MODEL 8
REMARK VINA RESULT:    -2.966      1.782      2.548
REMARK INTER + INTRA:          -8.196
REMARK INTER:                  -5.693
REMARK INTRA:                  -2.502
REMARK UNBOUND:                -2.628
REMARK SMILES CCCCCCCCC=CCCCCCCCC(=O)[O-]
REMARK SMILES IDX 10 1 9 2 11 3 12 4 13 5 14 6 15 7 16 8 17 9 18 10 19 11
REMARK SMILES IDX 20 12 8 13 7 14 6 15 5 16 4 17 3 18 2 19 1 20
REMARK H PARENT
REMARK Flexibility Score: inf
ROOT
ATOM      1  C   UNL     1      -7.120  22.736  12.547  1.00  0.00    -0.031 C 
ATOM      2  C   UNL     1      -7.924  22.043  13.376  1.00  0.00    -0.031 C 
ENDROOT
BRANCH   1   3
ATOM      3  C   UNL     1      -6.389  22.148  11.365  1.00  0.00     0.027 C 
BRANCH   3   4
ATOM      4  C   UNL     1      -5.710  23.229  10.507  1.00  0.00     0.004 C 
BRANCH   4   5
ATOM      5  C   UNL     1      -6.351  23.438   9.120  1.00  0.00     0.000 C 
BRANCH   5   6
ATOM      6  C   UNL     1      -6.630  22.146   8.325  1.00  0.00     0.000 C 
BRANCH   6   7
ATOM      7  C   UNL     1      -6.051  22.121   6.900  1.00  0.00     0.000 C 
BRANCH   7   8
ATOM      8  C   UNL     1      -5.251  23.387   6.560  1.00  0.00     0.006 C 
BRANCH   8   9
ATOM      9  C   UNL     1      -3.828  23.036   6.119  1.00  0.00     0.053 C 
BRANCH   9  10
ATOM     10  C   UNL     1      -2.826  23.820   6.905  1.00  0.00     0.041 C 
ATOM     11  O   UNL     1      -1.840  24.349   6.327  1.00  0.00    -0.550 OA
ATOM     12  O   UNL     1      -3.008  24.012   8.268  1.00  0.00    -0.550 OA
ENDBRANCH   9  10
ENDBRANCH   8   9
ENDBRANCH   7   8
ENDBRANCH   6   7
ENDBRANCH   5   6
ENDBRANCH   4   5
ENDBRANCH   3   4
ENDBRANCH   1   3
BRANCH   2  13
ATOM     13  C   UNL     1      -8.302  20.596  13.191  1.00  0.00     0.027 C 
BRANCH  13  14
ATOM     14  C   UNL     1      -9.685  20.318  13.790  1.00  0.00     0.004 C 
BRANCH  14  15
ATOM     15  C   UNL     1     -10.412  21.626  14.129  1.00  0.00     0.000 C 
BRANCH  15  16
ATOM     16  C   UNL     1     -11.763  21.765  13.408  1.00  0.00     0.000 C 
BRANCH  16  17
ATOM     17  C   UNL     1     -11.638  21.847  11.871  1.00  0.00    -0.000 C 
BRANCH  17  18
ATOM     18  C   UNL     1     -10.854  23.092  11.419  1.00  0.00    -0.000 C 
BRANCH  18  19
ATOM     19  C   UNL     1      -9.952  22.813  10.208  1.00  0.00    -0.003 C 
ATOM     20  C   UNL     1      -9.834  21.322   9.893  1.00  0.00     0.004 C 
ENDBRANCH  18  19
ENDBRANCH  17  18
ENDBRANCH  16  17
ENDBRANCH  15  16
ENDBRANCH  14  15
ENDBRANCH  13  14
ENDBRANCH   2  13
TORSDOF 15
ENDMDL
MODEL 9
REMARK VINA RESULT:    -2.960      2.065      3.482
REMARK INTER + INTRA:          -8.185
REMARK INTER:                  -5.267
REMARK INTRA:                  -2.917
REMARK UNBOUND:                -2.628
REMARK SMILES CCCCCCCCC=CCCCCCCCC(=O)[O-]
REMARK SMILES IDX 10 1 9 2 11 3 12 4 13 5 14 6 15 7 16 8 17 9 18 10 19 11
REMARK SMILES IDX 20 12 8 13 7 14 6 15 5 16 4 17 3 18 2 19 1 20
REMARK H PARENT
REMARK Flexibility Score: inf
ROOT
ATOM      1  C   UNL     1      -7.922  23.138  10.192  1.00  0.00    -0.031 C 
ATOM      2  C   UNL     1      -9.241  22.869  10.239  1.00  0.00    -0.031 C 
ENDROOT
BRANCH   1   3
ATOM      3  C   UNL     1      -6.827  22.116  10.382  1.00  0.00     0.027 C 
BRANCH   3   4
ATOM      4  C   UNL     1      -5.865  22.503  11.518  1.00  0.00     0.004 C 
BRANCH   4   5
ATOM      5  C   UNL     1      -5.162  23.861  11.322  1.00  0.00     0.000 C 
BRANCH   5   6
ATOM      6  C   UNL     1      -3.707  23.781  10.816  1.00  0.00     0.000 C 
BRANCH   6   7
ATOM      7  C   UNL     1      -3.433  24.534   9.503  1.00  0.00     0.000 C 
BRANCH   7   8
ATOM      8  C   UNL     1      -3.641  23.658   8.259  1.00  0.00     0.006 C 
BRANCH   8   9
ATOM      9  C   UNL     1      -5.011  23.919   7.627  1.00  0.00     0.053 C 
BRANCH   9  10
ATOM     10  C   UNL     1      -5.420  22.766   6.767  1.00  0.00     0.041 C 
ATOM     11  O   UNL     1      -4.565  22.165   6.063  1.00  0.00    -0.550 OA
ATOM     12  O   UNL     1      -6.735  22.320   6.780  1.00  0.00    -0.550 OA
ENDBRANCH   9  10
ENDBRANCH   8   9
ENDBRANCH   7   8
ENDBRANCH   6   7
ENDBRANCH   5   6
ENDBRANCH   4   5
ENDBRANCH   3   4
ENDBRANCH   1   3
BRANCH   2  13
ATOM     13  C   UNL     1      -9.828  21.488  10.383  1.00  0.00     0.027 C 
BRANCH  13  14
ATOM     14  C   UNL     1     -10.315  21.256  11.818  1.00  0.00     0.004 C 
BRANCH  14  15
ATOM     15  C   UNL     1      -9.491  20.162  12.509  1.00  0.00     0.000 C 
BRANCH  15  16
ATOM     16  C   UNL     1      -8.595  20.707  13.634  1.00  0.00     0.000 C 
BRANCH  16  17
ATOM     17  C   UNL     1      -9.080  22.053  14.213  1.00  0.00    -0.000 C 
BRANCH  17  18
ATOM     18  C   UNL     1      -7.935  23.072  14.348  1.00  0.00    -0.000 C 
BRANCH  18  19
ATOM     19  C   UNL     1      -8.318  24.463  13.820  1.00  0.00    -0.003 C 
ATOM     20  C   UNL     1      -9.802  24.572  13.471  1.00  0.00     0.004 C 
ENDBRANCH  18  19
ENDBRANCH  17  18
ENDBRANCH  16  17
ENDBRANCH  15  16
ENDBRANCH  14  15
ENDBRANCH  13  14
ENDBRANCH   2  13
TORSDOF 15
ENDMDL
