MODEL 1
REMARK VINA RESULT:    -3.739      0.000      0.000
REMARK INTER + INTRA:          -9.836
REMARK INTER:                  -7.018
REMARK INTRA:                  -2.819
REMARK UNBOUND:                -2.819
REMARK SMILES CCCCCCCCC=CCCCCCCCC(=O)[O-]
REMARK SMILES IDX 10 1 9 2 11 3 12 4 13 5 14 6 15 7 16 8 17 9 18 10 19 11
REMARK SMILES IDX 20 12 8 13 7 14 6 15 5 16 4 17 3 18 2 19 1 20
REMARK H PARENT
REMARK Flexibility Score: inf
ROOT
ATOM      1  C   UNL     1       3.415  -7.825  -0.550  1.00  0.00    -0.031 C 
ATOM      2  C   UNL     1       3.773  -7.013   0.461  1.00  0.00    -0.031 C 
ENDROOT
BRANCH   1   3
ATOM      3  C   UNL     1       3.986  -9.200  -0.788  1.00  0.00     0.027 C 
BRANCH   3   4
ATOM      4  C   UNL     1       5.087  -9.152  -1.857  1.00  0.00     0.004 C 
BRANCH   4   5
ATOM      5  C   UNL     1       6.459  -9.578  -1.314  1.00  0.00     0.000 C 
BRANCH   5   6
ATOM      6  C   UNL     1       7.368  -8.379  -0.994  1.00  0.00     0.000 C 
BRANCH   6   7
ATOM      7  C   UNL     1       6.875  -7.082  -1.660  1.00  0.00     0.000 C 
BRANCH   7   8
ATOM      8  C   UNL     1       7.284  -5.802  -0.898  1.00  0.00     0.006 C 
BRANCH   8   9
ATOM      9  C   UNL     1       6.343  -4.615  -1.149  1.00  0.00     0.053 C 
BRANCH   9  10
ATOM     10  C   UNL     1       6.656  -3.908  -2.431  1.00  0.00     0.041 C 
ATOM     11  O   UNL     1       5.874  -3.026  -2.876  1.00  0.00    -0.550 OA
ATOM     12  O   UNL     1       7.826  -4.201  -3.119  1.00  0.00    -0.550 OA
ENDBRANCH   9  10
ENDBRANCH   8   9
ENDBRANCH   7   8
ENDBRANCH   6   7
ENDBRANCH   5   6
ENDBRANCH   4   5
ENDBRANCH   3   4
ENDBRANCH   1   3
BRANCH   2  13
ATOM     13  C   UNL     1       4.733  -7.389   1.564  1.00  0.00     0.027 C 
BRANCH  13  14
ATOM     14  C   UNL     1       4.360  -6.730   2.900  1.00  0.00     0.004 C 
BRANCH  14  15
ATOM     15  C   UNL     1       2.892  -6.270   2.929  1.00  0.00     0.000 C 
BRANCH  15  16
ATOM     16  C   UNL     1       2.139  -6.769   4.184  1.00  0.00     0.000 C 
BRANCH  16  17
ATOM     17  C   UNL     1       1.328  -8.054   3.946  1.00  0.00    -0.000 C 
BRANCH  17  18
ATOM     18  C   UNL     1       1.096  -8.400   2.464  1.00  0.00    -0.000 C 
BRANCH  18  19
ATOM     19  C   UNL     1       1.302  -9.896   2.136  1.00  0.00    -0.003 C 
ATOM     20  C   UNL     1       2.706 -10.393   2.479  1.00  0.00     0.004 C 
ENDBRANCH  18  19
ENDBRANCH  17  18
ENDBRANCH  16  17
ENDBRANCH  15  16
ENDBRANCH  14  15
ENDBRANCH  13  14
ENDBRANCH   2  13
TORSDOF 15
ENDMDL
MODEL 2
REMARK VINA RESULT:    -3.631      1.168      2.378
REMARK INTER + INTRA:          -9.634
REMARK INTER:                  -6.870
REMARK INTRA:                  -2.764
REMARK UNBOUND:                -2.819
REMARK SMILES CCCCCCCCC=CCCCCCCCC(=O)[O-]
REMARK SMILES IDX 10 1 9 2 11 3 12 4 13 5 14 6 15 7 16 8 17 9 18 10 19 11
REMARK SMILES IDX 20 12 8 13 7 14 6 15 5 16 4 17 3 18 2 19 1 20
REMARK H PARENT
REMARK Flexibility Score: inf
ROOT
ATOM      1  C   UNL     1       4.469  -7.066   1.537  1.00  0.00    -0.031 C 
ATOM      2  C   UNL     1       3.996  -6.792   2.767  1.00  0.00    -0.031 C 
ENDROOT
BRANCH   1   3
ATOM      3  C   UNL     1       3.672  -6.936   0.264  1.00  0.00     0.027 C 
BRANCH   3   4
ATOM      4  C   UNL     1       3.153  -8.308  -0.193  1.00  0.00     0.004 C 
BRANCH   4   5
ATOM      5  C   UNL     1       4.277  -9.228  -0.692  1.00  0.00     0.000 C 
BRANCH   5   6
ATOM      6  C   UNL     1       5.090  -8.602  -1.838  1.00  0.00     0.000 C 
BRANCH   6   7
ATOM      7  C   UNL     1       6.602  -8.601  -1.546  1.00  0.00     0.000 C 
BRANCH   7   8
ATOM      8  C   UNL     1       7.149  -7.219  -1.129  1.00  0.00     0.006 C 
BRANCH   8   9
ATOM      9  C   UNL     1       6.556  -6.057  -1.940  1.00  0.00     0.053 C 
BRANCH   9  10
ATOM     10  C   UNL     1       6.428  -4.807  -1.125  1.00  0.00     0.041 C 
ATOM     11  O   UNL     1       5.873  -3.787  -1.612  1.00  0.00    -0.550 OA
ATOM     12  O   UNL     1       6.894  -4.779   0.183  1.00  0.00    -0.550 OA
ENDBRANCH   9  10
ENDBRANCH   8   9
ENDBRANCH   7   8
ENDBRANCH   6   7
ENDBRANCH   5   6
ENDBRANCH   4   5
ENDBRANCH   3   4
ENDBRANCH   1   3
BRANCH   2  13
ATOM     13  C   UNL     1       2.626  -6.226   3.051  1.00  0.00     0.027 C 
BRANCH  13  14
ATOM     14  C   UNL     1       2.080  -6.698   4.407  1.00  0.00     0.004 C 
BRANCH  14  15
ATOM     15  C   UNL     1       1.043  -7.824   4.255  1.00  0.00     0.000 C 
BRANCH  15  16
ATOM     16  C   UNL     1       0.970  -8.371   2.811  1.00  0.00     0.000 C 
BRANCH  16  17
ATOM     17  C   UNL     1       1.496  -9.810   2.669  1.00  0.00    -0.000 C 
BRANCH  17  18
ATOM     18  C   UNL     1       2.179 -10.369   3.930  1.00  0.00    -0.000 C 
BRANCH  18  19
ATOM     19  C   UNL     1       3.717 -10.223   3.919  1.00  0.00    -0.003 C 
ATOM     20  C   UNL     1       4.356 -10.742   2.632  1.00  0.00     0.004 C 
ENDBRANCH  18  19
ENDBRANCH  17  18
ENDBRANCH  16  17
ENDBRANCH  15  16
ENDBRANCH  14  15
ENDBRANCH  13  14
ENDBRANCH   2  13
TORSDOF 15
ENDMDL
MODEL 3
REMARK VINA RESULT:    -3.614     16.971     18.887
REMARK INTER + INTRA:          -9.603
REMARK INTER:                  -6.745
REMARK INTRA:                  -2.857
REMARK UNBOUND:                -2.819
REMARK SMILES CCCCCCCCC=CCCCCCCCC(=O)[O-]
REMARK SMILES IDX 10 1 9 2 11 3 12 4 13 5 14 6 15 7 16 8 17 9 18 10 19 11
REMARK SMILES IDX 20 12 8 13 7 14 6 15 5 16 4 17 3 18 2 19 1 20
REMARK H PARENT
REMARK Flexibility Score: inf
ROOT
ATOM      1  C   UNL     1      -7.812   4.532  -0.078  1.00  0.00    -0.031 C 
ATOM      2  C   UNL     1      -7.402   4.257   1.174  1.00  0.00    -0.031 C 
ENDROOT
BRANCH   1   3
ATOM      3  C   UNL     1      -8.880   3.765  -0.817  1.00  0.00     0.027 C 
BRANCH   3   4
ATOM      4  C   UNL     1     -10.248   4.441  -0.647  1.00  0.00     0.004 C 
BRANCH   4   5
ATOM      5  C   UNL     1     -11.404   3.431  -0.596  1.00  0.00     0.000 C 
BRANCH   5   6
ATOM      6  C   UNL     1     -10.918   1.972  -0.630  1.00  0.00     0.000 C 
BRANCH   6   7
ATOM      7  C   UNL     1     -11.444   1.212  -1.860  1.00  0.00     0.000 C 
BRANCH   7   8
ATOM      8  C   UNL     1     -10.796   1.662  -3.188  1.00  0.00     0.006 C 
BRANCH   8   9
ATOM      9  C   UNL     1     -11.774   2.376  -4.133  1.00  0.00     0.053 C 
BRANCH   9  10
ATOM     10  C   UNL     1     -11.334   3.770  -4.453  1.00  0.00     0.041 C 
ATOM     11  O   UNL     1     -12.125   4.571  -5.019  1.00  0.00    -0.550 OA
ATOM     12  O   UNL     1     -10.060   4.195  -4.100  1.00  0.00    -0.550 OA
ENDBRANCH   9  10
ENDBRANCH   8   9
ENDBRANCH   7   8
ENDBRANCH   6   7
ENDBRANCH   5   6
ENDBRANCH   4   5
ENDBRANCH   3   4
ENDBRANCH   1   3
BRANCH   2  13
ATOM     13  C   UNL     1      -8.010   3.198   2.061  1.00  0.00     0.027 C 
BRANCH  13  14
ATOM     14  C   UNL     1      -8.322   3.736   3.466  1.00  0.00     0.004 C 
BRANCH  14  15
ATOM     15  C   UNL     1      -9.596   3.108   4.058  1.00  0.00     0.000 C 
BRANCH  15  16
ATOM     16  C   UNL     1     -10.538   2.543   2.971  1.00  0.00     0.000 C 
BRANCH  16  17
ATOM     17  C   UNL     1     -11.883   3.284   2.874  1.00  0.00    -0.000 C 
BRANCH  17  18
ATOM     18  C   UNL     1     -11.859   4.726   3.411  1.00  0.00    -0.000 C 
BRANCH  18  19
ATOM     19  C   UNL     1     -11.879   5.802   2.302  1.00  0.00    -0.003 C 
ATOM     20  C   UNL     1     -10.634   6.687   2.308  1.00  0.00     0.004 C 
ENDBRANCH  18  19
ENDBRANCH  17  18
ENDBRANCH  16  17
ENDBRANCH  15  16
ENDBRANCH  14  15
ENDBRANCH  13  14
ENDBRANCH   2  13
TORSDOF 15
ENDMDL
MODEL 4
REMARK VINA RESULT:    -3.422      1.242      2.780
REMARK INTER + INTRA:          -9.241
REMARK INTER:                  -6.202
REMARK INTRA:                  -3.039
REMARK UNBOUND:                -2.819
REMARK SMILES CCCCCCCCC=CCCCCCCCC(=O)[O-]
REMARK SMILES IDX 10 1 9 2 11 3 12 4 13 5 14 6 15 7 16 8 17 9 18 10 19 11
REMARK SMILES IDX 20 12 8 13 7 14 6 15 5 16 4 17 3 18 2 19 1 20
REMARK H PARENT
REMARK Flexibility Score: inf
ROOT
ATOM      1  C   UNL     1       5.185  -6.624   2.199  1.00  0.00    -0.031 C 
ATOM      2  C   UNL     1       5.711  -7.558   3.013  1.00  0.00    -0.031 C 
ENDROOT
BRANCH   1   3
ATOM      3  C   UNL     1       3.878  -6.769   1.462  1.00  0.00     0.027 C 
BRANCH   3   4
ATOM      4  C   UNL     1       4.093  -6.641  -0.054  1.00  0.00     0.004 C 
BRANCH   4   5
ATOM      5  C   UNL     1       4.066  -7.999  -0.770  1.00  0.00     0.000 C 
BRANCH   5   6
ATOM      6  C   UNL     1       5.321  -8.242  -1.626  1.00  0.00     0.000 C 
BRANCH   6   7
ATOM      7  C   UNL     1       6.620  -8.029  -0.828  1.00  0.00     0.000 C 
BRANCH   7   8
ATOM      8  C   UNL     1       7.542  -6.945  -1.427  1.00  0.00     0.006 C 
BRANCH   8   9
ATOM      9  C   UNL     1       6.957  -6.267  -2.675  1.00  0.00     0.053 C 
BRANCH   9  10
ATOM     10  C   UNL     1       6.850  -4.782  -2.513  1.00  0.00     0.041 C 
ATOM     11  O   UNL     1       6.095  -4.293  -1.632  1.00  0.00    -0.550 OA
ATOM     12  O   UNL     1       7.607  -3.939  -3.316  1.00  0.00    -0.550 OA
ENDBRANCH   9  10
ENDBRANCH   8   9
ENDBRANCH   7   8
ENDBRANCH   6   7
ENDBRANCH   5   6
ENDBRANCH   4   5
ENDBRANCH   3   4
ENDBRANCH   1   3
BRANCH   2  13
ATOM     13  C   UNL     1       5.029  -8.852   3.384  1.00  0.00     0.027 C 
BRANCH  13  14
ATOM     14  C   UNL     1       5.423 -10.000   2.441  1.00  0.00     0.004 C 
BRANCH  14  15
ATOM     15  C   UNL     1       4.213 -10.563   1.677  1.00  0.00     0.000 C 
BRANCH  15  16
ATOM     16  C   UNL     1       2.884 -10.363   2.440  1.00  0.00     0.000 C 
BRANCH  16  17
ATOM     17  C   UNL     1       1.768  -9.739   1.583  1.00  0.00    -0.000 C 
BRANCH  17  18
ATOM     18  C   UNL     1       0.992  -8.602   2.272  1.00  0.00    -0.000 C 
BRANCH  18  19
ATOM     19  C   UNL     1       1.216  -8.536   3.800  1.00  0.00    -0.003 C 
ATOM     20  C   UNL     1       1.593  -7.137   4.286  1.00  0.00     0.004 C 
ENDBRANCH  18  19
ENDBRANCH  17  18
ENDBRANCH  16  17
ENDBRANCH  15  16
ENDBRANCH  14  15
ENDBRANCH  13  14
ENDBRANCH   2  13
TORSDOF 15
ENDMDL
MODEL 5
REMARK VINA RESULT:    -3.384      3.601      6.615
REMARK INTER + INTRA:          -9.170
REMARK INTER:                  -6.760
REMARK INTRA:                  -2.410
REMARK UNBOUND:                -2.819
REMARK SMILES CCCCCCCCC=CCCCCCCCC(=O)[O-]
REMARK SMILES IDX 10 1 9 2 11 3 12 4 13 5 14 6 15 7 16 8 17 9 18 10 19 11
REMARK SMILES IDX 20 12 8 13 7 14 6 15 5 16 4 17 3 18 2 19 1 20
REMARK H PARENT
REMARK Flexibility Score: inf
ROOT
ATOM      1  C   UNL     1       6.411  -4.658  -0.688  1.00  0.00    -0.031 C 
ATOM      2  C   UNL     1       6.647  -4.720  -2.012  1.00  0.00    -0.031 C 
ENDROOT
BRANCH   1   3
ATOM      3  C   UNL     1       7.378  -5.112   0.376  1.00  0.00     0.027 C 
BRANCH   3   4
ATOM      4  C   UNL     1       6.934  -6.455   0.974  1.00  0.00     0.004 C 
BRANCH   4   5
ATOM      5  C   UNL     1       5.800  -6.299   1.999  1.00  0.00     0.000 C 
BRANCH   5   6
ATOM      6  C   UNL     1       5.576  -7.573   2.832  1.00  0.00     0.000 C 
BRANCH   6   7
ATOM      7  C   UNL     1       4.207  -7.574   3.536  1.00  0.00     0.000 C 
BRANCH   7   8
ATOM      8  C   UNL     1       3.101  -6.852   2.736  1.00  0.00     0.006 C 
BRANCH   8   9
ATOM      9  C   UNL     1       1.831  -7.696   2.550  1.00  0.00     0.053 C 
BRANCH   9  10
ATOM     10  C   UNL     1       1.223  -8.096   3.858  1.00  0.00     0.041 C 
ATOM     11  O   UNL     1       0.694  -7.229   4.604  1.00  0.00    -0.550 OA
ATOM     12  O   UNL     1       1.213  -9.432   4.241  1.00  0.00    -0.550 OA
ENDBRANCH   9  10
ENDBRANCH   8   9
ENDBRANCH   7   8
ENDBRANCH   6   7
ENDBRANCH   5   6
ENDBRANCH   4   5
ENDBRANCH   3   4
ENDBRANCH   1   3
BRANCH   2  13
ATOM     13  C   UNL     1       7.949  -5.167  -2.630  1.00  0.00     0.027 C 
BRANCH  13  14
ATOM     14  C   UNL     1       7.930  -6.661  -2.989  1.00  0.00     0.004 C 
BRANCH  14  15
ATOM     15  C   UNL     1       6.772  -7.014  -3.939  1.00  0.00     0.000 C 
BRANCH  15  16
ATOM     16  C   UNL     1       5.955  -8.231  -3.450  1.00  0.00     0.000 C 
BRANCH  16  17
ATOM     17  C   UNL     1       5.845  -8.326  -1.918  1.00  0.00    -0.000 C 
BRANCH  17  18
ATOM     18  C   UNL     1       4.505  -7.837  -1.341  1.00  0.00    -0.000 C 
BRANCH  18  19
ATOM     19  C   UNL     1       3.840  -8.846  -0.377  1.00  0.00    -0.003 C 
ATOM     20  C   UNL     1       4.115 -10.301  -0.755  1.00  0.00     0.004 C 
ENDBRANCH  18  19
ENDBRANCH  17  18
ENDBRANCH  16  17
ENDBRANCH  15  16
ENDBRANCH  14  15
ENDBRANCH  13  14
ENDBRANCH   2  13
TORSDOF 15
ENDMDL
MODEL 6
REMARK VINA RESULT:    -3.381      1.249      3.076
REMARK INTER + INTRA:          -9.165
REMARK INTER:                  -6.152
REMARK INTRA:                  -3.013
REMARK UNBOUND:                -2.819
REMARK SMILES CCCCCCCCC=CCCCCCCCC(=O)[O-]
REMARK SMILES IDX 10 1 9 2 11 3 12 4 13 5 14 6 15 7 16 8 17 9 18 10 19 11
REMARK SMILES IDX 20 12 8 13 7 14 6 15 5 16 4 17 3 18 2 19 1 20
REMARK H PARENT
REMARK Flexibility Score: inf
ROOT
ATOM      1  C   UNL     1       4.069  -6.917   0.478  1.00  0.00    -0.031 C 
ATOM      2  C   UNL     1       3.615  -7.714  -0.506  1.00  0.00    -0.031 C 
ENDROOT
BRANCH   1   3
ATOM      3  C   UNL     1       5.202  -7.267   1.410  1.00  0.00     0.027 C 
BRANCH   3   4
ATOM      4  C   UNL     1       6.259  -6.153   1.419  1.00  0.00     0.004 C 
BRANCH   4   5
ATOM      5  C   UNL     1       7.642  -6.647   0.969  1.00  0.00     0.000 C 
BRANCH   5   6
ATOM      6  C   UNL     1       7.624  -8.113   0.502  1.00  0.00     0.000 C 
BRANCH   6   7
ATOM      7  C   UNL     1       7.670  -8.236  -1.031  1.00  0.00     0.000 C 
BRANCH   7   8
ATOM      8  C   UNL     1       7.989  -6.906  -1.748  1.00  0.00     0.006 C 
BRANCH   8   9
ATOM      9  C   UNL     1       6.764  -6.261  -2.414  1.00  0.00     0.053 C 
BRANCH   9  10
ATOM     10  C   UNL     1       6.767  -4.770  -2.277  1.00  0.00     0.041 C 
ATOM     11  O   UNL     1       7.586  -4.074  -2.934  1.00  0.00    -0.550 OA
ATOM     12  O   UNL     1       5.845  -4.147  -1.447  1.00  0.00    -0.550 OA
ENDBRANCH   9  10
ENDBRANCH   8   9
ENDBRANCH   7   8
ENDBRANCH   6   7
ENDBRANCH   5   6
ENDBRANCH   4   5
ENDBRANCH   3   4
ENDBRANCH   1   3
BRANCH   2  13
ATOM     13  C   UNL     1       4.228  -9.040  -0.886  1.00  0.00     0.027 C 
BRANCH  13  14
ATOM     14  C   UNL     1       3.582 -10.210  -0.128  1.00  0.00     0.004 C 
BRANCH  14  15
ATOM     15  C   UNL     1       4.537 -10.827   0.908  1.00  0.00     0.000 C 
BRANCH  15  16
ATOM     16  C   UNL     1       4.039 -10.639   2.359  1.00  0.00     0.000 C 
BRANCH  16  17
ATOM     17  C   UNL     1       2.662  -9.957   2.456  1.00  0.00    -0.000 C 
BRANCH  17  18
ATOM     18  C   UNL     1       2.547  -8.902   3.570  1.00  0.00    -0.000 C 
BRANCH  18  19
ATOM     19  C   UNL     1       1.773  -7.633   3.145  1.00  0.00    -0.003 C 
ATOM     20  C   UNL     1       2.357  -6.352   3.739  1.00  0.00     0.004 C 
ENDBRANCH  18  19
ENDBRANCH  17  18
ENDBRANCH  16  17
ENDBRANCH  15  16
ENDBRANCH  14  15
ENDBRANCH  13  14
ENDBRANCH   2  13
TORSDOF 15
ENDMDL
MODEL 7
REMARK VINA RESULT:    -3.374     17.097     18.970
REMARK INTER + INTRA:          -9.151
REMARK INTER:                  -7.186
REMARK INTRA:                  -1.965
REMARK UNBOUND:                -2.819
REMARK SMILES CCCCCCCCC=CCCCCCCCC(=O)[O-]
REMARK SMILES IDX 10 1 9 2 11 3 12 4 13 5 14 6 15 7 16 8 17 9 18 10 19 11
REMARK SMILES IDX 20 12 8 13 7 14 6 15 5 16 4 17 3 18 2 19 1 20
REMARK H PARENT
REMARK Flexibility Score: inf
ROOT
ATOM      1  C   UNL     1      -7.231   4.659   0.319  1.00  0.00    -0.031 C 
ATOM      2  C   UNL     1      -6.998   3.892   1.400  1.00  0.00    -0.031 C 
ENDROOT
BRANCH   1   3
ATOM      3  C   UNL     1      -8.600   4.991  -0.217  1.00  0.00     0.027 C 
BRANCH   3   4
ATOM      4  C   UNL     1      -9.161   3.818  -1.034  1.00  0.00     0.004 C 
BRANCH   4   5
ATOM      5  C   UNL     1     -10.176   4.269  -2.095  1.00  0.00     0.000 C 
BRANCH   5   6
ATOM      6  C   UNL     1      -9.595   4.245  -3.519  1.00  0.00     0.000 C 
BRANCH   6   7
ATOM      7  C   UNL     1     -10.660   3.901  -4.576  1.00  0.00     0.000 C 
BRANCH   7   8
ATOM      8  C   UNL     1     -11.847   3.089  -4.016  1.00  0.00     0.006 C 
BRANCH   8   9
ATOM      9  C   UNL     1     -11.649   1.569  -4.114  1.00  0.00     0.053 C 
BRANCH   9  10
ATOM     10  C   UNL     1     -10.900   1.020  -2.940  1.00  0.00     0.041 C 
ATOM     11  O   UNL     1     -11.498   0.803  -1.852  1.00  0.00    -0.550 OA
ATOM     12  O   UNL     1      -9.549   0.720  -3.055  1.00  0.00    -0.550 OA
ENDBRANCH   9  10
ENDBRANCH   8   9
ENDBRANCH   7   8
ENDBRANCH   6   7
ENDBRANCH   5   6
ENDBRANCH   4   5
ENDBRANCH   3   4
ENDBRANCH   1   3
BRANCH   2  13
ATOM     13  C   UNL     1      -8.073   3.322   2.293  1.00  0.00     0.027 C 
BRANCH  13  14
ATOM     14  C   UNL     1      -8.208   4.110   3.605  1.00  0.00     0.004 C 
BRANCH  14  15
ATOM     15  C   UNL     1      -9.654   4.567   3.860  1.00  0.00     0.000 C 
BRANCH  15  16
ATOM     16  C   UNL     1     -10.639   4.045   2.790  1.00  0.00     0.000 C 
BRANCH  16  17
ATOM     17  C   UNL     1     -11.867   4.950   2.588  1.00  0.00    -0.000 C 
BRANCH  17  18
ATOM     18  C   UNL     1     -11.781   5.883   1.367  1.00  0.00    -0.000 C 
BRANCH  18  19
ATOM     19  C   UNL     1     -10.926   7.147   1.612  1.00  0.00    -0.003 C 
ATOM     20  C   UNL     1     -11.287   7.867   2.910  1.00  0.00     0.004 C 
ENDBRANCH  18  19
ENDBRANCH  17  18
ENDBRANCH  16  17
ENDBRANCH  15  16
ENDBRANCH  14  15
ENDBRANCH  13  14
ENDBRANCH   2  13
TORSDOF 15
ENDMDL
MODEL 8
REMARK VINA RESULT:    -3.334      1.508      2.263
REMARK INTER + INTRA:          -9.077
REMARK INTER:                  -6.688
REMARK INTRA:                  -2.389
REMARK UNBOUND:                -2.819
REMARK SMILES CCCCCCCCC=CCCCCCCCC(=O)[O-]
REMARK SMILES IDX 10 1 9 2 11 3 12 4 13 5 14 6 15 7 16 8 17 9 18 10 19 11
REMARK SMILES IDX 20 12 8 13 7 14 6 15 5 16 4 17 3 18 2 19 1 20
REMARK H PARENT
REMARK Flexibility Score: inf
ROOT
ATOM      1  C   UNL     1       5.798  -6.624   2.048  1.00  0.00    -0.031 C 
ATOM      2  C   UNL     1       6.183  -7.618   2.869  1.00  0.00    -0.031 C 
ENDROOT
BRANCH   1   3
ATOM      3  C   UNL     1       4.501  -6.602   1.280  1.00  0.00     0.027 C 
BRANCH   3   4
ATOM      4  C   UNL     1       4.765  -6.460  -0.226  1.00  0.00     0.004 C 
BRANCH   4   5
ATOM      5  C   UNL     1       4.717  -7.806  -0.965  1.00  0.00     0.000 C 
BRANCH   5   6
ATOM      6  C   UNL     1       6.092  -8.234  -1.505  1.00  0.00     0.000 C 
BRANCH   6   7
ATOM      7  C   UNL     1       7.068  -7.049  -1.619  1.00  0.00     0.000 C 
BRANCH   7   8
ATOM      8  C   UNL     1       7.020  -6.340  -2.990  1.00  0.00     0.006 C 
BRANCH   8   9
ATOM      9  C   UNL     1       7.835  -5.039  -3.032  1.00  0.00     0.053 C 
BRANCH   9  10
ATOM     10  C   UNL     1       6.963  -3.824  -2.968  1.00  0.00     0.041 C 
ATOM     11  O   UNL     1       6.086  -3.719  -2.070  1.00  0.00    -0.550 OA
ATOM     12  O   UNL     1       7.138  -2.793  -3.883  1.00  0.00    -0.550 OA
ENDBRANCH   9  10
ENDBRANCH   8   9
ENDBRANCH   7   8
ENDBRANCH   6   7
ENDBRANCH   5   6
ENDBRANCH   4   5
ENDBRANCH   3   4
ENDBRANCH   1   3
BRANCH   2  13
ATOM     13  C   UNL     1       5.337  -8.818   3.218  1.00  0.00     0.027 C 
BRANCH  13  14
ATOM     14  C   UNL     1       4.965  -8.845   4.708  1.00  0.00     0.004 C 
BRANCH  14  15
ATOM     15  C   UNL     1       3.456  -8.643   4.933  1.00  0.00     0.000 C 
BRANCH  15  16
ATOM     16  C   UNL     1       3.031  -7.163   4.808  1.00  0.00     0.000 C 
BRANCH  16  17
ATOM     17  C   UNL     1       1.943  -6.921   3.747  1.00  0.00    -0.000 C 
BRANCH  17  18
ATOM     18  C   UNL     1       1.312  -8.202   3.173  1.00  0.00    -0.000 C 
BRANCH  18  19
ATOM     19  C   UNL     1       1.510  -8.362   1.649  1.00  0.00    -0.003 C 
ATOM     20  C   UNL     1       2.227  -9.659   1.274  1.00  0.00     0.004 C 
ENDBRANCH  18  19
ENDBRANCH  17  18
ENDBRANCH  16  17
ENDBRANCH  15  16
ENDBRANCH  14  15
ENDBRANCH  13  14
ENDBRANCH   2  13
TORSDOF 15
ENDMDL
MODEL 9
REMARK VINA RESULT:    -3.325      1.313      4.038
REMARK INTER + INTRA:          -9.060
REMARK INTER:                  -6.129
REMARK INTRA:                  -2.931
REMARK UNBOUND:                -2.819
REMARK SMILES CCCCCCCCC=CCCCCCCCC(=O)[O-]
REMARK SMILES IDX 10 1 9 2 11 3 12 4 13 5 14 6 15 7 16 8 17 9 18 10 19 11
REMARK SMILES IDX 20 12 8 13 7 14 6 15 5 16 4 17 3 18 2 19 1 20
REMARK H PARENT
REMARK Flexibility Score: inf
ROOT
ATOM      1  C   UNL     1       2.135  -7.359   2.135  1.00  0.00    -0.031 C 
ATOM      2  C   UNL     1       1.355  -8.446   1.992  1.00  0.00    -0.031 C 
ENDROOT
BRANCH   1   3
ATOM      3  C   UNL     1       2.710  -6.883   3.445  1.00  0.00     0.027 C 
BRANCH   3   4
ATOM      4  C   UNL     1       4.181  -7.303   3.576  1.00  0.00     0.004 C 
BRANCH   4   5
ATOM      5  C   UNL     1       5.054  -6.760   2.435  1.00  0.00     0.000 C 
BRANCH   5   6
ATOM      6  C   UNL     1       6.327  -7.596   2.213  1.00  0.00     0.000 C 
BRANCH   6   7
ATOM      7  C   UNL     1       7.105  -7.150   0.962  1.00  0.00     0.000 C 
BRANCH   7   8
ATOM      8  C   UNL     1       6.732  -5.733   0.476  1.00  0.00     0.006 C 
BRANCH   8   9
ATOM      9  C   UNL     1       7.639  -5.216  -0.651  1.00  0.00     0.053 C 
BRANCH   9  10
ATOM     10  C   UNL     1       6.862  -4.841  -1.875  1.00  0.00     0.041 C 
ATOM     11  O   UNL     1       7.070  -5.436  -2.966  1.00  0.00    -0.550 OA
ATOM     12  O   UNL     1       5.886  -3.855  -1.804  1.00  0.00    -0.550 OA
ENDBRANCH   9  10
ENDBRANCH   8   9
ENDBRANCH   7   8
ENDBRANCH   6   7
ENDBRANCH   5   6
ENDBRANCH   4   5
ENDBRANCH   3   4
ENDBRANCH   1   3
BRANCH   2  13
ATOM     13  C   UNL     1       1.012  -9.407   3.106  1.00  0.00     0.027 C 
BRANCH  13  14
ATOM     14  C   UNL     1       2.006 -10.576   3.182  1.00  0.00     0.004 C 
BRANCH  14  15
ATOM     15  C   UNL     1       2.633 -10.894   1.813  1.00  0.00     0.000 C 
BRANCH  15  16
ATOM     16  C   UNL     1       4.169 -10.727   1.812  1.00  0.00     0.000 C 
BRANCH  16  17
ATOM     17  C   UNL     1       4.740 -10.282   0.453  1.00  0.00    -0.000 C 
BRANCH  17  18
ATOM     18  C   UNL     1       3.719  -9.602  -0.478  1.00  0.00    -0.000 C 
BRANCH  18  19
ATOM     19  C   UNL     1       4.150  -8.195  -0.948  1.00  0.00    -0.003 C 
ATOM     20  C   UNL     1       5.169  -8.233  -2.086  1.00  0.00     0.004 C 
ENDBRANCH  18  19
ENDBRANCH  17  18
ENDBRANCH  16  17
ENDBRANCH  15  16
ENDBRANCH  14  15
ENDBRANCH  13  14
ENDBRANCH   2  13
TORSDOF 15
ENDMDL
