MODEL 1
REMARK VINA RESULT:    12.031      0.000      0.000
REMARK INTER + INTRA:          26.710
REMARK INTER:                  26.098
REMARK INTRA:                   0.613
REMARK UNBOUND:                 0.613
REMARK SMILES CCCCCCCCCCCCCCCCCCCCCC(=O)[O-]
REMARK SMILES IDX 12 1 11 2 10 3 9 4 8 5 7 6 6 7 5 8 4 9 3 10 2 11 1 12 13 13
REMARK SMILES IDX 14 14 15 15 16 16 17 17 18 18 19 19 20 20 21 21 22 22 23 23
REMARK SMILES IDX 24 24
REMARK H PARENT
REMARK Flexibility Score: inf
ROOT
ATOM      1  C   UNL     1      26.278  43.594   3.237  1.00  0.00     0.000 C 
ENDROOT
BRANCH   1   2
ATOM      2  C   UNL     1      24.882  43.734   2.607  1.00  0.00     0.000 C 
BRANCH   2   3
ATOM      3  C   UNL     1      24.374  42.418   1.994  1.00  0.00     0.000 C 
BRANCH   3   4
ATOM      4  C   UNL     1      22.899  42.142   2.321  1.00  0.00    -0.000 C 
BRANCH   4   5
ATOM      5  C   UNL     1      22.485  42.835   3.625  1.00  0.00    -0.000 C 
BRANCH   5   6
ATOM      6  C   UNL     1      22.988  42.058   4.847  1.00  0.00    -0.000 C 
BRANCH   6   7
ATOM      7  C   UNL     1      24.133  41.108   4.464  1.00  0.00    -0.000 C 
BRANCH   7   8
ATOM      8  C   UNL     1      24.589  40.217   5.634  1.00  0.00    -0.000 C 
BRANCH   8   9
ATOM      9  C   UNL     1      25.250  38.890   5.218  1.00  0.00    -0.000 C 
BRANCH   9  10
ATOM     10  C   UNL     1      25.766  38.077   6.417  1.00  0.00    -0.000 C 
BRANCH  10  11
ATOM     11  C   UNL     1      26.309  38.971   7.543  1.00  0.00    -0.003 C 
ATOM     12  C   UNL     1      25.212  39.460   8.488  1.00  0.00     0.004 C 
ENDBRANCH  10  11
ENDBRANCH   9  10
ENDBRANCH   8   9
ENDBRANCH   7   8
ENDBRANCH   6   7
ENDBRANCH   5   6
ENDBRANCH   4   5
ENDBRANCH   3   4
ENDBRANCH   2   3
ENDBRANCH   1   2
BRANCH   1  13
ATOM     13  C   UNL     1      26.243  43.677   4.771  1.00  0.00     0.000 C 
BRANCH  13  14
ATOM     14  C   UNL     1      27.109  44.820   5.324  1.00  0.00     0.000 C 
BRANCH  14  15
ATOM     15  C   UNL     1      27.898  45.502   4.197  1.00  0.00     0.000 C 
BRANCH  15  16
ATOM     16  C   UNL     1      29.056  44.637   3.670  1.00  0.00     0.000 C 
BRANCH  16  17
ATOM     17  C   UNL     1      29.408  44.847   2.181  1.00  0.00     0.000 C 
BRANCH  17  18
ATOM     18  C   UNL     1      29.351  43.583   1.305  1.00  0.00     0.000 C 
BRANCH  18  19
ATOM     19  C   UNL     1      30.463  43.542   0.242  1.00  0.00     0.000 C 
BRANCH  19  20
ATOM     20  C   UNL     1      30.205  42.495  -0.857  1.00  0.00     0.006 C 
BRANCH  20  21
ATOM     21  C   UNL     1      29.793  43.096  -2.213  1.00  0.00     0.053 C 
BRANCH  21  22
ATOM     22  C   UNL     1      29.039  42.127  -3.071  1.00  0.00     0.041 C 
ATOM     23  O   UNL     1      29.420  41.890  -4.248  1.00  0.00    -0.550 OA
ATOM     24  O   UNL     1      27.895  41.508  -2.584  1.00  0.00    -0.550 OA
ENDBRANCH  21  22
ENDBRANCH  20  21
ENDBRANCH  19  20
ENDBRANCH  18  19
ENDBRANCH  17  18
ENDBRANCH  16  17
ENDBRANCH  15  16
ENDBRANCH  14  15
ENDBRANCH  13  14
ENDBRANCH   1  13
TORSDOF 20
ENDMDL
MODEL 2
REMARK VINA RESULT:    12.037     11.954     15.374
REMARK INTER + INTRA:          26.723
REMARK INTER:                  25.500
REMARK INTRA:                   1.223
REMARK UNBOUND:                 0.613
REMARK SMILES CCCCCCCCCCCCCCCCCCCCCC(=O)[O-]
REMARK SMILES IDX 12 1 11 2 10 3 9 4 8 5 7 6 6 7 5 8 4 9 3 10 2 11 1 12 13 13
REMARK SMILES IDX 14 14 15 15 16 16 17 17 18 18 19 19 20 20 21 21 22 22 23 23
REMARK SMILES IDX 24 24
REMARK H PARENT
REMARK Flexibility Score: inf
ROOT
ATOM      1  C   UNL     1      27.028  31.007  -0.664  1.00  0.00     0.000 C 
ENDROOT
BRANCH   1   2
ATOM      2  C   UNL     1      27.446  30.683  -2.108  1.00  0.00     0.000 C 
BRANCH   2   3
ATOM      3  C   UNL     1      26.292  30.848  -3.110  1.00  0.00     0.000 C 
BRANCH   3   4
ATOM      4  C   UNL     1      26.701  30.504  -4.550  1.00  0.00    -0.000 C 
BRANCH   4   5
ATOM      5  C   UNL     1      25.509  30.636  -5.507  1.00  0.00    -0.000 C 
BRANCH   5   6
ATOM      6  C   UNL     1      25.741  31.757  -6.526  1.00  0.00    -0.000 C 
BRANCH   6   7
ATOM      7  C   UNL     1      25.403  31.287  -7.949  1.00  0.00    -0.000 C 
BRANCH   7   8
ATOM      8  C   UNL     1      23.945  30.816  -8.095  1.00  0.00    -0.000 C 
BRANCH   8   9
ATOM      9  C   UNL     1      22.888  31.808  -7.577  1.00  0.00    -0.000 C 
BRANCH   9  10
ATOM     10  C   UNL     1      23.085  33.232  -8.124  1.00  0.00    -0.000 C 
BRANCH  10  11
ATOM     11  C   UNL     1      24.505  33.765  -7.880  1.00  0.00    -0.003 C 
ATOM     12  C   UNL     1      24.576  35.291  -7.917  1.00  0.00     0.004 C 
ENDBRANCH  10  11
ENDBRANCH   9  10
ENDBRANCH   8   9
ENDBRANCH   7   8
ENDBRANCH   6   7
ENDBRANCH   5   6
ENDBRANCH   4   5
ENDBRANCH   3   4
ENDBRANCH   2   3
ENDBRANCH   1   2
BRANCH   1  13
ATOM     13  C   UNL     1      27.765  30.141   0.371  1.00  0.00     0.000 C 
BRANCH  13  14
ATOM     14  C   UNL     1      26.977  28.880   0.758  1.00  0.00     0.000 C 
BRANCH  14  15
ATOM     15  C   UNL     1      27.863  27.901   1.543  1.00  0.00     0.000 C 
BRANCH  15  16
ATOM     16  C   UNL     1      28.410  28.506   2.848  1.00  0.00     0.000 C 
BRANCH  16  17
ATOM     17  C   UNL     1      27.342  28.866   3.903  1.00  0.00     0.000 C 
BRANCH  17  18
ATOM     18  C   UNL     1      27.865  29.039   5.340  1.00  0.00     0.000 C 
BRANCH  18  19
ATOM     19  C   UNL     1      28.017  30.514   5.747  1.00  0.00     0.000 C 
BRANCH  19  20
ATOM     20  C   UNL     1      28.495  30.690   7.200  1.00  0.00     0.006 C 
BRANCH  20  21
ATOM     21  C   UNL     1      29.297  31.981   7.446  1.00  0.00     0.053 C 
BRANCH  21  22
ATOM     22  C   UNL     1      30.677  31.717   7.963  1.00  0.00     0.041 C 
ATOM     23  O   UNL     1      30.845  31.266   9.127  1.00  0.00    -0.550 OA
ATOM     24  O   UNL     1      31.783  31.999   7.172  1.00  0.00    -0.550 OA
ENDBRANCH  21  22
ENDBRANCH  20  21
ENDBRANCH  19  20
ENDBRANCH  18  19
ENDBRANCH  17  18
ENDBRANCH  16  17
ENDBRANCH  15  16
ENDBRANCH  14  15
ENDBRANCH  13  14
ENDBRANCH   1  13
TORSDOF 20
ENDMDL
MODEL 3
REMARK VINA RESULT:    12.535     12.248     15.567
REMARK INTER + INTRA:          27.804
REMARK INTER:                  27.530
REMARK INTRA:                   0.274
REMARK UNBOUND:                 0.613
REMARK SMILES CCCCCCCCCCCCCCCCCCCCCC(=O)[O-]
REMARK SMILES IDX 12 1 11 2 10 3 9 4 8 5 7 6 6 7 5 8 4 9 3 10 2 11 1 12 13 13
REMARK SMILES IDX 14 14 15 15 16 16 17 17 18 18 19 19 20 20 21 21 22 22 23 23
REMARK SMILES IDX 24 24
REMARK H PARENT
REMARK Flexibility Score: inf
ROOT
ATOM      1  C   UNL     1      27.262  30.881  -1.431  1.00  0.00     0.000 C 
ENDROOT
BRANCH   1   2
ATOM      2  C   UNL     1      26.570  31.173  -2.773  1.00  0.00     0.000 C 
BRANCH   2   3
ATOM      3  C   UNL     1      27.023  30.221  -3.892  1.00  0.00     0.000 C 
BRANCH   3   4
ATOM      4  C   UNL     1      26.896  30.845  -5.290  1.00  0.00    -0.000 C 
BRANCH   4   5
ATOM      5  C   UNL     1      25.424  30.983  -5.699  1.00  0.00    -0.000 C 
BRANCH   5   6
ATOM      6  C   UNL     1      25.280  31.069  -7.223  1.00  0.00    -0.000 C 
BRANCH   6   7
ATOM      7  C   UNL     1      25.000  32.512  -7.670  1.00  0.00    -0.000 C 
BRANCH   7   8
ATOM      8  C   UNL     1      23.580  32.986  -7.312  1.00  0.00    -0.000 C 
BRANCH   8   9
ATOM      9  C   UNL     1      22.522  31.870  -7.245  1.00  0.00    -0.000 C 
BRANCH   9  10
ATOM     10  C   UNL     1      22.874  30.658  -8.123  1.00  0.00    -0.000 C 
BRANCH  10  11
ATOM     11  C   UNL     1      21.877  29.501  -7.955  1.00  0.00    -0.003 C 
ATOM     12  C   UNL     1      22.163  28.651  -6.718  1.00  0.00     0.004 C 
ENDBRANCH  10  11
ENDBRANCH   9  10
ENDBRANCH   8   9
ENDBRANCH   7   8
ENDBRANCH   6   7
ENDBRANCH   5   6
ENDBRANCH   4   5
ENDBRANCH   3   4
ENDBRANCH   2   3
ENDBRANCH   1   2
BRANCH   1  13
ATOM     13  C   UNL     1      26.551  29.777  -0.630  1.00  0.00     0.000 C 
BRANCH  13  14
ATOM     14  C   UNL     1      27.086  29.645   0.803  1.00  0.00     0.000 C 
BRANCH  14  15
ATOM     15  C   UNL     1      27.528  28.202   1.092  1.00  0.00     0.000 C 
BRANCH  15  16
ATOM     16  C   UNL     1      28.458  28.096   2.313  1.00  0.00     0.000 C 
BRANCH  16  17
ATOM     17  C   UNL     1      28.138  29.067   3.469  1.00  0.00     0.000 C 
BRANCH  17  18
ATOM     18  C   UNL     1      27.784  28.402   4.812  1.00  0.00     0.000 C 
BRANCH  18  19
ATOM     19  C   UNL     1      27.135  29.377   5.809  1.00  0.00     0.000 C 
BRANCH  19  20
ATOM     20  C   UNL     1      28.114  29.874   6.887  1.00  0.00     0.006 C 
BRANCH  20  21
ATOM     21  C   UNL     1      29.126  30.918   6.384  1.00  0.00     0.053 C 
BRANCH  21  22
ATOM     22  C   UNL     1      29.558  31.872   7.455  1.00  0.00     0.041 C 
ATOM     23  O   UNL     1      28.709  32.584   8.053  1.00  0.00    -0.550 OA
ATOM     24  O   UNL     1      30.904  31.997   7.774  1.00  0.00    -0.550 OA
ENDBRANCH  21  22
ENDBRANCH  20  21
ENDBRANCH  19  20
ENDBRANCH  18  19
ENDBRANCH  17  18
ENDBRANCH  16  17
ENDBRANCH  15  16
ENDBRANCH  14  15
ENDBRANCH  13  14
ENDBRANCH   1  13
TORSDOF 20
ENDMDL
MODEL 4
REMARK VINA RESULT:    12.932      2.972      8.313
REMARK INTER + INTRA:          28.666
REMARK INTER:                  29.181
REMARK INTRA:                  -0.515
REMARK UNBOUND:                 0.613
REMARK SMILES CCCCCCCCCCCCCCCCCCCCCC(=O)[O-]
REMARK SMILES IDX 12 1 11 2 10 3 9 4 8 5 7 6 6 7 5 8 4 9 3 10 2 11 1 12 13 13
REMARK SMILES IDX 14 14 15 15 16 16 17 17 18 18 19 19 20 20 21 21 22 22 23 23
REMARK SMILES IDX 24 24
REMARK H PARENT
REMARK Flexibility Score: inf
ROOT
ATOM      1  C   UNL     1      26.194  43.205   3.422  1.00  0.00     0.000 C 
ENDROOT
BRANCH   1   2
ATOM      2  C   UNL     1      26.178  43.626   4.901  1.00  0.00     0.000 C 
BRANCH   2   3
ATOM      3  C   UNL     1      27.060  44.856   5.176  1.00  0.00     0.000 C 
BRANCH   3   4
ATOM      4  C   UNL     1      27.707  45.420   3.903  1.00  0.00    -0.000 C 
BRANCH   4   5
ATOM      5  C   UNL     1      29.019  44.691   3.584  1.00  0.00    -0.000 C 
BRANCH   5   6
ATOM      6  C   UNL     1      29.401  44.860   2.109  1.00  0.00    -0.000 C 
BRANCH   6   7
ATOM      7  C   UNL     1      29.711  43.504   1.460  1.00  0.00    -0.000 C 
BRANCH   7   8
ATOM      8  C   UNL     1      30.494  43.635   0.141  1.00  0.00    -0.000 C 
BRANCH   8   9
ATOM      9  C   UNL     1      30.555  42.351  -0.707  1.00  0.00    -0.000 C 
BRANCH   9  10
ATOM     10  C   UNL     1      29.336  42.185  -1.630  1.00  0.00    -0.000 C 
BRANCH  10  11
ATOM     11  C   UNL     1      29.547  42.835  -3.006  1.00  0.00    -0.003 C 
ATOM     12  C   UNL     1      29.077  41.946  -4.156  1.00  0.00     0.004 C 
ENDBRANCH  10  11
ENDBRANCH   9  10
ENDBRANCH   8   9
ENDBRANCH   7   8
ENDBRANCH   6   7
ENDBRANCH   5   6
ENDBRANCH   4   5
ENDBRANCH   3   4
ENDBRANCH   2   3
ENDBRANCH   1   2
BRANCH   1  13
ATOM     13  C   UNL     1      24.842  43.441   2.728  1.00  0.00     0.000 C 
BRANCH  13  14
ATOM     14  C   UNL     1      24.253  42.157   2.125  1.00  0.00     0.000 C 
BRANCH  14  15
ATOM     15  C   UNL     1      22.721  42.152   2.238  1.00  0.00     0.000 C 
BRANCH  15  16
ATOM     16  C   UNL     1      22.213  42.859   3.507  1.00  0.00     0.000 C 
BRANCH  16  17
ATOM     17  C   UNL     1      23.038  42.587   4.784  1.00  0.00     0.000 C 
BRANCH  17  18
ATOM     18  C   UNL     1      23.038  41.127   5.271  1.00  0.00     0.000 C 
BRANCH  18  19
ATOM     19  C   UNL     1      24.455  40.557   5.453  1.00  0.00     0.000 C 
BRANCH  19  20
ATOM     20  C   UNL     1      24.580  39.637   6.680  1.00  0.00     0.006 C 
BRANCH  20  21
ATOM     21  C   UNL     1      25.252  38.284   6.386  1.00  0.00     0.053 C 
BRANCH  21  22
ATOM     22  C   UNL     1      26.719  38.287   6.689  1.00  0.00     0.041 C 
ATOM     23  O   UNL     1      27.561  38.374   5.756  1.00  0.00    -0.550 OA
ATOM     24  O   UNL     1      27.160  38.162   8.001  1.00  0.00    -0.550 OA
ENDBRANCH  21  22
ENDBRANCH  20  21
ENDBRANCH  19  20
ENDBRANCH  18  19
ENDBRANCH  17  18
ENDBRANCH  16  17
ENDBRANCH  15  16
ENDBRANCH  14  15
ENDBRANCH  13  14
ENDBRANCH   1  13
TORSDOF 20
ENDMDL
MODEL 5
REMARK VINA RESULT:    13.410      3.232      8.316
REMARK INTER + INTRA:          29.702
REMARK INTER:                  29.045
REMARK INTRA:                   0.657
REMARK UNBOUND:                 0.613
REMARK SMILES CCCCCCCCCCCCCCCCCCCCCC(=O)[O-]
REMARK SMILES IDX 12 1 11 2 10 3 9 4 8 5 7 6 6 7 5 8 4 9 3 10 2 11 1 12 13 13
REMARK SMILES IDX 14 14 15 15 16 16 17 17 18 18 19 19 20 20 21 21 22 22 23 23
REMARK SMILES IDX 24 24
REMARK H PARENT
REMARK Flexibility Score: inf
ROOT
ATOM      1  C   UNL     1      26.398  43.865   5.080  1.00  0.00     0.000 C 
ENDROOT
BRANCH   1   2
ATOM      2  C   UNL     1      27.069  45.224   5.342  1.00  0.00     0.000 C 
BRANCH   2   3
ATOM      3  C   UNL     1      28.061  45.618   4.235  1.00  0.00     0.000 C 
BRANCH   3   4
ATOM      4  C   UNL     1      28.761  44.404   3.605  1.00  0.00    -0.000 C 
BRANCH   4   5
ATOM      5  C   UNL     1      29.444  44.788   2.286  1.00  0.00    -0.000 C 
BRANCH   5   6
ATOM      6  C   UNL     1      29.484  43.600   1.319  1.00  0.00    -0.000 C 
BRANCH   6   7
ATOM      7  C   UNL     1      30.575  43.790   0.255  1.00  0.00    -0.000 C 
BRANCH   7   8
ATOM      8  C   UNL     1      30.472  42.777  -0.899  1.00  0.00    -0.000 C 
BRANCH   8   9
ATOM      9  C   UNL     1      29.752  43.298  -2.157  1.00  0.00    -0.000 C 
BRANCH   9  10
ATOM     10  C   UNL     1      29.847  42.328  -3.346  1.00  0.00    -0.000 C 
BRANCH  10  11
ATOM     11  C   UNL     1      28.468  41.847  -3.824  1.00  0.00    -0.003 C 
ATOM     12  C   UNL     1      27.740  41.009  -2.774  1.00  0.00     0.004 C 
ENDBRANCH  10  11
ENDBRANCH   9  10
ENDBRANCH   8   9
ENDBRANCH   7   8
ENDBRANCH   6   7
ENDBRANCH   5   6
ENDBRANCH   4   5
ENDBRANCH   3   4
ENDBRANCH   2   3
ENDBRANCH   1   2
BRANCH   1  13
ATOM     13  C   UNL     1      26.282  43.546   3.580  1.00  0.00     0.000 C 
BRANCH  13  14
ATOM     14  C   UNL     1      24.850  43.707   3.048  1.00  0.00     0.000 C 
BRANCH  14  15
ATOM     15  C   UNL     1      24.505  42.586   2.057  1.00  0.00     0.000 C 
BRANCH  15  16
ATOM     16  C   UNL     1      23.097  42.004   2.281  1.00  0.00     0.000 C 
BRANCH  16  17
ATOM     17  C   UNL     1      22.432  42.391   3.619  1.00  0.00     0.000 C 
BRANCH  17  18
ATOM     18  C   UNL     1      23.238  42.042   4.883  1.00  0.00     0.000 C 
BRANCH  18  19
ATOM     19  C   UNL     1      24.244  40.901   4.654  1.00  0.00     0.000 C 
BRANCH  19  20
ATOM     20  C   UNL     1      25.174  40.669   5.859  1.00  0.00     0.006 C 
BRANCH  20  21
ATOM     21  C   UNL     1      24.804  39.441   6.710  1.00  0.00     0.053 C 
BRANCH  21  22
ATOM     22  C   UNL     1      25.729  38.283   6.491  1.00  0.00     0.041 C 
ATOM     23  O   UNL     1      25.309  37.229   5.946  1.00  0.00    -0.550 OA
ATOM     24  O   UNL     1      27.049  38.356   6.916  1.00  0.00    -0.550 OA
ENDBRANCH  21  22
ENDBRANCH  20  21
ENDBRANCH  19  20
ENDBRANCH  18  19
ENDBRANCH  17  18
ENDBRANCH  16  17
ENDBRANCH  15  16
ENDBRANCH  14  15
ENDBRANCH  13  14
ENDBRANCH   1  13
TORSDOF 20
ENDMDL
MODEL 6
REMARK VINA RESULT:    13.532      4.035      7.560
REMARK INTER + INTRA:          29.967
REMARK INTER:                  31.046
REMARK INTRA:                  -1.079
REMARK UNBOUND:                 0.613
REMARK SMILES CCCCCCCCCCCCCCCCCCCCCC(=O)[O-]
REMARK SMILES IDX 12 1 11 2 10 3 9 4 8 5 7 6 6 7 5 8 4 9 3 10 2 11 1 12 13 13
REMARK SMILES IDX 14 14 15 15 16 16 17 17 18 18 19 19 20 20 21 21 22 22 23 23
REMARK SMILES IDX 24 24
REMARK H PARENT
REMARK Flexibility Score: inf
ROOT
ATOM      1  C   UNL     1      26.379  43.504   4.106  1.00  0.00     0.000 C 
ENDROOT
BRANCH   1   2
ATOM      2  C   UNL     1      27.669  44.065   3.485  1.00  0.00     0.000 C 
BRANCH   2   3
ATOM      3  C   UNL     1      28.110  45.390   4.130  1.00  0.00     0.000 C 
BRANCH   3   4
ATOM      4  C   UNL     1      27.273  45.757   5.364  1.00  0.00    -0.000 C 
BRANCH   4   5
ATOM      5  C   UNL     1      27.590  47.181   5.839  1.00  0.00    -0.000 C 
BRANCH   5   6
ATOM      6  C   UNL     1      26.933  47.470   7.194  1.00  0.00    -0.000 C 
BRANCH   6   7
ATOM      7  C   UNL     1      25.950  46.355   7.580  1.00  0.00    -0.000 C 
BRANCH   7   8
ATOM      8  C   UNL     1      24.484  46.826   7.596  1.00  0.00    -0.000 C 
BRANCH   8   9
ATOM      9  C   UNL     1      23.899  47.076   8.998  1.00  0.00    -0.000 C 
BRANCH   9  10
ATOM     10  C   UNL     1      23.066  45.893   9.518  1.00  0.00    -0.000 C 
BRANCH  10  11
ATOM     11  C   UNL     1      23.602  45.336  10.846  1.00  0.00    -0.003 C 
ATOM     12  C   UNL     1      22.965  46.003  12.064  1.00  0.00     0.004 C 
ENDBRANCH  10  11
ENDBRANCH   9  10
ENDBRANCH   8   9
ENDBRANCH   7   8
ENDBRANCH   6   7
ENDBRANCH   5   6
ENDBRANCH   4   5
ENDBRANCH   3   4
ENDBRANCH   2   3
ENDBRANCH   1   2
BRANCH   1  13
ATOM     13  C   UNL     1      25.151  43.718   3.207  1.00  0.00     0.000 C 
BRANCH  13  14
ATOM     14  C   UNL     1      24.819  42.486   2.352  1.00  0.00     0.000 C 
BRANCH  14  15
ATOM     15  C   UNL     1      23.313  42.188   2.383  1.00  0.00     0.000 C 
BRANCH  15  16
ATOM     16  C   UNL     1      22.613  42.773   3.622  1.00  0.00     0.000 C 
BRANCH  16  17
ATOM     17  C   UNL     1      22.979  42.099   4.962  1.00  0.00     0.000 C 
BRANCH  17  18
ATOM     18  C   UNL     1      23.862  40.843   4.850  1.00  0.00     0.000 C 
BRANCH  18  19
ATOM     19  C   UNL     1      24.976  40.798   5.909  1.00  0.00     0.000 C 
BRANCH  19  20
ATOM     20  C   UNL     1      24.721  39.748   7.005  1.00  0.00     0.006 C 
BRANCH  20  21
ATOM     21  C   UNL     1      25.946  38.879   7.341  1.00  0.00     0.053 C 
BRANCH  21  22
ATOM     22  C   UNL     1      26.357  37.993   6.206  1.00  0.00     0.041 C 
ATOM     23  O   UNL     1      27.548  37.997   5.795  1.00  0.00    -0.550 OA
ATOM     24  O   UNL     1      25.419  37.182   5.579  1.00  0.00    -0.550 OA
ENDBRANCH  21  22
ENDBRANCH  20  21
ENDBRANCH  19  20
ENDBRANCH  18  19
ENDBRANCH  17  18
ENDBRANCH  16  17
ENDBRANCH  15  16
ENDBRANCH  14  15
ENDBRANCH  13  14
ENDBRANCH   1  13
TORSDOF 20
ENDMDL
MODEL 7
REMARK VINA RESULT:    14.241     11.401     13.179
REMARK INTER + INTRA:          31.503
REMARK INTER:                  31.967
REMARK INTRA:                  -0.463
REMARK UNBOUND:                 0.613
REMARK SMILES CCCCCCCCCCCCCCCCCCCCCC(=O)[O-]
REMARK SMILES IDX 12 1 11 2 10 3 9 4 8 5 7 6 6 7 5 8 4 9 3 10 2 11 1 12 13 13
REMARK SMILES IDX 14 14 15 15 16 16 17 17 18 18 19 19 20 20 21 21 22 22 23 23
REMARK SMILES IDX 24 24
REMARK H PARENT
REMARK Flexibility Score: inf
ROOT
ATOM      1  C   UNL     1      27.915  28.388   0.918  1.00  0.00     0.000 C 
ENDROOT
BRANCH   1   2
ATOM      2  C   UNL     1      28.214  28.552   2.418  1.00  0.00     0.000 C 
BRANCH   2   3
ATOM      3  C   UNL     1      27.493  29.760   3.037  1.00  0.00     0.000 C 
BRANCH   3   4
ATOM      4  C   UNL     1      26.787  29.418   4.358  1.00  0.00    -0.000 C 
BRANCH   4   5
ATOM      5  C   UNL     1      27.807  29.088   5.456  1.00  0.00    -0.000 C 
BRANCH   5   6
ATOM      6  C   UNL     1      27.361  29.649   6.811  1.00  0.00    -0.000 C 
BRANCH   6   7
ATOM      7  C   UNL     1      28.544  30.266   7.570  1.00  0.00    -0.000 C 
BRANCH   7   8
ATOM      8  C   UNL     1      28.461  31.800   7.667  1.00  0.00    -0.000 C 
BRANCH   8   9
ATOM      9  C   UNL     1      29.700  32.551   7.146  1.00  0.00    -0.000 C 
BRANCH   9  10
ATOM     10  C   UNL     1      31.007  31.769   7.360  1.00  0.00    -0.000 C 
BRANCH  10  11
ATOM     11  C   UNL     1      31.316  31.536   8.847  1.00  0.00    -0.003 C 
ATOM     12  C   UNL     1      31.659  32.829   9.587  1.00  0.00     0.004 C 
ENDBRANCH  10  11
ENDBRANCH   9  10
ENDBRANCH   8   9
ENDBRANCH   7   8
ENDBRANCH   6   7
ENDBRANCH   5   6
ENDBRANCH   4   5
ENDBRANCH   3   4
ENDBRANCH   2   3
ENDBRANCH   1   2
BRANCH   1  13
ATOM     13  C   UNL     1      26.809  29.338   0.431  1.00  0.00     0.000 C 
BRANCH  13  14
ATOM     14  C   UNL     1      27.273  30.254  -0.711  1.00  0.00     0.000 C 
BRANCH  14  15
ATOM     15  C   UNL     1      26.200  30.350  -1.806  1.00  0.00     0.000 C 
BRANCH  15  16
ATOM     16  C   UNL     1      26.529  31.410  -2.872  1.00  0.00     0.000 C 
BRANCH  16  17
ATOM     17  C   UNL     1      27.019  30.851  -4.225  1.00  0.00     0.000 C 
BRANCH  17  18
ATOM     18  C   UNL     1      25.923  30.627  -5.283  1.00  0.00     0.000 C 
BRANCH  18  19
ATOM     19  C   UNL     1      26.049  31.579  -6.484  1.00  0.00     0.000 C 
BRANCH  19  20
ATOM     20  C   UNL     1      25.340  31.052  -7.745  1.00  0.00     0.006 C 
BRANCH  20  21
ATOM     21  C   UNL     1      23.879  31.514  -7.884  1.00  0.00     0.053 C 
BRANCH  21  22
ATOM     22  C   UNL     1      23.746  33.005  -7.958  1.00  0.00     0.041 C 
ATOM     23  O   UNL     1      24.765  33.727  -8.112  1.00  0.00    -0.550 OA
ATOM     24  O   UNL     1      22.498  33.600  -7.825  1.00  0.00    -0.550 OA
ENDBRANCH  21  22
ENDBRANCH  20  21
ENDBRANCH  19  20
ENDBRANCH  18  19
ENDBRANCH  17  18
ENDBRANCH  16  17
ENDBRANCH  15  16
ENDBRANCH  14  15
ENDBRANCH  13  14
ENDBRANCH   1  13
TORSDOF 20
ENDMDL
MODEL 8
REMARK VINA RESULT:    14.543     11.516     13.311
REMARK INTER + INTRA:          32.159
REMARK INTER:                  30.273
REMARK INTRA:                   1.885
REMARK UNBOUND:                 0.613
REMARK SMILES CCCCCCCCCCCCCCCCCCCCCC(=O)[O-]
REMARK SMILES IDX 12 1 11 2 10 3 9 4 8 5 7 6 6 7 5 8 4 9 3 10 2 11 1 12 13 13
REMARK SMILES IDX 14 14 15 15 16 16 17 17 18 18 19 19 20 20 21 21 22 22 23 23
REMARK SMILES IDX 24 24
REMARK H PARENT
REMARK Flexibility Score: inf
ROOT
ATOM      1  C   UNL     1      26.268  30.483  -1.455  1.00  0.00     0.000 C 
ENDROOT
BRANCH   1   2
ATOM      2  C   UNL     1      27.144  30.074  -0.259  1.00  0.00     0.000 C 
BRANCH   2   3
ATOM      3  C   UNL     1      27.029  28.578   0.075  1.00  0.00     0.000 C 
BRANCH   3   4
ATOM      4  C   UNL     1      27.675  28.218   1.422  1.00  0.00    -0.000 C 
BRANCH   4   5
ATOM      5  C   UNL     1      27.466  29.339   2.448  1.00  0.00    -0.000 C 
BRANCH   5   6
ATOM      6  C   UNL     1      28.043  28.951   3.814  1.00  0.00    -0.000 C 
BRANCH   6   7
ATOM      7  C   UNL     1      27.089  29.348   4.950  1.00  0.00    -0.000 C 
BRANCH   7   8
ATOM      8  C   UNL     1      27.795  29.473   6.312  1.00  0.00    -0.000 C 
BRANCH   8   9
ATOM      9  C   UNL     1      28.238  30.900   6.684  1.00  0.00    -0.000 C 
BRANCH   9  10
ATOM     10  C   UNL     1      29.386  30.922   7.706  1.00  0.00    -0.000 C 
BRANCH  10  11
ATOM     11  C   UNL     1      30.285  32.159   7.555  1.00  0.00    -0.003 C 
ATOM     12  C   UNL     1      31.406  32.203   8.593  1.00  0.00     0.004 C 
ENDBRANCH  10  11
ENDBRANCH   9  10
ENDBRANCH   8   9
ENDBRANCH   7   8
ENDBRANCH   6   7
ENDBRANCH   5   6
ENDBRANCH   4   5
ENDBRANCH   3   4
ENDBRANCH   2   3
ENDBRANCH   1   2
BRANCH   1  13
ATOM     13  C   UNL     1      26.961  31.505  -2.371  1.00  0.00     0.000 C 
BRANCH  13  14
ATOM     14  C   UNL     1      27.143  30.989  -3.806  1.00  0.00     0.000 C 
BRANCH  14  15
ATOM     15  C   UNL     1      25.782  30.744  -4.475  1.00  0.00     0.000 C 
BRANCH  15  16
ATOM     16  C   UNL     1      25.831  30.906  -6.005  1.00  0.00     0.000 C 
BRANCH  16  17
ATOM     17  C   UNL     1      25.025  29.858  -6.802  1.00  0.00     0.000 C 
BRANCH  17  18
ATOM     18  C   UNL     1      23.814  30.407  -7.578  1.00  0.00     0.000 C 
BRANCH  18  19
ATOM     19  C   UNL     1      23.873  31.930  -7.780  1.00  0.00     0.000 C 
BRANCH  19  20
ATOM     20  C   UNL     1      24.354  32.684  -6.526  1.00  0.00     0.006 C 
BRANCH  20  21
ATOM     21  C   UNL     1      25.319  33.846  -6.823  1.00  0.00     0.053 C 
BRANCH  21  22
ATOM     22  C   UNL     1      24.717  34.887  -7.716  1.00  0.00     0.041 C 
ATOM     23  O   UNL     1      23.532  34.766  -8.124  1.00  0.00    -0.550 OA
ATOM     24  O   UNL     1      25.474  35.978  -8.123  1.00  0.00    -0.550 OA
ENDBRANCH  21  22
ENDBRANCH  20  21
ENDBRANCH  19  20
ENDBRANCH  18  19
ENDBRANCH  17  18
ENDBRANCH  16  17
ENDBRANCH  15  16
ENDBRANCH  14  15
ENDBRANCH  13  14
ENDBRANCH   1  13
TORSDOF 20
ENDMDL
