MODEL 1
REMARK VINA RESULT:    -5.467      0.000      0.000
REMARK INTER + INTRA:          -6.552
REMARK INTER:                  -6.425
REMARK INTRA:                  -0.127
REMARK UNBOUND:                -0.127
REMARK SMILES O=C([O-])C=Cc1ccc(O)c(O)c1
REMARK SMILES IDX 6 1 13 2 7 3 11 4 8 5 9 6 5 7 4 8 2 9 1 10 3 11 12 12 10 14
REMARK H PARENT 12 13 10 15
REMARK Flexibility Score: inf
ROOT
ATOM      1  C   UNL     1      29.971  37.450  27.765  1.00  0.00    -0.022 A 
ATOM      2  C   UNL     1      28.573  37.593  27.762  1.00  0.00     0.058 A 
ATOM      3  C   UNL     1      30.530  36.231  27.334  1.00  0.00     0.012 A 
ATOM      4  C   UNL     1      27.745  36.537  27.365  1.00  0.00     0.157 A 
ATOM      5  C   UNL     1      29.705  35.175  26.936  1.00  0.00     0.051 A 
ATOM      6  C   UNL     1      28.313  35.320  26.952  1.00  0.00     0.157 A 
ENDROOT
BRANCH   1   7
ATOM      7  C   UNL     1      30.802  38.606  28.186  1.00  0.00     0.010 C 
ATOM      8  C   UNL     1      31.476  39.388  27.332  1.00  0.00     0.025 C 
BRANCH   8   9
ATOM      9  C   UNL     1      32.298  40.517  27.796  1.00  0.00     0.064 C 
ATOM     10  O   UNL     1      33.505  40.590  27.448  1.00  0.00    -0.545 OA
ATOM     11  O   UNL     1      31.763  41.508  28.612  1.00  0.00    -0.545 OA
ENDBRANCH   8   9
ENDBRANCH   1   7
BRANCH   4  12
ATOM     12  O   UNL     1      26.361  36.716  27.387  1.00  0.00    -0.504 OA
ATOM     13  H   UNL     1      25.808  36.728  26.539  1.00  0.00     0.293 HD
ENDBRANCH   4  12
BRANCH   6  14
ATOM     14  O   UNL     1      27.493  34.264  26.556  1.00  0.00    -0.504 OA
ATOM     15  H   UNL     1      27.645  33.774  25.682  1.00  0.00     0.293 HD
ENDBRANCH   6  14
TORSDOF 4
ENDMDL
MODEL 2
REMARK VINA RESULT:    -5.405      2.028      2.851
REMARK INTER + INTRA:          -6.480
REMARK INTER:                  -6.344
REMARK INTRA:                  -0.136
REMARK UNBOUND:                -0.127
REMARK SMILES O=C([O-])C=Cc1ccc(O)c(O)c1
REMARK SMILES IDX 6 1 13 2 7 3 11 4 8 5 9 6 5 7 4 8 2 9 1 10 3 11 12 12 10 14
REMARK H PARENT 12 13 10 15
REMARK Flexibility Score: inf
ROOT
ATOM      1  C   UNL     1      28.962  37.002  27.063  1.00  0.00    -0.022 A 
ATOM      2  C   UNL     1      29.421  35.696  26.819  1.00  0.00     0.058 A 
ATOM      3  C   UNL     1      27.727  37.401  26.515  1.00  0.00     0.012 A 
ATOM      4  C   UNL     1      28.682  34.812  26.025  1.00  0.00     0.157 A 
ATOM      5  C   UNL     1      26.987  36.519  25.722  1.00  0.00     0.051 A 
ATOM      6  C   UNL     1      27.459  35.226  25.471  1.00  0.00     0.157 A 
ENDROOT
BRANCH   1   7
ATOM      7  C   UNL     1      29.781  37.894  27.921  1.00  0.00     0.010 C 
ATOM      8  C   UNL     1      29.328  38.469  29.043  1.00  0.00     0.025 C 
BRANCH   8   9
ATOM      9  C   UNL     1      30.173  39.357  29.857  1.00  0.00     0.064 C 
ATOM     10  O   UNL     1      30.907  40.208  29.288  1.00  0.00    -0.545 OA
ATOM     11  O   UNL     1      30.174  39.276  31.244  1.00  0.00    -0.545 OA
ENDBRANCH   8   9
ENDBRANCH   1   7
BRANCH   4  12
ATOM     12  O   UNL     1      29.178  33.528  25.798  1.00  0.00    -0.504 OA
ATOM     13  H   UNL     1      28.631  32.816  25.331  1.00  0.00     0.293 HD
ENDBRANCH   4  12
BRANCH   6  14
ATOM     14  O   UNL     1      26.719  34.351  24.678  1.00  0.00    -0.504 OA
ATOM     15  H   UNL     1      27.164  33.618  24.137  1.00  0.00     0.293 HD
ENDBRANCH   6  14
TORSDOF 4
ENDMDL
MODEL 3
REMARK VINA RESULT:    -5.102      3.101      4.098
REMARK INTER + INTRA:          -6.123
REMARK INTER:                  -5.995
REMARK INTRA:                  -0.128
REMARK UNBOUND:                -0.127
REMARK SMILES O=C([O-])C=Cc1ccc(O)c(O)c1
REMARK SMILES IDX 6 1 13 2 7 3 11 4 8 5 9 6 5 7 4 8 2 9 1 10 3 11 12 12 10 14
REMARK H PARENT 12 13 10 15
REMARK Flexibility Score: inf
ROOT
ATOM      1  C   UNL     1      29.924  37.081  26.142  1.00  0.00    -0.022 A 
ATOM      2  C   UNL     1      28.529  37.095  26.310  1.00  0.00     0.058 A 
ATOM      3  C   UNL     1      30.511  38.010  25.260  1.00  0.00     0.012 A 
ATOM      4  C   UNL     1      27.729  37.997  25.597  1.00  0.00     0.157 A 
ATOM      5  C   UNL     1      29.715  38.911  24.548  1.00  0.00     0.051 A 
ATOM      6  C   UNL     1      28.324  38.907  24.709  1.00  0.00     0.157 A 
ENDROOT
BRANCH   1   7
ATOM      7  C   UNL     1      30.724  36.111  26.931  1.00  0.00     0.010 C 
ATOM      8  C   UNL     1      31.523  36.459  27.948  1.00  0.00     0.025 C 
BRANCH   8   9
ATOM      9  C   UNL     1      32.309  35.464  28.694  1.00  0.00     0.064 C 
ATOM     10  O   UNL     1      33.544  35.643  28.858  1.00  0.00    -0.545 OA
ATOM     11  O   UNL     1      31.709  34.328  29.227  1.00  0.00    -0.545 OA
ENDBRANCH   8   9
ENDBRANCH   1   7
BRANCH   4  12
ATOM     12  O   UNL     1      26.347  37.971  25.785  1.00  0.00    -0.504 OA
ATOM     13  H   UNL     1      25.745  38.710  25.444  1.00  0.00     0.293 HD
ENDBRANCH   4  12
BRANCH   6  14
ATOM     14  O   UNL     1      27.533  39.807  23.996  1.00  0.00    -0.504 OA
ATOM     15  H   UNL     1      26.578  39.586  23.739  1.00  0.00     0.293 HD
ENDBRANCH   6  14
TORSDOF 4
ENDMDL
MODEL 4
REMARK VINA RESULT:    -4.913      1.535      2.464
REMARK INTER + INTRA:          -5.901
REMARK INTER:                  -5.772
REMARK INTRA:                  -0.129
REMARK UNBOUND:                -0.127
REMARK SMILES O=C([O-])C=Cc1ccc(O)c(O)c1
REMARK SMILES IDX 6 1 13 2 7 3 11 4 8 5 9 6 5 7 4 8 2 9 1 10 3 11 12 12 10 14
REMARK H PARENT 12 13 10 15
REMARK Flexibility Score: inf
ROOT
ATOM      1  C   UNL     1      28.670  37.327  26.997  1.00  0.00    -0.022 A 
ATOM      2  C   UNL     1      29.267  36.070  26.802  1.00  0.00     0.058 A 
ATOM      3  C   UNL     1      27.395  37.566  26.447  1.00  0.00     0.012 A 
ATOM      4  C   UNL     1      28.623  35.078  26.054  1.00  0.00     0.157 A 
ATOM      5  C   UNL     1      26.750  36.576  25.700  1.00  0.00     0.051 A 
ATOM      6  C   UNL     1      27.359  35.332  25.497  1.00  0.00     0.157 A 
ENDROOT
BRANCH   1   7
ATOM      7  C   UNL     1      29.393  38.339  27.807  1.00  0.00     0.010 C 
ATOM      8  C   UNL     1      30.529  38.931  27.416  1.00  0.00     0.025 C 
BRANCH   8   9
ATOM      9  C   UNL     1      31.219  39.921  28.259  1.00  0.00     0.064 C 
ATOM     10  O   UNL     1      30.880  40.054  29.464  1.00  0.00    -0.545 OA
ATOM     11  O   UNL     1      32.242  40.711  27.748  1.00  0.00    -0.545 OA
ENDBRANCH   8   9
ENDBRANCH   1   7
BRANCH   4  12
ATOM     12  O   UNL     1      29.255  33.847  25.875  1.00  0.00    -0.504 OA
ATOM     13  H   UNL     1      30.261  33.748  25.915  1.00  0.00     0.293 HD
ENDBRANCH   4  12
BRANCH   6  14
ATOM     14  O   UNL     1      26.713  34.348  24.750  1.00  0.00    -0.504 OA
ATOM     15  H   UNL     1      27.222  33.744  24.115  1.00  0.00     0.293 HD
ENDBRANCH   6  14
TORSDOF 4
ENDMDL
MODEL 5
REMARK VINA RESULT:    -4.825      3.260      4.029
REMARK INTER + INTRA:          -5.797
REMARK INTER:                  -5.661
REMARK INTRA:                  -0.136
REMARK UNBOUND:                -0.127
REMARK SMILES O=C([O-])C=Cc1ccc(O)c(O)c1
REMARK SMILES IDX 6 1 13 2 7 3 11 4 8 5 9 6 5 7 4 8 2 9 1 10 3 11 12 12 10 14
REMARK H PARENT 12 13 10 15
REMARK Flexibility Score: inf
ROOT
ATOM      1  C   UNL     1      28.903  38.146  27.381  1.00  0.00    -0.022 A 
ATOM      2  C   UNL     1      29.473  38.541  28.603  1.00  0.00     0.058 A 
ATOM      3  C   UNL     1      27.644  37.513  27.392  1.00  0.00     0.012 A 
ATOM      4  C   UNL     1      28.819  38.289  29.815  1.00  0.00     0.157 A 
ATOM      5  C   UNL     1      26.990  37.261  28.601  1.00  0.00     0.051 A 
ATOM      6  C   UNL     1      27.572  37.643  29.815  1.00  0.00     0.157 A 
ENDROOT
BRANCH   1   7
ATOM      7  C   UNL     1      29.635  38.448  26.126  1.00  0.00     0.010 C 
ATOM      8  C   UNL     1      29.110  39.139  25.106  1.00  0.00     0.025 C 
BRANCH   8   9
ATOM      9  C   UNL     1      29.869  39.404  23.874  1.00  0.00     0.064 C 
ATOM     10  O   UNL     1      30.536  38.476  23.344  1.00  0.00    -0.545 OA
ATOM     11  O   UNL     1      29.861  40.661  23.280  1.00  0.00    -0.545 OA
ENDBRANCH   8   9
ENDBRANCH   1   7
BRANCH   4  12
ATOM     12  O   UNL     1      29.424  38.688  31.007  1.00  0.00    -0.504 OA
ATOM     13  H   UNL     1      29.618  39.660  31.212  1.00  0.00     0.293 HD
ENDBRANCH   4  12
BRANCH   6  14
ATOM     14  O   UNL     1      26.916  37.388  31.019  1.00  0.00    -0.504 OA
ATOM     15  H   UNL     1      27.310  36.767  31.716  1.00  0.00     0.293 HD
ENDBRANCH   6  14
TORSDOF 4
ENDMDL
MODEL 6
REMARK VINA RESULT:    -4.810      3.360      5.527
REMARK INTER + INTRA:          -5.780
REMARK INTER:                  -5.647
REMARK INTRA:                  -0.132
REMARK UNBOUND:                -0.127
REMARK SMILES O=C([O-])C=Cc1ccc(O)c(O)c1
REMARK SMILES IDX 6 1 13 2 7 3 11 4 8 5 9 6 5 7 4 8 2 9 1 10 3 11 12 12 10 14
REMARK H PARENT 12 13 10 15
REMARK Flexibility Score: inf
ROOT
ATOM      1  C   UNL     1      28.789  37.772  26.205  1.00  0.00    -0.022 A 
ATOM      2  C   UNL     1      29.276  38.564  25.151  1.00  0.00     0.058 A 
ATOM      3  C   UNL     1      27.604  38.165  26.857  1.00  0.00     0.012 A 
ATOM      4  C   UNL     1      28.613  39.736  24.768  1.00  0.00     0.157 A 
ATOM      5  C   UNL     1      26.940  39.334  26.476  1.00  0.00     0.051 A 
ATOM      6  C   UNL     1      27.440  40.125  25.436  1.00  0.00     0.157 A 
ENDROOT
BRANCH   1   7
ATOM      7  C   UNL     1      29.526  36.534  26.563  1.00  0.00     0.010 C 
ATOM      8  C   UNL     1      29.099  35.301  26.262  1.00  0.00     0.025 C 
BRANCH   8   9
ATOM      9  C   UNL     1      29.857  34.100  26.648  1.00  0.00     0.064 C 
ATOM     10  O   UNL     1      30.564  34.121  27.689  1.00  0.00    -0.545 OA
ATOM     11  O   UNL     1      29.804  32.941  25.883  1.00  0.00    -0.545 OA
ENDBRANCH   8   9
ENDBRANCH   1   7
BRANCH   4  12
ATOM     12  O   UNL     1      29.135  40.499  23.723  1.00  0.00    -0.504 OA
ATOM     13  H   UNL     1      28.790  40.417  22.775  1.00  0.00     0.293 HD
ENDBRANCH   4  12
BRANCH   6  14
ATOM     14  O   UNL     1      26.776  41.292  25.060  1.00  0.00    -0.504 OA
ATOM     15  H   UNL     1      27.282  42.141  24.833  1.00  0.00     0.293 HD
ENDBRANCH   6  14
TORSDOF 4
ENDMDL
MODEL 7
REMARK VINA RESULT:    -4.507      3.011      4.039
REMARK INTER + INTRA:          -5.424
REMARK INTER:                  -5.295
REMARK INTRA:                  -0.129
REMARK UNBOUND:                -0.127
REMARK SMILES O=C([O-])C=Cc1ccc(O)c(O)c1
REMARK SMILES IDX 6 1 13 2 7 3 11 4 8 5 9 6 5 7 4 8 2 9 1 10 3 11 12 12 10 14
REMARK H PARENT 12 13 10 15
REMARK Flexibility Score: inf
ROOT
ATOM      1  C   UNL     1      30.266  37.723  27.060  1.00  0.00    -0.022 A 
ATOM      2  C   UNL     1      29.035  37.061  27.207  1.00  0.00     0.058 A 
ATOM      3  C   UNL     1      30.569  38.794  27.924  1.00  0.00     0.012 A 
ATOM      4  C   UNL     1      28.112  37.472  28.176  1.00  0.00     0.157 A 
ATOM      5  C   UNL     1      29.649  39.204  28.892  1.00  0.00     0.051 A 
ATOM      6  C   UNL     1      28.418  38.550  29.021  1.00  0.00     0.157 A 
ENDROOT
BRANCH   1   7
ATOM      7  C   UNL     1      31.212  37.239  26.024  1.00  0.00     0.010 C 
ATOM      8  C   UNL     1      31.107  37.539  24.722  1.00  0.00     0.025 C 
BRANCH   8   9
ATOM      9  C   UNL     1      32.062  37.027  23.727  1.00  0.00     0.064 C 
ATOM     10  O   UNL     1      33.166  36.557  24.110  1.00  0.00    -0.545 OA
ATOM     11  O   UNL     1      31.766  37.049  22.369  1.00  0.00    -0.545 OA
ENDBRANCH   8   9
ENDBRANCH   1   7
BRANCH   4  12
ATOM     12  O   UNL     1      26.896  36.795  28.283  1.00  0.00    -0.504 OA
ATOM     13  H   UNL     1      26.114  37.173  28.801  1.00  0.00     0.293 HD
ENDBRANCH   4  12
BRANCH   6  14
ATOM     14  O   UNL     1      27.502  38.964  29.987  1.00  0.00    -0.504 OA
ATOM     15  H   UNL     1      26.780  38.344  30.334  1.00  0.00     0.293 HD
ENDBRANCH   6  14
TORSDOF 4
ENDMDL
MODEL 8
REMARK VINA RESULT:    -4.492      3.187      4.096
REMARK INTER + INTRA:          -5.407
REMARK INTER:                  -5.277
REMARK INTRA:                  -0.129
REMARK UNBOUND:                -0.127
REMARK SMILES O=C([O-])C=Cc1ccc(O)c(O)c1
REMARK SMILES IDX 6 1 13 2 7 3 11 4 8 5 9 6 5 7 4 8 2 9 1 10 3 11 12 12 10 14
REMARK H PARENT 12 13 10 15
REMARK Flexibility Score: inf
ROOT
ATOM      1  C   UNL     1      28.718  37.876  27.221  1.00  0.00    -0.022 A 
ATOM      2  C   UNL     1      29.333  38.366  28.386  1.00  0.00     0.058 A 
ATOM      3  C   UNL     1      27.426  37.323  27.317  1.00  0.00     0.012 A 
ATOM      4  C   UNL     1      28.689  38.285  29.626  1.00  0.00     0.157 A 
ATOM      5  C   UNL     1      26.781  37.242  28.554  1.00  0.00     0.051 A 
ATOM      6  C   UNL     1      27.408  37.717  29.712  1.00  0.00     0.157 A 
ENDROOT
BRANCH   1   7
ATOM      7  C   UNL     1      29.442  37.997  25.931  1.00  0.00     0.010 C 
ATOM      8  C   UNL     1      30.562  37.323  25.641  1.00  0.00     0.025 C 
BRANCH   8   9
ATOM      9  C   UNL     1      31.253  37.484  24.352  1.00  0.00     0.064 C 
ATOM     10  O   UNL     1      30.825  38.325  23.519  1.00  0.00    -0.545 OA
ATOM     11  O   UNL     1      32.375  36.725  24.039  1.00  0.00    -0.545 OA
ENDBRANCH   8   9
ENDBRANCH   1   7
BRANCH   4  12
ATOM     12  O   UNL     1      29.339  38.774  30.760  1.00  0.00    -0.504 OA
ATOM     13  H   UNL     1      30.096  38.271  31.205  1.00  0.00     0.293 HD
ENDBRANCH   4  12
BRANCH   6  14
ATOM     14  O   UNL     1      26.761  37.632  30.945  1.00  0.00    -0.504 OA
ATOM     15  H   UNL     1      27.192  37.173  31.739  1.00  0.00     0.293 HD
ENDBRANCH   6  14
TORSDOF 4
ENDMDL
