MODEL 1
REMARK VINA RESULT:    -3.301      0.000      0.000
REMARK INTER + INTRA:          -3.650
REMARK INTER:                  -4.073
REMARK INTRA:                   0.422
REMARK UNBOUND:                 0.422
REMARK SMILES Oc1cc(O)c2cc(O)c(-c3cc(O)c(O)c(O)c3)[o+]c2c1
REMARK SMILES IDX 10 1 20 2 21 3 22 4 2 5 3 6 4 7 6 8 7 9 8 10 11 11 12 12
REMARK SMILES IDX 13 13 19 14 15 15 17 16 14 17 16 19 18 21 9 23 1 25 5 27
REMARK H PARENT 14 18 16 20 18 22 9 24 1 26 5 28
REMARK Flexibility Score: inf
ROOT
ATOM      1  C   UNL     1     -36.326  -9.816   5.247  1.00  0.00     0.402 A 
ATOM      2  O   UNL     1     -37.135  -9.720   6.298  1.00  0.00    -0.202 OA
ATOM      3  C   UNL     1     -36.703  -9.727   7.555  1.00  0.00     0.368 A 
ATOM      4  C   UNL     1     -37.630  -9.619   8.594  1.00  0.00     0.162 A 
ATOM      5  C   UNL     1     -37.205  -9.619   9.923  1.00  0.00     0.128 A 
ATOM      6  C   UNL     1     -35.841  -9.728  10.218  1.00  0.00     0.093 A 
ATOM      7  C   UNL     1     -34.891  -9.837   9.194  1.00  0.00     0.136 A 
ATOM      8  C   UNL     1     -35.320  -9.840   7.842  1.00  0.00     0.125 A 
ATOM      9  C   UNL     1     -34.442  -9.958   6.753  1.00  0.00     0.078 A 
ATOM     10  C   UNL     1     -34.939  -9.957   5.447  1.00  0.00     0.223 A 
ENDROOT
BRANCH   1  11
ATOM     11  C   UNL     1     -36.928  -9.787   3.895  1.00  0.00     0.091 A 
ATOM     12  C   UNL     1     -38.309  -9.956   3.704  1.00  0.00     0.068 A 
ATOM     13  C   UNL     1     -38.864  -9.951   2.419  1.00  0.00     0.162 A 
ATOM     14  C   UNL     1     -36.098  -9.648   2.774  1.00  0.00     0.068 A 
ATOM     15  C   UNL     1     -38.022  -9.782   1.293  1.00  0.00     0.200 A 
ATOM     16  C   UNL     1     -36.636  -9.637   1.484  1.00  0.00     0.162 A 
BRANCH  13  17
ATOM     17  O   UNL     1     -40.246 -10.124   2.310  1.00  0.00    -0.504 OA
ATOM     18  H   UNL     1     -40.927  -9.567   2.806  1.00  0.00     0.293 HD
ENDBRANCH  13  17
BRANCH  15  19
ATOM     19  O   UNL     1     -38.520  -9.757  -0.013  1.00  0.00    -0.502 OA
ATOM     20  H   UNL     1     -38.941 -10.549  -0.475  1.00  0.00     0.293 HD
ENDBRANCH  15  19
BRANCH  16  21
ATOM     21  O   UNL     1     -35.772  -9.479   0.400  1.00  0.00    -0.504 OA
ATOM     22  H   UNL     1     -34.824  -9.139   0.509  1.00  0.00     0.293 HD
ENDBRANCH  16  21
ENDBRANCH   1  11
BRANCH  10  23
ATOM     23  O   UNL     1     -34.073 -10.125   4.366  1.00  0.00    -0.500 OA
ATOM     24  H   UNL     1     -33.587 -10.999   4.205  1.00  0.00     0.294 HD
ENDBRANCH  10  23
BRANCH   5  25
ATOM     25  O   UNL     1     -38.146  -9.512  10.945  1.00  0.00    -0.507 OA
ATOM     26  H   UNL     1     -38.230  -8.667  11.500  1.00  0.00     0.293 HD
ENDBRANCH   5  25
BRANCH   7  27
ATOM     27  O   UNL     1     -33.549  -9.938   9.570  1.00  0.00    -0.507 OA
ATOM     28  H   UNL     1     -33.125 -10.768   9.957  1.00  0.00     0.293 HD
ENDBRANCH   7  27
TORSDOF 7
ENDMDL
MODEL 2
REMARK VINA RESULT:    -1.779      1.682      3.646
REMARK INTER + INTRA:          -1.773
REMARK INTER:                  -2.140
REMARK INTRA:                   0.367
REMARK UNBOUND:                 0.422
REMARK SMILES Oc1cc(O)c2cc(O)c(-c3cc(O)c(O)c(O)c3)[o+]c2c1
REMARK SMILES IDX 10 1 20 2 21 3 22 4 2 5 3 6 4 7 6 8 7 9 8 10 11 11 12 12
REMARK SMILES IDX 13 13 19 14 15 15 17 16 14 17 16 19 18 21 9 23 1 25 5 27
REMARK H PARENT 14 18 16 20 18 22 9 24 1 26 5 28
REMARK Flexibility Score: inf
ROOT
ATOM      1  C   UNL     1     -36.816  -9.731   2.804  1.00  0.00     0.402 A 
ATOM      2  O   UNL     1     -35.653  -9.792   3.447  1.00  0.00    -0.202 OA
ATOM      3  C   UNL     1     -35.553  -9.895   4.767  1.00  0.00     0.368 A 
ATOM      4  C   UNL     1     -34.285  -9.955   5.352  1.00  0.00     0.162 A 
ATOM      5  C   UNL     1     -34.150 -10.067   6.736  1.00  0.00     0.128 A 
ATOM      6  C   UNL     1     -35.291 -10.120   7.545  1.00  0.00     0.093 A 
ATOM      7  C   UNL     1     -36.573 -10.062   6.985  1.00  0.00     0.136 A 
ATOM      8  C   UNL     1     -36.714  -9.945   5.577  1.00  0.00     0.125 A 
ATOM      9  C   UNL     1     -37.957  -9.868   4.930  1.00  0.00     0.078 A 
ATOM     10  C   UNL     1     -38.017  -9.749   3.538  1.00  0.00     0.223 A 
ENDROOT
BRANCH   1  11
ATOM     11  C   UNL     1     -36.797  -9.627   1.328  1.00  0.00     0.091 A 
ATOM     12  C   UNL     1     -37.957  -9.318   0.600  1.00  0.00     0.068 A 
ATOM     13  C   UNL     1     -37.933  -9.245  -0.798  1.00  0.00     0.162 A 
ATOM     14  C   UNL     1     -35.611  -9.900   0.633  1.00  0.00     0.068 A 
ATOM     15  C   UNL     1     -36.724  -9.495  -1.490  1.00  0.00     0.200 A 
ATOM     16  C   UNL     1     -35.567  -9.828  -0.763  1.00  0.00     0.162 A 
BRANCH  13  17
ATOM     17  O   UNL     1     -39.127  -8.931  -1.450  1.00  0.00    -0.504 OA
ATOM     18  H   UNL     1     -39.864  -8.371  -1.045  1.00  0.00     0.293 HD
ENDBRANCH  13  17
BRANCH  15  19
ATOM     19  O   UNL     1     -36.636  -9.425  -2.884  1.00  0.00    -0.502 OA
ATOM     20  H   UNL     1     -35.829  -9.084  -3.386  1.00  0.00     0.293 HD
ENDBRANCH  15  19
BRANCH  16  21
ATOM     21  O   UNL     1     -34.360 -10.092  -1.409  1.00  0.00    -0.504 OA
ATOM     22  H   UNL     1     -34.246  -9.983  -2.410  1.00  0.00     0.293 HD
ENDBRANCH  16  21
ENDBRANCH   1  11
BRANCH  10  23
ATOM     23  O   UNL     1     -39.251  -9.621   2.898  1.00  0.00    -0.500 OA
ATOM     24  H   UNL     1     -39.389  -8.969   2.135  1.00  0.00     0.294 HD
ENDBRANCH  10  23
BRANCH   5  25
ATOM     25  O   UNL     1     -32.877 -10.125   7.299  1.00  0.00    -0.507 OA
ATOM     26  H   UNL     1     -32.341  -9.284   7.482  1.00  0.00     0.293 HD
ENDBRANCH   5  25
BRANCH   7  27
ATOM     27  O   UNL     1     -37.661 -10.125   7.859  1.00  0.00    -0.507 OA
ATOM     28  H   UNL     1     -37.602  -9.980   8.857  1.00  0.00     0.293 HD
ENDBRANCH   7  27
TORSDOF 7
ENDMDL
