MODEL 1
REMARK VINA RESULT:    -3.894      0.000      0.000
REMARK INTER + INTRA:          -7.477
REMARK INTER:                  -6.626
REMARK INTRA:                  -0.851
REMARK UNBOUND:                -0.851
REMARK SMILES CCCCCCCCCCCCCC(=O)[O-]
REMARK SMILES IDX 8 1 9 2 10 3 11 4 12 5 13 6 14 7 15 8 16 9 7 10 6 11 5 12
REMARK SMILES IDX 4 13 3 14 2 15 1 16
REMARK H PARENT
REMARK Flexibility Score: inf
ROOT
ATOM      1  C   UNL     1      -9.560  -5.720  -4.773  1.00  0.00     0.000 C 
ENDROOT
BRANCH   1   2
ATOM      2  C   UNL     1      -8.167  -5.426  -4.197  1.00  0.00     0.000 C 
BRANCH   2   3
ATOM      3  C   UNL     1      -7.990  -3.951  -3.798  1.00  0.00     0.000 C 
BRANCH   3   4
ATOM      4  C   UNL     1      -9.316  -3.174  -3.810  1.00  0.00     0.000 C 
BRANCH   4   5
ATOM      5  C   UNL     1      -9.339  -2.061  -4.873  1.00  0.00     0.006 C 
BRANCH   5   6
ATOM      6  C   UNL     1      -8.111  -2.111  -5.791  1.00  0.00     0.053 C 
BRANCH   6   7
ATOM      7  C   UNL     1      -8.452  -2.648  -7.147  1.00  0.00     0.041 C 
ATOM      8  O   UNL     1      -9.485  -3.348  -7.309  1.00  0.00    -0.550 OA
ATOM      9  O   UNL     1      -7.610  -2.405  -8.224  1.00  0.00    -0.550 OA
ENDBRANCH   6   7
ENDBRANCH   5   6
ENDBRANCH   4   5
ENDBRANCH   3   4
ENDBRANCH   2   3
ENDBRANCH   1   2
BRANCH   1  10
ATOM     10  C   UNL     1     -10.125  -7.067  -4.298  1.00  0.00     0.000 C 
BRANCH  10  11
ATOM     11  C   UNL     1      -9.013  -8.116  -4.173  1.00  0.00    -0.000 C 
BRANCH  11  12
ATOM     12  C   UNL     1      -9.334  -9.363  -5.005  1.00  0.00    -0.000 C 
BRANCH  12  13
ATOM     13  C   UNL     1      -9.590 -10.577  -4.100  1.00  0.00    -0.000 C 
BRANCH  13  14
ATOM     14  C   UNL     1      -9.217 -10.318  -2.630  1.00  0.00    -0.000 C 
BRANCH  14  15
ATOM     15  C   UNL     1      -8.679 -11.545  -1.873  1.00  0.00    -0.003 C 
ATOM     16  C   UNL     1      -8.366 -11.255  -0.406  1.00  0.00     0.004 C 
ENDBRANCH  14  15
ENDBRANCH  13  14
ENDBRANCH  12  13
ENDBRANCH  11  12
ENDBRANCH  10  11
ENDBRANCH   1  10
TORSDOF 12
ENDMDL
MODEL 2
REMARK VINA RESULT:    -3.803     12.319     13.532
REMARK INTER + INTRA:          -7.323
REMARK INTER:                  -6.621
REMARK INTRA:                  -0.702
REMARK UNBOUND:                -0.851
REMARK SMILES CCCCCCCCCCCCCC(=O)[O-]
REMARK SMILES IDX 8 1 9 2 10 3 11 4 12 5 13 6 14 7 15 8 16 9 7 10 6 11 5 12
REMARK SMILES IDX 4 13 3 14 2 15 1 16
REMARK H PARENT
REMARK Flexibility Score: inf
ROOT
ATOM      1  C   UNL     1      -7.178  -5.070   9.518  1.00  0.00     0.000 C 
ENDROOT
BRANCH   1   2
ATOM      2  C   UNL     1      -7.586  -3.758   8.832  1.00  0.00     0.000 C 
BRANCH   2   3
ATOM      3  C   UNL     1      -9.009  -3.812   8.248  1.00  0.00     0.000 C 
BRANCH   3   4
ATOM      4  C   UNL     1      -9.686  -2.434   8.213  1.00  0.00     0.000 C 
BRANCH   4   5
ATOM      5  C   UNL     1      -9.012  -1.421   9.156  1.00  0.00     0.006 C 
BRANCH   5   6
ATOM      6  C   UNL     1      -8.874  -0.034   8.515  1.00  0.00     0.053 C 
BRANCH   6   7
ATOM      7  C   UNL     1      -7.448   0.424   8.481  1.00  0.00     0.041 C 
ATOM      8  O   UNL     1      -7.170   1.604   8.144  1.00  0.00    -0.550 OA
ATOM      9  O   UNL     1      -6.425  -0.464   8.788  1.00  0.00    -0.550 OA
ENDBRANCH   6   7
ENDBRANCH   5   6
ENDBRANCH   4   5
ENDBRANCH   3   4
ENDBRANCH   2   3
ENDBRANCH   1   2
BRANCH   1  10
ATOM     10  C   UNL     1      -5.936  -5.710   8.880  1.00  0.00     0.000 C 
BRANCH  10  11
ATOM     11  C   UNL     1      -5.481  -6.939   9.675  1.00  0.00    -0.000 C 
BRANCH  11  12
ATOM     12  C   UNL     1      -4.434  -7.744   8.896  1.00  0.00    -0.000 C 
BRANCH  12  13
ATOM     13  C   UNL     1      -4.486  -7.410   7.398  1.00  0.00    -0.000 C 
BRANCH  13  14
ATOM     14  C   UNL     1      -4.789  -8.638   6.520  1.00  0.00    -0.000 C 
BRANCH  14  15
ATOM     15  C   UNL     1      -5.912  -9.548   7.047  1.00  0.00    -0.003 C 
ATOM     16  C   UNL     1      -6.324 -10.629   6.049  1.00  0.00     0.004 C 
ENDBRANCH  14  15
ENDBRANCH  13  14
ENDBRANCH  12  13
ENDBRANCH  11  12
ENDBRANCH  10  11
ENDBRANCH   1  10
TORSDOF 12
ENDMDL
MODEL 3
REMARK VINA RESULT:    -3.767     11.938     13.716
REMARK INTER + INTRA:          -7.262
REMARK INTER:                  -6.435
REMARK INTRA:                  -0.827
REMARK UNBOUND:                -0.851
REMARK SMILES CCCCCCCCCCCCCC(=O)[O-]
REMARK SMILES IDX 8 1 9 2 10 3 11 4 12 5 13 6 14 7 15 8 16 9 7 10 6 11 5 12
REMARK SMILES IDX 4 13 3 14 2 15 1 16
REMARK H PARENT
REMARK Flexibility Score: inf
ROOT
ATOM      1  C   UNL     1      -5.368   6.734  -3.595  1.00  0.00     0.000 C 
ENDROOT
BRANCH   1   2
ATOM      2  C   UNL     1      -6.238   6.396  -2.375  1.00  0.00     0.000 C 
BRANCH   2   3
ATOM      3  C   UNL     1      -5.402   6.066  -1.126  1.00  0.00     0.000 C 
BRANCH   3   4
ATOM      4  C   UNL     1      -4.060   5.404  -1.471  1.00  0.00     0.000 C 
BRANCH   4   5
ATOM      5  C   UNL     1      -2.930   5.825  -0.515  1.00  0.00     0.006 C 
BRANCH   5   6
ATOM      6  C   UNL     1      -1.555   5.337  -0.991  1.00  0.00     0.053 C 
BRANCH   6   7
ATOM      7  C   UNL     1      -0.653   6.479  -1.347  1.00  0.00     0.041 C 
ATOM      8  O   UNL     1      -0.838   7.125  -2.411  1.00  0.00    -0.550 OA
ATOM      9  O   UNL     1       0.413   6.807  -0.520  1.00  0.00    -0.550 OA
ENDBRANCH   6   7
ENDBRANCH   5   6
ENDBRANCH   4   5
ENDBRANCH   3   4
ENDBRANCH   2   3
ENDBRANCH   1   2
BRANCH   1  10
ATOM     10  C   UNL     1      -5.872   6.069  -4.885  1.00  0.00     0.000 C 
BRANCH  10  11
ATOM     11  C   UNL     1      -4.726   5.867  -5.883  1.00  0.00    -0.000 C 
BRANCH  11  12
ATOM     12  C   UNL     1      -5.003   4.676  -6.808  1.00  0.00    -0.000 C 
BRANCH  12  13
ATOM     13  C   UNL     1      -6.358   4.030  -6.482  1.00  0.00    -0.000 C 
BRANCH  13  14
ATOM     14  C   UNL     1      -7.263   3.879  -7.718  1.00  0.00    -0.000 C 
BRANCH  14  15
ATOM     15  C   UNL     1      -8.771   3.836  -7.414  1.00  0.00    -0.003 C 
ATOM     16  C   UNL     1      -9.113   4.326  -6.009  1.00  0.00     0.004 C 
ENDBRANCH  14  15
ENDBRANCH  13  14
ENDBRANCH  12  13
ENDBRANCH  11  12
ENDBRANCH  10  11
ENDBRANCH   1  10
TORSDOF 12
ENDMDL
MODEL 4
REMARK VINA RESULT:    -3.755      3.747      7.786
REMARK INTER + INTRA:          -7.241
REMARK INTER:                  -6.214
REMARK INTRA:                  -1.027
REMARK UNBOUND:                -0.851
REMARK SMILES CCCCCCCCCCCCCC(=O)[O-]
REMARK SMILES IDX 8 1 9 2 10 3 11 4 12 5 13 6 14 7 15 8 16 9 7 10 6 11 5 12
REMARK SMILES IDX 4 13 3 14 2 15 1 16
REMARK H PARENT
REMARK Flexibility Score: inf
ROOT
ATOM      1  C   UNL     1      -8.374  -5.368  -4.241  1.00  0.00     0.000 C 
ENDROOT
BRANCH   1   2
ATOM      2  C   UNL     1      -9.861  -5.727  -4.390  1.00  0.00     0.000 C 
BRANCH   2   3
ATOM      3  C   UNL     1     -10.081  -7.215  -4.716  1.00  0.00     0.000 C 
BRANCH   3   4
ATOM      4  C   UNL     1      -8.922  -8.101  -4.236  1.00  0.00     0.000 C 
BRANCH   4   5
ATOM      5  C   UNL     1      -9.331  -9.577  -4.084  1.00  0.00     0.006 C 
BRANCH   5   6
ATOM      6  C   UNL     1      -9.866  -9.889  -2.680  1.00  0.00     0.053 C 
BRANCH   6   7
ATOM      7  C   UNL     1      -8.982 -10.851  -1.949  1.00  0.00     0.041 C 
ATOM      8  O   UNL     1      -8.776 -12.002  -2.416  1.00  0.00    -0.550 OA
ATOM      9  O   UNL     1      -8.415 -10.491  -0.734  1.00  0.00    -0.550 OA
ENDBRANCH   6   7
ENDBRANCH   5   6
ENDBRANCH   4   5
ENDBRANCH   3   4
ENDBRANCH   2   3
ENDBRANCH   1   2
BRANCH   1  10
ATOM     10  C   UNL     1      -8.154  -3.882  -3.923  1.00  0.00     0.000 C 
BRANCH  10  11
ATOM     11  C   UNL     1      -9.491  -3.149  -3.767  1.00  0.00    -0.000 C 
BRANCH  11  12
ATOM     12  C   UNL     1      -9.619  -2.010  -4.786  1.00  0.00    -0.000 C 
BRANCH  12  13
ATOM     13  C   UNL     1      -8.402  -1.970  -5.722  1.00  0.00    -0.000 C 
BRANCH  13  14
ATOM     14  C   UNL     1      -8.768  -2.241  -7.192  1.00  0.00    -0.000 C 
BRANCH  14  15
ATOM     15  C   UNL     1      -8.463  -3.668  -7.683  1.00  0.00    -0.003 C 
ATOM     16  C   UNL     1      -7.226  -3.743  -8.575  1.00  0.00     0.004 C 
ENDBRANCH  14  15
ENDBRANCH  13  14
ENDBRANCH  12  13
ENDBRANCH  11  12
ENDBRANCH  10  11
ENDBRANCH   1  10
TORSDOF 12
ENDMDL
MODEL 5
REMARK VINA RESULT:    -3.675     11.551     13.960
REMARK INTER + INTRA:          -7.104
REMARK INTER:                  -5.800
REMARK INTRA:                  -1.304
REMARK UNBOUND:                -0.851
REMARK SMILES CCCCCCCCCCCCCC(=O)[O-]
REMARK SMILES IDX 8 1 9 2 10 3 11 4 12 5 13 6 14 7 15 8 16 9 7 10 6 11 5 12
REMARK SMILES IDX 4 13 3 14 2 15 1 16
REMARK H PARENT
REMARK Flexibility Score: inf
ROOT
ATOM      1  C   UNL     1      -4.701   5.812  -1.904  1.00  0.00     0.000 C 
ENDROOT
BRANCH   1   2
ATOM      2  C   UNL     1      -5.344   7.032  -2.581  1.00  0.00     0.000 C 
BRANCH   2   3
ATOM      3  C   UNL     1      -5.329   6.932  -4.117  1.00  0.00     0.000 C 
BRANCH   3   4
ATOM      4  C   UNL     1      -4.908   5.541  -4.614  1.00  0.00     0.000 C 
BRANCH   4   5
ATOM      5  C   UNL     1      -4.953   5.423  -6.147  1.00  0.00     0.006 C 
BRANCH   5   6
ATOM      6  C   UNL     1      -5.599   4.110  -6.609  1.00  0.00     0.053 C 
BRANCH   6   7
ATOM      7  C   UNL     1      -7.025   4.307  -7.023  1.00  0.00     0.041 C 
ATOM      8  O   UNL     1      -7.835   3.345  -6.985  1.00  0.00    -0.550 OA
ATOM      9  O   UNL     1      -7.450   5.546  -7.486  1.00  0.00    -0.550 OA
ENDBRANCH   6   7
ENDBRANCH   5   6
ENDBRANCH   4   5
ENDBRANCH   3   4
ENDBRANCH   2   3
ENDBRANCH   1   2
BRANCH   1  10
ATOM     10  C   UNL     1      -4.577   5.978  -0.382  1.00  0.00     0.000 C 
BRANCH  10  11
ATOM     11  C   UNL     1      -3.157   5.647   0.093  1.00  0.00    -0.000 C 
BRANCH  11  12
ATOM     12  C   UNL     1      -2.236   5.338  -1.094  1.00  0.00    -0.000 C 
BRANCH  12  13
ATOM     13  C   UNL     1      -0.930   6.140  -1.001  1.00  0.00    -0.000 C 
BRANCH  13  14
ATOM     14  C   UNL     1      -0.737   7.110  -2.180  1.00  0.00    -0.000 C 
BRANCH  14  15
ATOM     15  C   UNL     1      -1.595   6.802  -3.419  1.00  0.00    -0.003 C 
ATOM     16  C   UNL     1      -0.886   7.121  -4.733  1.00  0.00     0.004 C 
ENDBRANCH  14  15
ENDBRANCH  13  14
ENDBRANCH  12  13
ENDBRANCH  11  12
ENDBRANCH  10  11
ENDBRANCH   1  10
TORSDOF 12
ENDMDL
MODEL 6
REMARK VINA RESULT:    -3.614     11.727     13.438
REMARK INTER + INTRA:          -7.000
REMARK INTER:                  -5.980
REMARK INTRA:                  -1.020
REMARK UNBOUND:                -0.851
REMARK SMILES CCCCCCCCCCCCCC(=O)[O-]
REMARK SMILES IDX 8 1 9 2 10 3 11 4 12 5 13 6 14 7 15 8 16 9 7 10 6 11 5 12
REMARK SMILES IDX 4 13 3 14 2 15 1 16
REMARK H PARENT
REMARK Flexibility Score: inf
ROOT
ATOM      1  C   UNL     1      -6.757   7.091  -4.853  1.00  0.00     0.000 C 
ENDROOT
BRANCH   1   2
ATOM      2  C   UNL     1      -8.007   6.211  -4.688  1.00  0.00     0.000 C 
BRANCH   2   3
ATOM      3  C   UNL     1      -8.304   5.365  -5.939  1.00  0.00     0.000 C 
BRANCH   3   4
ATOM      4  C   UNL     1      -7.093   5.255  -6.878  1.00  0.00     0.000 C 
BRANCH   4   5
ATOM      5  C   UNL     1      -6.185   4.061  -6.532  1.00  0.00     0.006 C 
BRANCH   5   6
ATOM      6  C   UNL     1      -4.852   4.108  -7.291  1.00  0.00     0.053 C 
BRANCH   6   7
ATOM      7  C   UNL     1      -4.427   5.514  -7.582  1.00  0.00     0.041 C 
ATOM      8  O   UNL     1      -4.662   6.027  -8.708  1.00  0.00    -0.550 OA
ATOM      9  O   UNL     1      -3.739   6.246  -6.623  1.00  0.00    -0.550 OA
ENDBRANCH   6   7
ENDBRANCH   5   6
ENDBRANCH   4   5
ENDBRANCH   3   4
ENDBRANCH   2   3
ENDBRANCH   1   2
BRANCH   1  10
ATOM     10  C   UNL     1      -5.887   7.124  -3.588  1.00  0.00     0.000 C 
BRANCH  10  11
ATOM     11  C   UNL     1      -5.079   5.829  -3.443  1.00  0.00    -0.000 C 
BRANCH  11  12
ATOM     12  C   UNL     1      -4.905   5.450  -1.967  1.00  0.00    -0.000 C 
BRANCH  12  13
ATOM     13  C   UNL     1      -3.740   6.225  -1.334  1.00  0.00    -0.000 C 
BRANCH  13  14
ATOM     14  C   UNL     1      -2.565   5.317  -0.929  1.00  0.00    -0.000 C 
BRANCH  14  15
ATOM     15  C   UNL     1      -1.212   5.688  -1.561  1.00  0.00    -0.003 C 
ATOM     16  C   UNL     1      -1.354   6.400  -2.906  1.00  0.00     0.004 C 
ENDBRANCH  14  15
ENDBRANCH  13  14
ENDBRANCH  12  13
ENDBRANCH  11  12
ENDBRANCH  10  11
ENDBRANCH   1  10
TORSDOF 12
ENDMDL
MODEL 7
REMARK VINA RESULT:    -3.586      1.354      2.227
REMARK INTER + INTRA:          -6.953
REMARK INTER:                  -6.231
REMARK INTRA:                  -0.722
REMARK UNBOUND:                -0.851
REMARK SMILES CCCCCCCCCCCCCC(=O)[O-]
REMARK SMILES IDX 8 1 9 2 10 3 11 4 12 5 13 6 14 7 15 8 16 9 7 10 6 11 5 12
REMARK SMILES IDX 4 13 3 14 2 15 1 16
REMARK H PARENT
REMARK Flexibility Score: inf
ROOT
ATOM      1  C   UNL     1      -7.875  -4.598  -4.086  1.00  0.00     0.000 C 
ENDROOT
BRANCH   1   2
ATOM      2  C   UNL     1      -8.351  -3.149  -3.898  1.00  0.00     0.000 C 
BRANCH   2   3
ATOM      3  C   UNL     1      -8.110  -2.280  -5.145  1.00  0.00     0.000 C 
BRANCH   3   4
ATOM      4  C   UNL     1      -9.365  -2.144  -6.020  1.00  0.00     0.000 C 
BRANCH   4   5
ATOM      5  C   UNL     1      -9.062  -2.326  -7.518  1.00  0.00     0.006 C 
BRANCH   5   6
ATOM      6  C   UNL     1      -8.038  -3.440  -7.772  1.00  0.00     0.053 C 
BRANCH   6   7
ATOM      7  C   UNL     1      -7.100  -3.090  -8.886  1.00  0.00     0.041 C 
ATOM      8  O   UNL     1      -7.271  -2.034  -9.549  1.00  0.00    -0.550 OA
ATOM      9  O   UNL     1      -6.060  -3.949  -9.215  1.00  0.00    -0.550 OA
ENDBRANCH   6   7
ENDBRANCH   5   6
ENDBRANCH   4   5
ENDBRANCH   3   4
ENDBRANCH   2   3
ENDBRANCH   1   2
BRANCH   1  10
ATOM     10  C   UNL     1      -8.999  -5.533  -4.555  1.00  0.00     0.000 C 
BRANCH  10  11
ATOM     11  C   UNL     1      -8.733  -6.977  -4.113  1.00  0.00    -0.000 C 
BRANCH  11  12
ATOM     12  C   UNL     1      -9.773  -7.936  -4.704  1.00  0.00    -0.000 C 
BRANCH  12  13
ATOM     13  C   UNL     1      -9.394  -9.398  -4.428  1.00  0.00    -0.000 C 
BRANCH  13  14
ATOM     14  C   UNL     1      -9.508  -9.776  -2.940  1.00  0.00    -0.000 C 
BRANCH  14  15
ATOM     15  C   UNL     1      -9.157 -11.238  -2.615  1.00  0.00    -0.003 C 
ATOM     16  C   UNL     1      -9.493 -12.202  -3.751  1.00  0.00     0.004 C 
ENDBRANCH  14  15
ENDBRANCH  13  14
ENDBRANCH  12  13
ENDBRANCH  11  12
ENDBRANCH  10  11
ENDBRANCH   1  10
TORSDOF 12
ENDMDL
MODEL 8
REMARK VINA RESULT:    -3.572      3.554      7.798
REMARK INTER + INTRA:          -6.930
REMARK INTER:                  -6.288
REMARK INTRA:                  -0.642
REMARK UNBOUND:                -0.851
REMARK SMILES CCCCCCCCCCCCCC(=O)[O-]
REMARK SMILES IDX 8 1 9 2 10 3 11 4 12 5 13 6 14 7 15 8 16 9 7 10 6 11 5 12
REMARK SMILES IDX 4 13 3 14 2 15 1 16
REMARK H PARENT
REMARK Flexibility Score: inf
ROOT
ATOM      1  C   UNL     1      -9.012  -7.942  -4.217  1.00  0.00     0.000 C 
ENDROOT
BRANCH   1   2
ATOM      2  C   UNL     1      -9.563  -9.367  -4.052  1.00  0.00     0.000 C 
BRANCH   2   3
ATOM      3  C   UNL     1      -9.379 -10.222  -5.318  1.00  0.00     0.000 C 
BRANCH   3   4
ATOM      4  C   UNL     1      -9.886 -11.661  -5.137  1.00  0.00     0.000 C 
BRANCH   4   5
ATOM      5  C   UNL     1      -9.220 -12.649  -6.110  1.00  0.00     0.006 C 
BRANCH   5   6
ATOM      6  C   UNL     1      -9.731 -12.482  -7.547  1.00  0.00     0.053 C 
BRANCH   6   7
ATOM      7  C   UNL     1      -8.642 -12.046  -8.478  1.00  0.00     0.041 C 
ATOM      8  O   UNL     1      -7.930 -12.902  -9.065  1.00  0.00    -0.550 OA
ATOM      9  O   UNL     1      -8.389 -10.694  -8.669  1.00  0.00    -0.550 OA
ENDBRANCH   6   7
ENDBRANCH   5   6
ENDBRANCH   4   5
ENDBRANCH   3   4
ENDBRANCH   2   3
ENDBRANCH   1   2
BRANCH   1  10
ATOM     10  C   UNL     1     -10.105  -6.869  -4.112  1.00  0.00     0.000 C 
BRANCH  10  11
ATOM     11  C   UNL     1      -9.646  -5.552  -4.748  1.00  0.00    -0.000 C 
BRANCH  11  12
ATOM     12  C   UNL     1      -8.205  -5.217  -4.344  1.00  0.00    -0.000 C 
BRANCH  12  13
ATOM     13  C   UNL     1      -8.103  -3.782  -3.808  1.00  0.00    -0.000 C 
BRANCH  13  14
ATOM     14  C   UNL     1      -9.447  -3.032  -3.842  1.00  0.00    -0.000 C 
BRANCH  14  15
ATOM     15  C   UNL     1      -9.546  -1.930  -4.910  1.00  0.00    -0.003 C 
ATOM     16  C   UNL     1      -8.356  -1.914  -5.868  1.00  0.00     0.004 C 
ENDBRANCH  14  15
ENDBRANCH  13  14
ENDBRANCH  12  13
ENDBRANCH  11  12
ENDBRANCH  10  11
ENDBRANCH   1  10
TORSDOF 12
ENDMDL
MODEL 9
REMARK VINA RESULT:    -3.488     12.106     13.702
REMARK INTER + INTRA:          -6.786
REMARK INTER:                  -6.093
REMARK INTRA:                  -0.694
REMARK UNBOUND:                -0.851
REMARK SMILES CCCCCCCCCCCCCC(=O)[O-]
REMARK SMILES IDX 8 1 9 2 10 3 11 4 12 5 13 6 14 7 15 8 16 9 7 10 6 11 5 12
REMARK SMILES IDX 4 13 3 14 2 15 1 16
REMARK H PARENT
REMARK Flexibility Score: inf
ROOT
ATOM      1  C   UNL     1      -5.623   5.799  -5.880  1.00  0.00     0.000 C 
ENDROOT
BRANCH   1   2
ATOM      2  C   UNL     1      -5.583   4.327  -6.320  1.00  0.00     0.000 C 
BRANCH   2   3
ATOM      3  C   UNL     1      -5.100   4.155  -7.770  1.00  0.00     0.000 C 
BRANCH   3   4
ATOM      4  C   UNL     1      -4.156   5.283  -8.215  1.00  0.00     0.000 C 
BRANCH   4   5
ATOM      5  C   UNL     1      -3.600   5.063  -9.634  1.00  0.00     0.006 C 
BRANCH   5   6
ATOM      6  C   UNL     1      -2.596   3.904  -9.690  1.00  0.00     0.053 C 
BRANCH   6   7
ATOM      7  C   UNL     1      -1.212   4.349  -9.329  1.00  0.00     0.041 C 
ATOM      8  O   UNL     1      -0.805   5.490  -9.671  1.00  0.00    -0.550 OA
ATOM      9  O   UNL     1      -0.360   3.491  -8.648  1.00  0.00    -0.550 OA
ENDBRANCH   6   7
ENDBRANCH   5   6
ENDBRANCH   4   5
ENDBRANCH   3   4
ENDBRANCH   2   3
ENDBRANCH   1   2
BRANCH   1  10
ATOM     10  C   UNL     1      -6.007   5.965  -4.403  1.00  0.00     0.000 C 
BRANCH  10  11
ATOM     11  C   UNL     1      -4.793   6.376  -3.562  1.00  0.00    -0.000 C 
BRANCH  11  12
ATOM     12  C   UNL     1      -4.773   5.632  -2.221  1.00  0.00    -0.000 C 
BRANCH  12  13
ATOM     13  C   UNL     1      -3.692   6.202  -1.291  1.00  0.00    -0.000 C 
BRANCH  13  14
ATOM     14  C   UNL     1      -2.587   5.183  -0.961  1.00  0.00    -0.000 C 
BRANCH  14  15
ATOM     15  C   UNL     1      -1.181   5.573  -1.451  1.00  0.00    -0.003 C 
ATOM     16  C   UNL     1      -1.204   6.477  -2.682  1.00  0.00     0.004 C 
ENDBRANCH  14  15
ENDBRANCH  13  14
ENDBRANCH  12  13
ENDBRANCH  11  12
ENDBRANCH  10  11
ENDBRANCH   1  10
TORSDOF 12
ENDMDL
