MODEL 1
REMARK VINA RESULT:    -5.572      0.000      0.000
REMARK INTER + INTRA:         -18.128
REMARK INTER:                 -14.694
REMARK INTRA:                  -3.434
REMARK UNBOUND:                -3.434
REMARK SMILES CCCCCCCCCCCCCCCCCCCCCCCCCCCCCC(=O)[O-]
REMARK SMILES IDX 16 1 17 2 18 3 19 4 20 5 21 6 22 7 23 8 24 9 25 10 26 11
REMARK SMILES IDX 27 12 28 13 29 14 30 15 31 16 32 17 15 18 14 19 13 20 12 21
REMARK SMILES IDX 11 22 10 23 9 24 8 25 7 26 6 27 5 28 4 29 3 30 2 31 1 32
REMARK H PARENT
REMARK Flexibility Score: inf
ROOT
ATOM      1  C   UNL     1      46.554  29.734  17.166  1.00  0.00     0.000 C 
ENDROOT
BRANCH   1   2
ATOM      2  C   UNL     1      45.300  29.151  17.853  1.00  0.00     0.000 C 
BRANCH   2   3
ATOM      3  C   UNL     1      45.602  28.089  18.927  1.00  0.00     0.000 C 
BRANCH   3   4
ATOM      4  C   UNL     1      44.382  27.303  19.437  1.00  0.00     0.000 C 
BRANCH   4   5
ATOM      5  C   UNL     1      44.665  25.849  19.862  1.00  0.00     0.000 C 
BRANCH   5   6
ATOM      6  C   UNL     1      46.123  25.397  19.633  1.00  0.00     0.000 C 
BRANCH   6   7
ATOM      7  C   UNL     1      46.217  23.966  19.081  1.00  0.00     0.000 C 
BRANCH   7   8
ATOM      8  C   UNL     1      47.103  23.085  19.970  1.00  0.00     0.000 C 
BRANCH   8   9
ATOM      9  C   UNL     1      46.345  22.636  21.225  1.00  0.00     0.000 C 
BRANCH   9  10
ATOM     10  C   UNL     1      45.724  21.248  21.032  1.00  0.00     0.000 C 
BRANCH  10  11
ATOM     11  C   UNL     1      44.246  21.249  21.452  1.00  0.00     0.000 C 
BRANCH  11  12
ATOM     12  C   UNL     1      43.553  22.597  21.197  1.00  0.00     0.000 C 
BRANCH  12  13
ATOM     13  C   UNL     1      42.797  22.628  19.859  1.00  0.00     0.006 C 
BRANCH  13  14
ATOM     14  C   UNL     1      41.556  23.522  19.948  1.00  0.00     0.053 C 
BRANCH  14  15
ATOM     15  C   UNL     1      40.720  23.394  18.712  1.00  0.00     0.041 C 
ATOM     16  O   UNL     1      39.557  23.877  18.678  1.00  0.00    -0.550 OA
ATOM     17  O   UNL     1      41.216  22.718  17.604  1.00  0.00    -0.550 OA
ENDBRANCH  14  15
ENDBRANCH  13  14
ENDBRANCH  12  13
ENDBRANCH  11  12
ENDBRANCH  10  11
ENDBRANCH   9  10
ENDBRANCH   8   9
ENDBRANCH   7   8
ENDBRANCH   6   7
ENDBRANCH   5   6
ENDBRANCH   4   5
ENDBRANCH   3   4
ENDBRANCH   2   3
ENDBRANCH   1   2
BRANCH   1  18
ATOM     18  C   UNL     1      46.439  31.249  16.914  1.00  0.00     0.000 C 
BRANCH  18  19
ATOM     19  C   UNL     1      45.719  31.981  18.063  1.00  0.00     0.000 C 
BRANCH  19  20
ATOM     20  C   UNL     1      44.522  32.835  17.599  1.00  0.00     0.000 C 
BRANCH  20  21
ATOM     21  C   UNL     1      44.416  32.908  16.064  1.00  0.00     0.000 C 
BRANCH  21  22
ATOM     22  C   UNL     1      42.971  32.754  15.562  1.00  0.00     0.000 C 
BRANCH  22  23
ATOM     23  C   UNL     1      42.836  31.660  14.488  1.00  0.00     0.000 C 
BRANCH  23  24
ATOM     24  C   UNL     1      43.533  30.347  14.883  1.00  0.00    -0.000 C 
BRANCH  24  25
ATOM     25  C   UNL     1      44.587  29.903  13.853  1.00  0.00    -0.000 C 
BRANCH  25  26
ATOM     26  C   UNL     1      44.821  30.951  12.750  1.00  0.00    -0.000 C 
BRANCH  26  27
ATOM     27  C   UNL     1      46.156  31.720  12.840  1.00  0.00    -0.000 C 
BRANCH  27  28
ATOM     28  C   UNL     1      47.063  31.623  11.600  1.00  0.00    -0.000 C 
BRANCH  28  29
ATOM     29  C   UNL     1      46.717  32.662  10.522  1.00  0.00    -0.000 C 
BRANCH  29  30
ATOM     30  C   UNL     1      47.644  33.889  10.559  1.00  0.00    -0.000 C 
BRANCH  30  31
ATOM     31  C   UNL     1      47.238  34.942  11.613  1.00  0.00    -0.003 C 
ATOM     32  C   UNL     1      45.997  35.731  11.193  1.00  0.00     0.004 C 
ENDBRANCH  30  31
ENDBRANCH  29  30
ENDBRANCH  28  29
ENDBRANCH  27  28
ENDBRANCH  26  27
ENDBRANCH  25  26
ENDBRANCH  24  25
ENDBRANCH  23  24
ENDBRANCH  22  23
ENDBRANCH  21  22
ENDBRANCH  20  21
ENDBRANCH  19  20
ENDBRANCH  18  19
ENDBRANCH   1  18
TORSDOF 28
ENDMDL
MODEL 2
REMARK VINA RESULT:    -5.560      3.561     11.102
REMARK INTER + INTRA:         -18.094
REMARK INTER:                 -13.709
REMARK INTRA:                  -4.385
REMARK UNBOUND:                -3.434
REMARK SMILES CCCCCCCCCCCCCCCCCCCCCCCCCCCCCC(=O)[O-]
REMARK SMILES IDX 16 1 17 2 18 3 19 4 20 5 21 6 22 7 23 8 24 9 25 10 26 11
REMARK SMILES IDX 27 12 28 13 29 14 30 15 31 16 32 17 15 18 14 19 13 20 12 21
REMARK SMILES IDX 11 22 10 23 9 24 8 25 7 26 6 27 5 28 4 29 3 30 2 31 1 32
REMARK H PARENT
REMARK Flexibility Score: inf
ROOT
ATOM      1  C   UNL     1      45.683  30.264  14.717  1.00  0.00     0.000 C 
ENDROOT
BRANCH   1   2
ATOM      2  C   UNL     1      44.522  29.346  14.275  1.00  0.00     0.000 C 
BRANCH   2   3
ATOM      3  C   UNL     1      43.232  30.095  13.892  1.00  0.00     0.000 C 
BRANCH   3   4
ATOM      4  C   UNL     1      43.300  31.627  14.008  1.00  0.00     0.000 C 
BRANCH   4   5
ATOM      5  C   UNL     1      42.441  32.242  15.130  1.00  0.00     0.000 C 
BRANCH   5   6
ATOM      6  C   UNL     1      43.122  33.406  15.881  1.00  0.00     0.000 C 
BRANCH   6   7
ATOM      7  C   UNL     1      43.419  33.066  17.350  1.00  0.00     0.000 C 
BRANCH   7   8
ATOM      8  C   UNL     1      44.815  33.550  17.760  1.00  0.00     0.000 C 
BRANCH   8   9
ATOM      9  C   UNL     1      45.764  33.567  16.554  1.00  0.00     0.000 C 
BRANCH   9  10
ATOM     10  C   UNL     1      46.485  34.915  16.436  1.00  0.00     0.000 C 
BRANCH  10  11
ATOM     11  C   UNL     1      46.964  35.152  14.996  1.00  0.00     0.000 C 
BRANCH  11  12
ATOM     12  C   UNL     1      46.069  34.468  13.950  1.00  0.00     0.000 C 
BRANCH  12  13
ATOM     13  C   UNL     1      46.829  33.424  13.115  1.00  0.00     0.006 C 
BRANCH  13  14
ATOM     14  C   UNL     1      45.960  32.895  11.969  1.00  0.00     0.053 C 
BRANCH  14  15
ATOM     15  C   UNL     1      46.810  32.301  10.889  1.00  0.00     0.041 C 
ATOM     16  O   UNL     1      46.595  31.127  10.486  1.00  0.00    -0.550 OA
ATOM     17  O   UNL     1      47.858  33.033  10.346  1.00  0.00    -0.550 OA
ENDBRANCH  14  15
ENDBRANCH  13  14
ENDBRANCH  12  13
ENDBRANCH  11  12
ENDBRANCH  10  11
ENDBRANCH   9  10
ENDBRANCH   8   9
ENDBRANCH   7   8
ENDBRANCH   6   7
ENDBRANCH   5   6
ENDBRANCH   4   5
ENDBRANCH   3   4
ENDBRANCH   2   3
ENDBRANCH   1   2
BRANCH   1  18
ATOM     18  C   UNL     1      46.123  30.002  16.169  1.00  0.00     0.000 C 
BRANCH  18  19
ATOM     19  C   UNL     1      44.985  29.419  17.030  1.00  0.00     0.000 C 
BRANCH  19  20
ATOM     20  C   UNL     1      44.980  29.938  18.482  1.00  0.00     0.000 C 
BRANCH  20  21
ATOM     21  C   UNL     1      44.636  28.832  19.496  1.00  0.00     0.000 C 
BRANCH  21  22
ATOM     22  C   UNL     1      45.482  27.563  19.299  1.00  0.00     0.000 C 
BRANCH  22  23
ATOM     23  C   UNL     1      44.679  26.276  19.555  1.00  0.00     0.000 C 
BRANCH  23  24
ATOM     24  C   UNL     1      45.516  25.173  20.225  1.00  0.00    -0.000 C 
BRANCH  24  25
ATOM     25  C   UNL     1      46.102  24.175  19.211  1.00  0.00    -0.000 C 
BRANCH  25  26
ATOM     26  C   UNL     1      46.744  22.948  19.884  1.00  0.00    -0.000 C 
BRANCH  26  27
ATOM     27  C   UNL     1      46.169  22.576  21.267  1.00  0.00    -0.000 C 
BRANCH  27  28
ATOM     28  C   UNL     1      45.526  21.181  21.365  1.00  0.00    -0.000 C 
BRANCH  28  29
ATOM     29  C   UNL     1      44.001  21.209  21.174  1.00  0.00    -0.000 C 
BRANCH  29  30
ATOM     30  C   UNL     1      43.339  22.423  21.848  1.00  0.00    -0.000 C 
BRANCH  30  31
ATOM     31  C   UNL     1      42.459  23.259  20.894  1.00  0.00    -0.003 C 
ATOM     32  C   UNL     1      42.567  22.784  19.445  1.00  0.00     0.004 C 
ENDBRANCH  30  31
ENDBRANCH  29  30
ENDBRANCH  28  29
ENDBRANCH  27  28
ENDBRANCH  26  27
ENDBRANCH  25  26
ENDBRANCH  24  25
ENDBRANCH  23  24
ENDBRANCH  22  23
ENDBRANCH  21  22
ENDBRANCH  20  21
ENDBRANCH  19  20
ENDBRANCH  18  19
ENDBRANCH   1  18
TORSDOF 28
ENDMDL
MODEL 3
REMARK VINA RESULT:    -5.502      2.973      5.997
REMARK INTER + INTRA:         -17.942
REMARK INTER:                 -12.080
REMARK INTRA:                  -5.862
REMARK UNBOUND:                -3.434
REMARK SMILES CCCCCCCCCCCCCCCCCCCCCCCCCCCCCC(=O)[O-]
REMARK SMILES IDX 16 1 17 2 18 3 19 4 20 5 21 6 22 7 23 8 24 9 25 10 26 11
REMARK SMILES IDX 27 12 28 13 29 14 30 15 31 16 32 17 15 18 14 19 13 20 12 21
REMARK SMILES IDX 11 22 10 23 9 24 8 25 7 26 6 27 5 28 4 29 3 30 2 31 1 32
REMARK H PARENT
REMARK Flexibility Score: inf
ROOT
ATOM      1  C   UNL     1      43.948  33.363  15.788  1.00  0.00     0.000 C 
ENDROOT
BRANCH   1   2
ATOM      2  C   UNL     1      43.027  32.124  15.746  1.00  0.00     0.000 C 
BRANCH   2   3
ATOM      3  C   UNL     1      42.819  31.536  14.336  1.00  0.00     0.000 C 
BRANCH   3   4
ATOM      4  C   UNL     1      43.051  30.021  14.215  1.00  0.00     0.000 C 
BRANCH   4   5
ATOM      5  C   UNL     1      44.479  29.604  13.813  1.00  0.00     0.000 C 
BRANCH   5   6
ATOM      6  C   UNL     1      45.352  30.764  13.290  1.00  0.00     0.000 C 
BRANCH   6   7
ATOM      7  C   UNL     1      46.475  31.144  14.267  1.00  0.00     0.000 C 
BRANCH   7   8
ATOM      8  C   UNL     1      46.517  30.188  15.466  1.00  0.00     0.000 C 
BRANCH   8   9
ATOM      9  C   UNL     1      47.317  30.798  16.623  1.00  0.00     0.000 C 
BRANCH   9  10
ATOM     10  C   UNL     1      46.562  30.664  17.950  1.00  0.00     0.000 C 
BRANCH  10  11
ATOM     11  C   UNL     1      45.192  30.003  17.734  1.00  0.00     0.000 C 
BRANCH  11  12
ATOM     12  C   UNL     1      44.335  29.974  19.010  1.00  0.00     0.000 C 
BRANCH  12  13
ATOM     13  C   UNL     1      44.687  28.794  19.931  1.00  0.00     0.006 C 
BRANCH  13  14
ATOM     14  C   UNL     1      43.431  28.212  20.587  1.00  0.00     0.053 C 
BRANCH  14  15
ATOM     15  C   UNL     1      43.231  26.786  20.176  1.00  0.00     0.041 C 
ATOM     16  O   UNL     1      44.199  25.979  20.190  1.00  0.00    -0.550 OA
ATOM     17  O   UNL     1      41.980  26.352  19.754  1.00  0.00    -0.550 OA
ENDBRANCH  14  15
ENDBRANCH  13  14
ENDBRANCH  12  13
ENDBRANCH  11  12
ENDBRANCH  10  11
ENDBRANCH   9  10
ENDBRANCH   8   9
ENDBRANCH   7   8
ENDBRANCH   6   7
ENDBRANCH   5   6
ENDBRANCH   4   5
ENDBRANCH   3   4
ENDBRANCH   2   3
ENDBRANCH   1   2
BRANCH   1  18
ATOM     18  C   UNL     1      44.633  33.543  17.155  1.00  0.00     0.000 C 
BRANCH  18  19
ATOM     19  C   UNL     1      45.964  34.312  17.046  1.00  0.00     0.000 C 
BRANCH  19  20
ATOM     20  C   UNL     1      46.348  34.683  15.600  1.00  0.00     0.000 C 
BRANCH  20  21
ATOM     21  C   UNL     1      47.831  35.079  15.473  1.00  0.00     0.000 C 
BRANCH  21  22
ATOM     22  C   UNL     1      48.745  33.875  15.193  1.00  0.00     0.000 C 
BRANCH  22  23
ATOM     23  C   UNL     1      49.680  34.112  13.994  1.00  0.00     0.000 C 
BRANCH  23  24
ATOM     24  C   UNL     1      49.617  32.981  12.955  1.00  0.00    -0.000 C 
BRANCH  24  25
ATOM     25  C   UNL     1      50.339  33.340  11.644  1.00  0.00    -0.000 C 
BRANCH  25  26
ATOM     26  C   UNL     1      49.443  33.167  10.404  1.00  0.00    -0.000 C 
BRANCH  26  27
ATOM     27  C   UNL     1      48.031  32.610  10.680  1.00  0.00    -0.000 C 
BRANCH  27  28
ATOM     28  C   UNL     1      46.881  33.625  10.550  1.00  0.00    -0.000 C 
BRANCH  28  29
ATOM     29  C   UNL     1      46.245  33.985  11.902  1.00  0.00    -0.000 C 
BRANCH  29  30
ATOM     30  C   UNL     1      45.859  35.471  12.001  1.00  0.00    -0.000 C 
BRANCH  30  31
ATOM     31  C   UNL     1      46.866  36.420  11.317  1.00  0.00    -0.003 C 
ATOM     32  C   UNL     1      48.054  36.751  12.222  1.00  0.00     0.004 C 
ENDBRANCH  30  31
ENDBRANCH  29  30
ENDBRANCH  28  29
ENDBRANCH  27  28
ENDBRANCH  26  27
ENDBRANCH  25  26
ENDBRANCH  24  25
ENDBRANCH  23  24
ENDBRANCH  22  23
ENDBRANCH  21  22
ENDBRANCH  20  21
ENDBRANCH  19  20
ENDBRANCH  18  19
ENDBRANCH   1  18
TORSDOF 28
ENDMDL
MODEL 4
REMARK VINA RESULT:    -5.459      1.725      3.579
REMARK INTER + INTRA:         -17.828
REMARK INTER:                 -14.025
REMARK INTRA:                  -3.803
REMARK UNBOUND:                -3.434
REMARK SMILES CCCCCCCCCCCCCCCCCCCCCCCCCCCCCC(=O)[O-]
REMARK SMILES IDX 16 1 17 2 18 3 19 4 20 5 21 6 22 7 23 8 24 9 25 10 26 11
REMARK SMILES IDX 27 12 28 13 29 14 30 15 31 16 32 17 15 18 14 19 13 20 12 21
REMARK SMILES IDX 11 22 10 23 9 24 8 25 7 26 6 27 5 28 4 29 3 30 2 31 1 32
REMARK H PARENT
REMARK Flexibility Score: inf
ROOT
ATOM      1  C   UNL     1      44.252  26.989  19.768  1.00  0.00     0.000 C 
ENDROOT
BRANCH   1   2
ATOM      2  C   UNL     1      44.836  26.498  21.111  1.00  0.00     0.000 C 
BRANCH   2   3
ATOM      3  C   UNL     1      46.330  26.125  21.054  1.00  0.00     0.000 C 
BRANCH   3   4
ATOM      4  C   UNL     1      46.948  26.096  19.646  1.00  0.00     0.000 C 
BRANCH   4   5
ATOM      5  C   UNL     1      47.233  24.691  19.080  1.00  0.00     0.000 C 
BRANCH   5   6
ATOM      6  C   UNL     1      46.170  23.634  19.448  1.00  0.00     0.000 C 
BRANCH   6   7
ATOM      7  C   UNL     1      46.755  22.465  20.256  1.00  0.00     0.000 C 
BRANCH   7   8
ATOM      8  C   UNL     1      45.724  21.900  21.241  1.00  0.00     0.000 C 
BRANCH   8   9
ATOM      9  C   UNL     1      44.537  22.859  21.399  1.00  0.00     0.000 C 
BRANCH   9  10
ATOM     10  C   UNL     1      43.209  22.150  21.109  1.00  0.00     0.000 C 
BRANCH  10  11
ATOM     11  C   UNL     1      42.061  23.165  20.998  1.00  0.00     0.000 C 
BRANCH  11  12
ATOM     12  C   UNL     1      42.039  23.894  19.645  1.00  0.00     0.000 C 
BRANCH  12  13
ATOM     13  C   UNL     1      41.154  23.184  18.606  1.00  0.00     0.006 C 
BRANCH  13  14
ATOM     14  C   UNL     1      39.819  23.915  18.428  1.00  0.00     0.053 C 
BRANCH  14  15
ATOM     15  C   UNL     1      38.845  23.062  17.675  1.00  0.00     0.041 C 
ATOM     16  O   UNL     1      39.246  22.052  17.037  1.00  0.00    -0.550 OA
ATOM     17  O   UNL     1      37.497  23.397  17.656  1.00  0.00    -0.550 OA
ENDBRANCH  14  15
ENDBRANCH  13  14
ENDBRANCH  12  13
ENDBRANCH  11  12
ENDBRANCH  10  11
ENDBRANCH   9  10
ENDBRANCH   8   9
ENDBRANCH   7   8
ENDBRANCH   6   7
ENDBRANCH   5   6
ENDBRANCH   4   5
ENDBRANCH   3   4
ENDBRANCH   2   3
ENDBRANCH   1   2
BRANCH   1  18
ATOM     18  C   UNL     1      43.870  28.480  19.799  1.00  0.00     0.000 C 
BRANCH  18  19
ATOM     19  C   UNL     1      45.057  29.396  19.441  1.00  0.00     0.000 C 
BRANCH  19  20
ATOM     20  C   UNL     1      45.596  29.180  18.013  1.00  0.00     0.000 C 
BRANCH  20  21
ATOM     21  C   UNL     1      44.907  30.096  16.984  1.00  0.00     0.000 C 
BRANCH  21  22
ATOM     22  C   UNL     1      44.278  31.344  17.628  1.00  0.00     0.000 C 
BRANCH  22  23
ATOM     23  C   UNL     1      43.291  32.056  16.688  1.00  0.00     0.000 C 
BRANCH  23  24
ATOM     24  C   UNL     1      43.819  33.410  16.183  1.00  0.00    -0.000 C 
BRANCH  24  25
ATOM     25  C   UNL     1      45.153  33.808  16.839  1.00  0.00    -0.000 C 
BRANCH  25  26
ATOM     26  C   UNL     1      46.169  34.373  15.829  1.00  0.00    -0.000 C 
BRANCH  26  27
ATOM     27  C   UNL     1      46.981  33.319  15.048  1.00  0.00    -0.000 C 
BRANCH  27  28
ATOM     28  C   UNL     1      46.358  32.851  13.721  1.00  0.00    -0.000 C 
BRANCH  28  29
ATOM     29  C   UNL     1      46.153  31.329  13.659  1.00  0.00    -0.000 C 
BRANCH  29  30
ATOM     30  C   UNL     1      44.774  30.936  13.103  1.00  0.00    -0.000 C 
BRANCH  30  31
ATOM     31  C   UNL     1      44.250  29.587  13.642  1.00  0.00    -0.003 C 
ATOM     32  C   UNL     1      42.748  29.623  13.926  1.00  0.00     0.004 C 
ENDBRANCH  30  31
ENDBRANCH  29  30
ENDBRANCH  28  29
ENDBRANCH  27  28
ENDBRANCH  26  27
ENDBRANCH  25  26
ENDBRANCH  24  25
ENDBRANCH  23  24
ENDBRANCH  22  23
ENDBRANCH  21  22
ENDBRANCH  20  21
ENDBRANCH  19  20
ENDBRANCH  18  19
ENDBRANCH   1  18
TORSDOF 28
ENDMDL
MODEL 5
REMARK VINA RESULT:    -5.456      3.393      6.328
REMARK INTER + INTRA:         -17.822
REMARK INTER:                 -12.417
REMARK INTRA:                  -5.405
REMARK UNBOUND:                -3.434
REMARK SMILES CCCCCCCCCCCCCCCCCCCCCCCCCCCCCC(=O)[O-]
REMARK SMILES IDX 16 1 17 2 18 3 19 4 20 5 21 6 22 7 23 8 24 9 25 10 26 11
REMARK SMILES IDX 27 12 28 13 29 14 30 15 31 16 32 17 15 18 14 19 13 20 12 21
REMARK SMILES IDX 11 22 10 23 9 24 8 25 7 26 6 27 5 28 4 29 3 30 2 31 1 32
REMARK H PARENT
REMARK Flexibility Score: inf
ROOT
ATOM      1  C   UNL     1      44.123  33.374  16.364  1.00  0.00     0.000 C 
ENDROOT
BRANCH   1   2
ATOM      2  C   UNL     1      43.124  32.209  16.192  1.00  0.00     0.000 C 
BRANCH   2   3
ATOM      3  C   UNL     1      42.750  31.904  14.729  1.00  0.00     0.000 C 
BRANCH   3   4
ATOM      4  C   UNL     1      43.028  30.465  14.264  1.00  0.00     0.000 C 
BRANCH   4   5
ATOM      5  C   UNL     1      44.367  30.259  13.527  1.00  0.00     0.000 C 
BRANCH   5   6
ATOM      6  C   UNL     1      45.072  31.570  13.119  1.00  0.00     0.000 C 
BRANCH   6   7
ATOM      7  C   UNL     1      46.328  31.850  13.958  1.00  0.00     0.000 C 
BRANCH   7   8
ATOM      8  C   UNL     1      46.590  30.720  14.961  1.00  0.00     0.000 C 
BRANCH   8   9
ATOM      9  C   UNL     1      47.426  31.223  16.145  1.00  0.00     0.000 C 
BRANCH   9  10
ATOM     10  C   UNL     1      47.106  30.438  17.422  1.00  0.00     0.000 C 
BRANCH  10  11
ATOM     11  C   UNL     1      45.852  29.572  17.230  1.00  0.00     0.000 C 
BRANCH  11  12
ATOM     12  C   UNL     1      44.797  29.801  18.325  1.00  0.00     0.000 C 
BRANCH  12  13
ATOM     13  C   UNL     1      44.729  28.641  19.332  1.00  0.00     0.006 C 
BRANCH  13  14
ATOM     14  C   UNL     1      43.639  28.884  20.381  1.00  0.00     0.053 C 
BRANCH  14  15
ATOM     15  C   UNL     1      42.871  27.626  20.648  1.00  0.00     0.041 C 
ATOM     16  O   UNL     1      42.804  26.725  19.770  1.00  0.00    -0.550 OA
ATOM     17  O   UNL     1      42.207  27.460  21.857  1.00  0.00    -0.550 OA
ENDBRANCH  14  15
ENDBRANCH  13  14
ENDBRANCH  12  13
ENDBRANCH  11  12
ENDBRANCH  10  11
ENDBRANCH   9  10
ENDBRANCH   8   9
ENDBRANCH   7   8
ENDBRANCH   6   7
ENDBRANCH   5   6
ENDBRANCH   4   5
ENDBRANCH   3   4
ENDBRANCH   2   3
ENDBRANCH   1   2
BRANCH   1  18
ATOM     18  C   UNL     1      44.783  33.386  17.755  1.00  0.00     0.000 C 
BRANCH  18  19
ATOM     19  C   UNL     1      45.985  34.347  17.824  1.00  0.00     0.000 C 
BRANCH  19  20
ATOM     20  C   UNL     1      46.441  34.869  16.446  1.00  0.00     0.000 C 
BRANCH  20  21
ATOM     21  C   UNL     1      47.506  35.974  16.563  1.00  0.00     0.000 C 
BRANCH  21  22
ATOM     22  C   UNL     1      48.310  36.162  15.266  1.00  0.00     0.000 C 
BRANCH  22  23
ATOM     23  C   UNL     1      47.825  35.239  14.135  1.00  0.00     0.000 C 
BRANCH  23  24
ATOM     24  C   UNL     1      47.614  35.983  12.805  1.00  0.00    -0.000 C 
BRANCH  24  25
ATOM     25  C   UNL     1      46.282  35.620  12.128  1.00  0.00    -0.000 C 
BRANCH  25  26
ATOM     26  C   UNL     1      46.472  34.790  10.845  1.00  0.00    -0.000 C 
BRANCH  26  27
ATOM     27  C   UNL     1      47.679  33.828  10.852  1.00  0.00    -0.000 C 
BRANCH  27  28
ATOM     28  C   UNL     1      47.377  32.381  10.422  1.00  0.00    -0.000 C 
BRANCH  28  29
ATOM     29  C   UNL     1      48.446  31.382  10.892  1.00  0.00    -0.000 C 
BRANCH  29  30
ATOM     30  C   UNL     1      49.471  32.012  11.850  1.00  0.00    -0.000 C 
BRANCH  30  31
ATOM     31  C   UNL     1      49.841  31.108  13.044  1.00  0.00    -0.003 C 
ATOM     32  C   UNL     1      51.256  30.539  12.921  1.00  0.00     0.004 C 
ENDBRANCH  30  31
ENDBRANCH  29  30
ENDBRANCH  28  29
ENDBRANCH  27  28
ENDBRANCH  26  27
ENDBRANCH  25  26
ENDBRANCH  24  25
ENDBRANCH  23  24
ENDBRANCH  22  23
ENDBRANCH  21  22
ENDBRANCH  20  21
ENDBRANCH  19  20
ENDBRANCH  18  19
ENDBRANCH   1  18
TORSDOF 28
ENDMDL
MODEL 6
REMARK VINA RESULT:    -5.417      3.349     10.690
REMARK INTER + INTRA:         -17.718
REMARK INTER:                 -14.033
REMARK INTRA:                  -3.685
REMARK UNBOUND:                -3.434
REMARK SMILES CCCCCCCCCCCCCCCCCCCCCCCCCCCCCC(=O)[O-]
REMARK SMILES IDX 16 1 17 2 18 3 19 4 20 5 21 6 22 7 23 8 24 9 25 10 26 11
REMARK SMILES IDX 27 12 28 13 29 14 30 15 31 16 32 17 15 18 14 19 13 20 12 21
REMARK SMILES IDX 11 22 10 23 9 24 8 25 7 26 6 27 5 28 4 29 3 30 2 31 1 32
REMARK H PARENT
REMARK Flexibility Score: inf
ROOT
ATOM      1  C   UNL     1      42.784  26.489  20.391  1.00  0.00     0.000 C 
ENDROOT
BRANCH   1   2
ATOM      2  C   UNL     1      42.640  27.770  21.240  1.00  0.00     0.000 C 
BRANCH   2   3
ATOM      3  C   UNL     1      43.935  28.209  21.951  1.00  0.00     0.000 C 
BRANCH   3   4
ATOM      4  C   UNL     1      44.774  29.257  21.200  1.00  0.00     0.000 C 
BRANCH   4   5
ATOM      5  C   UNL     1      44.164  29.767  19.880  1.00  0.00     0.000 C 
BRANCH   5   6
ATOM      6  C   UNL     1      44.972  29.385  18.622  1.00  0.00     0.000 C 
BRANCH   6   7
ATOM      7  C   UNL     1      44.714  30.336  17.443  1.00  0.00     0.000 C 
BRANCH   7   8
ATOM      8  C   UNL     1      44.097  31.657  17.921  1.00  0.00     0.000 C 
BRANCH   8   9
ATOM      9  C   UNL     1      43.980  32.655  16.762  1.00  0.00     0.000 C 
BRANCH   9  10
ATOM     10  C   UNL     1      42.705  32.410  15.946  1.00  0.00     0.000 C 
BRANCH  10  11
ATOM     11  C   UNL     1      43.050  32.010  14.503  1.00  0.00     0.000 C 
BRANCH  11  12
ATOM     12  C   UNL     1      43.026  30.489  14.284  1.00  0.00     0.000 C 
BRANCH  12  13
ATOM     13  C   UNL     1      44.245  29.987  13.492  1.00  0.00     0.006 C 
BRANCH  13  14
ATOM     14  C   UNL     1      45.474  30.864  13.757  1.00  0.00     0.053 C 
BRANCH  14  15
ATOM     15  C   UNL     1      46.067  31.347  12.469  1.00  0.00     0.041 C 
ATOM     16  O   UNL     1      47.222  31.849  12.451  1.00  0.00    -0.550 OA
ATOM     17  O   UNL     1      45.333  31.267  11.292  1.00  0.00    -0.550 OA
ENDBRANCH  14  15
ENDBRANCH  13  14
ENDBRANCH  12  13
ENDBRANCH  11  12
ENDBRANCH  10  11
ENDBRANCH   9  10
ENDBRANCH   8   9
ENDBRANCH   7   8
ENDBRANCH   6   7
ENDBRANCH   5   6
ENDBRANCH   4   5
ENDBRANCH   3   4
ENDBRANCH   2   3
ENDBRANCH   1   2
BRANCH   1  18
ATOM     18  C   UNL     1      44.064  25.701  20.721  1.00  0.00     0.000 C 
BRANCH  18  19
ATOM     19  C   UNL     1      45.012  25.589  19.512  1.00  0.00     0.000 C 
BRANCH  19  20
ATOM     20  C   UNL     1      45.505  24.154  19.242  1.00  0.00     0.000 C 
BRANCH  20  21
ATOM     21  C   UNL     1      47.020  24.003  19.473  1.00  0.00     0.000 C 
BRANCH  21  22
ATOM     22  C   UNL     1      47.361  22.850  20.433  1.00  0.00     0.000 C 
BRANCH  22  23
ATOM     23  C   UNL     1      46.234  22.573  21.443  1.00  0.00     0.000 C 
BRANCH  23  24
ATOM     24  C   UNL     1      45.785  21.102  21.448  1.00  0.00    -0.000 C 
BRANCH  24  25
ATOM     25  C   UNL     1      44.298  20.937  21.806  1.00  0.00    -0.000 C 
BRANCH  25  26
ATOM     26  C   UNL     1      43.358  21.455  20.702  1.00  0.00    -0.000 C 
BRANCH  26  27
ATOM     27  C   UNL     1      42.375  22.563  21.136  1.00  0.00    -0.000 C 
BRANCH  27  28
ATOM     28  C   UNL     1      41.505  23.156  20.012  1.00  0.00    -0.000 C 
BRANCH  28  29
ATOM     29  C   UNL     1      42.076  22.891  18.610  1.00  0.00    -0.000 C 
BRANCH  29  30
ATOM     30  C   UNL     1      41.004  22.429  17.609  1.00  0.00    -0.000 C 
BRANCH  30  31
ATOM     31  C   UNL     1      39.801  23.389  17.500  1.00  0.00    -0.003 C 
ATOM     32  C   UNL     1      38.467  22.669  17.702  1.00  0.00     0.004 C 
ENDBRANCH  30  31
ENDBRANCH  29  30
ENDBRANCH  28  29
ENDBRANCH  27  28
ENDBRANCH  26  27
ENDBRANCH  25  26
ENDBRANCH  24  25
ENDBRANCH  23  24
ENDBRANCH  22  23
ENDBRANCH  21  22
ENDBRANCH  20  21
ENDBRANCH  19  20
ENDBRANCH  18  19
ENDBRANCH   1  18
TORSDOF 28
ENDMDL
MODEL 7
REMARK VINA RESULT:    -5.411      3.735     10.872
REMARK INTER + INTRA:         -17.703
REMARK INTER:                 -12.326
REMARK INTRA:                  -5.377
REMARK UNBOUND:                -3.434
REMARK SMILES CCCCCCCCCCCCCCCCCCCCCCCCCCCCCC(=O)[O-]
REMARK SMILES IDX 16 1 17 2 18 3 19 4 20 5 21 6 22 7 23 8 24 9 25 10 26 11
REMARK SMILES IDX 27 12 28 13 29 14 30 15 31 16 32 17 15 18 14 19 13 20 12 21
REMARK SMILES IDX 11 22 10 23 9 24 8 25 7 26 6 27 5 28 4 29 3 30 2 31 1 32
REMARK H PARENT
REMARK Flexibility Score: inf
ROOT
ATOM      1  C   UNL     1      44.822  30.020  13.534  1.00  0.00     0.000 C 
ENDROOT
BRANCH   1   2
ATOM      2  C   UNL     1      44.946  31.103  12.440  1.00  0.00     0.000 C 
BRANCH   2   3
ATOM      3  C   UNL     1      46.068  32.130  12.689  1.00  0.00     0.000 C 
BRANCH   3   4
ATOM      4  C   UNL     1      46.860  31.936  13.993  1.00  0.00     0.000 C 
BRANCH   4   5
ATOM      5  C   UNL     1      48.082  32.861  14.165  1.00  0.00     0.000 C 
BRANCH   5   6
ATOM      6  C   UNL     1      47.922  33.917  15.279  1.00  0.00     0.000 C 
BRANCH   6   7
ATOM      7  C   UNL     1      47.181  35.174  14.799  1.00  0.00     0.000 C 
BRANCH   7   8
ATOM      8  C   UNL     1      48.166  36.260  14.347  1.00  0.00     0.000 C 
BRANCH   8   9
ATOM      9  C   UNL     1      48.113  36.445  12.825  1.00  0.00     0.000 C 
BRANCH   9  10
ATOM     10  C   UNL     1      46.801  35.905  12.246  1.00  0.00     0.000 C 
BRANCH  10  11
ATOM     11  C   UNL     1      47.072  34.980  11.049  1.00  0.00     0.000 C 
BRANCH  11  12
ATOM     12  C   UNL     1      48.551  34.579  10.929  1.00  0.00     0.000 C 
BRANCH  12  13
ATOM     13  C   UNL     1      48.734  33.146  10.403  1.00  0.00     0.006 C 
BRANCH  13  14
ATOM     14  C   UNL     1      50.010  32.511  10.965  1.00  0.00     0.053 C 
BRANCH  14  15
ATOM     15  C   UNL     1      49.798  31.056  11.247  1.00  0.00     0.041 C 
ATOM     16  O   UNL     1      50.605  30.427  11.983  1.00  0.00    -0.550 OA
ATOM     17  O   UNL     1      48.724  30.386  10.676  1.00  0.00    -0.550 OA
ENDBRANCH  14  15
ENDBRANCH  13  14
ENDBRANCH  12  13
ENDBRANCH  11  12
ENDBRANCH  10  11
ENDBRANCH   9  10
ENDBRANCH   8   9
ENDBRANCH   7   8
ENDBRANCH   6   7
ENDBRANCH   5   6
ENDBRANCH   4   5
ENDBRANCH   3   4
ENDBRANCH   2   3
ENDBRANCH   1   2
BRANCH   1  18
ATOM     18  C   UNL     1      43.405  29.941  14.129  1.00  0.00     0.000 C 
BRANCH  18  19
ATOM     19  C   UNL     1      42.778  31.334  14.335  1.00  0.00     0.000 C 
BRANCH  19  20
ATOM     20  C   UNL     1      43.011  31.916  15.743  1.00  0.00     0.000 C 
BRANCH  20  21
ATOM     21  C   UNL     1      43.753  33.264  15.703  1.00  0.00     0.000 C 
BRANCH  21  22
ATOM     22  C   UNL     1      44.737  33.434  16.872  1.00  0.00     0.000 C 
BRANCH  22  23
ATOM     23  C   UNL     1      44.903  32.144  17.693  1.00  0.00     0.000 C 
BRANCH  23  24
ATOM     24  C   UNL     1      46.339  31.595  17.659  1.00  0.00    -0.000 C 
BRANCH  24  25
ATOM     25  C   UNL     1      46.404  30.135  17.177  1.00  0.00    -0.000 C 
BRANCH  25  26
ATOM     26  C   UNL     1      45.086  29.373  17.406  1.00  0.00    -0.000 C 
BRANCH  26  27
ATOM     27  C   UNL     1      45.058  28.457  18.647  1.00  0.00    -0.000 C 
BRANCH  27  28
ATOM     28  C   UNL     1      46.420  27.890  19.085  1.00  0.00    -0.000 C 
BRANCH  28  29
ATOM     29  C   UNL     1      46.367  26.389  19.413  1.00  0.00    -0.000 C 
BRANCH  29  30
ATOM     30  C   UNL     1      44.931  25.874  19.610  1.00  0.00    -0.000 C 
BRANCH  30  31
ATOM     31  C   UNL     1      44.823  24.334  19.636  1.00  0.00    -0.003 C 
ATOM     32  C   UNL     1      46.147  23.657  19.282  1.00  0.00     0.004 C 
ENDBRANCH  30  31
ENDBRANCH  29  30
ENDBRANCH  28  29
ENDBRANCH  27  28
ENDBRANCH  26  27
ENDBRANCH  25  26
ENDBRANCH  24  25
ENDBRANCH  23  24
ENDBRANCH  22  23
ENDBRANCH  21  22
ENDBRANCH  20  21
ENDBRANCH  19  20
ENDBRANCH  18  19
ENDBRANCH   1  18
TORSDOF 28
ENDMDL
MODEL 8
REMARK VINA RESULT:    -5.408      4.311     11.170
REMARK INTER + INTRA:         -17.695
REMARK INTER:                 -14.208
REMARK INTRA:                  -3.487
REMARK UNBOUND:                -3.434
REMARK SMILES CCCCCCCCCCCCCCCCCCCCCCCCCCCCCC(=O)[O-]
REMARK SMILES IDX 16 1 17 2 18 3 19 4 20 5 21 6 22 7 23 8 24 9 25 10 26 11
REMARK SMILES IDX 27 12 28 13 29 14 30 15 31 16 32 17 15 18 14 19 13 20 12 21
REMARK SMILES IDX 11 22 10 23 9 24 8 25 7 26 6 27 5 28 4 29 3 30 2 31 1 32
REMARK H PARENT
REMARK Flexibility Score: inf
ROOT
ATOM      1  C   UNL     1      45.710  30.232  14.942  1.00  0.00     0.000 C 
ENDROOT
BRANCH   1   2
ATOM      2  C   UNL     1      44.570  29.292  14.495  1.00  0.00     0.000 C 
BRANCH   2   3
ATOM      3  C   UNL     1      43.425  29.996  13.741  1.00  0.00     0.000 C 
BRANCH   3   4
ATOM      4  C   UNL     1      43.396  31.528  13.872  1.00  0.00     0.000 C 
BRANCH   4   5
ATOM      5  C   UNL     1      42.606  32.071  15.079  1.00  0.00     0.000 C 
BRANCH   5   6
ATOM      6  C   UNL     1      43.279  33.264  15.790  1.00  0.00     0.000 C 
BRANCH   6   7
ATOM      7  C   UNL     1      43.485  33.017  17.292  1.00  0.00     0.000 C 
BRANCH   7   8
ATOM      8  C   UNL     1      44.745  33.725  17.804  1.00  0.00     0.000 C 
BRANCH   8   9
ATOM      9  C   UNL     1      45.894  33.591  16.797  1.00  0.00     0.000 C 
BRANCH   9  10
ATOM     10  C   UNL     1      46.505  34.958  16.468  1.00  0.00     0.000 C 
BRANCH  10  11
ATOM     11  C   UNL     1      46.983  35.004  15.008  1.00  0.00     0.000 C 
BRANCH  11  12
ATOM     12  C   UNL     1      46.110  34.159  14.068  1.00  0.00     0.000 C 
BRANCH  12  13
ATOM     13  C   UNL     1      46.921  33.503  12.938  1.00  0.00     0.006 C 
BRANCH  13  14
ATOM     14  C   UNL     1      46.493  34.039  11.568  1.00  0.00     0.053 C 
BRANCH  14  15
ATOM     15  C   UNL     1      46.813  35.497  11.446  1.00  0.00     0.041 C 
ATOM     16  O   UNL     1      45.892  36.336  11.255  1.00  0.00    -0.550 OA
ATOM     17  O   UNL     1      48.132  35.928  11.518  1.00  0.00    -0.550 OA
ENDBRANCH  14  15
ENDBRANCH  13  14
ENDBRANCH  12  13
ENDBRANCH  11  12
ENDBRANCH  10  11
ENDBRANCH   9  10
ENDBRANCH   8   9
ENDBRANCH   7   8
ENDBRANCH   6   7
ENDBRANCH   5   6
ENDBRANCH   4   5
ENDBRANCH   3   4
ENDBRANCH   2   3
ENDBRANCH   1   2
BRANCH   1  18
ATOM     18  C   UNL     1      46.097  30.031  16.419  1.00  0.00     0.000 C 
BRANCH  18  19
ATOM     19  C   UNL     1      44.905  29.567  17.278  1.00  0.00     0.000 C 
BRANCH  19  20
ATOM     20  C   UNL     1      44.950  30.085  18.730  1.00  0.00     0.000 C 
BRANCH  20  21
ATOM     21  C   UNL     1      44.246  29.132  19.712  1.00  0.00     0.000 C 
BRANCH  21  22
ATOM     22  C   UNL     1      44.338  27.659  19.278  1.00  0.00     0.000 C 
BRANCH  22  23
ATOM     23  C   UNL     1      43.153  26.821  19.788  1.00  0.00     0.000 C 
BRANCH  23  24
ATOM     24  C   UNL     1      43.597  25.557  20.544  1.00  0.00    -0.000 C 
BRANCH  24  25
ATOM     25  C   UNL     1      44.372  24.573  19.650  1.00  0.00    -0.000 C 
BRANCH  25  26
ATOM     26  C   UNL     1      43.724  23.178  19.599  1.00  0.00    -0.000 C 
BRANCH  26  27
ATOM     27  C   UNL     1      42.242  23.151  19.169  1.00  0.00    -0.000 C 
BRANCH  27  28
ATOM     28  C   UNL     1      41.950  22.437  17.837  1.00  0.00    -0.000 C 
BRANCH  28  29
ATOM     29  C   UNL     1      40.448  22.322  17.536  1.00  0.00    -0.000 C 
BRANCH  29  30
ATOM     30  C   UNL     1      39.628  23.473  18.146  1.00  0.00    -0.000 C 
BRANCH  30  31
ATOM     31  C   UNL     1      38.193  23.575  17.589  1.00  0.00    -0.003 C 
ATOM     32  C   UNL     1      37.497  22.214  17.534  1.00  0.00     0.004 C 
ENDBRANCH  30  31
ENDBRANCH  29  30
ENDBRANCH  28  29
ENDBRANCH  27  28
ENDBRANCH  26  27
ENDBRANCH  25  26
ENDBRANCH  24  25
ENDBRANCH  23  24
ENDBRANCH  22  23
ENDBRANCH  21  22
ENDBRANCH  20  21
ENDBRANCH  19  20
ENDBRANCH  18  19
ENDBRANCH   1  18
TORSDOF 28
ENDMDL
MODEL 9
REMARK VINA RESULT:    -5.272      2.331      4.495
REMARK INTER + INTRA:         -17.336
REMARK INTER:                 -13.313
REMARK INTRA:                  -4.023
REMARK UNBOUND:                -3.434
REMARK SMILES CCCCCCCCCCCCCCCCCCCCCCCCCCCCCC(=O)[O-]
REMARK SMILES IDX 16 1 17 2 18 3 19 4 20 5 21 6 22 7 23 8 24 9 25 10 26 11
REMARK SMILES IDX 27 12 28 13 29 14 30 15 31 16 32 17 15 18 14 19 13 20 12 21
REMARK SMILES IDX 11 22 10 23 9 24 8 25 7 26 6 27 5 28 4 29 3 30 2 31 1 32
REMARK H PARENT
REMARK Flexibility Score: inf
ROOT
ATOM      1  C   UNL     1      48.013  26.006  20.159  1.00  0.00     0.000 C 
ENDROOT
BRANCH   1   2
ATOM      2  C   UNL     1      47.208  25.254  19.077  1.00  0.00     0.000 C 
BRANCH   2   3
ATOM      3  C   UNL     1      46.139  24.294  19.634  1.00  0.00     0.000 C 
BRANCH   3   4
ATOM      4  C   UNL     1      45.961  24.323  21.161  1.00  0.00     0.000 C 
BRANCH   4   5
ATOM      5  C   UNL     1      46.179  22.974  21.875  1.00  0.00     0.000 C 
BRANCH   5   6
ATOM      6  C   UNL     1      46.210  21.756  20.927  1.00  0.00     0.000 C 
BRANCH   6   7
ATOM      7  C   UNL     1      45.342  20.593  21.433  1.00  0.00     0.000 C 
BRANCH   7   8
ATOM      8  C   UNL     1      43.961  21.085  21.882  1.00  0.00     0.000 C 
BRANCH   8   9
ATOM      9  C   UNL     1      43.160  21.629  20.692  1.00  0.00     0.000 C 
BRANCH   9  10
ATOM     10  C   UNL     1      42.381  22.891  21.078  1.00  0.00     0.000 C 
BRANCH  10  11
ATOM     11  C   UNL     1      42.448  23.938  19.956  1.00  0.00     0.000 C 
BRANCH  11  12
ATOM     12  C   UNL     1      41.059  24.361  19.451  1.00  0.00     0.000 C 
BRANCH  12  13
ATOM     13  C   UNL     1      40.455  23.347  18.466  1.00  0.00     0.006 C 
BRANCH  13  14
ATOM     14  C   UNL     1      39.110  23.840  17.922  1.00  0.00     0.053 C 
BRANCH  14  15
ATOM     15  C   UNL     1      38.441  22.771  17.115  1.00  0.00     0.041 C 
ATOM     16  O   UNL     1      37.238  22.901  16.763  1.00  0.00    -0.550 OA
ATOM     17  O   UNL     1      39.137  21.619  16.773  1.00  0.00    -0.550 OA
ENDBRANCH  14  15
ENDBRANCH  13  14
ENDBRANCH  12  13
ENDBRANCH  11  12
ENDBRANCH  10  11
ENDBRANCH   9  10
ENDBRANCH   8   9
ENDBRANCH   7   8
ENDBRANCH   6   7
ENDBRANCH   5   6
ENDBRANCH   4   5
ENDBRANCH   3   4
ENDBRANCH   2   3
ENDBRANCH   1   2
BRANCH   1  18
ATOM     18  C   UNL     1      47.871  27.535  20.045  1.00  0.00     0.000 C 
BRANCH  18  19
ATOM     19  C   UNL     1      46.914  28.114  21.104  1.00  0.00     0.000 C 
BRANCH  19  20
ATOM     20  C   UNL     1      45.444  28.179  20.641  1.00  0.00     0.000 C 
BRANCH  20  21
ATOM     21  C   UNL     1      44.916  29.623  20.574  1.00  0.00     0.000 C 
BRANCH  21  22
ATOM     22  C   UNL     1      44.296  29.964  19.208  1.00  0.00     0.000 C 
BRANCH  22  23
ATOM     23  C   UNL     1      44.989  29.230  18.048  1.00  0.00     0.000 C 
BRANCH  23  24
ATOM     24  C   UNL     1      46.228  29.975  17.524  1.00  0.00    -0.000 C 
BRANCH  24  25
ATOM     25  C   UNL     1      46.309  29.982  15.987  1.00  0.00    -0.000 C 
BRANCH  25  26
ATOM     26  C   UNL     1      44.923  29.985  15.317  1.00  0.00    -0.000 C 
BRANCH  26  27
ATOM     27  C   UNL     1      44.694  31.100  14.275  1.00  0.00    -0.000 C 
BRANCH  27  28
ATOM     28  C   UNL     1      44.194  32.442  14.839  1.00  0.00    -0.000 C 
BRANCH  28  29
ATOM     29  C   UNL     1      43.143  32.272  15.947  1.00  0.00    -0.000 C 
BRANCH  29  30
ATOM     30  C   UNL     1      43.542  32.969  17.259  1.00  0.00    -0.000 C 
BRANCH  30  31
ATOM     31  C   UNL     1      44.893  33.711  17.181  1.00  0.00    -0.003 C 
ATOM     32  C   UNL     1      45.760  33.463  18.416  1.00  0.00     0.004 C 
ENDBRANCH  30  31
ENDBRANCH  29  30
ENDBRANCH  28  29
ENDBRANCH  27  28
ENDBRANCH  26  27
ENDBRANCH  25  26
ENDBRANCH  24  25
ENDBRANCH  23  24
ENDBRANCH  22  23
ENDBRANCH  21  22
ENDBRANCH  20  21
ENDBRANCH  19  20
ENDBRANCH  18  19
ENDBRANCH   1  18
TORSDOF 28
ENDMDL
