MODEL 1
REMARK VINA RESULT:    -6.314      0.000      0.000
REMARK INTER + INTRA:         -19.415
REMARK INTER:                 -15.912
REMARK INTRA:                  -3.502
REMARK UNBOUND:                -3.502
REMARK SMILES CCCCCCCCCCCCCCCCCCCCCCCCCCCC(=O)[O-]
REMARK SMILES IDX 15 1 16 2 17 3 18 4 19 5 20 6 21 7 22 8 23 9 24 10 25 11
REMARK SMILES IDX 26 12 27 13 28 14 29 15 30 16 14 17 13 18 12 19 11 20 10 21
REMARK SMILES IDX 9 22 8 23 7 24 6 25 5 26 4 27 3 28 2 29 1 30
REMARK H PARENT
REMARK Flexibility Score: inf
ROOT
ATOM      1  C   UNL     1     -15.118   2.964 -16.212  1.00  0.00     0.000 C 
ENDROOT
BRANCH   1   2
ATOM      2  C   UNL     1     -15.551   1.944 -15.145  1.00  0.00     0.000 C 
BRANCH   2   3
ATOM      3  C   UNL     1     -14.753   2.087 -13.838  1.00  0.00     0.000 C 
BRANCH   3   4
ATOM      4  C   UNL     1     -15.529   2.849 -12.750  1.00  0.00     0.000 C 
BRANCH   4   5
ATOM      5  C   UNL     1     -15.601   2.071 -11.426  1.00  0.00     0.000 C 
BRANCH   5   6
ATOM      6  C   UNL     1     -17.048   1.743 -11.014  1.00  0.00     0.000 C 
BRANCH   6   7
ATOM      7  C   UNL     1     -17.494   0.347 -11.477  1.00  0.00     0.000 C 
BRANCH   7   8
ATOM      8  C   UNL     1     -18.169   0.372 -12.857  1.00  0.00     0.000 C 
BRANCH   8   9
ATOM      9  C   UNL     1     -17.663  -0.780 -13.739  1.00  0.00     0.000 C 
BRANCH   9  10
ATOM     10  C   UNL     1     -18.817  -1.580 -14.382  1.00  0.00     0.000 C 
BRANCH  10  11
ATOM     11  C   UNL     1     -19.955  -0.697 -14.930  1.00  0.00     0.000 C 
BRANCH  11  12
ATOM     12  C   UNL     1     -20.912  -1.403 -15.909  1.00  0.00     0.006 C 
BRANCH  12  13
ATOM     13  C   UNL     1     -22.333  -0.817 -15.940  1.00  0.00     0.053 C 
BRANCH  13  14
ATOM     14  C   UNL     1     -23.379  -1.887 -16.015  1.00  0.00     0.041 C 
ATOM     15  O   UNL     1     -23.712  -2.371 -17.128  1.00  0.00    -0.550 OA
ATOM     16  O   UNL     1     -23.995  -2.342 -14.857  1.00  0.00    -0.550 OA
ENDBRANCH  13  14
ENDBRANCH  12  13
ENDBRANCH  11  12
ENDBRANCH  10  11
ENDBRANCH   9  10
ENDBRANCH   8   9
ENDBRANCH   7   8
ENDBRANCH   6   7
ENDBRANCH   5   6
ENDBRANCH   4   5
ENDBRANCH   3   4
ENDBRANCH   2   3
ENDBRANCH   1   2
BRANCH   1  17
ATOM     17  C   UNL     1     -13.600   3.220 -16.217  1.00  0.00     0.000 C 
BRANCH  17  18
ATOM     18  C   UNL     1     -13.046   3.632 -17.599  1.00  0.00     0.000 C 
BRANCH  18  19
ATOM     19  C   UNL     1     -14.010   3.264 -18.740  1.00  0.00     0.000 C 
BRANCH  19  20
ATOM     20  C   UNL     1     -13.805   1.830 -19.249  1.00  0.00     0.000 C 
BRANCH  20  21
ATOM     21  C   UNL     1     -14.722   1.484 -20.436  1.00  0.00     0.000 C 
BRANCH  21  22
ATOM     22  C   UNL     1     -14.652  -0.003 -20.827  1.00  0.00    -0.000 C 
BRANCH  22  23
ATOM     23  C   UNL     1     -13.342  -0.723 -20.451  1.00  0.00    -0.000 C 
BRANCH  23  24
ATOM     24  C   UNL     1     -13.265  -1.163 -18.972  1.00  0.00    -0.000 C 
BRANCH  24  25
ATOM     25  C   UNL     1     -14.523  -1.879 -18.436  1.00  0.00    -0.000 C 
BRANCH  25  26
ATOM     26  C   UNL     1     -15.365  -1.082 -17.418  1.00  0.00    -0.000 C 
BRANCH  26  27
ATOM     27  C   UNL     1     -16.834  -1.520 -17.289  1.00  0.00    -0.000 C 
BRANCH  27  28
ATOM     28  C   UNL     1     -17.634  -1.308 -18.583  1.00  0.00    -0.000 C 
BRANCH  28  29
ATOM     29  C   UNL     1     -17.816   0.186 -18.876  1.00  0.00    -0.003 C 
ATOM     30  C   UNL     1     -18.224   0.947 -17.620  1.00  0.00     0.004 C 
ENDBRANCH  28  29
ENDBRANCH  27  28
ENDBRANCH  26  27
ENDBRANCH  25  26
ENDBRANCH  24  25
ENDBRANCH  23  24
ENDBRANCH  22  23
ENDBRANCH  21  22
ENDBRANCH  20  21
ENDBRANCH  19  20
ENDBRANCH  18  19
ENDBRANCH  17  18
ENDBRANCH   1  17
TORSDOF 26
ENDMDL
MODEL 2
REMARK VINA RESULT:    -6.128      2.971      5.960
REMARK INTER + INTRA:         -18.945
REMARK INTER:                 -14.914
REMARK INTRA:                  -4.031
REMARK UNBOUND:                -3.502
REMARK SMILES CCCCCCCCCCCCCCCCCCCCCCCCCCCC(=O)[O-]
REMARK SMILES IDX 15 1 16 2 17 3 18 4 19 5 20 6 21 7 22 8 23 9 24 10 25 11
REMARK SMILES IDX 26 12 27 13 28 14 29 15 30 16 14 17 13 18 12 19 11 20 10 21
REMARK SMILES IDX 9 22 8 23 7 24 6 25 5 26 4 27 3 28 2 29 1 30
REMARK H PARENT
REMARK Flexibility Score: inf
ROOT
ATOM      1  C   UNL     1     -18.122   0.252 -18.585  1.00  0.00     0.000 C 
ENDROOT
BRANCH   1   2
ATOM      2  C   UNL     1     -18.087   0.518 -17.071  1.00  0.00     0.000 C 
BRANCH   2   3
ATOM      3  C   UNL     1     -19.488   0.748 -16.482  1.00  0.00     0.000 C 
BRANCH   3   4
ATOM      4  C   UNL     1     -20.155  -0.555 -16.008  1.00  0.00     0.000 C 
BRANCH   4   5
ATOM      5  C   UNL     1     -19.140  -1.564 -15.448  1.00  0.00     0.000 C 
BRANCH   5   6
ATOM      6  C   UNL     1     -18.876  -1.361 -13.945  1.00  0.00     0.000 C 
BRANCH   6   7
ATOM      7  C   UNL     1     -17.458  -0.843 -13.656  1.00  0.00     0.000 C 
BRANCH   7   8
ATOM      8  C   UNL     1     -17.310  -0.299 -12.228  1.00  0.00     0.000 C 
BRANCH   8   9
ATOM      9  C   UNL     1     -18.202   0.935 -12.013  1.00  0.00     0.000 C 
BRANCH   9  10
ATOM     10  C   UNL     1     -17.824   1.719 -10.737  1.00  0.00     0.000 C 
BRANCH  10  11
ATOM     11  C   UNL     1     -17.189   0.846  -9.636  1.00  0.00     0.000 C 
BRANCH  11  12
ATOM     12  C   UNL     1     -18.176   0.302  -8.586  1.00  0.00     0.006 C 
BRANCH  12  13
ATOM     13  C   UNL     1     -18.393   1.229  -7.379  1.00  0.00     0.053 C 
BRANCH  13  14
ATOM     14  C   UNL     1     -19.756   1.059  -6.780  1.00  0.00     0.041 C 
ATOM     15  O   UNL     1     -20.249  -0.090  -6.645  1.00  0.00    -0.550 OA
ATOM     16  O   UNL     1     -20.487   2.171  -6.383  1.00  0.00    -0.550 OA
ENDBRANCH  13  14
ENDBRANCH  12  13
ENDBRANCH  11  12
ENDBRANCH  10  11
ENDBRANCH   9  10
ENDBRANCH   8   9
ENDBRANCH   7   8
ENDBRANCH   6   7
ENDBRANCH   5   6
ENDBRANCH   4   5
ENDBRANCH   3   4
ENDBRANCH   2   3
ENDBRANCH   1   2
BRANCH   1  17
ATOM     17  C   UNL     1     -17.099  -0.808 -19.033  1.00  0.00     0.000 C 
BRANCH  17  18
ATOM     18  C   UNL     1     -16.530  -1.650 -17.870  1.00  0.00     0.000 C 
BRANCH  18  19
ATOM     19  C   UNL     1     -15.012  -1.861 -18.000  1.00  0.00     0.000 C 
BRANCH  19  20
ATOM     20  C   UNL     1     -14.241  -0.540 -18.149  1.00  0.00     0.000 C 
BRANCH  20  21
ATOM     21  C   UNL     1     -13.566  -0.398 -19.525  1.00  0.00     0.000 C 
BRANCH  21  22
ATOM     22  C   UNL     1     -14.031   0.855 -20.288  1.00  0.00    -0.000 C 
BRANCH  22  23
ATOM     23  C   UNL     1     -14.803   1.891 -19.447  1.00  0.00    -0.000 C 
BRANCH  23  24
ATOM     24  C   UNL     1     -14.084   3.249 -19.299  1.00  0.00    -0.000 C 
BRANCH  24  25
ATOM     25  C   UNL     1     -13.920   3.749 -17.848  1.00  0.00    -0.000 C 
BRANCH  25  26
ATOM     26  C   UNL     1     -14.774   3.023 -16.788  1.00  0.00    -0.000 C 
BRANCH  26  27
ATOM     27  C   UNL     1     -13.999   2.092 -15.840  1.00  0.00    -0.000 C 
BRANCH  27  28
ATOM     28  C   UNL     1     -14.883   1.499 -14.733  1.00  0.00    -0.000 C 
BRANCH  28  29
ATOM     29  C   UNL     1     -15.821   2.565 -14.152  1.00  0.00    -0.003 C 
ATOM     30  C   UNL     1     -15.232   3.189 -12.893  1.00  0.00     0.004 C 
ENDBRANCH  28  29
ENDBRANCH  27  28
ENDBRANCH  26  27
ENDBRANCH  25  26
ENDBRANCH  24  25
ENDBRANCH  23  24
ENDBRANCH  22  23
ENDBRANCH  21  22
ENDBRANCH  20  21
ENDBRANCH  19  20
ENDBRANCH  18  19
ENDBRANCH  17  18
ENDBRANCH   1  17
TORSDOF 26
ENDMDL
MODEL 3
REMARK VINA RESULT:    -6.014      2.049      5.202
REMARK INTER + INTRA:         -18.658
REMARK INTER:                 -15.284
REMARK INTRA:                  -3.374
REMARK UNBOUND:                -3.502
REMARK SMILES CCCCCCCCCCCCCCCCCCCCCCCCCCCC(=O)[O-]
REMARK SMILES IDX 15 1 16 2 17 3 18 4 19 5 20 6 21 7 22 8 23 9 24 10 25 11
REMARK SMILES IDX 26 12 27 13 28 14 29 15 30 16 14 17 13 18 12 19 11 20 10 21
REMARK SMILES IDX 9 22 8 23 7 24 6 25 5 26 4 27 3 28 2 29 1 30
REMARK H PARENT
REMARK Flexibility Score: inf
ROOT
ATOM      1  C   UNL     1     -18.088   0.477 -12.334  1.00  0.00     0.000 C 
ENDROOT
BRANCH   1   2
ATOM      2  C   UNL     1     -18.071  -0.825 -13.153  1.00  0.00     0.000 C 
BRANCH   2   3
ATOM      3  C   UNL     1     -17.183  -0.720 -14.404  1.00  0.00     0.000 C 
BRANCH   3   4
ATOM      4  C   UNL     1     -17.656   0.373 -15.378  1.00  0.00     0.000 C 
BRANCH   4   5
ATOM      5  C   UNL     1     -18.688  -0.149 -16.390  1.00  0.00     0.000 C 
BRANCH   5   6
ATOM      6  C   UNL     1     -20.060   0.532 -16.237  1.00  0.00     0.000 C 
BRANCH   6   7
ATOM      7  C   UNL     1     -21.175  -0.458 -15.864  1.00  0.00     0.000 C 
BRANCH   7   8
ATOM      8  C   UNL     1     -22.542   0.226 -15.712  1.00  0.00     0.000 C 
BRANCH   8   9
ATOM      9  C   UNL     1     -22.528   1.629 -16.339  1.00  0.00     0.000 C 
BRANCH   9  10
ATOM     10  C   UNL     1     -23.940   2.250 -16.422  1.00  0.00     0.000 C 
BRANCH  10  11
ATOM     11  C   UNL     1     -24.984   1.334 -17.090  1.00  0.00     0.000 C 
BRANCH  11  12
ATOM     12  C   UNL     1     -26.296   1.159 -16.301  1.00  0.00     0.006 C 
BRANCH  12  13
ATOM     13  C   UNL     1     -26.957  -0.218 -16.467  1.00  0.00     0.053 C 
BRANCH  13  14
ATOM     14  C   UNL     1     -26.832  -1.052 -15.228  1.00  0.00     0.041 C 
ATOM     15  O   UNL     1     -27.843  -1.285 -14.517  1.00  0.00    -0.550 OA
ATOM     16  O   UNL     1     -25.596  -1.561 -14.852  1.00  0.00    -0.550 OA
ENDBRANCH  13  14
ENDBRANCH  12  13
ENDBRANCH  11  12
ENDBRANCH  10  11
ENDBRANCH   9  10
ENDBRANCH   8   9
ENDBRANCH   7   8
ENDBRANCH   6   7
ENDBRANCH   5   6
ENDBRANCH   4   5
ENDBRANCH   3   4
ENDBRANCH   2   3
ENDBRANCH   1   2
BRANCH   1  17
ATOM     17  C   UNL     1     -17.011   0.509 -11.235  1.00  0.00     0.000 C 
BRANCH  17  18
ATOM     18  C   UNL     1     -16.094   1.750 -11.301  1.00  0.00     0.000 C 
BRANCH  18  19
ATOM     19  C   UNL     1     -15.162   1.714 -12.525  1.00  0.00     0.000 C 
BRANCH  19  20
ATOM     20  C   UNL     1     -15.312   2.954 -13.419  1.00  0.00     0.000 C 
BRANCH  20  21
ATOM     21  C   UNL     1     -15.094   2.641 -14.911  1.00  0.00     0.000 C 
BRANCH  21  22
ATOM     22  C   UNL     1     -13.604   2.585 -15.294  1.00  0.00    -0.000 C 
BRANCH  22  23
ATOM     23  C   UNL     1     -13.220   3.369 -16.564  1.00  0.00    -0.000 C 
BRANCH  23  24
ATOM     24  C   UNL     1     -14.352   3.472 -17.611  1.00  0.00    -0.000 C 
BRANCH  24  25
ATOM     25  C   UNL     1     -13.965   3.031 -19.038  1.00  0.00    -0.000 C 
BRANCH  25  26
ATOM     26  C   UNL     1     -14.714   1.798 -19.585  1.00  0.00    -0.000 C 
BRANCH  26  27
ATOM     27  C   UNL     1     -15.544   1.016 -18.551  1.00  0.00    -0.000 C 
BRANCH  27  28
ATOM     28  C   UNL     1     -14.743  -0.102 -17.868  1.00  0.00    -0.000 C 
BRANCH  28  29
ATOM     29  C   UNL     1     -15.508  -1.430 -17.914  1.00  0.00    -0.003 C 
ATOM     30  C   UNL     1     -16.617  -1.391 -18.959  1.00  0.00     0.004 C 
ENDBRANCH  28  29
ENDBRANCH  27  28
ENDBRANCH  26  27
ENDBRANCH  25  26
ENDBRANCH  24  25
ENDBRANCH  23  24
ENDBRANCH  22  23
ENDBRANCH  21  22
ENDBRANCH  20  21
ENDBRANCH  19  20
ENDBRANCH  18  19
ENDBRANCH  17  18
ENDBRANCH   1  17
TORSDOF 26
ENDMDL
MODEL 4
REMARK VINA RESULT:    -5.949      2.988      7.548
REMARK INTER + INTRA:         -18.494
REMARK INTER:                 -14.564
REMARK INTRA:                  -3.930
REMARK UNBOUND:                -3.502
REMARK SMILES CCCCCCCCCCCCCCCCCCCCCCCCCCCC(=O)[O-]
REMARK SMILES IDX 15 1 16 2 17 3 18 4 19 5 20 6 21 7 22 8 23 9 24 10 25 11
REMARK SMILES IDX 26 12 27 13 28 14 29 15 30 16 14 17 13 18 12 19 11 20 10 21
REMARK SMILES IDX 9 22 8 23 7 24 6 25 5 26 4 27 3 28 2 29 1 30
REMARK H PARENT
REMARK Flexibility Score: inf
ROOT
ATOM      1  C   UNL     1     -17.750  -1.262 -18.304  1.00  0.00     0.000 C 
ENDROOT
BRANCH   1   2
ATOM      2  C   UNL     1     -16.462  -1.862 -18.892  1.00  0.00     0.000 C 
BRANCH   2   3
ATOM      3  C   UNL     1     -15.268  -1.747 -17.931  1.00  0.00     0.000 C 
BRANCH   3   4
ATOM      4  C   UNL     1     -14.077  -0.994 -18.550  1.00  0.00     0.000 C 
BRANCH   4   5
ATOM      5  C   UNL     1     -14.431  -0.341 -19.895  1.00  0.00     0.000 C 
BRANCH   5   6
ATOM      6  C   UNL     1     -14.302   1.193 -19.857  1.00  0.00     0.000 C 
BRANCH   6   7
ATOM      7  C   UNL     1     -13.805   1.713 -18.498  1.00  0.00     0.000 C 
BRANCH   7   8
ATOM      8  C   UNL     1     -14.134   3.197 -18.280  1.00  0.00     0.000 C 
BRANCH   8   9
ATOM      9  C   UNL     1     -14.944   3.397 -16.989  1.00  0.00     0.000 C 
BRANCH   9  10
ATOM     10  C   UNL     1     -14.365   2.598 -15.801  1.00  0.00     0.000 C 
BRANCH  10  11
ATOM     11  C   UNL     1     -15.238   2.652 -14.532  1.00  0.00     0.000 C 
BRANCH  11  12
ATOM     12  C   UNL     1     -14.715   1.817 -13.347  1.00  0.00     0.006 C 
BRANCH  12  13
ATOM     13  C   UNL     1     -15.670   0.705 -12.885  1.00  0.00     0.053 C 
BRANCH  13  14
ATOM     14  C   UNL     1     -16.610   1.181 -11.819  1.00  0.00     0.041 C 
ATOM     15  O   UNL     1     -16.463   2.321 -11.308  1.00  0.00    -0.550 OA
ATOM     16  O   UNL     1     -17.641   0.360 -11.381  1.00  0.00    -0.550 OA
ENDBRANCH  13  14
ENDBRANCH  12  13
ENDBRANCH  11  12
ENDBRANCH  10  11
ENDBRANCH   9  10
ENDBRANCH   8   9
ENDBRANCH   7   8
ENDBRANCH   6   7
ENDBRANCH   5   6
ENDBRANCH   4   5
ENDBRANCH   3   4
ENDBRANCH   2   3
ENDBRANCH   1   2
BRANCH   1  17
ATOM     17  C   UNL     1     -17.907   0.238 -18.609  1.00  0.00     0.000 C 
BRANCH  17  18
ATOM     18  C   UNL     1     -17.962   1.125 -17.346  1.00  0.00     0.000 C 
BRANCH  18  19
ATOM     19  C   UNL     1     -17.401   0.404 -16.110  1.00  0.00     0.000 C 
BRANCH  19  20
ATOM     20  C   UNL     1     -18.469   0.149 -15.036  1.00  0.00     0.000 C 
BRANCH  20  21
ATOM     21  C   UNL     1     -18.564  -1.333 -14.631  1.00  0.00     0.000 C 
BRANCH  21  22
ATOM     22  C   UNL     1     -19.936  -1.950 -14.954  1.00  0.00    -0.000 C 
BRANCH  22  23
ATOM     23  C   UNL     1     -20.763  -1.200 -16.016  1.00  0.00    -0.000 C 
BRANCH  23  24
ATOM     24  C   UNL     1     -22.291  -1.350 -15.849  1.00  0.00    -0.000 C 
BRANCH  24  25
ATOM     25  C   UNL     1     -23.084  -0.026 -15.853  1.00  0.00    -0.000 C 
BRANCH  25  26
ATOM     26  C   UNL     1     -22.256   1.251 -16.105  1.00  0.00    -0.000 C 
BRANCH  26  27
ATOM     27  C   UNL     1     -23.068   2.504 -16.476  1.00  0.00    -0.000 C 
BRANCH  27  28
ATOM     28  C   UNL     1     -24.448   2.167 -17.060  1.00  0.00    -0.000 C 
BRANCH  28  29
ATOM     29  C   UNL     1     -25.354   3.404 -17.074  1.00  0.00    -0.003 C 
ATOM     30  C   UNL     1     -26.671   3.131 -16.358  1.00  0.00     0.004 C 
ENDBRANCH  28  29
ENDBRANCH  27  28
ENDBRANCH  26  27
ENDBRANCH  25  26
ENDBRANCH  24  25
ENDBRANCH  23  24
ENDBRANCH  22  23
ENDBRANCH  21  22
ENDBRANCH  20  21
ENDBRANCH  19  20
ENDBRANCH  18  19
ENDBRANCH  17  18
ENDBRANCH   1  17
TORSDOF 26
ENDMDL
MODEL 5
REMARK VINA RESULT:    -5.936      2.460      5.013
REMARK INTER + INTRA:         -18.461
REMARK INTER:                 -15.331
REMARK INTRA:                  -3.130
REMARK UNBOUND:                -3.502
REMARK SMILES CCCCCCCCCCCCCCCCCCCCCCCCCCCC(=O)[O-]
REMARK SMILES IDX 15 1 16 2 17 3 18 4 19 5 20 6 21 7 22 8 23 9 24 10 25 11
REMARK SMILES IDX 26 12 27 13 28 14 29 15 30 16 14 17 13 18 12 19 11 20 10 21
REMARK SMILES IDX 9 22 8 23 7 24 6 25 5 26 4 27 3 28 2 29 1 30
REMARK H PARENT
REMARK Flexibility Score: inf
ROOT
ATOM      1  C   UNL     1     -17.154   0.843 -10.912  1.00  0.00     0.000 C 
ENDROOT
BRANCH   1   2
ATOM      2  C   UNL     1     -18.084   0.657 -12.124  1.00  0.00     0.000 C 
BRANCH   2   3
ATOM      3  C   UNL     1     -17.698  -0.561 -12.979  1.00  0.00     0.000 C 
BRANCH   3   4
ATOM      4  C   UNL     1     -18.211  -0.457 -14.426  1.00  0.00     0.000 C 
BRANCH   4   5
ATOM      5  C   UNL     1     -19.501  -1.261 -14.651  1.00  0.00     0.000 C 
BRANCH   5   6
ATOM      6  C   UNL     1     -20.285  -0.783 -15.887  1.00  0.00     0.000 C 
BRANCH   6   7
ATOM      7  C   UNL     1     -20.424   0.746 -15.946  1.00  0.00     0.000 C 
BRANCH   7   8
ATOM      8  C   UNL     1     -21.884   1.198 -16.104  1.00  0.00     0.000 C 
BRANCH   8   9
ATOM      9  C   UNL     1     -22.853   0.040 -15.816  1.00  0.00     0.000 C 
BRANCH   9  10
ATOM     10  C   UNL     1     -24.265   0.299 -16.385  1.00  0.00     0.000 C 
BRANCH  10  11
ATOM     11  C   UNL     1     -25.398  -0.315 -15.538  1.00  0.00     0.000 C 
BRANCH  11  12
ATOM     12  C   UNL     1     -26.822  -0.025 -16.049  1.00  0.00     0.006 C 
BRANCH  12  13
ATOM     13  C   UNL     1     -27.140   1.468 -16.229  1.00  0.00     0.053 C 
BRANCH  13  14
ATOM     14  C   UNL     1     -27.076   2.215 -14.932  1.00  0.00     0.041 C 
ATOM     15  O   UNL     1     -26.290   3.189 -14.800  1.00  0.00    -0.550 OA
ATOM     16  O   UNL     1     -27.874   1.828 -13.864  1.00  0.00    -0.550 OA
ENDBRANCH  13  14
ENDBRANCH  12  13
ENDBRANCH  11  12
ENDBRANCH  10  11
ENDBRANCH   9  10
ENDBRANCH   8   9
ENDBRANCH   7   8
ENDBRANCH   6   7
ENDBRANCH   5   6
ENDBRANCH   4   5
ENDBRANCH   3   4
ENDBRANCH   2   3
ENDBRANCH   1   2
BRANCH   1  17
ATOM     17  C   UNL     1     -16.027   1.858 -11.171  1.00  0.00     0.000 C 
BRANCH  17  18
ATOM     18  C   UNL     1     -15.120   1.487 -12.364  1.00  0.00     0.000 C 
BRANCH  18  19
ATOM     19  C   UNL     1     -15.103   2.587 -13.439  1.00  0.00     0.000 C 
BRANCH  19  20
ATOM     20  C   UNL     1     -14.419   2.135 -14.739  1.00  0.00     0.000 C 
BRANCH  20  21
ATOM     21  C   UNL     1     -15.426   1.724 -15.828  1.00  0.00     0.000 C 
BRANCH  21  22
ATOM     22  C   UNL     1     -15.707   2.855 -16.833  1.00  0.00    -0.000 C 
BRANCH  22  23
ATOM     23  C   UNL     1     -14.464   3.608 -17.344  1.00  0.00    -0.000 C 
BRANCH  23  24
ATOM     24  C   UNL     1     -13.638   2.830 -18.391  1.00  0.00    -0.000 C 
BRANCH  24  25
ATOM     25  C   UNL     1     -14.467   2.099 -19.468  1.00  0.00    -0.000 C 
BRANCH  25  26
ATOM     26  C   UNL     1     -14.190   0.588 -19.616  1.00  0.00    -0.000 C 
BRANCH  26  27
ATOM     27  C   UNL     1     -15.342  -0.340 -19.196  1.00  0.00    -0.000 C 
BRANCH  27  28
ATOM     28  C   UNL     1     -16.720   0.325 -19.326  1.00  0.00    -0.000 C 
BRANCH  28  29
ATOM     29  C   UNL     1     -17.788  -0.474 -18.569  1.00  0.00    -0.003 C 
ATOM     30  C   UNL     1     -17.183  -1.700 -17.894  1.00  0.00     0.004 C 
ENDBRANCH  28  29
ENDBRANCH  27  28
ENDBRANCH  26  27
ENDBRANCH  25  26
ENDBRANCH  24  25
ENDBRANCH  23  24
ENDBRANCH  22  23
ENDBRANCH  21  22
ENDBRANCH  20  21
ENDBRANCH  19  20
ENDBRANCH  18  19
ENDBRANCH  17  18
ENDBRANCH   1  17
TORSDOF 26
ENDMDL
MODEL 6
REMARK VINA RESULT:    -5.877      3.138      8.332
REMARK INTER + INTRA:         -18.313
REMARK INTER:                 -14.506
REMARK INTRA:                  -3.807
REMARK UNBOUND:                -3.502
REMARK SMILES CCCCCCCCCCCCCCCCCCCCCCCCCCCC(=O)[O-]
REMARK SMILES IDX 15 1 16 2 17 3 18 4 19 5 20 6 21 7 22 8 23 9 24 10 25 11
REMARK SMILES IDX 26 12 27 13 28 14 29 15 30 16 14 17 13 18 12 19 11 20 10 21
REMARK SMILES IDX 9 22 8 23 7 24 6 25 5 26 4 27 3 28 2 29 1 30
REMARK H PARENT
REMARK Flexibility Score: inf
ROOT
ATOM      1  C   UNL     1     -17.573   1.069 -16.640  1.00  0.00     0.000 C 
ENDROOT
BRANCH   1   2
ATOM      2  C   UNL     1     -17.761   0.670 -18.114  1.00  0.00     0.000 C 
BRANCH   2   3
ATOM      3  C   UNL     1     -17.567  -0.837 -18.344  1.00  0.00     0.000 C 
BRANCH   3   4
ATOM      4  C   UNL     1     -16.319  -1.153 -19.188  1.00  0.00     0.000 C 
BRANCH   4   5
ATOM      5  C   UNL     1     -15.064  -1.361 -18.326  1.00  0.00     0.000 C 
BRANCH   5   6
ATOM      6  C   UNL     1     -14.113  -0.151 -18.370  1.00  0.00     0.000 C 
BRANCH   6   7
ATOM      7  C   UNL     1     -14.237   0.653 -19.673  1.00  0.00     0.000 C 
BRANCH   7   8
ATOM      8  C   UNL     1     -14.544   2.137 -19.421  1.00  0.00     0.000 C 
BRANCH   8   9
ATOM      9  C   UNL     1     -13.420   2.803 -18.611  1.00  0.00     0.000 C 
BRANCH   9  10
ATOM     10  C   UNL     1     -13.962   3.671 -17.455  1.00  0.00     0.000 C 
BRANCH  10  11
ATOM     11  C   UNL     1     -13.343   3.336 -16.084  1.00  0.00     0.000 C 
BRANCH  11  12
ATOM     12  C   UNL     1     -14.060   2.219 -15.301  1.00  0.00     0.006 C 
BRANCH  12  13
ATOM     13  C   UNL     1     -15.144   2.719 -14.333  1.00  0.00     0.053 C 
BRANCH  13  14
ATOM     14  C   UNL     1     -15.082   2.015 -13.011  1.00  0.00     0.041 C 
ATOM     15  O   UNL     1     -14.642   0.839 -12.940  1.00  0.00    -0.550 OA
ATOM     16  O   UNL     1     -15.522   2.653 -11.860  1.00  0.00    -0.550 OA
ENDBRANCH  13  14
ENDBRANCH  12  13
ENDBRANCH  11  12
ENDBRANCH  10  11
ENDBRANCH   9  10
ENDBRANCH   8   9
ENDBRANCH   7   8
ENDBRANCH   6   7
ENDBRANCH   5   6
ENDBRANCH   4   5
ENDBRANCH   3   4
ENDBRANCH   2   3
ENDBRANCH   1   2
BRANCH   1  17
ATOM     17  C   UNL     1     -17.194  -0.120 -15.740  1.00  0.00     0.000 C 
BRANCH  17  18
ATOM     18  C   UNL     1     -17.806  -0.045 -14.324  1.00  0.00     0.000 C 
BRANCH  18  19
ATOM     19  C   UNL     1     -18.789  -1.198 -14.058  1.00  0.00     0.000 C 
BRANCH  19  20
ATOM     20  C   UNL     1     -19.339  -1.816 -15.352  1.00  0.00     0.000 C 
BRANCH  20  21
ATOM     21  C   UNL     1     -20.672  -1.184 -15.792  1.00  0.00     0.000 C 
BRANCH  21  22
ATOM     22  C   UNL     1     -21.894  -2.020 -15.370  1.00  0.00    -0.000 C 
BRANCH  22  23
ATOM     23  C   UNL     1     -23.181  -1.761 -16.177  1.00  0.00    -0.000 C 
BRANCH  23  24
ATOM     24  C   UNL     1     -24.420  -2.521 -15.653  1.00  0.00    -0.000 C 
BRANCH  24  25
ATOM     25  C   UNL     1     -25.423  -1.665 -14.851  1.00  0.00    -0.000 C 
BRANCH  25  26
ATOM     26  C   UNL     1     -25.711  -0.261 -15.420  1.00  0.00    -0.000 C 
BRANCH  26  27
ATOM     27  C   UNL     1     -25.759   0.875 -14.383  1.00  0.00    -0.000 C 
BRANCH  27  28
ATOM     28  C   UNL     1     -24.616   1.886 -14.554  1.00  0.00    -0.000 C 
BRANCH  28  29
ATOM     29  C   UNL     1     -24.222   2.023 -16.030  1.00  0.00    -0.003 C 
ATOM     30  C   UNL     1     -22.712   1.917 -16.209  1.00  0.00     0.004 C 
ENDBRANCH  28  29
ENDBRANCH  27  28
ENDBRANCH  26  27
ENDBRANCH  25  26
ENDBRANCH  24  25
ENDBRANCH  23  24
ENDBRANCH  22  23
ENDBRANCH  21  22
ENDBRANCH  20  21
ENDBRANCH  19  20
ENDBRANCH  18  19
ENDBRANCH  17  18
ENDBRANCH   1  17
TORSDOF 26
ENDMDL
MODEL 7
REMARK VINA RESULT:    -5.877      2.032      5.272
REMARK INTER + INTRA:         -18.312
REMARK INTER:                 -15.208
REMARK INTRA:                  -3.104
REMARK UNBOUND:                -3.502
REMARK SMILES CCCCCCCCCCCCCCCCCCCCCCCCCCCC(=O)[O-]
REMARK SMILES IDX 15 1 16 2 17 3 18 4 19 5 20 6 21 7 22 8 23 9 24 10 25 11
REMARK SMILES IDX 26 12 27 13 28 14 29 15 30 16 14 17 13 18 12 19 11 20 10 21
REMARK SMILES IDX 9 22 8 23 7 24 6 25 5 26 4 27 3 28 2 29 1 30
REMARK H PARENT
REMARK Flexibility Score: inf
ROOT
ATOM      1  C   UNL     1     -17.330  -1.905 -18.504  1.00  0.00     0.000 C 
ENDROOT
BRANCH   1   2
ATOM      2  C   UNL     1     -17.364  -2.321 -17.024  1.00  0.00     0.000 C 
BRANCH   2   3
ATOM      3  C   UNL     1     -17.260  -1.118 -16.073  1.00  0.00     0.000 C 
BRANCH   3   4
ATOM      4  C   UNL     1     -18.323  -1.147 -14.960  1.00  0.00     0.000 C 
BRANCH   4   5
ATOM      5  C   UNL     1     -19.307  -2.316 -15.119  1.00  0.00     0.000 C 
BRANCH   5   6
ATOM      6  C   UNL     1     -20.769  -1.845 -15.230  1.00  0.00     0.000 C 
BRANCH   6   7
ATOM      7  C   UNL     1     -20.898  -0.463 -15.889  1.00  0.00     0.000 C 
BRANCH   7   8
ATOM      8  C   UNL     1     -22.347   0.047 -15.907  1.00  0.00     0.000 C 
BRANCH   8   9
ATOM      9  C   UNL     1     -22.393   1.568 -16.125  1.00  0.00     0.000 C 
BRANCH   9  10
ATOM     10  C   UNL     1     -23.834   2.121 -16.114  1.00  0.00     0.000 C 
BRANCH  10  11
ATOM     11  C   UNL     1     -24.593   1.851 -14.799  1.00  0.00     0.000 C 
BRANCH  11  12
ATOM     12  C   UNL     1     -25.917   1.080 -14.959  1.00  0.00     0.006 C 
BRANCH  12  13
ATOM     13  C   UNL     1     -25.795  -0.438 -14.750  1.00  0.00     0.053 C 
BRANCH  13  14
ATOM     14  C   UNL     1     -27.128  -1.122 -14.818  1.00  0.00     0.041 C 
ATOM     15  O   UNL     1     -27.487  -1.704 -15.874  1.00  0.00    -0.550 OA
ATOM     16  O   UNL     1     -27.977  -1.104 -13.720  1.00  0.00    -0.550 OA
ENDBRANCH  13  14
ENDBRANCH  12  13
ENDBRANCH  11  12
ENDBRANCH  10  11
ENDBRANCH   9  10
ENDBRANCH   8   9
ENDBRANCH   7   8
ENDBRANCH   6   7
ENDBRANCH   5   6
ENDBRANCH   4   5
ENDBRANCH   3   4
ENDBRANCH   2   3
ENDBRANCH   1   2
BRANCH   1  17
ATOM     17  C   UNL     1     -17.742  -0.439 -18.725  1.00  0.00     0.000 C 
BRANCH  17  18
ATOM     18  C   UNL     1     -16.603   0.449 -19.272  1.00  0.00     0.000 C 
BRANCH  18  19
ATOM     19  C   UNL     1     -15.267  -0.310 -19.351  1.00  0.00     0.000 C 
BRANCH  19  20
ATOM     20  C   UNL     1     -14.051   0.609 -19.158  1.00  0.00     0.000 C 
BRANCH  20  21
ATOM     21  C   UNL     1     -14.391   2.096 -19.367  1.00  0.00     0.000 C 
BRANCH  21  22
ATOM     22  C   UNL     1     -13.549   3.028 -18.477  1.00  0.00    -0.000 C 
BRANCH  22  23
ATOM     23  C   UNL     1     -13.807   2.905 -16.963  1.00  0.00    -0.000 C 
BRANCH  23  24
ATOM     24  C   UNL     1     -15.294   3.029 -16.562  1.00  0.00    -0.000 C 
BRANCH  24  25
ATOM     25  C   UNL     1     -15.820   1.909 -15.640  1.00  0.00    -0.000 C 
BRANCH  25  26
ATOM     26  C   UNL     1     -15.078   1.743 -14.297  1.00  0.00    -0.000 C 
BRANCH  26  27
ATOM     27  C   UNL     1     -15.283   2.882 -13.283  1.00  0.00    -0.000 C 
BRANCH  27  28
ATOM     28  C   UNL     1     -15.815   2.386 -11.931  1.00  0.00    -0.000 C 
BRANCH  28  29
ATOM     29  C   UNL     1     -16.209   0.906 -12.007  1.00  0.00    -0.003 C 
ATOM     30  C   UNL     1     -17.702   0.720 -11.762  1.00  0.00     0.004 C 
ENDBRANCH  28  29
ENDBRANCH  27  28
ENDBRANCH  26  27
ENDBRANCH  25  26
ENDBRANCH  24  25
ENDBRANCH  23  24
ENDBRANCH  22  23
ENDBRANCH  21  22
ENDBRANCH  20  21
ENDBRANCH  19  20
ENDBRANCH  18  19
ENDBRANCH  17  18
ENDBRANCH   1  17
TORSDOF 26
ENDMDL
MODEL 8
REMARK VINA RESULT:    -5.856      3.185      6.113
REMARK INTER + INTRA:         -18.260
REMARK INTER:                 -15.048
REMARK INTRA:                  -3.212
REMARK UNBOUND:                -3.502
REMARK SMILES CCCCCCCCCCCCCCCCCCCCCCCCCCCC(=O)[O-]
REMARK SMILES IDX 15 1 16 2 17 3 18 4 19 5 20 6 21 7 22 8 23 9 24 10 25 11
REMARK SMILES IDX 26 12 27 13 28 14 29 15 30 16 14 17 13 18 12 19 11 20 10 21
REMARK SMILES IDX 9 22 8 23 7 24 6 25 5 26 4 27 3 28 2 29 1 30
REMARK H PARENT
REMARK Flexibility Score: inf
ROOT
ATOM      1  C   UNL     1     -16.607  -0.897 -15.597  1.00  0.00     0.000 C 
ENDROOT
BRANCH   1   2
ATOM      2  C   UNL     1     -17.870  -0.022 -15.673  1.00  0.00     0.000 C 
BRANCH   2   3
ATOM      3  C   UNL     1     -18.868  -0.333 -14.546  1.00  0.00     0.000 C 
BRANCH   3   4
ATOM      4  C   UNL     1     -19.233  -1.826 -14.471  1.00  0.00     0.000 C 
BRANCH   4   5
ATOM      5  C   UNL     1     -20.414  -2.189 -15.385  1.00  0.00     0.000 C 
BRANCH   5   6
ATOM      6  C   UNL     1     -21.271  -0.965 -15.755  1.00  0.00     0.000 C 
BRANCH   6   7
ATOM      7  C   UNL     1     -22.754  -1.317 -15.953  1.00  0.00     0.000 C 
BRANCH   7   8
ATOM      8  C   UNL     1     -23.689  -0.161 -15.567  1.00  0.00     0.000 C 
BRANCH   8   9
ATOM      9  C   UNL     1     -25.072  -0.332 -16.215  1.00  0.00     0.000 C 
BRANCH   9  10
ATOM     10  C   UNL     1     -26.131   0.609 -15.600  1.00  0.00     0.000 C 
BRANCH  10  11
ATOM     11  C   UNL     1     -27.046  -0.076 -14.566  1.00  0.00     0.000 C 
BRANCH  11  12
ATOM     12  C   UNL     1     -27.598   0.853 -13.468  1.00  0.00     0.006 C 
BRANCH  12  13
ATOM     13  C   UNL     1     -28.538   0.163 -12.467  1.00  0.00     0.053 C 
BRANCH  13  14
ATOM     14  C   UNL     1     -28.541   0.851 -11.136  1.00  0.00     0.041 C 
ATOM     15  O   UNL     1     -28.495   0.176 -10.075  1.00  0.00    -0.550 OA
ATOM     16  O   UNL     1     -28.606   2.235 -11.066  1.00  0.00    -0.550 OA
ENDBRANCH  13  14
ENDBRANCH  12  13
ENDBRANCH  11  12
ENDBRANCH  10  11
ENDBRANCH   9  10
ENDBRANCH   8   9
ENDBRANCH   7   8
ENDBRANCH   6   7
ENDBRANCH   5   6
ENDBRANCH   4   5
ENDBRANCH   3   4
ENDBRANCH   2   3
ENDBRANCH   1   2
BRANCH   1  17
ATOM     17  C   UNL     1     -16.415  -1.785 -16.840  1.00  0.00     0.000 C 
BRANCH  17  18
ATOM     18  C   UNL     1     -17.546  -1.644 -17.883  1.00  0.00     0.000 C 
BRANCH  18  19
ATOM     19  C   UNL     1     -17.026  -1.107 -19.227  1.00  0.00     0.000 C 
BRANCH  19  20
ATOM     20  C   UNL     1     -16.598   0.366 -19.151  1.00  0.00     0.000 C 
BRANCH  20  21
ATOM     21  C   UNL     1     -15.406   0.687 -20.072  1.00  0.00     0.000 C 
BRANCH  21  22
ATOM     22  C   UNL     1     -14.227   1.323 -19.316  1.00  0.00    -0.000 C 
BRANCH  22  23
ATOM     23  C   UNL     1     -14.012   0.812 -17.878  1.00  0.00    -0.000 C 
BRANCH  23  24
ATOM     24  C   UNL     1     -13.894   1.931 -16.819  1.00  0.00    -0.000 C 
BRANCH  24  25
ATOM     25  C   UNL     1     -15.228   2.592 -16.414  1.00  0.00    -0.000 C 
BRANCH  25  26
ATOM     26  C   UNL     1     -15.516   2.648 -14.899  1.00  0.00    -0.000 C 
BRANCH  26  27
ATOM     27  C   UNL     1     -14.428   2.041 -13.997  1.00  0.00    -0.000 C 
BRANCH  27  28
ATOM     28  C   UNL     1     -15.004   1.155 -12.883  1.00  0.00    -0.000 C 
BRANCH  28  29
ATOM     29  C   UNL     1     -15.584   2.009 -11.749  1.00  0.00    -0.003 C 
ATOM     30  C   UNL     1     -17.083   1.779 -11.597  1.00  0.00     0.004 C 
ENDBRANCH  28  29
ENDBRANCH  27  28
ENDBRANCH  26  27
ENDBRANCH  25  26
ENDBRANCH  24  25
ENDBRANCH  23  24
ENDBRANCH  22  23
ENDBRANCH  21  22
ENDBRANCH  20  21
ENDBRANCH  19  20
ENDBRANCH  18  19
ENDBRANCH  17  18
ENDBRANCH   1  17
TORSDOF 26
ENDMDL
MODEL 9
REMARK VINA RESULT:    -5.771      2.786      5.581
REMARK INTER + INTRA:         -18.046
REMARK INTER:                 -14.674
REMARK INTRA:                  -3.373
REMARK UNBOUND:                -3.502
REMARK SMILES CCCCCCCCCCCCCCCCCCCCCCCCCCCC(=O)[O-]
REMARK SMILES IDX 15 1 16 2 17 3 18 4 19 5 20 6 21 7 22 8 23 9 24 10 25 11
REMARK SMILES IDX 26 12 27 13 28 14 29 15 30 16 14 17 13 18 12 19 11 20 10 21
REMARK SMILES IDX 9 22 8 23 7 24 6 25 5 26 4 27 3 28 2 29 1 30
REMARK H PARENT
REMARK Flexibility Score: inf
ROOT
ATOM      1  C   UNL     1     -18.049   0.740 -12.229  1.00  0.00     0.000 C 
ENDROOT
BRANCH   1   2
ATOM      2  C   UNL     1     -17.700  -0.669 -12.736  1.00  0.00     0.000 C 
BRANCH   2   3
ATOM      3  C   UNL     1     -18.647  -1.144 -13.850  1.00  0.00     0.000 C 
BRANCH   3   4
ATOM      4  C   UNL     1     -19.082  -0.003 -14.786  1.00  0.00     0.000 C 
BRANCH   4   5
ATOM      5  C   UNL     1     -19.966  -0.496 -15.942  1.00  0.00     0.000 C 
BRANCH   5   6
ATOM      6  C   UNL     1     -20.948  -1.598 -15.504  1.00  0.00     0.000 C 
BRANCH   6   7
ATOM      7  C   UNL     1     -22.365  -1.386 -16.061  1.00  0.00     0.000 C 
BRANCH   7   8
ATOM      8  C   UNL     1     -22.850   0.062 -15.898  1.00  0.00     0.000 C 
BRANCH   8   9
ATOM      9  C   UNL     1     -24.199   0.111 -15.162  1.00  0.00     0.000 C 
BRANCH   9  10
ATOM     10  C   UNL     1     -25.386  -0.237 -16.085  1.00  0.00     0.000 C 
BRANCH  10  11
ATOM     11  C   UNL     1     -26.091   0.996 -16.684  1.00  0.00     0.000 C 
BRANCH  11  12
ATOM     12  C   UNL     1     -25.574   1.433 -18.068  1.00  0.00     0.006 C 
BRANCH  12  13
ATOM     13  C   UNL     1     -26.080   2.809 -18.529  1.00  0.00     0.053 C 
BRANCH  13  14
ATOM     14  C   UNL     1     -25.309   3.930 -17.899  1.00  0.00     0.041 C 
ATOM     15  O   UNL     1     -24.061   3.845 -17.772  1.00  0.00    -0.550 OA
ATOM     16  O   UNL     1     -25.972   5.060 -17.441  1.00  0.00    -0.550 OA
ENDBRANCH  13  14
ENDBRANCH  12  13
ENDBRANCH  11  12
ENDBRANCH  10  11
ENDBRANCH   9  10
ENDBRANCH   8   9
ENDBRANCH   7   8
ENDBRANCH   6   7
ENDBRANCH   5   6
ENDBRANCH   4   5
ENDBRANCH   3   4
ENDBRANCH   2   3
ENDBRANCH   1   2
BRANCH   1  17
ATOM     17  C   UNL     1     -17.111   1.225 -11.109  1.00  0.00     0.000 C 
BRANCH  17  18
ATOM     18  C   UNL     1     -15.663   1.483 -11.582  1.00  0.00     0.000 C 
BRANCH  18  19
ATOM     19  C   UNL     1     -15.587   2.624 -12.611  1.00  0.00     0.000 C 
BRANCH  19  20
ATOM     20  C   UNL     1     -14.735   2.260 -13.837  1.00  0.00     0.000 C 
BRANCH  20  21
ATOM     21  C   UNL     1     -15.428   1.243 -14.761  1.00  0.00     0.000 C 
BRANCH  21  22
ATOM     22  C   UNL     1     -15.987   1.889 -16.041  1.00  0.00    -0.000 C 
BRANCH  22  23
ATOM     23  C   UNL     1     -15.105   2.987 -16.666  1.00  0.00    -0.000 C 
BRANCH  23  24
ATOM     24  C   UNL     1     -13.932   2.449 -17.515  1.00  0.00    -0.000 C 
BRANCH  24  25
ATOM     25  C   UNL     1     -14.187   1.089 -18.197  1.00  0.00    -0.000 C 
BRANCH  25  26
ATOM     26  C   UNL     1     -14.693   1.153 -19.653  1.00  0.00    -0.000 C 
BRANCH  26  27
ATOM     27  C   UNL     1     -15.771   0.120 -20.025  1.00  0.00    -0.000 C 
BRANCH  27  28
ATOM     28  C   UNL     1     -16.964   0.131 -19.059  1.00  0.00    -0.000 C 
BRANCH  28  29
ATOM     29  C   UNL     1     -17.314  -1.291 -18.605  1.00  0.00    -0.003 C 
ATOM     30  C   UNL     1     -16.525  -1.681 -17.360  1.00  0.00     0.004 C 
ENDBRANCH  28  29
ENDBRANCH  27  28
ENDBRANCH  26  27
ENDBRANCH  25  26
ENDBRANCH  24  25
ENDBRANCH  23  24
ENDBRANCH  22  23
ENDBRANCH  21  22
ENDBRANCH  20  21
ENDBRANCH  19  20
ENDBRANCH  18  19
ENDBRANCH  17  18
ENDBRANCH   1  17
TORSDOF 26
ENDMDL
