MODEL 1
REMARK VINA RESULT:    -3.897      0.000      0.000
REMARK INTER + INTRA:          -7.574
REMARK INTER:                  -6.632
REMARK INTRA:                  -0.942
REMARK UNBOUND:                -0.942
REMARK SMILES CCCCCCCCCCCCCC(=O)[O-]
REMARK SMILES IDX 8 1 9 2 10 3 11 4 12 5 13 6 14 7 15 8 16 9 7 10 6 11 5 12
REMARK SMILES IDX 4 13 3 14 2 15 1 16
REMARK H PARENT
REMARK Flexibility Score: inf
ROOT
ATOM      1  C   UNL     1      29.348 -11.127  30.602  1.00  0.00     0.000 C 
ENDROOT
BRANCH   1   2
ATOM      2  C   UNL     1      27.944 -10.979  31.201  1.00  0.00     0.000 C 
BRANCH   2   3
ATOM      3  C   UNL     1      27.306  -9.645  30.782  1.00  0.00     0.000 C 
BRANCH   3   4
ATOM      4  C   UNL     1      27.095  -9.538  29.264  1.00  0.00     0.000 C 
BRANCH   4   5
ATOM      5  C   UNL     1      25.608  -9.513  28.874  1.00  0.00     0.006 C 
BRANCH   5   6
ATOM      6  C   UNL     1      24.759  -8.718  29.876  1.00  0.00     0.053 C 
BRANCH   6   7
ATOM      7  C   UNL     1      23.997  -7.614  29.209  1.00  0.00     0.041 C 
ATOM      8  O   UNL     1      23.267  -7.861  28.213  1.00  0.00    -0.550 OA
ATOM      9  O   UNL     1      24.067  -6.319  29.706  1.00  0.00    -0.550 OA
ENDBRANCH   6   7
ENDBRANCH   5   6
ENDBRANCH   4   5
ENDBRANCH   3   4
ENDBRANCH   2   3
ENDBRANCH   1   2
BRANCH   1  10
ATOM     10  C   UNL     1      30.423 -10.670  31.601  1.00  0.00     0.000 C 
BRANCH  10  11
ATOM     11  C   UNL     1      31.738 -10.275  30.912  1.00  0.00    -0.000 C 
BRANCH  11  12
ATOM     12  C   UNL     1      32.147  -8.821  31.205  1.00  0.00    -0.000 C 
BRANCH  12  13
ATOM     13  C   UNL     1      30.948  -7.937  31.583  1.00  0.00    -0.000 C 
BRANCH  13  14
ATOM     14  C   UNL     1      31.148  -7.216  32.927  1.00  0.00    -0.000 C 
BRANCH  14  15
ATOM     15  C   UNL     1      31.828  -8.106  33.979  1.00  0.00    -0.003 C 
ATOM     16  C   UNL     1      32.858  -7.348  34.815  1.00  0.00     0.004 C 
ENDBRANCH  14  15
ENDBRANCH  13  14
ENDBRANCH  12  13
ENDBRANCH  11  12
ENDBRANCH  10  11
ENDBRANCH   1  10
TORSDOF 12
ENDMDL
MODEL 2
REMARK VINA RESULT:    -3.742      3.061      6.503
REMARK INTER + INTRA:          -7.309
REMARK INTER:                  -5.850
REMARK INTRA:                  -1.459
REMARK UNBOUND:                -0.942
REMARK SMILES CCCCCCCCCCCCCC(=O)[O-]
REMARK SMILES IDX 8 1 9 2 10 3 11 4 12 5 13 6 14 7 15 8 16 9 7 10 6 11 5 12
REMARK SMILES IDX 4 13 3 14 2 15 1 16
REMARK H PARENT
REMARK Flexibility Score: inf
ROOT
ATOM      1  C   UNL     1      27.473  -9.877  28.649  1.00  0.00     0.000 C 
ENDROOT
BRANCH   1   2
ATOM      2  C   UNL     1      28.341 -10.603  29.684  1.00  0.00     0.000 C 
BRANCH   2   3
ATOM      3  C   UNL     1      28.902  -9.617  30.721  1.00  0.00     0.000 C 
BRANCH   3   4
ATOM      4  C   UNL     1      30.066 -10.206  31.532  1.00  0.00     0.000 C 
BRANCH   4   5
ATOM      5  C   UNL     1      31.416  -9.551  31.192  1.00  0.00     0.006 C 
BRANCH   5   6
ATOM      6  C   UNL     1      31.370  -8.023  31.333  1.00  0.00     0.053 C 
BRANCH   6   7
ATOM      7  C   UNL     1      30.979  -7.601  32.716  1.00  0.00     0.041 C 
ATOM      8  O   UNL     1      29.973  -6.864  32.892  1.00  0.00    -0.550 OA
ATOM      9  O   UNL     1      31.705  -8.047  33.813  1.00  0.00    -0.550 OA
ENDBRANCH   6   7
ENDBRANCH   5   6
ENDBRANCH   4   5
ENDBRANCH   3   4
ENDBRANCH   2   3
ENDBRANCH   1   2
BRANCH   1  10
ATOM     10  C   UNL     1      26.084 -10.526  28.544  1.00  0.00     0.000 C 
BRANCH  10  11
ATOM     11  C   UNL     1      24.948  -9.492  28.538  1.00  0.00    -0.000 C 
BRANCH  11  12
ATOM     12  C   UNL     1      25.102  -8.436  29.646  1.00  0.00    -0.000 C 
BRANCH  12  13
ATOM     13  C   UNL     1      23.867  -8.354  30.557  1.00  0.00    -0.000 C 
BRANCH  13  14
ATOM     14  C   UNL     1      23.994  -9.244  31.805  1.00  0.00    -0.000 C 
BRANCH  14  15
ATOM     15  C   UNL     1      25.456  -9.491  32.207  1.00  0.00    -0.003 C 
ATOM     16  C   UNL     1      25.785 -10.976  32.349  1.00  0.00     0.004 C 
ENDBRANCH  14  15
ENDBRANCH  13  14
ENDBRANCH  12  13
ENDBRANCH  11  12
ENDBRANCH  10  11
ENDBRANCH   1  10
TORSDOF 12
ENDMDL
MODEL 3
REMARK VINA RESULT:    -3.711      3.112      6.453
REMARK INTER + INTRA:          -7.256
REMARK INTER:                  -5.796
REMARK INTRA:                  -1.460
REMARK UNBOUND:                -0.942
REMARK SMILES CCCCCCCCCCCCCC(=O)[O-]
REMARK SMILES IDX 8 1 9 2 10 3 11 4 12 5 13 6 14 7 15 8 16 9 7 10 6 11 5 12
REMARK SMILES IDX 4 13 3 14 2 15 1 16
REMARK H PARENT
REMARK Flexibility Score: inf
ROOT
ATOM      1  C   UNL     1      27.856  -9.740  30.726  1.00  0.00     0.000 C 
ENDROOT
BRANCH   1   2
ATOM      2  C   UNL     1      28.016 -11.183  31.221  1.00  0.00     0.000 C 
BRANCH   2   3
ATOM      3  C   UNL     1      29.482 -11.485  31.570  1.00  0.00     0.000 C 
BRANCH   3   4
ATOM      4  C   UNL     1      30.473 -10.619  30.778  1.00  0.00     0.000 C 
BRANCH   4   5
ATOM      5  C   UNL     1      31.441  -9.844  31.689  1.00  0.00     0.006 C 
BRANCH   5   6
ATOM      6  C   UNL     1      31.287  -8.324  31.538  1.00  0.00     0.053 C 
BRANCH   6   7
ATOM      7  C   UNL     1      30.905  -7.671  32.831  1.00  0.00     0.041 C 
ATOM      8  O   UNL     1      31.462  -8.019  33.905  1.00  0.00    -0.550 OA
ATOM      9  O   UNL     1      29.956  -6.656  32.846  1.00  0.00    -0.550 OA
ENDBRANCH   6   7
ENDBRANCH   5   6
ENDBRANCH   4   5
ENDBRANCH   3   4
ENDBRANCH   2   3
ENDBRANCH   1   2
BRANCH   1  10
ATOM     10  C   UNL     1      27.188  -9.704  29.343  1.00  0.00     0.000 C 
BRANCH  10  11
ATOM     11  C   UNL     1      25.787  -9.075  29.381  1.00  0.00    -0.000 C 
BRANCH  11  12
ATOM     12  C   UNL     1      24.671 -10.124  29.534  1.00  0.00    -0.000 C 
BRANCH  12  13
ATOM     13  C   UNL     1      23.913  -9.988  30.864  1.00  0.00    -0.000 C 
BRANCH  13  14
ATOM     14  C   UNL     1      24.307  -8.718  31.640  1.00  0.00    -0.000 C 
BRANCH  14  15
ATOM     15  C   UNL     1      24.870  -9.032  33.035  1.00  0.00    -0.003 C 
ATOM     16  C   UNL     1      24.973 -10.532  33.305  1.00  0.00     0.004 C 
ENDBRANCH  14  15
ENDBRANCH  13  14
ENDBRANCH  12  13
ENDBRANCH  11  12
ENDBRANCH  10  11
ENDBRANCH   1  10
TORSDOF 12
ENDMDL
MODEL 4
REMARK VINA RESULT:    -3.662     18.705     20.742
REMARK INTER + INTRA:          -7.174
REMARK INTER:                  -5.898
REMARK INTRA:                  -1.276
REMARK UNBOUND:                -0.942
REMARK SMILES CCCCCCCCCCCCCC(=O)[O-]
REMARK SMILES IDX 8 1 9 2 10 3 11 4 12 5 13 6 14 7 15 8 16 9 7 10 6 11 5 12
REMARK SMILES IDX 4 13 3 14 2 15 1 16
REMARK H PARENT
REMARK Flexibility Score: inf
ROOT
ATOM      1  C   UNL     1      38.649   3.712  39.852  1.00  0.00     0.000 C 
ENDROOT
BRANCH   1   2
ATOM      2  C   UNL     1      37.930   4.835  39.094  1.00  0.00     0.000 C 
BRANCH   2   3
ATOM      3  C   UNL     1      36.528   5.079  39.673  1.00  0.00     0.000 C 
BRANCH   3   4
ATOM      4  C   UNL     1      36.435   6.386  40.475  1.00  0.00     0.000 C 
BRANCH   4   5
ATOM      5  C   UNL     1      35.069   6.566  41.158  1.00  0.00     0.006 C 
BRANCH   5   6
ATOM      6  C   UNL     1      35.126   6.250  42.659  1.00  0.00     0.053 C 
BRANCH   6   7
ATOM      7  C   UNL     1      33.760   6.193  43.271  1.00  0.00     0.041 C 
ATOM      8  O   UNL     1      33.043   5.168  43.125  1.00  0.00    -0.550 OA
ATOM      9  O   UNL     1      33.290   7.259  44.027  1.00  0.00    -0.550 OA
ENDBRANCH   6   7
ENDBRANCH   5   6
ENDBRANCH   4   5
ENDBRANCH   3   4
ENDBRANCH   2   3
ENDBRANCH   1   2
BRANCH   1  10
ATOM     10  C   UNL     1      39.504   4.281  40.995  1.00  0.00     0.000 C 
BRANCH  10  11
ATOM     11  C   UNL     1      40.125   5.642  40.647  1.00  0.00    -0.000 C 
BRANCH  11  12
ATOM     12  C   UNL     1      40.006   6.659  41.796  1.00  0.00    -0.000 C 
BRANCH  12  13
ATOM     13  C   UNL     1      39.493   6.020  43.096  1.00  0.00    -0.000 C 
BRANCH  13  14
ATOM     14  C   UNL     1      38.539   6.946  43.871  1.00  0.00    -0.000 C 
BRANCH  14  15
ATOM     15  C   UNL     1      38.896   7.045  45.363  1.00  0.00    -0.003 C 
ATOM     16  C   UNL     1      37.809   7.739  46.183  1.00  0.00     0.004 C 
ENDBRANCH  14  15
ENDBRANCH  13  14
ENDBRANCH  12  13
ENDBRANCH  11  12
ENDBRANCH  10  11
ENDBRANCH   1  10
TORSDOF 12
ENDMDL
MODEL 5
REMARK VINA RESULT:    -3.655      3.341      6.685
REMARK INTER + INTRA:          -7.161
REMARK INTER:                  -5.964
REMARK INTRA:                  -1.197
REMARK UNBOUND:                -0.942
REMARK SMILES CCCCCCCCCCCCCC(=O)[O-]
REMARK SMILES IDX 8 1 9 2 10 3 11 4 12 5 13 6 14 7 15 8 16 9 7 10 6 11 5 12
REMARK SMILES IDX 4 13 3 14 2 15 1 16
REMARK H PARENT
REMARK Flexibility Score: inf
ROOT
ATOM      1  C   UNL     1      28.528 -11.065  31.127  1.00  0.00     0.000 C 
ENDROOT
BRANCH   1   2
ATOM      2  C   UNL     1      29.770 -11.381  30.283  1.00  0.00     0.000 C 
BRANCH   2   3
ATOM      3  C   UNL     1      31.019 -11.510  31.168  1.00  0.00     0.000 C 
BRANCH   3   4
ATOM      4  C   UNL     1      32.124 -10.513  30.785  1.00  0.00     0.000 C 
BRANCH   4   5
ATOM      5  C   UNL     1      31.838  -9.089  31.293  1.00  0.00     0.006 C 
BRANCH   5   6
ATOM      6  C   UNL     1      31.437  -9.072  32.775  1.00  0.00     0.053 C 
BRANCH   6   7
ATOM      7  C   UNL     1      31.710  -7.745  33.412  1.00  0.00     0.041 C 
ATOM      8  O   UNL     1      31.225  -6.693  32.917  1.00  0.00    -0.550 OA
ATOM      9  O   UNL     1      32.473  -7.671  34.570  1.00  0.00    -0.550 OA
ENDBRANCH   6   7
ENDBRANCH   5   6
ENDBRANCH   4   5
ENDBRANCH   3   4
ENDBRANCH   2   3
ENDBRANCH   1   2
BRANCH   1  10
ATOM     10  C   UNL     1      27.992  -9.660  30.811  1.00  0.00     0.000 C 
BRANCH  10  11
ATOM     11  C   UNL     1      27.337  -9.576  29.424  1.00  0.00    -0.000 C 
BRANCH  11  12
ATOM     12  C   UNL     1      25.832  -9.892  29.460  1.00  0.00    -0.000 C 
BRANCH  12  13
ATOM     13  C   UNL     1      24.963  -8.641  29.254  1.00  0.00    -0.000 C 
BRANCH  13  14
ATOM     14  C   UNL     1      24.213  -8.228  30.533  1.00  0.00    -0.000 C 
BRANCH  14  15
ATOM     15  C   UNL     1      24.203  -9.338  31.595  1.00  0.00    -0.003 C 
ATOM     16  C   UNL     1      24.861  -8.905  32.905  1.00  0.00     0.004 C 
ENDBRANCH  14  15
ENDBRANCH  13  14
ENDBRANCH  12  13
ENDBRANCH  11  12
ENDBRANCH  10  11
ENDBRANCH   1  10
TORSDOF 12
ENDMDL
MODEL 6
REMARK VINA RESULT:    -3.617      1.847      2.208
REMARK INTER + INTRA:          -7.096
REMARK INTER:                  -6.144
REMARK INTRA:                  -0.952
REMARK UNBOUND:                -0.942
REMARK SMILES CCCCCCCCCCCCCC(=O)[O-]
REMARK SMILES IDX 8 1 9 2 10 3 11 4 12 5 13 6 14 7 15 8 16 9 7 10 6 11 5 12
REMARK SMILES IDX 4 13 3 14 2 15 1 16
REMARK H PARENT
REMARK Flexibility Score: inf
ROOT
ATOM      1  C   UNL     1      28.707  -9.809  30.505  1.00  0.00     0.000 C 
ENDROOT
BRANCH   1   2
ATOM      2  C   UNL     1      27.549 -10.596  29.878  1.00  0.00     0.000 C 
BRANCH   2   3
ATOM      3  C   UNL     1      26.964  -9.845  28.671  1.00  0.00     0.000 C 
BRANCH   3   4
ATOM      4  C   UNL     1      25.452  -9.602  28.799  1.00  0.00     0.000 C 
BRANCH   4   5
ATOM      5  C   UNL     1      25.115  -8.495  29.812  1.00  0.00     0.006 C 
BRANCH   5   6
ATOM      6  C   UNL     1      23.932  -8.876  30.713  1.00  0.00     0.053 C 
BRANCH   6   7
ATOM      7  C   UNL     1      24.378  -9.249  32.093  1.00  0.00     0.041 C 
ATOM      8  O   UNL     1      25.599  -9.201  32.398  1.00  0.00    -0.550 OA
ATOM      9  O   UNL     1      23.445  -9.622  33.051  1.00  0.00    -0.550 OA
ENDBRANCH   6   7
ENDBRANCH   5   6
ENDBRANCH   4   5
ENDBRANCH   3   4
ENDBRANCH   2   3
ENDBRANCH   1   2
BRANCH   1  10
ATOM     10  C   UNL     1      29.648 -10.742  31.282  1.00  0.00     0.000 C 
BRANCH  10  11
ATOM     11  C   UNL     1      31.088 -10.704  30.750  1.00  0.00    -0.000 C 
BRANCH  11  12
ATOM     12  C   UNL     1      32.012  -9.818  31.604  1.00  0.00    -0.000 C 
BRANCH  12  13
ATOM     13  C   UNL     1      31.890  -8.327  31.251  1.00  0.00    -0.000 C 
BRANCH  13  14
ATOM     14  C   UNL     1      31.338  -7.489  32.416  1.00  0.00    -0.000 C 
BRANCH  14  15
ATOM     15  C   UNL     1      31.542  -8.167  33.779  1.00  0.00    -0.003 C 
ATOM     16  C   UNL     1      32.650  -7.513  34.603  1.00  0.00     0.004 C 
ENDBRANCH  14  15
ENDBRANCH  13  14
ENDBRANCH  12  13
ENDBRANCH  11  12
ENDBRANCH  10  11
ENDBRANCH   1  10
TORSDOF 12
ENDMDL
MODEL 7
REMARK VINA RESULT:    -3.577      2.944      6.684
REMARK INTER + INTRA:          -7.028
REMARK INTER:                  -6.012
REMARK INTRA:                  -1.016
REMARK UNBOUND:                -0.942
REMARK SMILES CCCCCCCCCCCCCC(=O)[O-]
REMARK SMILES IDX 8 1 9 2 10 3 11 4 12 5 13 6 14 7 15 8 16 9 7 10 6 11 5 12
REMARK SMILES IDX 4 13 3 14 2 15 1 16
REMARK H PARENT
REMARK Flexibility Score: inf
ROOT
ATOM      1  C   UNL     1      28.390 -11.412  30.975  1.00  0.00     0.000 C 
ENDROOT
BRANCH   1   2
ATOM      2  C   UNL     1      29.753 -11.867  31.512  1.00  0.00     0.000 C 
BRANCH   2   3
ATOM      3  C   UNL     1      30.892 -11.388  30.598  1.00  0.00     0.000 C 
BRANCH   3   4
ATOM      4  C   UNL     1      31.723 -10.259  31.226  1.00  0.00     0.000 C 
BRANCH   4   5
ATOM      5  C   UNL     1      31.110  -8.869  30.985  1.00  0.00     0.006 C 
BRANCH   5   6
ATOM      6  C   UNL     1      31.843  -7.769  31.766  1.00  0.00     0.053 C 
BRANCH   6   7
ATOM      7  C   UNL     1      31.126  -7.409  33.030  1.00  0.00     0.041 C 
ATOM      8  O   UNL     1      30.067  -6.728  32.985  1.00  0.00    -0.550 OA
ATOM      9  O   UNL     1      31.608  -7.849  34.256  1.00  0.00    -0.550 OA
ENDBRANCH   6   7
ENDBRANCH   5   6
ENDBRANCH   4   5
ENDBRANCH   3   4
ENDBRANCH   2   3
ENDBRANCH   1   2
BRANCH   1  10
ATOM     10  C   UNL     1      28.486 -11.024  29.491  1.00  0.00     0.000 C 
BRANCH  10  11
ATOM     11  C   UNL     1      27.446  -9.967  29.090  1.00  0.00    -0.000 C 
BRANCH  11  12
ATOM     12  C   UNL     1      26.719  -9.360  30.303  1.00  0.00    -0.000 C 
BRANCH  12  13
ATOM     13  C   UNL     1      25.190  -9.407  30.158  1.00  0.00    -0.000 C 
BRANCH  13  14
ATOM     14  C   UNL     1      24.726  -9.136  28.716  1.00  0.00    -0.000 C 
BRANCH  14  15
ATOM     15  C   UNL     1      23.687  -8.007  28.634  1.00  0.00    -0.003 C 
ATOM     16  C   UNL     1      23.869  -6.958  29.731  1.00  0.00     0.004 C 
ENDBRANCH  14  15
ENDBRANCH  13  14
ENDBRANCH  12  13
ENDBRANCH  11  12
ENDBRANCH  10  11
ENDBRANCH   1  10
TORSDOF 12
ENDMDL
MODEL 8
REMARK VINA RESULT:    -3.508      3.095      3.749
REMARK INTER + INTRA:          -6.911
REMARK INTER:                  -5.989
REMARK INTRA:                  -0.922
REMARK UNBOUND:                -0.942
REMARK SMILES CCCCCCCCCCCCCC(=O)[O-]
REMARK SMILES IDX 8 1 9 2 10 3 11 4 12 5 13 6 14 7 15 8 16 9 7 10 6 11 5 12
REMARK SMILES IDX 4 13 3 14 2 15 1 16
REMARK H PARENT
REMARK Flexibility Score: inf
ROOT
ATOM      1  C   UNL     1      28.408 -10.195  30.107  1.00  0.00     0.000 C 
ENDROOT
BRANCH   1   2
ATOM      2  C   UNL     1      27.203  -9.769  29.259  1.00  0.00     0.000 C 
BRANCH   2   3
ATOM      3  C   UNL     1      26.045  -9.293  30.149  1.00  0.00     0.000 C 
BRANCH   3   4
ATOM      4  C   UNL     1      26.226  -9.690  31.623  1.00  0.00     0.000 C 
BRANCH   4   5
ATOM      5  C   UNL     1      24.895 -10.041  32.309  1.00  0.00     0.006 C 
BRANCH   5   6
ATOM      6  C   UNL     1      24.591  -9.112  33.492  1.00  0.00     0.053 C 
BRANCH   6   7
ATOM      7  C   UNL     1      24.592  -9.849  34.796  1.00  0.00     0.041 C 
ATOM      8  O   UNL     1      24.793 -11.092  34.820  1.00  0.00    -0.550 OA
ATOM      9  O   UNL     1      24.401  -9.160  35.987  1.00  0.00    -0.550 OA
ENDBRANCH   6   7
ENDBRANCH   5   6
ENDBRANCH   4   5
ENDBRANCH   3   4
ENDBRANCH   2   3
ENDBRANCH   1   2
BRANCH   1  10
ATOM     10  C   UNL     1      29.164 -11.357  29.443  1.00  0.00     0.000 C 
BRANCH  10  11
ATOM     11  C   UNL     1      30.510 -11.650  30.122  1.00  0.00    -0.000 C 
BRANCH  11  12
ATOM     12  C   UNL     1      30.803 -10.694  31.291  1.00  0.00    -0.000 C 
BRANCH  12  13
ATOM     13  C   UNL     1      31.999  -9.770  31.011  1.00  0.00    -0.000 C 
BRANCH  13  14
ATOM     14  C   UNL     1      31.658  -8.284  31.222  1.00  0.00    -0.000 C 
BRANCH  14  15
ATOM     15  C   UNL     1      30.373  -8.085  32.041  1.00  0.00    -0.003 C 
ATOM     16  C   UNL     1      30.327  -6.729  32.745  1.00  0.00     0.004 C 
ENDBRANCH  14  15
ENDBRANCH  13  14
ENDBRANCH  12  13
ENDBRANCH  11  12
ENDBRANCH  10  11
ENDBRANCH   1  10
TORSDOF 12
ENDMDL
MODEL 9
REMARK VINA RESULT:    -3.431     16.603     17.977
REMARK INTER + INTRA:          -6.780
REMARK INTER:                  -5.588
REMARK INTRA:                  -1.192
REMARK UNBOUND:                -0.942
REMARK SMILES CCCCCCCCCCCCCC(=O)[O-]
REMARK SMILES IDX 8 1 9 2 10 3 11 4 12 5 13 6 14 7 15 8 16 9 7 10 6 11 5 12
REMARK SMILES IDX 4 13 3 14 2 15 1 16
REMARK H PARENT
REMARK Flexibility Score: inf
ROOT
ATOM      1  C   UNL     1      20.173   0.580  43.629  1.00  0.00     0.000 C 
ENDROOT
BRANCH   1   2
ATOM      2  C   UNL     1      20.522  -0.321  44.821  1.00  0.00     0.000 C 
BRANCH   2   3
ATOM      3  C   UNL     1      20.833  -1.752  44.357  1.00  0.00     0.000 C 
BRANCH   3   4
ATOM      4  C   UNL     1      20.976  -1.863  42.831  1.00  0.00     0.000 C 
BRANCH   4   5
ATOM      5  C   UNL     1      22.440  -1.779  42.367  1.00  0.00     0.006 C 
BRANCH   5   6
ATOM      6  C   UNL     1      22.556  -1.524  40.857  1.00  0.00     0.053 C 
BRANCH   6   7
ATOM      7  C   UNL     1      21.980  -0.198  40.469  1.00  0.00     0.041 C 
ATOM      8  O   UNL     1      21.024  -0.138  39.651  1.00  0.00    -0.550 OA
ATOM      9  O   UNL     1      22.476   0.971  41.032  1.00  0.00    -0.550 OA
ENDBRANCH   6   7
ENDBRANCH   5   6
ENDBRANCH   4   5
ENDBRANCH   3   4
ENDBRANCH   2   3
ENDBRANCH   1   2
BRANCH   1  10
ATOM     10  C   UNL     1      19.875   2.014  44.093  1.00  0.00     0.000 C 
BRANCH  10  11
ATOM     11  C   UNL     1      20.013   2.184  45.614  1.00  0.00    -0.000 C 
BRANCH  11  12
ATOM     12  C   UNL     1      20.256   3.646  46.026  1.00  0.00    -0.000 C 
BRANCH  12  13
ATOM     13  C   UNL     1      20.963   4.458  44.930  1.00  0.00    -0.000 C 
BRANCH  13  14
ATOM     14  C   UNL     1      22.497   4.371  45.027  1.00  0.00    -0.000 C 
BRANCH  14  15
ATOM     15  C   UNL     1      23.152   4.004  43.687  1.00  0.00    -0.003 C 
ATOM     16  C   UNL     1      22.216   4.211  42.497  1.00  0.00     0.004 C 
ENDBRANCH  14  15
ENDBRANCH  13  14
ENDBRANCH  12  13
ENDBRANCH  11  12
ENDBRANCH  10  11
ENDBRANCH   1  10
TORSDOF 12
ENDMDL
