MODEL 1
REMARK VINA RESULT:    -4.446      0.000      0.000
REMARK INTER + INTRA:          -5.515
REMARK INTER:                  -5.226
REMARK INTRA:                  -0.289
REMARK UNBOUND:                -0.289
REMARK SMILES O=c1c(O)c(-c2ccc(O)cc2)oc2cc(O)cc(O)c12
REMARK SMILES IDX 5 1 3 2 2 3 1 4 21 5 19 6 18 7 16 8 15 9 14 10 13 11 6 12
REMARK SMILES IDX 7 13 8 14 9 15 12 16 11 17 10 18 4 20 20 22 17 24
REMARK H PARENT 10 19 4 21 20 23 17 25
REMARK Flexibility Score: inf
ROOT
ATOM      1  C   UNL     1     188.832 199.495 213.202  1.00  0.00     0.180 A 
ATOM      2  C   UNL     1     190.135 200.001 213.361  1.00  0.00     0.208 A 
ATOM      3  C   UNL     1     191.188 199.105 213.603  1.00  0.00     0.238 A 
ATOM      4  O   UNL     1     192.342 199.568 213.800  1.00  0.00    -0.285 OA
ATOM      5  C   UNL     1     190.929 197.714 213.668  1.00  0.00     0.111 A 
ATOM      6  C   UNL     1     191.926 196.713 213.869  1.00  0.00     0.134 A 
ATOM      7  C   UNL     1     191.539 195.379 214.046  1.00  0.00     0.093 A 
ATOM      8  C   UNL     1     190.196 195.001 213.964  1.00  0.00     0.123 A 
ATOM      9  C   UNL     1     189.222 195.963 213.708  1.00  0.00     0.094 A 
ATOM     10  C   UNL     1     189.574 197.307 213.564  1.00  0.00     0.146 A 
ATOM     11  O   UNL     1     188.612 198.193 213.332  1.00  0.00    -0.452 OA
ENDROOT
BRANCH   1  12
ATOM     12  C   UNL     1     187.675 200.375 212.918  1.00  0.00     0.021 A 
ATOM     13  C   UNL     1     187.244 200.618 211.601  1.00  0.00     0.016 A 
ATOM     14  C   UNL     1     186.134 201.433 211.359  1.00  0.00     0.047 A 
ATOM     15  C   UNL     1     185.434 202.004 212.426  1.00  0.00     0.115 A 
ATOM     16  C   UNL     1     186.954 200.935 213.986  1.00  0.00     0.016 A 
ATOM     17  C   UNL     1     185.846 201.751 213.741  1.00  0.00     0.047 A 
BRANCH  15  18
ATOM     18  O   UNL     1     184.331 202.816 212.171  1.00  0.00    -0.508 OA
ATOM     19  H   UNL     1     183.800 202.733 211.311  1.00  0.00     0.293 HD
ENDBRANCH  15  18
ENDBRANCH   1  12
BRANCH   2  20
ATOM     20  O   UNL     1     190.365 201.379 213.316  1.00  0.00    -0.502 OA
ATOM     21  H   UNL     1     191.297 201.775 213.303  1.00  0.00     0.293 HD
ENDBRANCH   2  20
BRANCH   6  22
ATOM     22  O   UNL     1     193.301 196.971 213.875  1.00  0.00    -0.507 OA
ATOM     23  H   UNL     1     193.775 197.573 213.220  1.00  0.00     0.293 HD
ENDBRANCH   6  22
BRANCH   8  24
ATOM     24  O   UNL     1     189.822 193.670 214.125  1.00  0.00    -0.508 OA
ATOM     25  H   UNL     1     190.488 192.963 214.416  1.00  0.00     0.293 HD
ENDBRANCH   8  24
TORSDOF 5
ENDMDL
MODEL 2
REMARK VINA RESULT:    -4.400      3.523      5.795
REMARK INTER + INTRA:          -5.461
REMARK INTER:                  -5.161
REMARK INTRA:                  -0.300
REMARK UNBOUND:                -0.289
REMARK SMILES O=c1c(O)c(-c2ccc(O)cc2)oc2cc(O)cc(O)c12
REMARK SMILES IDX 5 1 3 2 2 3 1 4 21 5 19 6 18 7 16 8 15 9 14 10 13 11 6 12
REMARK SMILES IDX 7 13 8 14 9 15 12 16 11 17 10 18 4 20 20 22 17 24
REMARK H PARENT 10 19 4 21 20 23 17 25
REMARK Flexibility Score: inf
ROOT
ATOM      1  C   UNL     1     189.414 202.358 212.654  1.00  0.00     0.180 A 
ATOM      2  C   UNL     1     190.305 201.271 212.602  1.00  0.00     0.208 A 
ATOM      3  C   UNL     1     191.654 201.481 212.926  1.00  0.00     0.238 A 
ATOM      4  O   UNL     1     192.458 200.517 212.824  1.00  0.00    -0.285 OA
ATOM      5  C   UNL     1     192.094 202.770 213.314  1.00  0.00     0.111 A 
ATOM      6  C   UNL     1     193.430 203.088 213.703  1.00  0.00     0.134 A 
ATOM      7  C   UNL     1     193.780 204.423 213.942  1.00  0.00     0.093 A 
ATOM      8  C   UNL     1     192.827 205.442 213.870  1.00  0.00     0.123 A 
ATOM      9  C   UNL     1     191.507 205.133 213.550  1.00  0.00     0.094 A 
ATOM     10  C   UNL     1     191.136 203.815 213.271  1.00  0.00     0.146 A 
ATOM     11  O   UNL     1     189.869 203.566 212.959  1.00  0.00    -0.452 OA
ENDROOT
BRANCH   1  12
ATOM     12  C   UNL     1     187.972 202.209 212.351  1.00  0.00     0.021 A 
ATOM     13  C   UNL     1     187.044 201.866 213.351  1.00  0.00     0.016 A 
ATOM     14  C   UNL     1     185.684 201.756 213.046  1.00  0.00     0.047 A 
ATOM     15  C   UNL     1     185.233 201.997 211.745  1.00  0.00     0.115 A 
ATOM     16  C   UNL     1     187.508 202.471 211.051  1.00  0.00     0.016 A 
ATOM     17  C   UNL     1     186.148 202.358 210.748  1.00  0.00     0.047 A 
BRANCH  15  18
ATOM     18  O   UNL     1     183.875 201.881 211.454  1.00  0.00    -0.508 OA
ATOM     19  H   UNL     1     183.303 202.696 211.263  1.00  0.00     0.293 HD
ENDBRANCH  15  18
ENDBRANCH   1  12
BRANCH   2  20
ATOM     20  O   UNL     1     189.856 200.012 212.194  1.00  0.00    -0.502 OA
ATOM     21  H   UNL     1     189.359 199.867 211.324  1.00  0.00     0.293 HD
ENDBRANCH   2  20
BRANCH   6  22
ATOM     22  O   UNL     1     194.435 202.135 213.894  1.00  0.00    -0.507 OA
ATOM     23  H   UNL     1     195.417 202.295 213.731  1.00  0.00     0.293 HD
ENDBRANCH   6  22
BRANCH   8  24
ATOM     24  O   UNL     1     193.181 206.765 214.125  1.00  0.00    -0.508 OA
ATOM     25  H   UNL     1     194.125 207.019 214.391  1.00  0.00     0.293 HD
ENDBRANCH   8  24
TORSDOF 5
ENDMDL
MODEL 3
REMARK VINA RESULT:    -4.360      3.035      6.744
REMARK INTER + INTRA:          -5.413
REMARK INTER:                  -5.176
REMARK INTRA:                  -0.238
REMARK UNBOUND:                -0.289
REMARK SMILES O=c1c(O)c(-c2ccc(O)cc2)oc2cc(O)cc(O)c12
REMARK SMILES IDX 5 1 3 2 2 3 1 4 21 5 19 6 18 7 16 8 15 9 14 10 13 11 6 12
REMARK SMILES IDX 7 13 8 14 9 15 12 16 11 17 10 18 4 20 20 22 17 24
REMARK H PARENT 10 19 4 21 20 23 17 25
REMARK Flexibility Score: inf
ROOT
ATOM      1  C   UNL     1     188.767 200.318 212.103  1.00  0.00     0.180 A 
ATOM      2  C   UNL     1     188.067 200.804 210.984  1.00  0.00     0.208 A 
ATOM      3  C   UNL     1     188.198 202.156 210.633  1.00  0.00     0.238 A 
ATOM      4  O   UNL     1     187.526 202.598 209.664  1.00  0.00    -0.285 OA
ATOM      5  C   UNL     1     189.040 203.004 211.394  1.00  0.00     0.111 A 
ATOM      6  C   UNL     1     189.279 204.381 211.105  1.00  0.00     0.134 A 
ATOM      7  C   UNL     1     190.027 205.154 212.001  1.00  0.00     0.093 A 
ATOM      8  C   UNL     1     190.600 204.584 213.142  1.00  0.00     0.123 A 
ATOM      9  C   UNL     1     190.422 203.228 213.400  1.00  0.00     0.094 A 
ATOM     10  C   UNL     1     189.650 202.438 212.544  1.00  0.00     0.146 A 
ATOM     11  O   UNL     1     189.497 201.151 212.834  1.00  0.00    -0.452 OA
ENDROOT
BRANCH   1  12
ATOM     12  C   UNL     1     188.698 198.898 212.519  1.00  0.00     0.021 A 
ATOM     13  C   UNL     1     189.360 197.890 211.796  1.00  0.00     0.016 A 
ATOM     14  C   UNL     1     189.301 196.559 212.223  1.00  0.00     0.047 A 
ATOM     15  C   UNL     1     188.594 196.222 213.381  1.00  0.00     0.115 A 
ATOM     16  C   UNL     1     188.007 198.555 213.693  1.00  0.00     0.016 A 
ATOM     17  C   UNL     1     187.949 197.224 214.117  1.00  0.00     0.047 A 
BRANCH  15  18
ATOM     18  O   UNL     1     188.542 194.893 213.793  1.00  0.00    -0.508 OA
ATOM     19  H   UNL     1     187.756 194.532 214.323  1.00  0.00     0.293 HD
ENDBRANCH  15  18
ENDBRANCH   1  12
BRANCH   2  20
ATOM     20  O   UNL     1     187.223 199.956 210.259  1.00  0.00    -0.502 OA
ATOM     21  H   UNL     1     186.350 200.273 209.857  1.00  0.00     0.293 HD
ENDBRANCH   2  20
BRANCH   6  22
ATOM     22  O   UNL     1     188.831 205.024 209.948  1.00  0.00    -0.507 OA
ATOM     23  H   UNL     1     187.987 205.573 209.886  1.00  0.00     0.293 HD
ENDBRANCH   6  22
BRANCH   8  24
ATOM     24  O   UNL     1     191.355 205.358 214.019  1.00  0.00    -0.508 OA
ATOM     25  H   UNL     1     191.673 206.287 213.768  1.00  0.00     0.293 HD
ENDBRANCH   8  24
TORSDOF 5
ENDMDL
MODEL 4
REMARK VINA RESULT:    -4.169      4.370      6.022
REMARK INTER + INTRA:          -5.190
REMARK INTER:                  -4.915
REMARK INTRA:                  -0.275
REMARK UNBOUND:                -0.289
REMARK SMILES O=c1c(O)c(-c2ccc(O)cc2)oc2cc(O)cc(O)c12
REMARK SMILES IDX 5 1 3 2 2 3 1 4 21 5 19 6 18 7 16 8 15 9 14 10 13 11 6 12
REMARK SMILES IDX 7 13 8 14 9 15 12 16 11 17 10 18 4 20 20 22 17 24
REMARK H PARENT 10 19 4 21 20 23 17 25
REMARK Flexibility Score: inf
ROOT
ATOM      1  C   UNL     1     190.797 203.248 213.385  1.00  0.00     0.180 A 
ATOM      2  C   UNL     1     191.060 204.610 213.615  1.00  0.00     0.208 A 
ATOM      3  C   UNL     1     192.382 205.018 213.851  1.00  0.00     0.238 A 
ATOM      4  O   UNL     1     192.603 206.230 214.111  1.00  0.00    -0.285 OA
ATOM      5  C   UNL     1     193.427 204.063 213.840  1.00  0.00     0.111 A 
ATOM      6  C   UNL     1     194.808 204.371 214.026  1.00  0.00     0.134 A 
ATOM      7  C   UNL     1     195.740 203.330 214.125  1.00  0.00     0.093 A 
ATOM      8  C   UNL     1     195.350 201.997 213.976  1.00  0.00     0.123 A 
ATOM      9  C   UNL     1     194.013 201.691 213.733  1.00  0.00     0.094 A 
ATOM     10  C   UNL     1     193.055 202.705 213.667  1.00  0.00     0.146 A 
ATOM     11  O   UNL     1     191.789 202.369 213.444  1.00  0.00    -0.452 OA
ENDROOT
BRANCH   1  12
ATOM     12  C   UNL     1     189.433 202.745 213.103  1.00  0.00     0.021 A 
ATOM     13  C   UNL     1     188.616 202.227 214.125  1.00  0.00     0.016 A 
ATOM     14  C   UNL     1     187.323 201.781 213.838  1.00  0.00     0.047 A 
ATOM     15  C   UNL     1     186.825 201.857 212.534  1.00  0.00     0.115 A 
ATOM     16  C   UNL     1     188.918 202.839 211.799  1.00  0.00     0.016 A 
ATOM     17  C   UNL     1     187.625 202.390 211.515  1.00  0.00     0.047 A 
BRANCH  15  18
ATOM     18  O   UNL     1     185.534 201.407 212.262  1.00  0.00    -0.508 OA
ATOM     19  H   UNL     1     185.216 200.495 212.568  1.00  0.00     0.293 HD
ENDBRANCH  15  18
ENDBRANCH   1  12
BRANCH   2  20
ATOM     20  O   UNL     1     190.010 205.534 213.645  1.00  0.00    -0.502 OA
ATOM     21  H   UNL     1     189.132 205.374 213.168  1.00  0.00     0.293 HD
ENDBRANCH   2  20
BRANCH   6  22
ATOM     22  O   UNL     1     195.315 205.672 214.095  1.00  0.00    -0.507 OA
ATOM     23  H   UNL     1     195.677 206.189 213.308  1.00  0.00     0.293 HD
ENDBRANCH   6  22
BRANCH   8  24
ATOM     24  O   UNL     1     196.286 200.970 214.060  1.00  0.00    -0.508 OA
ATOM     25  H   UNL     1     196.615 200.484 213.234  1.00  0.00     0.293 HD
ENDBRANCH   8  24
TORSDOF 5
ENDMDL
MODEL 5
REMARK VINA RESULT:    -4.108      1.515      2.306
REMARK INTER + INTRA:          -5.117
REMARK INTER:                  -4.838
REMARK INTRA:                  -0.279
REMARK UNBOUND:                -0.289
REMARK SMILES O=c1c(O)c(-c2ccc(O)cc2)oc2cc(O)cc(O)c12
REMARK SMILES IDX 5 1 3 2 2 3 1 4 21 5 19 6 18 7 16 8 15 9 14 10 13 11 6 12
REMARK SMILES IDX 7 13 8 14 9 15 12 16 11 17 10 18 4 20 20 22 17 24
REMARK H PARENT 10 19 4 21 20 23 17 25
REMARK Flexibility Score: inf
ROOT
ATOM      1  C   UNL     1     189.133 200.873 213.088  1.00  0.00     0.180 A 
ATOM      2  C   UNL     1     190.134 201.809 213.407  1.00  0.00     0.208 A 
ATOM      3  C   UNL     1     191.421 201.347 213.722  1.00  0.00     0.238 A 
ATOM      4  O   UNL     1     192.297 202.185 214.060  1.00  0.00    -0.285 OA
ATOM      5  C   UNL     1     191.698 199.958 213.698  1.00  0.00     0.111 A 
ATOM      6  C   UNL     1     192.977 199.382 213.960  1.00  0.00     0.134 A 
ATOM      7  C   UNL     1     193.104 197.990 214.037  1.00  0.00     0.093 A 
ATOM      8  C   UNL     1     192.012 197.152 213.795  1.00  0.00     0.123 A 
ATOM      9  C   UNL     1     190.774 197.704 213.479  1.00  0.00     0.094 A 
ATOM     10  C   UNL     1     190.607 199.091 213.432  1.00  0.00     0.146 A 
ATOM     11  O   UNL     1     189.407 199.576 213.137  1.00  0.00    -0.452 OA
ENDROOT
BRANCH   1  12
ATOM     12  C   UNL     1     187.758 201.285 212.720  1.00  0.00     0.021 A 
ATOM     13  C   UNL     1     186.785 201.549 213.701  1.00  0.00     0.016 A 
ATOM     14  C   UNL     1     185.501 201.960 213.330  1.00  0.00     0.047 A 
ATOM     15  C   UNL     1     185.177 202.124 211.980  1.00  0.00     0.115 A 
ATOM     16  C   UNL     1     187.431 201.472 211.367  1.00  0.00     0.016 A 
ATOM     17  C   UNL     1     186.147 201.881 210.999  1.00  0.00     0.047 A 
BRANCH  15  18
ATOM     18  O   UNL     1     183.893 202.531 211.625  1.00  0.00    -0.508 OA
ATOM     19  H   UNL     1     183.569 202.485 210.665  1.00  0.00     0.293 HD
ENDBRANCH  15  18
ENDBRANCH   1  12
BRANCH   2  20
ATOM     20  O   UNL     1     189.834 203.174 213.447  1.00  0.00    -0.502 OA
ATOM     21  H   UNL     1     189.880 203.765 212.626  1.00  0.00     0.293 HD
ENDBRANCH   2  20
BRANCH   6  22
ATOM     22  O   UNL     1     194.149 200.127 214.125  1.00  0.00    -0.507 OA
ATOM     23  H   UNL     1     194.732 200.455 213.370  1.00  0.00     0.293 HD
ENDBRANCH   6  22
BRANCH   8  24
ATOM     24  O   UNL     1     192.152 195.768 213.858  1.00  0.00    -0.508 OA
ATOM     25  H   UNL     1     191.805 195.235 214.646  1.00  0.00     0.293 HD
ENDBRANCH   8  24
TORSDOF 5
ENDMDL
MODEL 6
REMARK VINA RESULT:    -4.080      4.992      7.506
REMARK INTER + INTRA:          -5.085
REMARK INTER:                  -4.785
REMARK INTRA:                  -0.300
REMARK UNBOUND:                -0.289
REMARK SMILES O=c1c(O)c(-c2ccc(O)cc2)oc2cc(O)cc(O)c12
REMARK SMILES IDX 5 1 3 2 2 3 1 4 21 5 19 6 18 7 16 8 15 9 14 10 13 11 6 12
REMARK SMILES IDX 7 13 8 14 9 15 12 16 11 17 10 18 4 20 20 22 17 24
REMARK H PARENT 10 19 4 21 20 23 17 25
REMARK Flexibility Score: inf
ROOT
ATOM      1  C   UNL     1     185.850 198.170 209.311  1.00  0.00     0.180 A 
ATOM      2  C   UNL     1     186.285 199.083 208.334  1.00  0.00     0.208 A 
ATOM      3  C   UNL     1     186.594 200.397 208.719  1.00  0.00     0.238 A 
ATOM      4  O   UNL     1     186.929 201.224 207.831  1.00  0.00    -0.285 OA
ATOM      5  C   UNL     1     186.480 200.778 210.078  1.00  0.00     0.111 A 
ATOM      6  C   UNL     1     186.807 202.071 210.587  1.00  0.00     0.134 A 
ATOM      7  C   UNL     1     186.532 202.375 211.926  1.00  0.00     0.093 A 
ATOM      8  C   UNL     1     186.005 201.412 212.790  1.00  0.00     0.123 A 
ATOM      9  C   UNL     1     185.741 200.129 212.317  1.00  0.00     0.094 A 
ATOM     10  C   UNL     1     185.969 199.807 210.977  1.00  0.00     0.146 A 
ATOM     11  O   UNL     1     185.693 198.575 210.565  1.00  0.00    -0.452 OA
ENDROOT
BRANCH   1  12
ATOM     12  C   UNL     1     185.531 196.761 208.986  1.00  0.00     0.021 A 
ATOM     13  C   UNL     1     186.518 195.760 209.014  1.00  0.00     0.016 A 
ATOM     14  C   UNL     1     186.188 194.432 208.727  1.00  0.00     0.047 A 
ATOM     15  C   UNL     1     184.868 194.085 208.422  1.00  0.00     0.115 A 
ATOM     16  C   UNL     1     184.202 196.401 208.701  1.00  0.00     0.016 A 
ATOM     17  C   UNL     1     183.875 195.073 208.413  1.00  0.00     0.047 A 
BRANCH  15  18
ATOM     18  O   UNL     1     184.553 192.759 208.137  1.00  0.00    -0.508 OA
ATOM     19  H   UNL     1     185.137 191.994 208.457  1.00  0.00     0.293 HD
ENDBRANCH  15  18
ENDBRANCH   1  12
BRANCH   2  20
ATOM     20  O   UNL     1     186.368 198.693 206.994  1.00  0.00    -0.502 OA
ATOM     21  H   UNL     1     187.037 198.007 206.668  1.00  0.00     0.293 HD
ENDBRANCH   2  20
BRANCH   6  22
ATOM     22  O   UNL     1     187.420 203.075 209.831  1.00  0.00    -0.507 OA
ATOM     23  H   UNL     1     188.345 203.439 210.004  1.00  0.00     0.293 HD
ENDBRANCH   6  22
BRANCH   8  24
ATOM     24  O   UNL     1     185.751 201.719 214.125  1.00  0.00    -0.508 OA
ATOM     25  H   UNL     1     184.985 202.326 214.393  1.00  0.00     0.293 HD
ENDBRANCH   8  24
TORSDOF 5
ENDMDL
MODEL 7
REMARK VINA RESULT:    -4.010      4.219      5.957
REMARK INTER + INTRA:          -5.003
REMARK INTER:                  -4.704
REMARK INTRA:                  -0.299
REMARK UNBOUND:                -0.289
REMARK SMILES O=c1c(O)c(-c2ccc(O)cc2)oc2cc(O)cc(O)c12
REMARK SMILES IDX 5 1 3 2 2 3 1 4 21 5 19 6 18 7 16 8 15 9 14 10 13 11 6 12
REMARK SMILES IDX 7 13 8 14 9 15 12 16 11 17 10 18 4 20 20 22 17 24
REMARK H PARENT 10 19 4 21 20 23 17 25
REMARK Flexibility Score: inf
ROOT
ATOM      1  C   UNL     1     187.433 201.262 211.315  1.00  0.00     0.180 A 
ATOM      2  C   UNL     1     186.031 201.369 211.304  1.00  0.00     0.208 A 
ATOM      3  C   UNL     1     185.276 200.347 210.710  1.00  0.00     0.238 A 
ATOM      4  O   UNL     1     184.024 200.474 210.654  1.00  0.00    -0.285 OA
ATOM      5  C   UNL     1     185.928 199.223 210.147  1.00  0.00     0.111 A 
ATOM      6  C   UNL     1     185.260 198.110 209.555  1.00  0.00     0.134 A 
ATOM      7  C   UNL     1     186.010 197.116 208.914  1.00  0.00     0.093 A 
ATOM      8  C   UNL     1     187.406 197.162 208.902  1.00  0.00     0.123 A 
ATOM      9  C   UNL     1     188.069 198.214 209.529  1.00  0.00     0.094 A 
ATOM     10  C   UNL     1     187.347 199.239 210.145  1.00  0.00     0.146 A 
ATOM     11  O   UNL     1     188.018 200.229 210.723  1.00  0.00    -0.452 OA
ENDROOT
BRANCH   1  12
ATOM     12  C   UNL     1     188.297 202.288 211.946  1.00  0.00     0.021 A 
ATOM     13  C   UNL     1     188.659 202.206 213.302  1.00  0.00     0.016 A 
ATOM     14  C   UNL     1     189.495 203.173 213.869  1.00  0.00     0.047 A 
ATOM     15  C   UNL     1     189.989 204.223 213.089  1.00  0.00     0.115 A 
ATOM     16  C   UNL     1     188.814 203.333 211.162  1.00  0.00     0.016 A 
ATOM     17  C   UNL     1     189.648 204.299 211.732  1.00  0.00     0.047 A 
BRANCH  15  18
ATOM     18  O   UNL     1     190.819 205.180 213.667  1.00  0.00    -0.508 OA
ATOM     19  H   UNL     1     191.371 204.974 214.493  1.00  0.00     0.293 HD
ENDBRANCH  15  18
ENDBRANCH   1  12
BRANCH   2  20
ATOM     20  O   UNL     1     185.407 202.497 211.845  1.00  0.00    -0.502 OA
ATOM     21  H   UNL     1     185.733 202.945 212.692  1.00  0.00     0.293 HD
ENDBRANCH   2  20
BRANCH   6  22
ATOM     22  O   UNL     1     183.875 197.921 209.593  1.00  0.00    -0.507 OA
ATOM     23  H   UNL     1     183.192 198.639 209.406  1.00  0.00     0.293 HD
ENDBRANCH   6  22
BRANCH   8  24
ATOM     24  O   UNL     1     188.144 196.160 208.276  1.00  0.00    -0.508 OA
ATOM     25  H   UNL     1     189.061 196.342 207.885  1.00  0.00     0.293 HD
ENDBRANCH   8  24
TORSDOF 5
ENDMDL
MODEL 8
REMARK VINA RESULT:    -3.969      2.372      7.304
REMARK INTER + INTRA:          -4.955
REMARK INTER:                  -4.666
REMARK INTRA:                  -0.289
REMARK UNBOUND:                -0.289
REMARK SMILES O=c1c(O)c(-c2ccc(O)cc2)oc2cc(O)cc(O)c12
REMARK SMILES IDX 5 1 3 2 2 3 1 4 21 5 19 6 18 7 16 8 15 9 14 10 13 11 6 12
REMARK SMILES IDX 7 13 8 14 9 15 12 16 11 17 10 18 4 20 20 22 17 24
REMARK H PARENT 10 19 4 21 20 23 17 25
REMARK Flexibility Score: inf
ROOT
ATOM      1  C   UNL     1     188.094 197.977 211.720  1.00  0.00     0.180 A 
ATOM      2  C   UNL     1     187.484 197.433 210.574  1.00  0.00     0.208 A 
ATOM      3  C   UNL     1     186.397 198.107 209.997  1.00  0.00     0.238 A 
ATOM      4  O   UNL     1     185.821 197.587 209.006  1.00  0.00    -0.285 OA
ATOM      5  C   UNL     1     185.941 199.323 210.561  1.00  0.00     0.111 A 
ATOM      6  C   UNL     1     184.874 200.111 210.034  1.00  0.00     0.134 A 
ATOM      7  C   UNL     1     184.424 201.229 210.748  1.00  0.00     0.093 A 
ATOM      8  C   UNL     1     185.046 201.624 211.935  1.00  0.00     0.123 A 
ATOM      9  C   UNL     1     186.127 200.896 212.425  1.00  0.00     0.094 A 
ATOM     10  C   UNL     1     186.576 199.755 211.754  1.00  0.00     0.146 A 
ATOM     11  O   UNL     1     187.603 199.084 212.262  1.00  0.00    -0.452 OA
ENDROOT
BRANCH   1  12
ATOM     12  C   UNL     1     189.261 197.337 212.370  1.00  0.00     0.021 A 
ATOM     13  C   UNL     1     189.100 196.358 213.366  1.00  0.00     0.016 A 
ATOM     14  C   UNL     1     190.217 195.751 213.948  1.00  0.00     0.047 A 
ATOM     15  C   UNL     1     191.505 196.104 213.535  1.00  0.00     0.115 A 
ATOM     16  C   UNL     1     190.558 197.672 211.944  1.00  0.00     0.016 A 
ATOM     17  C   UNL     1     191.673 197.064 212.529  1.00  0.00     0.047 A 
BRANCH  15  18
ATOM     18  O   UNL     1     192.609 195.493 214.125  1.00  0.00    -0.508 OA
ATOM     19  H   UNL     1     192.506 194.697 214.744  1.00  0.00     0.293 HD
ENDBRANCH  15  18
ENDBRANCH   1  12
BRANCH   2  20
ATOM     20  O   UNL     1     187.935 196.219 210.047  1.00  0.00    -0.502 OA
ATOM     21  H   UNL     1     188.478 196.165 209.195  1.00  0.00     0.293 HD
ENDBRANCH   2  20
BRANCH   6  22
ATOM     22  O   UNL     1     184.246 199.856 208.811  1.00  0.00    -0.507 OA
ATOM     23  H   UNL     1     183.358 199.391 208.708  1.00  0.00     0.293 HD
ENDBRANCH   6  22
BRANCH   8  24
ATOM     24  O   UNL     1     184.602 202.747 212.630  1.00  0.00    -0.508 OA
ATOM     25  H   UNL     1     183.618 202.897 212.821  1.00  0.00     0.293 HD
ENDBRANCH   8  24
TORSDOF 5
ENDMDL
MODEL 9
REMARK VINA RESULT:    -3.934      4.265      6.924
REMARK INTER + INTRA:          -4.913
REMARK INTER:                  -4.624
REMARK INTRA:                  -0.289
REMARK UNBOUND:                -0.289
REMARK SMILES O=c1c(O)c(-c2ccc(O)cc2)oc2cc(O)cc(O)c12
REMARK SMILES IDX 5 1 3 2 2 3 1 4 21 5 19 6 18 7 16 8 15 9 14 10 13 11 6 12
REMARK SMILES IDX 7 13 8 14 9 15 12 16 11 17 10 18 4 20 20 22 17 24
REMARK H PARENT 10 19 4 21 20 23 17 25
REMARK Flexibility Score: inf
ROOT
ATOM      1  C   UNL     1     186.783 197.669 210.008  1.00  0.00     0.180 A 
ATOM      2  C   UNL     1     187.858 197.577 210.910  1.00  0.00     0.208 A 
ATOM      3  C   UNL     1     187.987 198.547 211.916  1.00  0.00     0.238 A 
ATOM      4  O   UNL     1     188.982 198.492 212.686  1.00  0.00    -0.285 OA
ATOM      5  C   UNL     1     187.032 199.588 212.019  1.00  0.00     0.111 A 
ATOM      6  C   UNL     1     187.041 200.600 213.024  1.00  0.00     0.134 A 
ATOM      7  C   UNL     1     186.122 201.654 212.951  1.00  0.00     0.093 A 
ATOM      8  C   UNL     1     185.151 201.695 211.947  1.00  0.00     0.123 A 
ATOM      9  C   UNL     1     185.096 200.679 210.997  1.00  0.00     0.094 A 
ATOM     10  C   UNL     1     186.023 199.634 211.022  1.00  0.00     0.146 A 
ATOM     11  O   UNL     1     185.941 198.691 210.091  1.00  0.00    -0.452 OA
ENDROOT
BRANCH   1  12
ATOM     12  C   UNL     1     186.566 196.669 208.937  1.00  0.00     0.021 A 
ATOM     13  C   UNL     1     187.163 196.809 207.671  1.00  0.00     0.016 A 
ATOM     14  C   UNL     1     186.963 195.840 206.684  1.00  0.00     0.047 A 
ATOM     15  C   UNL     1     186.177 194.715 206.951  1.00  0.00     0.115 A 
ATOM     16  C   UNL     1     185.794 195.525 209.205  1.00  0.00     0.016 A 
ATOM     17  C   UNL     1     185.595 194.559 208.215  1.00  0.00     0.047 A 
BRANCH  15  18
ATOM     18  O   UNL     1     185.985 193.758 205.957  1.00  0.00    -0.508 OA
ATOM     19  H   UNL     1     185.140 193.199 205.915  1.00  0.00     0.293 HD
ENDBRANCH  15  18
ENDBRANCH   1  12
BRANCH   2  20
ATOM     20  O   UNL     1     188.803 196.555 210.777  1.00  0.00    -0.502 OA
ATOM     21  H   UNL     1     188.572 195.648 210.391  1.00  0.00     0.293 HD
ENDBRANCH   2  20
BRANCH   6  22
ATOM     22  O   UNL     1     187.909 200.603 214.121  1.00  0.00    -0.507 OA
ATOM     23  H   UNL     1     188.006 201.365 214.775  1.00  0.00     0.293 HD
ENDBRANCH   6  22
BRANCH   8  24
ATOM     24  O   UNL     1     184.231 202.739 211.892  1.00  0.00    -0.508 OA
ATOM     25  H   UNL     1     184.258 203.432 211.154  1.00  0.00     0.293 HD
ENDBRANCH   8  24
TORSDOF 5
ENDMDL
