MODEL 1
REMARK VINA RESULT:    -7.626      0.000      0.000
REMARK INTER + INTRA:         -12.684
REMARK INTER:                 -11.192
REMARK INTRA:                  -1.492
REMARK UNBOUND:                -1.492
REMARK SMILES O=c1c(O[C@@H]2O[C@H](CO)[C@H](O)[C@@H](O)[C@@H]2O)c(-c2ccc(O)c(O)c2)oc2cc(O)cc(O)c12
REMARK SMILES IDX 4 1 3 2 16 3 25 4 2 5 26 6 1 7 33 8 27 9 31 10 28 11 30 12
REMARK SMILES IDX 17 13 18 14 19 15 20 16 24 17 22 18 21 19 23 21 32 23 29 25
REMARK SMILES IDX 5 27 14 28 6 29 12 30 7 31 10 32 15 33 13 35 8 37 9 38 11 40
REMARK H PARENT 21 20 23 22 32 24 29 26 15 34 13 36 9 39 11 41
REMARK Flexibility Score: inf
ROOT
ATOM      1  O   UNL     1       1.533 -23.690  27.769  1.00  0.00    -0.454 OA
ENDROOT
BRANCH   1   2
ATOM      2  C   UNL     1       0.857 -22.687  27.067  1.00  0.00     0.214 A 
ATOM      3  C   UNL     1      -0.204 -22.008  27.683  1.00  0.00     0.180 A 
ATOM      4  O   UNL     1      -0.807 -21.007  27.052  1.00  0.00    -0.452 OA
ATOM      5  C   UNL     1       1.232 -22.330  25.764  1.00  0.00     0.239 A 
ATOM      6  C   UNL     1      -0.495 -20.635  25.814  1.00  0.00     0.146 A 
ATOM      7  O   UNL     1       2.225 -22.899  25.242  1.00  0.00    -0.285 OA
ATOM      8  C   UNL     1       0.516 -21.318  25.082  1.00  0.00     0.111 A 
ATOM      9  C   UNL     1      -1.178 -19.559  25.242  1.00  0.00     0.094 A 
ATOM     10  C   UNL     1       0.764 -20.927  23.733  1.00  0.00     0.134 A 
ATOM     11  C   UNL     1      -0.882 -19.144  23.945  1.00  0.00     0.123 A 
ATOM     12  C   UNL     1       0.085 -19.825  23.197  1.00  0.00     0.093 A 
BRANCH   3  13
ATOM     13  C   UNL     1      -0.628 -22.350  29.054  1.00  0.00     0.025 A 
ATOM     14  C   UNL     1      -1.777 -23.129  29.275  1.00  0.00     0.016 A 
ATOM     15  C   UNL     1      -2.126 -23.512  30.572  1.00  0.00     0.051 A 
ATOM     16  C   UNL     1      -1.329 -23.135  31.660  1.00  0.00     0.157 A 
ATOM     17  C   UNL     1       0.151 -21.941  30.148  1.00  0.00     0.062 A 
ATOM     18  C   UNL     1      -0.185 -22.346  31.448  1.00  0.00     0.158 A 
BRANCH  16  19
ATOM     19  O   UNL     1      -1.685 -23.562  32.938  1.00  0.00    -0.504 OA
ATOM     20  H   UNL     1      -2.085 -22.940  33.626  1.00  0.00     0.293 HD
ENDBRANCH  16  19
BRANCH  18  21
ATOM     21  O   UNL     1       0.620 -21.977  32.524  1.00  0.00    -0.504 OA
ATOM     22  H   UNL     1       1.353 -21.279  32.423  1.00  0.00     0.293 HD
ENDBRANCH  18  21
ENDBRANCH   3  13
BRANCH  10  23
ATOM     23  O   UNL     1       1.634 -21.609  22.875  1.00  0.00    -0.507 OA
ATOM     24  H   UNL     1       2.280 -22.327  23.181  1.00  0.00     0.293 HD
ENDBRANCH  10  23
BRANCH  11  25
ATOM     25  O   UNL     1      -1.566 -18.060  23.395  1.00  0.00    -0.508 OA
ATOM     26  H   UNL     1      -1.124 -17.154  23.279  1.00  0.00     0.293 HD
ENDBRANCH  11  25
ENDBRANCH   1   2
BRANCH   1  27
ATOM     27  C   UNL     1       1.044 -25.029  27.877  1.00  0.00     0.339 C 
ATOM     28  C   UNL     1       2.005 -26.008  27.174  1.00  0.00     0.214 C 
ATOM     29  O   UNL     1       0.780 -25.378  29.231  1.00  0.00    -0.332 OA
ATOM     30  C   UNL     1       3.302 -26.155  27.978  1.00  0.00     0.180 C 
ATOM     31  C   UNL     1       1.948 -25.537  30.032  1.00  0.00     0.179 C 
ATOM     32  C   UNL     1       2.950 -26.546  29.413  1.00  0.00     0.177 C 
BRANCH  28  33
ATOM     33  O   UNL     1       2.309 -25.533  25.884  1.00  0.00    -0.384 OA
ATOM     34  H   UNL     1       2.771 -26.268  25.397  1.00  0.00     0.211 HD
ENDBRANCH  28  33
BRANCH  30  35
ATOM     35  O   UNL     1       4.104 -27.158  27.410  1.00  0.00    -0.387 OA
ATOM     36  H   UNL     1       3.737 -27.348  26.506  1.00  0.00     0.211 HD
ENDBRANCH  30  35
BRANCH  31  37
ATOM     37  C   UNL     1       2.561 -24.175  30.442  1.00  0.00     0.191 C 
BRANCH  37  38
ATOM     38  O   UNL     1       2.932 -24.187  31.795  1.00  0.00    -0.394 OA
ATOM     39  H   UNL     1       3.111 -25.132  32.039  1.00  0.00     0.210 HD
ENDBRANCH  37  38
ENDBRANCH  31  37
BRANCH  32  40
ATOM     40  O   UNL     1       4.125 -26.640  30.174  1.00  0.00    -0.387 OA
ATOM     41  H   UNL     1       4.051 -27.473  30.710  1.00  0.00     0.211 HD
ENDBRANCH  32  40
ENDBRANCH   1  27
TORSDOF 12
ENDMDL
MODEL 2
REMARK VINA RESULT:    -7.304      1.204      2.221
REMARK INTER + INTRA:         -12.212
REMARK INTER:                 -11.471
REMARK INTRA:                  -0.741
REMARK UNBOUND:                -1.492
REMARK SMILES O=c1c(O[C@@H]2O[C@H](CO)[C@H](O)[C@@H](O)[C@@H]2O)c(-c2ccc(O)c(O)c2)oc2cc(O)cc(O)c12
REMARK SMILES IDX 4 1 3 2 16 3 25 4 2 5 26 6 1 7 33 8 27 9 31 10 28 11 30 12
REMARK SMILES IDX 17 13 18 14 19 15 20 16 24 17 22 18 21 19 23 21 32 23 29 25
REMARK SMILES IDX 5 27 14 28 6 29 12 30 7 31 10 32 15 33 13 35 8 37 9 38 11 40
REMARK H PARENT 21 20 23 22 32 24 29 26 15 34 13 36 9 39 11 41
REMARK Flexibility Score: inf
ROOT
ATOM      1  O   UNL     1       1.551 -23.556  27.855  1.00  0.00    -0.454 OA
ENDROOT
BRANCH   1   2
ATOM      2  C   UNL     1       0.886 -22.638  27.036  1.00  0.00     0.214 A 
ATOM      3  C   UNL     1      -0.266 -21.996  27.512  1.00  0.00     0.180 A 
ATOM      4  O   UNL     1      -0.865 -21.071  26.772  1.00  0.00    -0.452 OA
ATOM      5  C   UNL     1       1.361 -22.328  25.754  1.00  0.00     0.239 A 
ATOM      6  C   UNL     1      -0.460 -20.747  25.547  1.00  0.00     0.146 A 
ATOM      7  O   UNL     1       2.429 -22.860  25.358  1.00  0.00    -0.285 OA
ATOM      8  C   UNL     1       0.653 -21.402  24.951  1.00  0.00     0.111 A 
ATOM      9  C   UNL     1      -1.149 -19.749  24.852  1.00  0.00     0.094 A 
ATOM     10  C   UNL     1       1.003 -21.069  23.609  1.00  0.00     0.134 A 
ATOM     11  C   UNL     1      -0.757 -19.385  23.565  1.00  0.00     0.123 A 
ATOM     12  C   UNL     1       0.313 -20.043  22.950  1.00  0.00     0.093 A 
BRANCH   3  13
ATOM     13  C   UNL     1      -0.796 -22.291  28.858  1.00  0.00     0.025 A 
ATOM     14  C   UNL     1      -0.898 -23.617  29.313  1.00  0.00     0.016 A 
ATOM     15  C   UNL     1      -1.328 -23.880  30.615  1.00  0.00     0.051 A 
ATOM     16  C   UNL     1      -1.648 -22.829  31.481  1.00  0.00     0.157 A 
ATOM     17  C   UNL     1      -1.152 -21.237  29.714  1.00  0.00     0.062 A 
ATOM     18  C   UNL     1      -1.560 -21.500  31.029  1.00  0.00     0.158 A 
BRANCH  16  19
ATOM     19  O   UNL     1      -2.041 -23.123  32.785  1.00  0.00    -0.504 OA
ATOM     20  H   UNL     1      -2.047 -22.429  33.520  1.00  0.00     0.293 HD
ENDBRANCH  16  19
BRANCH  18  21
ATOM     21  O   UNL     1      -1.866 -20.446  31.889  1.00  0.00    -0.504 OA
ATOM     22  H   UNL     1      -1.472 -20.395  32.825  1.00  0.00     0.293 HD
ENDBRANCH  18  21
ENDBRANCH   3  13
BRANCH  10  23
ATOM     23  O   UNL     1       1.988 -21.739  22.875  1.00  0.00    -0.507 OA
ATOM     24  H   UNL     1       2.711 -21.270  22.342  1.00  0.00     0.293 HD
ENDBRANCH  10  23
BRANCH  11  25
ATOM     25  O   UNL     1      -1.450 -18.379  22.893  1.00  0.00    -0.508 OA
ATOM     26  H   UNL     1      -2.437 -18.465  22.676  1.00  0.00     0.293 HD
ENDBRANCH  11  25
ENDBRANCH   1   2
BRANCH   1  27
ATOM     27  C   UNL     1       2.938 -23.441  28.186  1.00  0.00     0.339 C 
ATOM     28  C   UNL     1       3.108 -23.184  29.696  1.00  0.00     0.214 C 
ATOM     29  O   UNL     1       3.678 -24.564  27.722  1.00  0.00    -0.332 OA
ATOM     30  C   UNL     1       2.769 -24.448  30.496  1.00  0.00     0.180 C 
ATOM     31  C   UNL     1       3.412 -25.772  28.430  1.00  0.00     0.179 C 
ATOM     32  C   UNL     1       3.606 -25.609  29.960  1.00  0.00     0.177 C 
BRANCH  28  33
ATOM     33  O   UNL     1       2.258 -22.137  30.100  1.00  0.00    -0.384 OA
ATOM     34  H   UNL     1       2.388 -21.385  29.462  1.00  0.00     0.211 HD
ENDBRANCH  28  33
BRANCH  30  35
ATOM     35  O   UNL     1       3.070 -24.249  31.853  1.00  0.00    -0.387 OA
ATOM     36  H   UNL     1       3.447 -23.333  31.936  1.00  0.00     0.211 HD
ENDBRANCH  30  35
BRANCH  31  37
ATOM     37  C   UNL     1       2.065 -26.410  28.007  1.00  0.00     0.191 C 
BRANCH  37  38
ATOM     38  O   UNL     1       2.002 -27.749  28.420  1.00  0.00    -0.394 OA
ATOM     39  H   UNL     1       2.478 -28.289  27.737  1.00  0.00     0.210 HD
ENDBRANCH  37  38
ENDBRANCH  31  37
BRANCH  32  40
ATOM     40  O   UNL     1       3.275 -26.784  30.651  1.00  0.00    -0.387 OA
ATOM     41  H   UNL     1       2.336 -26.679  30.959  1.00  0.00     0.211 HD
ENDBRANCH  32  40
ENDBRANCH   1  27
TORSDOF 12
ENDMDL
MODEL 3
REMARK VINA RESULT:    -6.974      2.953      4.926
REMARK INTER + INTRA:         -11.728
REMARK INTER:                 -10.286
REMARK INTRA:                  -1.442
REMARK UNBOUND:                -1.492
REMARK SMILES O=c1c(O[C@@H]2O[C@H](CO)[C@H](O)[C@@H](O)[C@@H]2O)c(-c2ccc(O)c(O)c2)oc2cc(O)cc(O)c12
REMARK SMILES IDX 4 1 3 2 16 3 25 4 2 5 26 6 1 7 33 8 27 9 31 10 28 11 30 12
REMARK SMILES IDX 17 13 18 14 19 15 20 16 24 17 22 18 21 19 23 21 32 23 29 25
REMARK SMILES IDX 5 27 14 28 6 29 12 30 7 31 10 32 15 33 13 35 8 37 9 38 11 40
REMARK H PARENT 21 20 23 22 32 24 29 26 15 34 13 36 9 39 11 41
REMARK Flexibility Score: inf
ROOT
ATOM      1  O   UNL     1       0.104 -20.035  26.700  1.00  0.00    -0.454 OA
ENDROOT
BRANCH   1   2
ATOM      2  C   UNL     1      -0.513 -18.830  27.052  1.00  0.00     0.214 A 
ATOM      3  C   UNL     1      -0.791 -18.564  28.401  1.00  0.00     0.180 A 
ATOM      4  O   UNL     1      -1.312 -17.395  28.754  1.00  0.00    -0.452 OA
ATOM      5  C   UNL     1      -0.841 -17.870  26.085  1.00  0.00     0.239 A 
ATOM      6  C   UNL     1      -1.648 -16.455  27.875  1.00  0.00     0.146 A 
ATOM      7  O   UNL     1      -0.532 -18.087  24.885  1.00  0.00    -0.285 OA
ATOM      8  C   UNL     1      -1.475 -16.668  26.479  1.00  0.00     0.111 A 
ATOM      9  C   UNL     1      -2.177 -15.251  28.347  1.00  0.00     0.094 A 
ATOM     10  C   UNL     1      -1.918 -15.657  25.575  1.00  0.00     0.134 A 
ATOM     11  C   UNL     1      -2.545 -14.244  27.457  1.00  0.00     0.123 A 
ATOM     12  C   UNL     1      -2.414 -14.449  26.079  1.00  0.00     0.093 A 
BRANCH   3  13
ATOM     13  C   UNL     1      -0.458 -19.547  29.450  1.00  0.00     0.025 A 
ATOM     14  C   UNL     1       0.872 -19.730  29.865  1.00  0.00     0.016 A 
ATOM     15  C   UNL     1       1.167 -20.607  30.911  1.00  0.00     0.051 A 
ATOM     16  C   UNL     1       0.140 -21.300  31.564  1.00  0.00     0.157 A 
ATOM     17  C   UNL     1      -1.484 -20.270  30.080  1.00  0.00     0.062 A 
ATOM     18  C   UNL     1      -1.192 -21.131  31.147  1.00  0.00     0.158 A 
BRANCH  16  19
ATOM     19  O   UNL     1       0.463 -22.140  32.628  1.00  0.00    -0.504 OA
ATOM     20  H   UNL     1      -0.124 -22.231  33.445  1.00  0.00     0.293 HD
ENDBRANCH  16  19
BRANCH  18  21
ATOM     21  O   UNL     1      -2.221 -21.808  31.800  1.00  0.00    -0.504 OA
ATOM     22  H   UNL     1      -2.226 -21.916  32.811  1.00  0.00     0.293 HD
ENDBRANCH  18  21
ENDBRANCH   3  13
BRANCH  10  23
ATOM     23  O   UNL     1      -1.923 -15.810  24.184  1.00  0.00    -0.507 OA
ATOM     24  H   UNL     1      -1.285 -15.329  23.561  1.00  0.00     0.293 HD
ENDBRANCH  10  23
BRANCH  11  25
ATOM     25  O   UNL     1      -3.059 -13.044  27.948  1.00  0.00    -0.508 OA
ATOM     26  H   UNL     1      -4.039 -12.945  28.192  1.00  0.00     0.293 HD
ENDBRANCH  11  25
ENDBRANCH   1   2
BRANCH   1  27
ATOM     27  C   UNL     1      -0.588 -21.286  26.678  1.00  0.00     0.339 C 
ATOM     28  C   UNL     1      -0.796 -21.757  25.226  1.00  0.00     0.214 C 
ATOM     29  O   UNL     1       0.063 -22.254  27.494  1.00  0.00    -0.332 OA
ATOM     30  C   UNL     1       0.536 -22.203  24.612  1.00  0.00     0.180 C 
ATOM     31  C   UNL     1       1.307 -22.715  26.974  1.00  0.00     0.179 C 
ATOM     32  C   UNL     1       1.173 -23.251  25.524  1.00  0.00     0.177 C 
BRANCH  28  33
ATOM     33  O   UNL     1      -1.334 -20.708  24.457  1.00  0.00    -0.384 OA
ATOM     34  H   UNL     1      -0.651 -19.985  24.421  1.00  0.00     0.211 HD
ENDBRANCH  28  33
BRANCH  30  35
ATOM     35  O   UNL     1       0.312 -22.769  23.346  1.00  0.00    -0.387 OA
ATOM     36  H   UNL     1       0.048 -23.716  23.492  1.00  0.00     0.211 HD
ENDBRANCH  30  35
BRANCH  31  37
ATOM     37  C   UNL     1       2.444 -21.685  27.187  1.00  0.00     0.191 C 
BRANCH  37  38
ATOM     38  O   UNL     1       3.686 -22.331  27.271  1.00  0.00    -0.394 OA
ATOM     39  H   UNL     1       3.752 -22.719  28.182  1.00  0.00     0.210 HD
ENDBRANCH  37  38
ENDBRANCH  31  37
BRANCH  32  40
ATOM     40  O   UNL     1       2.416 -23.636  25.000  1.00  0.00    -0.387 OA
ATOM     41  H   UNL     1       2.526 -24.602  25.207  1.00  0.00     0.211 HD
ENDBRANCH  32  40
ENDBRANCH   1  27
TORSDOF 12
ENDMDL
MODEL 4
REMARK VINA RESULT:    -6.855      2.073      6.653
REMARK INTER + INTRA:         -11.553
REMARK INTER:                 -10.055
REMARK INTRA:                  -1.498
REMARK UNBOUND:                -1.492
REMARK SMILES O=c1c(O[C@@H]2O[C@H](CO)[C@H](O)[C@@H](O)[C@@H]2O)c(-c2ccc(O)c(O)c2)oc2cc(O)cc(O)c12
REMARK SMILES IDX 4 1 3 2 16 3 25 4 2 5 26 6 1 7 33 8 27 9 31 10 28 11 30 12
REMARK SMILES IDX 17 13 18 14 19 15 20 16 24 17 22 18 21 19 23 21 32 23 29 25
REMARK SMILES IDX 5 27 14 28 6 29 12 30 7 31 10 32 15 33 13 35 8 37 9 38 11 40
REMARK H PARENT 21 20 23 22 32 24 29 26 15 34 13 36 9 39 11 41
REMARK Flexibility Score: inf
ROOT
ATOM      1  O   UNL     1       0.558 -21.269  26.725  1.00  0.00    -0.454 OA
ENDROOT
BRANCH   1   2
ATOM      2  C   UNL     1       0.933 -22.355  27.524  1.00  0.00     0.214 A 
ATOM      3  C   UNL     1       0.860 -22.243  28.920  1.00  0.00     0.180 A 
ATOM      4  O   UNL     1       1.146 -23.290  29.685  1.00  0.00    -0.452 OA
ATOM      5  C   UNL     1       1.359 -23.563  26.956  1.00  0.00     0.239 A 
ATOM      6  C   UNL     1       1.563 -24.455  29.197  1.00  0.00     0.146 A 
ATOM      7  O   UNL     1       1.361 -23.677  25.703  1.00  0.00    -0.285 OA
ATOM      8  C   UNL     1       1.741 -24.635  27.796  1.00  0.00     0.111 A 
ATOM      9  C   UNL     1       1.825 -25.502  30.084  1.00  0.00     0.094 A 
ATOM     10  C   UNL     1       2.259 -25.880  27.329  1.00  0.00     0.134 A 
ATOM     11  C   UNL     1       2.268 -26.735  29.610  1.00  0.00     0.123 A 
ATOM     12  C   UNL     1       2.482 -26.920  28.240  1.00  0.00     0.093 A 
BRANCH   3  13
ATOM     13  C   UNL     1       0.413 -20.990  29.557  1.00  0.00     0.025 A 
ATOM     14  C   UNL     1       1.339 -20.124  30.164  1.00  0.00     0.016 A 
ATOM     15  C   UNL     1       0.915 -18.905  30.696  1.00  0.00     0.051 A 
ATOM     16  C   UNL     1      -0.432 -18.528  30.618  1.00  0.00     0.157 A 
ATOM     17  C   UNL     1      -0.943 -20.630  29.512  1.00  0.00     0.062 A 
ATOM     18  C   UNL     1      -1.366 -19.395  30.023  1.00  0.00     0.158 A 
BRANCH  16  19
ATOM     19  O   UNL     1      -0.818 -17.290  31.127  1.00  0.00    -0.504 OA
ATOM     20  H   UNL     1      -0.310 -16.440  30.929  1.00  0.00     0.293 HD
ENDBRANCH  16  19
BRANCH  18  21
ATOM     21  O   UNL     1      -2.706 -19.022  29.931  1.00  0.00    -0.504 OA
ATOM     22  H   UNL     1      -3.423 -19.687  29.651  1.00  0.00     0.293 HD
ENDBRANCH  18  21
ENDBRANCH   3  13
BRANCH  10  23
ATOM     23  O   UNL     1       2.601 -26.125  25.995  1.00  0.00    -0.507 OA
ATOM     24  H   UNL     1       2.651 -27.051  25.586  1.00  0.00     0.293 HD
ENDBRANCH  10  23
BRANCH  11  25
ATOM     25  O   UNL     1       2.512 -27.772  30.511  1.00  0.00    -0.508 OA
ATOM     26  H   UNL     1       3.287 -28.414  30.386  1.00  0.00     0.293 HD
ENDBRANCH  11  25
ENDBRANCH   1   2
BRANCH   1  27
ATOM     27  C   UNL     1       1.370 -20.102  26.568  1.00  0.00     0.339 C 
ATOM     28  C   UNL     1       1.894 -20.006  25.122  1.00  0.00     0.214 C 
ATOM     29  O   UNL     1       0.684 -18.931  26.995  1.00  0.00    -0.332 OA
ATOM     30  C   UNL     1       0.754 -19.643  24.162  1.00  0.00     0.180 C 
ATOM     31  C   UNL     1      -0.386 -18.536  26.140  1.00  0.00     0.179 C 
ATOM     32  C   UNL     1       0.072 -18.372  24.666  1.00  0.00     0.177 C 
BRANCH  28  33
ATOM     33  O   UNL     1       2.452 -21.239  24.735  1.00  0.00    -0.384 OA
ATOM     34  H   UNL     1       2.009 -21.513  23.886  1.00  0.00     0.211 HD
ENDBRANCH  28  33
BRANCH  30  35
ATOM     35  O   UNL     1       1.269 -19.412  22.876  1.00  0.00    -0.387 OA
ATOM     36  H   UNL     1       2.150 -19.868  22.829  1.00  0.00     0.211 HD
ENDBRANCH  30  35
BRANCH  31  37
ATOM     37  C   UNL     1      -1.645 -19.416  26.339  1.00  0.00     0.191 C 
BRANCH  37  38
ATOM     38  O   UNL     1      -2.697 -18.659  26.875  1.00  0.00    -0.394 OA
ATOM     39  H   UNL     1      -3.327 -18.468  26.132  1.00  0.00     0.210 HD
ENDBRANCH  37  38
ENDBRANCH  31  37
BRANCH  32  40
ATOM     40  O   UNL     1      -1.003 -18.051  23.824  1.00  0.00    -0.387 OA
ATOM     41  H   UNL     1      -1.313 -17.145  24.089  1.00  0.00     0.211 HD
ENDBRANCH  32  40
ENDBRANCH   1  27
TORSDOF 12
ENDMDL
MODEL 5
REMARK VINA RESULT:    -6.845      1.933      6.645
REMARK INTER + INTRA:         -11.538
REMARK INTER:                 -10.448
REMARK INTRA:                  -1.090
REMARK UNBOUND:                -1.492
REMARK SMILES O=c1c(O[C@@H]2O[C@H](CO)[C@H](O)[C@@H](O)[C@@H]2O)c(-c2ccc(O)c(O)c2)oc2cc(O)cc(O)c12
REMARK SMILES IDX 4 1 3 2 16 3 25 4 2 5 26 6 1 7 33 8 27 9 31 10 28 11 30 12
REMARK SMILES IDX 17 13 18 14 19 15 20 16 24 17 22 18 21 19 23 21 32 23 29 25
REMARK SMILES IDX 5 27 14 28 6 29 12 30 7 31 10 32 15 33 13 35 8 37 9 38 11 40
REMARK H PARENT 21 20 23 22 32 24 29 26 15 34 13 36 9 39 11 41
REMARK Flexibility Score: inf
ROOT
ATOM      1  O   UNL     1       0.651 -21.787  26.217  1.00  0.00    -0.454 OA
ENDROOT
BRANCH   1   2
ATOM      2  C   UNL     1       0.906 -22.798  27.150  1.00  0.00     0.214 A 
ATOM      3  C   UNL     1       0.564 -22.598  28.495  1.00  0.00     0.180 A 
ATOM      4  O   UNL     1       0.737 -23.576  29.375  1.00  0.00    -0.452 OA
ATOM      5  C   UNL     1       1.478 -24.018  26.763  1.00  0.00     0.239 A 
ATOM      6  C   UNL     1       1.283 -24.748  29.062  1.00  0.00     0.146 A 
ATOM      7  O   UNL     1       1.724 -24.214  25.545  1.00  0.00    -0.285 OA
ATOM      8  C   UNL     1       1.732 -25.012  27.738  1.00  0.00     0.111 A 
ATOM      9  C   UNL     1       1.408 -25.720  30.058  1.00  0.00     0.094 A 
ATOM     10  C   UNL     1       2.375 -26.256  27.470  1.00  0.00     0.134 A 
ATOM     11  C   UNL     1       1.979 -26.958  29.769  1.00  0.00     0.123 A 
ATOM     12  C   UNL     1       2.458 -27.222  28.481  1.00  0.00     0.093 A 
BRANCH   3  13
ATOM     13  C   UNL     1      -0.043 -21.330  28.942  1.00  0.00     0.025 A 
ATOM     14  C   UNL     1       0.579 -20.101  28.665  1.00  0.00     0.016 A 
ATOM     15  C   UNL     1      -0.042 -18.903  29.025  1.00  0.00     0.051 A 
ATOM     16  C   UNL     1      -1.294 -18.915  29.651  1.00  0.00     0.157 A 
ATOM     17  C   UNL     1      -1.281 -21.344  29.603  1.00  0.00     0.062 A 
ATOM     18  C   UNL     1      -1.918 -20.142  29.942  1.00  0.00     0.158 A 
BRANCH  16  19
ATOM     19  O   UNL     1      -1.904 -17.703  29.967  1.00  0.00    -0.504 OA
ATOM     20  H   UNL     1      -2.187 -17.038  29.260  1.00  0.00     0.293 HD
ENDBRANCH  16  19
BRANCH  18  21
ATOM     21  O   UNL     1      -3.169 -20.162  30.555  1.00  0.00    -0.504 OA
ATOM     22  H   UNL     1      -3.264 -20.245  31.564  1.00  0.00     0.293 HD
ENDBRANCH  18  21
ENDBRANCH   3  13
BRANCH  10  23
ATOM     23  O   UNL     1       2.975 -26.571  26.246  1.00  0.00    -0.507 OA
ATOM     24  H   UNL     1       2.457 -26.816  25.410  1.00  0.00     0.293 HD
ENDBRANCH  10  23
BRANCH  11  25
ATOM     25  O   UNL     1       2.085 -27.920  30.774  1.00  0.00    -0.508 OA
ATOM     26  H   UNL     1       2.726 -28.702  30.697  1.00  0.00     0.293 HD
ENDBRANCH  11  25
ENDBRANCH   1   2
BRANCH   1  27
ATOM     27  C   UNL     1      -0.272 -21.942  25.135  1.00  0.00     0.339 C 
ATOM     28  C   UNL     1      -1.255 -20.756  25.096  1.00  0.00     0.214 C 
ATOM     29  O   UNL     1       0.406 -22.149  23.901  1.00  0.00    -0.332 OA
ATOM     30  C   UNL     1      -0.541 -19.483  24.629  1.00  0.00     0.180 C 
ATOM     31  C   UNL     1       1.087 -20.998  23.408  1.00  0.00     0.179 C 
ATOM     32  C   UNL     1       0.150 -19.767  23.295  1.00  0.00     0.177 C 
BRANCH  28  33
ATOM     33  O   UNL     1      -1.794 -20.542  26.378  1.00  0.00    -0.384 OA
ATOM     34  H   UNL     1      -1.848 -19.558  26.518  1.00  0.00     0.211 HD
ENDBRANCH  28  33
BRANCH  30  35
ATOM     35  O   UNL     1      -1.474 -18.449  24.453  1.00  0.00    -0.387 OA
ATOM     36  H   UNL     1      -1.091 -17.635  24.875  1.00  0.00     0.211 HD
ENDBRANCH  30  35
BRANCH  31  37
ATOM     37  C   UNL     1       2.416 -20.741  24.161  1.00  0.00     0.191 C 
BRANCH  37  38
ATOM     38  O   UNL     1       3.099 -21.946  24.382  1.00  0.00    -0.394 OA
ATOM     39  H   UNL     1       3.388 -22.284  23.494  1.00  0.00     0.210 HD
ENDBRANCH  37  38
ENDBRANCH  31  37
BRANCH  32  40
ATOM     40  O   UNL     1       0.848 -18.624  22.875  1.00  0.00    -0.387 OA
ATOM     41  H   UNL     1       0.461 -17.855  23.372  1.00  0.00     0.211 HD
ENDBRANCH  32  40
ENDBRANCH   1  27
TORSDOF 12
ENDMDL
MODEL 6
REMARK VINA RESULT:    -6.747      2.477      4.518
REMARK INTER + INTRA:         -11.394
REMARK INTER:                 -10.227
REMARK INTRA:                  -1.166
REMARK UNBOUND:                -1.492
REMARK SMILES O=c1c(O[C@@H]2O[C@H](CO)[C@H](O)[C@@H](O)[C@@H]2O)c(-c2ccc(O)c(O)c2)oc2cc(O)cc(O)c12
REMARK SMILES IDX 4 1 3 2 16 3 25 4 2 5 26 6 1 7 33 8 27 9 31 10 28 11 30 12
REMARK SMILES IDX 17 13 18 14 19 15 20 16 24 17 22 18 21 19 23 21 32 23 29 25
REMARK SMILES IDX 5 27 14 28 6 29 12 30 7 31 10 32 15 33 13 35 8 37 9 38 11 40
REMARK H PARENT 21 20 23 22 32 24 29 26 15 34 13 36 9 39 11 41
REMARK Flexibility Score: inf
ROOT
ATOM      1  O   UNL     1       0.439 -20.730  26.496  1.00  0.00    -0.454 OA
ENDROOT
BRANCH   1   2
ATOM      2  C   UNL     1      -0.233 -19.506  26.591  1.00  0.00     0.214 A 
ATOM      3  C   UNL     1      -0.914 -19.182  27.773  1.00  0.00     0.180 A 
ATOM      4  O   UNL     1      -1.495 -17.996  27.900  1.00  0.00    -0.452 OA
ATOM      5  C   UNL     1      -0.221 -18.585  25.535  1.00  0.00     0.239 A 
ATOM      6  C   UNL     1      -1.520 -17.091  26.926  1.00  0.00     0.146 A 
ATOM      7  O   UNL     1       0.444 -18.856  24.502  1.00  0.00    -0.285 OA
ATOM      8  C   UNL     1      -0.922 -17.363  25.664  1.00  0.00     0.111 A 
ATOM      9  C   UNL     1      -2.145 -15.863  27.163  1.00  0.00     0.094 A 
ATOM     10  C   UNL     1      -1.038 -16.388  24.629  1.00  0.00     0.134 A 
ATOM     11  C   UNL     1      -2.195 -14.892  26.165  1.00  0.00     0.123 A 
ATOM     12  C   UNL     1      -1.643 -15.155  24.906  1.00  0.00     0.093 A 
BRANCH   3  13
ATOM     13  C   UNL     1      -0.948 -20.123  28.910  1.00  0.00     0.025 A 
ATOM     14  C   UNL     1      -0.365 -19.779  30.142  1.00  0.00     0.016 A 
ATOM     15  C   UNL     1      -0.469 -20.644  31.233  1.00  0.00     0.051 A 
ATOM     16  C   UNL     1      -1.165 -21.853  31.114  1.00  0.00     0.157 A 
ATOM     17  C   UNL     1      -1.614 -21.352  28.780  1.00  0.00     0.062 A 
ATOM     18  C   UNL     1      -1.741 -22.209  29.882  1.00  0.00     0.158 A 
BRANCH  16  19
ATOM     19  O   UNL     1      -1.281 -22.678  32.231  1.00  0.00    -0.504 OA
ATOM     20  H   UNL     1      -0.966 -22.397  33.149  1.00  0.00     0.293 HD
ENDBRANCH  16  19
BRANCH  18  21
ATOM     21  O   UNL     1      -2.445 -23.405  29.758  1.00  0.00    -0.504 OA
ATOM     22  H   UNL     1      -2.421 -24.112  30.489  1.00  0.00     0.293 HD
ENDBRANCH  18  21
ENDBRANCH   3  13
BRANCH  10  23
ATOM     23  O   UNL     1      -0.610 -16.599  23.314  1.00  0.00    -0.507 OA
ATOM     24  H   UNL     1      -0.636 -17.499  22.849  1.00  0.00     0.293 HD
ENDBRANCH  10  23
BRANCH  11  25
ATOM     25  O   UNL     1      -2.812 -13.668  26.424  1.00  0.00    -0.508 OA
ATOM     26  H   UNL     1      -3.315 -13.163  25.703  1.00  0.00     0.293 HD
ENDBRANCH  11  25
ENDBRANCH   1   2
BRANCH   1  27
ATOM     27  C   UNL     1       1.860 -20.829  26.373  1.00  0.00     0.339 C 
ATOM     28  C   UNL     1       2.421 -21.811  27.420  1.00  0.00     0.214 C 
ATOM     29  O   UNL     1       2.244 -21.152  25.040  1.00  0.00    -0.332 OA
ATOM     30  C   UNL     1       2.042 -23.252  27.061  1.00  0.00     0.180 C 
ATOM     31  C   UNL     1       1.924 -22.483  24.646  1.00  0.00     0.179 C 
ATOM     32  C   UNL     1       2.495 -23.538  25.630  1.00  0.00     0.177 C 
BRANCH  28  33
ATOM     33  O   UNL     1       1.904 -21.498  28.691  1.00  0.00    -0.384 OA
ATOM     34  H   UNL     1       2.620 -21.028  29.198  1.00  0.00     0.211 HD
ENDBRANCH  28  33
BRANCH  30  35
ATOM     35  O   UNL     1       2.682 -24.146  27.935  1.00  0.00    -0.387 OA
ATOM     36  H   UNL     1       2.933 -24.946  27.402  1.00  0.00     0.211 HD
ENDBRANCH  30  35
BRANCH  31  37
ATOM     37  C   UNL     1       0.420 -22.646  24.314  1.00  0.00     0.191 C 
BRANCH  37  38
ATOM     38  O   UNL     1      -0.040 -21.556  23.560  1.00  0.00    -0.394 OA
ATOM     39  H   UNL     1      -1.032 -21.605  23.553  1.00  0.00     0.210 HD
ENDBRANCH  37  38
ENDBRANCH  31  37
BRANCH  32  40
ATOM     40  O   UNL     1       2.115 -24.840  25.269  1.00  0.00    -0.387 OA
ATOM     41  H   UNL     1       2.137 -25.385  26.099  1.00  0.00     0.211 HD
ENDBRANCH  32  40
ENDBRANCH   1  27
TORSDOF 12
ENDMDL
MODEL 7
REMARK VINA RESULT:    -6.739      2.942      8.002
REMARK INTER + INTRA:         -11.382
REMARK INTER:                 -10.032
REMARK INTRA:                  -1.350
REMARK UNBOUND:                -1.492
REMARK SMILES O=c1c(O[C@@H]2O[C@H](CO)[C@H](O)[C@@H](O)[C@@H]2O)c(-c2ccc(O)c(O)c2)oc2cc(O)cc(O)c12
REMARK SMILES IDX 4 1 3 2 16 3 25 4 2 5 26 6 1 7 33 8 27 9 31 10 28 11 30 12
REMARK SMILES IDX 17 13 18 14 19 15 20 16 24 17 22 18 21 19 23 21 32 23 29 25
REMARK SMILES IDX 5 27 14 28 6 29 12 30 7 31 10 32 15 33 13 35 8 37 9 38 11 40
REMARK H PARENT 21 20 23 22 32 24 29 26 15 34 13 36 9 39 11 41
REMARK Flexibility Score: inf
ROOT
ATOM      1  O   UNL     1      -0.215 -20.162  29.014  1.00  0.00    -0.454 OA
ENDROOT
BRANCH   1   2
ATOM      2  C   UNL     1      -0.467 -21.516  29.261  1.00  0.00     0.214 A 
ATOM      3  C   UNL     1      -0.024 -22.480  28.344  1.00  0.00     0.180 A 
ATOM      4  O   UNL     1      -0.195 -23.770  28.603  1.00  0.00    -0.452 OA
ATOM      5  C   UNL     1      -1.135 -21.932  30.422  1.00  0.00     0.239 A 
ATOM      6  C   UNL     1      -0.830 -24.217  29.683  1.00  0.00     0.146 A 
ATOM      7  O   UNL     1      -1.473 -21.068  31.270  1.00  0.00    -0.285 OA
ATOM      8  C   UNL     1      -1.381 -23.310  30.631  1.00  0.00     0.111 A 
ATOM      9  C   UNL     1      -0.946 -25.596  29.874  1.00  0.00     0.094 A 
ATOM     10  C   UNL     1      -2.114 -23.838  31.735  1.00  0.00     0.134 A 
ATOM     11  C   UNL     1      -1.607 -26.102  30.992  1.00  0.00     0.123 A 
ATOM     12  C   UNL     1      -2.186 -25.225  31.916  1.00  0.00     0.093 A 
BRANCH   3  13
ATOM     13  C   UNL     1       0.686 -22.083  27.113  1.00  0.00     0.025 A 
ATOM     14  C   UNL     1       2.064 -21.808  27.137  1.00  0.00     0.016 A 
ATOM     15  C   UNL     1       2.741 -21.509  25.954  1.00  0.00     0.051 A 
ATOM     16  C   UNL     1       2.057 -21.493  24.732  1.00  0.00     0.157 A 
ATOM     17  C   UNL     1      -0.008 -22.031  25.894  1.00  0.00     0.062 A 
ATOM     18  C   UNL     1       0.676 -21.755  24.700  1.00  0.00     0.158 A 
BRANCH  16  19
ATOM     19  O   UNL     1       2.768 -21.225  23.563  1.00  0.00    -0.504 OA
ATOM     20  H   UNL     1       2.340 -21.258  22.649  1.00  0.00     0.293 HD
ENDBRANCH  16  19
BRANCH  18  21
ATOM     21  O   UNL     1      -0.009 -21.753  23.487  1.00  0.00    -0.504 OA
ATOM     22  H   UNL     1      -0.204 -20.887  22.990  1.00  0.00     0.293 HD
ENDBRANCH  18  21
ENDBRANCH   3  13
BRANCH  10  23
ATOM     23  O   UNL     1      -2.812 -23.045  32.652  1.00  0.00    -0.507 OA
ATOM     24  H   UNL     1      -3.609 -22.470  32.409  1.00  0.00     0.293 HD
ENDBRANCH  10  23
BRANCH  11  25
ATOM     25  O   UNL     1      -1.702 -27.482  31.171  1.00  0.00    -0.508 OA
ATOM     26  H   UNL     1      -2.056 -28.090  30.440  1.00  0.00     0.293 HD
ENDBRANCH  11  25
ENDBRANCH   1   2
BRANCH   1  27
ATOM     27  C   UNL     1      -0.966 -19.391  28.072  1.00  0.00     0.339 C 
ATOM     28  C   UNL     1      -1.941 -18.450  28.806  1.00  0.00     0.214 C 
ATOM     29  O   UNL     1      -0.110 -18.712  27.159  1.00  0.00    -0.332 OA
ATOM     30  C   UNL     1      -1.173 -17.316  29.496  1.00  0.00     0.180 C 
ATOM     31  C   UNL     1       0.628 -17.639  27.739  1.00  0.00     0.179 C 
ATOM     32  C   UNL     1      -0.290 -16.619  28.461  1.00  0.00     0.177 C 
BRANCH  28  33
ATOM     33  O   UNL     1      -2.666 -19.174  29.771  1.00  0.00    -0.384 OA
ATOM     34  H   UNL     1      -2.691 -18.623  30.600  1.00  0.00     0.211 HD
ENDBRANCH  28  33
BRANCH  30  35
ATOM     35  O   UNL     1      -2.078 -16.386  30.032  1.00  0.00    -0.387 OA
ATOM     36  H   UNL     1      -2.504 -16.815  30.820  1.00  0.00     0.211 HD
ENDBRANCH  30  35
BRANCH  31  37
ATOM     37  C   UNL     1       1.828 -18.146  28.577  1.00  0.00     0.191 C 
BRANCH  37  38
ATOM     38  O   UNL     1       2.791 -17.136  28.722  1.00  0.00    -0.394 OA
ATOM     39  H   UNL     1       3.117 -17.176  29.658  1.00  0.00     0.210 HD
ENDBRANCH  37  38
ENDBRANCH  31  37
BRANCH  32  40
ATOM     40  O   UNL     1       0.454 -15.607  29.086  1.00  0.00    -0.387 OA
ATOM     41  H   UNL     1       0.203 -15.619  30.047  1.00  0.00     0.211 HD
ENDBRANCH  32  40
ENDBRANCH   1  27
TORSDOF 12
ENDMDL
MODEL 8
REMARK VINA RESULT:    -6.589      2.924      8.099
REMARK INTER + INTRA:         -11.162
REMARK INTER:                  -9.919
REMARK INTRA:                  -1.243
REMARK UNBOUND:                -1.492
REMARK SMILES O=c1c(O[C@@H]2O[C@H](CO)[C@H](O)[C@@H](O)[C@@H]2O)c(-c2ccc(O)c(O)c2)oc2cc(O)cc(O)c12
REMARK SMILES IDX 4 1 3 2 16 3 25 4 2 5 26 6 1 7 33 8 27 9 31 10 28 11 30 12
REMARK SMILES IDX 17 13 18 14 19 15 20 16 24 17 22 18 21 19 23 21 32 23 29 25
REMARK SMILES IDX 5 27 14 28 6 29 12 30 7 31 10 32 15 33 13 35 8 37 9 38 11 40
REMARK H PARENT 21 20 23 22 32 24 29 26 15 34 13 36 9 39 11 41
REMARK Flexibility Score: inf
ROOT
ATOM      1  O   UNL     1      -0.251 -19.584  27.618  1.00  0.00    -0.454 OA
ENDROOT
BRANCH   1   2
ATOM      2  C   UNL     1      -0.511 -20.768  28.316  1.00  0.00     0.214 A 
ATOM      3  C   UNL     1      -0.027 -21.985  27.817  1.00  0.00     0.180 A 
ATOM      4  O   UNL     1      -0.207 -23.104  28.508  1.00  0.00    -0.452 OA
ATOM      5  C   UNL     1      -1.230 -20.760  29.520  1.00  0.00     0.239 A 
ATOM      6  C   UNL     1      -0.888 -23.152  29.649  1.00  0.00     0.146 A 
ATOM      7  O   UNL     1      -1.606 -19.657  29.995  1.00  0.00    -0.285 OA
ATOM      8  C   UNL     1      -1.483 -21.979  30.192  1.00  0.00     0.111 A 
ATOM      9  C   UNL     1      -1.011 -24.378  30.310  1.00  0.00     0.094 A 
ATOM     10  C   UNL     1      -2.263 -22.096  31.381  1.00  0.00     0.134 A 
ATOM     11  C   UNL     1      -1.720 -24.468  31.506  1.00  0.00     0.123 A 
ATOM     12  C   UNL     1      -2.341 -23.332  32.036  1.00  0.00     0.093 A 
BRANCH   3  13
ATOM     13  C   UNL     1       0.736 -22.036  26.555  1.00  0.00     0.025 A 
ATOM     14  C   UNL     1       2.141 -21.997  26.566  1.00  0.00     0.016 A 
ATOM     15  C   UNL     1       2.856 -22.123  25.373  1.00  0.00     0.051 A 
ATOM     16  C   UNL     1       2.181 -22.303  24.159  1.00  0.00     0.157 A 
ATOM     17  C   UNL     1       0.058 -22.179  25.335  1.00  0.00     0.062 A 
ATOM     18  C   UNL     1       0.775 -22.331  24.139  1.00  0.00     0.158 A 
BRANCH  16  19
ATOM     19  O   UNL     1       2.923 -22.460  22.991  1.00  0.00    -0.504 OA
ATOM     20  H   UNL     1       3.916 -22.282  22.950  1.00  0.00     0.293 HD
ENDBRANCH  16  19
BRANCH  18  21
ATOM     21  O   UNL     1       0.096 -22.522  22.937  1.00  0.00    -0.504 OA
ATOM     22  H   UNL     1      -0.670 -23.186  22.860  1.00  0.00     0.293 HD
ENDBRANCH  18  21
ENDBRANCH   3  13
BRANCH  10  23
ATOM     23  O   UNL     1      -3.002 -21.043  31.930  1.00  0.00    -0.507 OA
ATOM     24  H   UNL     1      -3.458 -20.326  31.378  1.00  0.00     0.293 HD
ENDBRANCH  10  23
BRANCH  11  25
ATOM     25  O   UNL     1      -1.821 -25.698  32.156  1.00  0.00    -0.508 OA
ATOM     26  H   UNL     1      -2.635 -25.942  32.709  1.00  0.00     0.293 HD
ENDBRANCH  11  25
ENDBRANCH   1   2
BRANCH   1  27
ATOM     27  C   UNL     1      -1.124 -19.068  26.610  1.00  0.00     0.339 C 
ATOM     28  C   UNL     1      -1.682 -17.696  27.036  1.00  0.00     0.214 C 
ATOM     29  O   UNL     1      -0.490 -19.045  25.336  1.00  0.00    -0.332 OA
ATOM     30  C   UNL     1      -0.582 -16.629  26.977  1.00  0.00     0.180 C 
ATOM     31  C   UNL     1       0.541 -18.068  25.215  1.00  0.00     0.179 C 
ATOM     32  C   UNL     1       0.045 -16.644  25.584  1.00  0.00     0.177 C 
BRANCH  28  33
ATOM     33  O   UNL     1      -2.185 -17.772  28.348  1.00  0.00    -0.384 OA
ATOM     34  H   UNL     1      -3.151 -17.536  28.311  1.00  0.00     0.211 HD
ENDBRANCH  28  33
BRANCH  30  35
ATOM     35  O   UNL     1      -1.133 -15.361  27.221  1.00  0.00    -0.387 OA
ATOM     36  H   UNL     1      -0.913 -14.792  26.437  1.00  0.00     0.211 HD
ENDBRANCH  30  35
BRANCH  31  37
ATOM     37  C   UNL     1       1.847 -18.509  25.921  1.00  0.00     0.191 C 
BRANCH  37  38
ATOM     38  O   UNL     1       2.840 -18.813  24.979  1.00  0.00    -0.394 OA
ATOM     39  H   UNL     1       3.524 -19.363  25.443  1.00  0.00     0.210 HD
ENDBRANCH  37  38
ENDBRANCH  31  37
BRANCH  32  40
ATOM     40  O   UNL     1       1.086 -15.705  25.527  1.00  0.00    -0.387 OA
ATOM     41  H   UNL     1       1.474 -15.763  24.614  1.00  0.00     0.211 HD
ENDBRANCH  32  40
ENDBRANCH   1  27
TORSDOF 12
ENDMDL
MODEL 9
REMARK VINA RESULT:    -6.585      2.742      7.734
REMARK INTER + INTRA:         -11.157
REMARK INTER:                  -9.979
REMARK INTRA:                  -1.178
REMARK UNBOUND:                -1.492
REMARK SMILES O=c1c(O[C@@H]2O[C@H](CO)[C@H](O)[C@@H](O)[C@@H]2O)c(-c2ccc(O)c(O)c2)oc2cc(O)cc(O)c12
REMARK SMILES IDX 4 1 3 2 16 3 25 4 2 5 26 6 1 7 33 8 27 9 31 10 28 11 30 12
REMARK SMILES IDX 17 13 18 14 19 15 20 16 24 17 22 18 21 19 23 21 32 23 29 25
REMARK SMILES IDX 5 27 14 28 6 29 12 30 7 31 10 32 15 33 13 35 8 37 9 38 11 40
REMARK H PARENT 21 20 23 22 32 24 29 26 15 34 13 36 9 39 11 41
REMARK Flexibility Score: inf
ROOT
ATOM      1  O   UNL     1      -0.038 -20.410  28.545  1.00  0.00    -0.454 OA
ENDROOT
BRANCH   1   2
ATOM      2  C   UNL     1      -0.356 -21.715  28.938  1.00  0.00     0.214 A 
ATOM      3  C   UNL     1       0.006 -22.791  28.116  1.00  0.00     0.180 A 
ATOM      4  O   UNL     1      -0.228 -24.036  28.511  1.00  0.00    -0.452 OA
ATOM      5  C   UNL     1      -1.012 -21.970  30.150  1.00  0.00     0.239 A 
ATOM      6  C   UNL     1      -0.855 -24.332  29.647  1.00  0.00     0.146 A 
ATOM      7  O   UNL     1      -1.278 -21.005  30.912  1.00  0.00    -0.285 OA
ATOM      8  C   UNL     1      -1.328 -23.303  30.507  1.00  0.00     0.111 A 
ATOM      9  C   UNL     1      -1.041 -25.676  29.983  1.00  0.00     0.094 A 
ATOM     10  C   UNL     1      -2.056 -23.671  31.677  1.00  0.00     0.134 A 
ATOM     11  C   UNL     1      -1.697 -26.025  31.162  1.00  0.00     0.123 A 
ATOM     12  C   UNL     1      -2.199 -25.026  32.003  1.00  0.00     0.093 A 
BRANCH   3  13
ATOM     13  C   UNL     1       0.701 -22.565  26.834  1.00  0.00     0.025 A 
ATOM     14  C   UNL     1       1.997 -23.065  26.624  1.00  0.00     0.016 A 
ATOM     15  C   UNL     1       2.616 -22.912  25.381  1.00  0.00     0.051 A 
ATOM     16  C   UNL     1       1.946 -22.271  24.331  1.00  0.00     0.157 A 
ATOM     17  C   UNL     1       0.044 -21.890  25.794  1.00  0.00     0.062 A 
ATOM     18  C   UNL     1       0.653 -21.757  24.538  1.00  0.00     0.158 A 
BRANCH  16  19
ATOM     19  O   UNL     1       2.576 -22.165  23.093  1.00  0.00    -0.504 OA
ATOM     20  H   UNL     1       3.395 -22.706  22.853  1.00  0.00     0.293 HD
ENDBRANCH  16  19
BRANCH  18  21
ATOM     21  O   UNL     1      -0.025 -21.129  23.495  1.00  0.00    -0.504 OA
ATOM     22  H   UNL     1       0.461 -20.822  22.656  1.00  0.00     0.293 HD
ENDBRANCH  18  21
ENDBRANCH   3  13
BRANCH  10  23
ATOM     23  O   UNL     1      -2.683 -22.750  32.523  1.00  0.00    -0.507 OA
ATOM     24  H   UNL     1      -3.686 -22.694  32.653  1.00  0.00     0.293 HD
ENDBRANCH  10  23
BRANCH  11  25
ATOM     25  O   UNL     1      -1.862 -27.372  31.486  1.00  0.00    -0.508 OA
ATOM     26  H   UNL     1      -2.782 -27.792  31.562  1.00  0.00     0.293 HD
ENDBRANCH  11  25
ENDBRANCH   1   2
BRANCH   1  27
ATOM     27  C   UNL     1       0.847 -19.568  29.290  1.00  0.00     0.339 C 
ATOM     28  C   UNL     1       1.851 -18.878  28.346  1.00  0.00     0.214 C 
ATOM     29  O   UNL     1       0.125 -18.653  30.107  1.00  0.00    -0.332 OA
ATOM     30  C   UNL     1       1.145 -17.809  27.502  1.00  0.00     0.180 C 
ATOM     31  C   UNL     1      -0.549 -17.628  29.382  1.00  0.00     0.179 C 
ATOM     32  C   UNL     1       0.407 -16.852  28.438  1.00  0.00     0.177 C 
BRANCH  28  33
ATOM     33  O   UNL     1       2.434 -19.832  27.492  1.00  0.00    -0.384 OA
ATOM     34  H   UNL     1       3.036 -19.344  26.866  1.00  0.00     0.211 HD
ENDBRANCH  28  33
BRANCH  30  35
ATOM     35  O   UNL     1       2.092 -17.088  26.758  1.00  0.00    -0.387 OA
ATOM     36  H   UNL     1       1.852 -17.194  25.800  1.00  0.00     0.211 HD
ENDBRANCH  30  35
BRANCH  31  37
ATOM     37  C   UNL     1      -1.848 -18.146  28.715  1.00  0.00     0.191 C 
BRANCH  37  38
ATOM     38  O   UNL     1      -2.602 -18.902  29.625  1.00  0.00    -0.394 OA
ATOM     39  H   UNL     1      -2.688 -18.361  30.453  1.00  0.00     0.210 HD
ENDBRANCH  37  38
ENDBRANCH  31  37
BRANCH  32  40
ATOM     40  O   UNL     1      -0.282 -15.894  27.679  1.00  0.00    -0.387 OA
ATOM     41  H   UNL     1      -0.318 -16.238  26.748  1.00  0.00     0.211 HD
ENDBRANCH  32  40
ENDBRANCH   1  27
TORSDOF 12
ENDMDL
