MODEL 1
REMARK VINA RESULT:    -4.496      0.000      0.000
REMARK INTER + INTRA:         -10.768
REMARK INTER:                  -8.702
REMARK INTRA:                  -2.065
REMARK UNBOUND:                -2.065
REMARK SMILES CCCCCCCCCCCCCCCCCC(=O)[O-]
REMARK SMILES IDX 10 1 11 2 12 3 13 4 14 5 15 6 16 7 17 8 18 9 19 10 20 11
REMARK SMILES IDX 9 12 8 13 7 14 6 15 5 16 4 17 3 18 2 19 1 20
REMARK H PARENT
REMARK Flexibility Score: inf
ROOT
ATOM      1  C   UNL     1      19.988  10.330   7.423  1.00  0.00     0.000 C 
ENDROOT
BRANCH   1   2
ATOM      2  C   UNL     1      20.670   9.099   8.046  1.00  0.00     0.000 C 
BRANCH   2   3
ATOM      3  C   UNL     1      20.529   7.832   7.181  1.00  0.00     0.000 C 
BRANCH   3   4
ATOM      4  C   UNL     1      21.458   6.666   7.569  1.00  0.00     0.000 C 
BRANCH   4   5
ATOM      5  C   UNL     1      22.735   6.608   6.718  1.00  0.00     0.000 C 
BRANCH   5   6
ATOM      6  C   UNL     1      22.427   6.102   5.301  1.00  0.00     0.000 C 
BRANCH   6   7
ATOM      7  C   UNL     1      23.678   5.600   4.564  1.00  0.00     0.006 C 
BRANCH   7   8
ATOM      8  C   UNL     1      23.356   5.003   3.186  1.00  0.00     0.053 C 
BRANCH   8   9
ATOM      9  C   UNL     1      24.603   4.885   2.366  1.00  0.00     0.041 C 
ATOM     10  O   UNL     1      24.558   4.382   1.212  1.00  0.00    -0.550 OA
ATOM     11  O   UNL     1      25.824   5.286   2.894  1.00  0.00    -0.550 OA
ENDBRANCH   8   9
ENDBRANCH   7   8
ENDBRANCH   6   7
ENDBRANCH   5   6
ENDBRANCH   4   5
ENDBRANCH   3   4
ENDBRANCH   2   3
ENDBRANCH   1   2
BRANCH   1  12
ATOM     12  C   UNL     1      19.265  10.006   6.104  1.00  0.00     0.000 C 
BRANCH  12  13
ATOM     13  C   UNL     1      17.977  10.826   5.912  1.00  0.00    -0.000 C 
BRANCH  13  14
ATOM     14  C   UNL     1      16.706   9.971   6.112  1.00  0.00    -0.000 C 
BRANCH  14  15
ATOM     15  C   UNL     1      16.984   8.588   6.732  1.00  0.00    -0.000 C 
BRANCH  15  16
ATOM     16  C   UNL     1      16.421   7.395   5.937  1.00  0.00    -0.000 C 
BRANCH  16  17
ATOM     17  C   UNL     1      17.450   6.296   5.611  1.00  0.00    -0.000 C 
BRANCH  17  18
ATOM     18  C   UNL     1      17.819   6.249   4.117  1.00  0.00    -0.000 C 
BRANCH  18  19
ATOM     19  C   UNL     1      18.974   7.199   3.766  1.00  0.00    -0.003 C 
ATOM     20  C   UNL     1      18.538   8.353   2.863  1.00  0.00     0.004 C 
ENDBRANCH  18  19
ENDBRANCH  17  18
ENDBRANCH  16  17
ENDBRANCH  15  16
ENDBRANCH  14  15
ENDBRANCH  13  14
ENDBRANCH  12  13
ENDBRANCH   1  12
TORSDOF 16
ENDMDL
MODEL 2
REMARK VINA RESULT:    -4.480      1.437      2.168
REMARK INTER + INTRA:         -10.736
REMARK INTER:                  -8.341
REMARK INTRA:                  -2.395
REMARK UNBOUND:                -2.065
REMARK SMILES CCCCCCCCCCCCCCCCCC(=O)[O-]
REMARK SMILES IDX 10 1 11 2 12 3 13 4 14 5 15 6 16 7 17 8 18 9 19 10 20 11
REMARK SMILES IDX 9 12 8 13 7 14 6 15 5 16 4 17 3 18 2 19 1 20
REMARK H PARENT
REMARK Flexibility Score: inf
ROOT
ATOM      1  C   UNL     1      19.258  10.409   6.098  1.00  0.00     0.000 C 
ENDROOT
BRANCH   1   2
ATOM      2  C   UNL     1      19.962  11.124   7.265  1.00  0.00     0.000 C 
BRANCH   2   3
ATOM      3  C   UNL     1      20.699  10.154   8.208  1.00  0.00     0.000 C 
BRANCH   3   4
ATOM      4  C   UNL     1      20.602   8.666   7.825  1.00  0.00     0.000 C 
BRANCH   4   5
ATOM      5  C   UNL     1      21.867   7.871   8.179  1.00  0.00     0.000 C 
BRANCH   5   6
ATOM      6  C   UNL     1      21.813   6.458   7.578  1.00  0.00     0.000 C 
BRANCH   6   7
ATOM      7  C   UNL     1      22.237   6.423   6.102  1.00  0.00     0.006 C 
BRANCH   7   8
ATOM      8  C   UNL     1      23.678   5.928   5.909  1.00  0.00     0.053 C 
BRANCH   8   9
ATOM      9  C   UNL     1      23.682   4.511   5.428  1.00  0.00     0.041 C 
ATOM     10  O   UNL     1      23.691   4.259   4.194  1.00  0.00    -0.550 OA
ATOM     11  O   UNL     1      23.626   3.466   6.343  1.00  0.00    -0.550 OA
ENDBRANCH   8   9
ENDBRANCH   7   8
ENDBRANCH   6   7
ENDBRANCH   5   6
ENDBRANCH   4   5
ENDBRANCH   3   4
ENDBRANCH   2   3
ENDBRANCH   1   2
BRANCH   1  12
ATOM     12  C   UNL     1      17.850  10.962   5.824  1.00  0.00     0.000 C 
BRANCH  12  13
ATOM     13  C   UNL     1      16.736   9.950   6.146  1.00  0.00    -0.000 C 
BRANCH  13  14
ATOM     14  C   UNL     1      16.977   9.226   7.489  1.00  0.00    -0.000 C 
BRANCH  14  15
ATOM     15  C   UNL     1      17.116   7.698   7.350  1.00  0.00    -0.000 C 
BRANCH  15  16
ATOM     16  C   UNL     1      16.399   7.090   6.130  1.00  0.00    -0.000 C 
BRANCH  16  17
ATOM     17  C   UNL     1      17.298   6.240   5.213  1.00  0.00    -0.000 C 
BRANCH  17  18
ATOM     18  C   UNL     1      18.713   6.826   5.055  1.00  0.00    -0.000 C 
BRANCH  18  19
ATOM     19  C   UNL     1      19.065   7.127   3.591  1.00  0.00    -0.003 C 
ATOM     20  C   UNL     1      18.406   8.407   3.075  1.00  0.00     0.004 C 
ENDBRANCH  18  19
ENDBRANCH  17  18
ENDBRANCH  16  17
ENDBRANCH  15  16
ENDBRANCH  14  15
ENDBRANCH  13  14
ENDBRANCH  12  13
ENDBRANCH   1  12
TORSDOF 16
ENDMDL
MODEL 3
REMARK VINA RESULT:    -4.322      1.181      2.221
REMARK INTER + INTRA:         -10.431
REMARK INTER:                  -8.314
REMARK INTRA:                  -2.117
REMARK UNBOUND:                -2.065
REMARK SMILES CCCCCCCCCCCCCCCCCC(=O)[O-]
REMARK SMILES IDX 10 1 11 2 12 3 13 4 14 5 15 6 16 7 17 8 18 9 19 10 20 11
REMARK SMILES IDX 9 12 8 13 7 14 6 15 5 16 4 17 3 18 2 19 1 20
REMARK H PARENT
REMARK Flexibility Score: inf
ROOT
ATOM      1  C   UNL     1      19.631   9.706   6.498  1.00  0.00     0.000 C 
ENDROOT
BRANCH   1   2
ATOM      2  C   UNL     1      20.346   9.839   7.855  1.00  0.00     0.000 C 
BRANCH   2   3
ATOM      3  C   UNL     1      21.179   8.596   8.219  1.00  0.00     0.000 C 
BRANCH   3   4
ATOM      4  C   UNL     1      20.989   7.383   7.290  1.00  0.00     0.000 C 
BRANCH   4   5
ATOM      5  C   UNL     1      22.143   6.373   7.378  1.00  0.00     0.000 C 
BRANCH   5   6
ATOM      6  C   UNL     1      23.120   6.554   6.207  1.00  0.00     0.000 C 
BRANCH   6   7
ATOM      7  C   UNL     1      23.355   5.254   5.422  1.00  0.00     0.006 C 
BRANCH   7   8
ATOM      8  C   UNL     1      23.302   5.460   3.901  1.00  0.00     0.053 C 
BRANCH   8   9
ATOM      9  C   UNL     1      23.819   4.247   3.193  1.00  0.00     0.041 C 
ATOM     10  O   UNL     1      23.982   4.262   1.944  1.00  0.00    -0.550 OA
ATOM     11  O   UNL     1      24.076   3.082   3.906  1.00  0.00    -0.550 OA
ENDBRANCH   8   9
ENDBRANCH   7   8
ENDBRANCH   6   7
ENDBRANCH   5   6
ENDBRANCH   4   5
ENDBRANCH   3   4
ENDBRANCH   2   3
ENDBRANCH   1   2
BRANCH   1  12
ATOM     12  C   UNL     1      18.693  10.889   6.201  1.00  0.00     0.000 C 
BRANCH  12  13
ATOM     13  C   UNL     1      17.845  10.676   4.936  1.00  0.00    -0.000 C 
BRANCH  13  14
ATOM     14  C   UNL     1      18.533   9.734   3.923  1.00  0.00    -0.000 C 
BRANCH  14  15
ATOM     15  C   UNL     1      17.548   8.861   3.123  1.00  0.00    -0.000 C 
BRANCH  15  16
ATOM     16  C   UNL     1      17.767   7.343   3.262  1.00  0.00    -0.000 C 
BRANCH  16  17
ATOM     17  C   UNL     1      18.445   6.907   4.574  1.00  0.00    -0.000 C 
BRANCH  17  18
ATOM     18  C   UNL     1      17.466   6.247   5.561  1.00  0.00    -0.000 C 
BRANCH  18  19
ATOM     19  C   UNL     1      16.818   7.264   6.514  1.00  0.00    -0.003 C 
ATOM     20  C   UNL     1      17.357   7.163   7.941  1.00  0.00     0.004 C 
ENDBRANCH  18  19
ENDBRANCH  17  18
ENDBRANCH  16  17
ENDBRANCH  15  16
ENDBRANCH  14  15
ENDBRANCH  13  14
ENDBRANCH  12  13
ENDBRANCH   1  12
TORSDOF 16
ENDMDL
MODEL 4
REMARK VINA RESULT:    -4.316      3.969      6.916
REMARK INTER + INTRA:         -10.418
REMARK INTER:                  -7.971
REMARK INTRA:                  -2.448
REMARK UNBOUND:                -2.065
REMARK SMILES CCCCCCCCCCCCCCCCCC(=O)[O-]
REMARK SMILES IDX 10 1 11 2 12 3 13 4 14 5 15 6 16 7 17 8 18 9 19 10 20 11
REMARK SMILES IDX 9 12 8 13 7 14 6 15 5 16 4 17 3 18 2 19 1 20
REMARK H PARENT
REMARK Flexibility Score: inf
ROOT
ATOM      1  C   UNL     1      18.503   6.517   2.774  1.00  0.00     0.000 C 
ENDROOT
BRANCH   1   2
ATOM      2  C   UNL     1      17.894   7.745   2.075  1.00  0.00     0.000 C 
BRANCH   2   3
ATOM      3  C   UNL     1      18.614   9.059   2.432  1.00  0.00     0.000 C 
BRANCH   3   4
ATOM      4  C   UNL     1      17.699  10.287   2.591  1.00  0.00     0.000 C 
BRANCH   4   5
ATOM      5  C   UNL     1      16.349  10.127   1.876  1.00  0.00     0.000 C 
BRANCH   5   6
ATOM      6  C   UNL     1      16.352  10.863   0.528  1.00  0.00     0.000 C 
BRANCH   6   7
ATOM      7  C   UNL     1      16.050   9.934  -0.658  1.00  0.00     0.006 C 
BRANCH   7   8
ATOM      8  C   UNL     1      17.309   9.257  -1.217  1.00  0.00     0.053 C 
BRANCH   8   9
ATOM      9  C   UNL     1      17.390   9.448  -2.699  1.00  0.00     0.041 C 
ATOM     10  O   UNL     1      18.506   9.620  -3.258  1.00  0.00    -0.550 OA
ATOM     11  O   UNL     1      16.227   9.485  -3.459  1.00  0.00    -0.550 OA
ENDBRANCH   8   9
ENDBRANCH   7   8
ENDBRANCH   6   7
ENDBRANCH   5   6
ENDBRANCH   4   5
ENDBRANCH   3   4
ENDBRANCH   2   3
ENDBRANCH   1   2
BRANCH   1  12
ATOM     12  C   UNL     1      18.234   6.500   4.288  1.00  0.00     0.000 C 
BRANCH  12  13
ATOM     13  C   UNL     1      16.769   6.180   4.632  1.00  0.00    -0.000 C 
BRANCH  13  14
ATOM     14  C   UNL     1      16.208   7.115   5.726  1.00  0.00    -0.000 C 
BRANCH  14  15
ATOM     15  C   UNL     1      15.882   8.532   5.219  1.00  0.00    -0.000 C 
BRANCH  15  16
ATOM     16  C   UNL     1      16.535   9.674   6.020  1.00  0.00    -0.000 C 
BRANCH  16  17
ATOM     17  C   UNL     1      17.684   9.236   6.946  1.00  0.00    -0.000 C 
BRANCH  17  18
ATOM     18  C   UNL     1      19.071   9.421   6.303  1.00  0.00    -0.000 C 
BRANCH  18  19
ATOM     19  C   UNL     1      20.210   8.939   7.214  1.00  0.00    -0.003 C 
ATOM     20  C   UNL     1      20.628   7.497   6.926  1.00  0.00     0.004 C 
ENDBRANCH  18  19
ENDBRANCH  17  18
ENDBRANCH  16  17
ENDBRANCH  15  16
ENDBRANCH  14  15
ENDBRANCH  13  14
ENDBRANCH  12  13
ENDBRANCH   1  12
TORSDOF 16
ENDMDL
MODEL 5
REMARK VINA RESULT:    -4.285      2.585      5.527
REMARK INTER + INTRA:         -10.358
REMARK INTER:                  -8.466
REMARK INTRA:                  -1.892
REMARK UNBOUND:                -2.065
REMARK SMILES CCCCCCCCCCCCCCCCCC(=O)[O-]
REMARK SMILES IDX 10 1 11 2 12 3 13 4 14 5 15 6 16 7 17 8 18 9 19 10 20 11
REMARK SMILES IDX 9 12 8 13 7 14 6 15 5 16 4 17 3 18 2 19 1 20
REMARK H PARENT
REMARK Flexibility Score: inf
ROOT
ATOM      1  C   UNL     1      19.212  10.210   6.150  1.00  0.00     0.000 C 
ENDROOT
BRANCH   1   2
ATOM      2  C   UNL     1      17.800  10.824   6.137  1.00  0.00     0.000 C 
BRANCH   2   3
ATOM      3  C   UNL     1      16.684   9.762   6.127  1.00  0.00     0.000 C 
BRANCH   3   4
ATOM      4  C   UNL     1      17.134   8.332   6.476  1.00  0.00     0.000 C 
BRANCH   4   5
ATOM      5  C   UNL     1      16.241   7.251   5.850  1.00  0.00     0.000 C 
BRANCH   5   6
ATOM      6  C   UNL     1      17.076   6.256   5.031  1.00  0.00     0.000 C 
BRANCH   6   7
ATOM      7  C   UNL     1      18.493   6.771   4.734  1.00  0.00     0.006 C 
BRANCH   7   8
ATOM      8  C   UNL     1      18.870   6.651   3.251  1.00  0.00     0.053 C 
BRANCH   8   9
ATOM      9  C   UNL     1      18.401   7.855   2.495  1.00  0.00     0.041 C 
ATOM     10  O   UNL     1      18.435   8.994   3.031  1.00  0.00    -0.550 OA
ATOM     11  O   UNL     1      17.881   7.713   1.214  1.00  0.00    -0.550 OA
ENDBRANCH   8   9
ENDBRANCH   7   8
ENDBRANCH   6   7
ENDBRANCH   5   6
ENDBRANCH   4   5
ENDBRANCH   3   4
ENDBRANCH   2   3
ENDBRANCH   1   2
BRANCH   1  12
ATOM     12  C   UNL     1      20.029  10.623   7.386  1.00  0.00     0.000 C 
BRANCH  12  13
ATOM     13  C   UNL     1      20.582   9.418   8.167  1.00  0.00    -0.000 C 
BRANCH  13  14
ATOM     14  C   UNL     1      20.698   8.155   7.286  1.00  0.00    -0.000 C 
BRANCH  14  15
ATOM     15  C   UNL     1      21.652   7.089   7.858  1.00  0.00    -0.000 C 
BRANCH  15  16
ATOM     16  C   UNL     1      23.140   7.303   7.522  1.00  0.00    -0.000 C 
BRANCH  16  17
ATOM     17  C   UNL     1      23.781   6.178   6.689  1.00  0.00    -0.000 C 
BRANCH  17  18
ATOM     18  C   UNL     1      22.813   5.577   5.653  1.00  0.00    -0.000 C 
BRANCH  18  19
ATOM     19  C   UNL     1      23.381   5.613   4.227  1.00  0.00    -0.003 C 
ATOM     20  C   UNL     1      23.867   4.244   3.750  1.00  0.00     0.004 C 
ENDBRANCH  18  19
ENDBRANCH  17  18
ENDBRANCH  16  17
ENDBRANCH  15  16
ENDBRANCH  14  15
ENDBRANCH  13  14
ENDBRANCH  12  13
ENDBRANCH   1  12
TORSDOF 16
ENDMDL
MODEL 6
REMARK VINA RESULT:    -4.279      2.260      3.189
REMARK INTER + INTRA:         -10.348
REMARK INTER:                  -8.206
REMARK INTRA:                  -2.142
REMARK UNBOUND:                -2.065
REMARK SMILES CCCCCCCCCCCCCCCCCC(=O)[O-]
REMARK SMILES IDX 10 1 11 2 12 3 13 4 14 5 15 6 16 7 17 8 18 9 19 10 20 11
REMARK SMILES IDX 9 12 8 13 7 14 6 15 5 16 4 17 3 18 2 19 1 20
REMARK H PARENT
REMARK Flexibility Score: inf
ROOT
ATOM      1  C   UNL     1      18.903  10.415   5.504  1.00  0.00     0.000 C 
ENDROOT
BRANCH   1   2
ATOM      2  C   UNL     1      18.912  11.121   6.871  1.00  0.00     0.000 C 
BRANCH   2   3
ATOM      3  C   UNL     1      20.248  10.964   7.621  1.00  0.00     0.000 C 
BRANCH   3   4
ATOM      4  C   UNL     1      20.289   9.831   8.662  1.00  0.00     0.000 C 
BRANCH   4   5
ATOM      5  C   UNL     1      21.268   8.708   8.290  1.00  0.00     0.000 C 
BRANCH   5   6
ATOM      6  C   UNL     1      20.605   7.693   7.346  1.00  0.00     0.000 C 
BRANCH   6   7
ATOM      7  C   UNL     1      21.621   6.766   6.662  1.00  0.00     0.006 C 
BRANCH   7   8
ATOM      8  C   UNL     1      22.722   6.284   7.616  1.00  0.00     0.053 C 
BRANCH   8   9
ATOM      9  C   UNL     1      24.073   6.539   7.024  1.00  0.00     0.041 C 
ATOM     10  O   UNL     1      24.272   6.355   5.794  1.00  0.00    -0.550 OA
ATOM     11  O   UNL     1      25.126   6.935   7.839  1.00  0.00    -0.550 OA
ENDBRANCH   8   9
ENDBRANCH   7   8
ENDBRANCH   6   7
ENDBRANCH   5   6
ENDBRANCH   4   5
ENDBRANCH   3   4
ENDBRANCH   2   3
ENDBRANCH   1   2
BRANCH   1  12
ATOM     12  C   UNL     1      17.629   9.586   5.269  1.00  0.00     0.000 C 
BRANCH  12  13
ATOM     13  C   UNL     1      17.014   9.054   6.575  1.00  0.00    -0.000 C 
BRANCH  13  14
ATOM     14  C   UNL     1      16.568   7.580   6.452  1.00  0.00    -0.000 C 
BRANCH  14  15
ATOM     15  C   UNL     1      17.671   6.644   5.922  1.00  0.00    -0.000 C 
BRANCH  15  16
ATOM     16  C   UNL     1      17.330   5.919   4.607  1.00  0.00    -0.000 C 
BRANCH  16  17
ATOM     17  C   UNL     1      16.064   6.434   3.897  1.00  0.00    -0.000 C 
BRANCH  17  18
ATOM     18  C   UNL     1      16.375   7.478   2.808  1.00  0.00    -0.000 C 
BRANCH  18  19
ATOM     19  C   UNL     1      17.780   7.306   2.212  1.00  0.00    -0.003 C 
ATOM     20  C   UNL     1      18.333   8.601   1.618  1.00  0.00     0.004 C 
ENDBRANCH  18  19
ENDBRANCH  17  18
ENDBRANCH  16  17
ENDBRANCH  15  16
ENDBRANCH  14  15
ENDBRANCH  13  14
ENDBRANCH  12  13
ENDBRANCH   1  12
TORSDOF 16
ENDMDL
MODEL 7
REMARK VINA RESULT:    -4.216      1.086      1.965
REMARK INTER + INTRA:         -10.225
REMARK INTER:                  -8.527
REMARK INTRA:                  -1.698
REMARK UNBOUND:                -2.065
REMARK SMILES CCCCCCCCCCCCCCCCCC(=O)[O-]
REMARK SMILES IDX 10 1 11 2 12 3 13 4 14 5 15 6 16 7 17 8 18 9 19 10 20 11
REMARK SMILES IDX 9 12 8 13 7 14 6 15 5 16 4 17 3 18 2 19 1 20
REMARK H PARENT
REMARK Flexibility Score: inf
ROOT
ATOM      1  C   UNL     1      19.483   8.206   7.321  1.00  0.00     0.000 C 
ENDROOT
BRANCH   1   2
ATOM      2  C   UNL     1      20.453   7.033   7.097  1.00  0.00     0.000 C 
BRANCH   2   3
ATOM      3  C   UNL     1      21.851   7.287   7.690  1.00  0.00     0.000 C 
BRANCH   3   4
ATOM      4  C   UNL     1      23.013   6.594   6.954  1.00  0.00     0.000 C 
BRANCH   4   5
ATOM      5  C   UNL     1      22.568   5.876   5.672  1.00  0.00     0.000 C 
BRANCH   5   6
ATOM      6  C   UNL     1      23.718   5.806   4.656  1.00  0.00     0.000 C 
BRANCH   6   7
ATOM      7  C   UNL     1      23.370   4.961   3.421  1.00  0.00     0.006 C 
BRANCH   7   8
ATOM      8  C   UNL     1      24.322   5.210   2.243  1.00  0.00     0.053 C 
BRANCH   8   9
ATOM      9  C   UNL     1      24.666   3.919   1.569  1.00  0.00     0.041 C 
ATOM     10  O   UNL     1      23.814   2.995   1.494  1.00  0.00    -0.550 OA
ATOM     11  O   UNL     1      25.945   3.717   1.063  1.00  0.00    -0.550 OA
ENDBRANCH   8   9
ENDBRANCH   7   8
ENDBRANCH   6   7
ENDBRANCH   5   6
ENDBRANCH   4   5
ENDBRANCH   3   4
ENDBRANCH   2   3
ENDBRANCH   1   2
BRANCH   1  12
ATOM     12  C   UNL     1      20.205   9.513   7.689  1.00  0.00     0.000 C 
BRANCH  12  13
ATOM     13  C   UNL     1      19.735  10.713   6.848  1.00  0.00    -0.000 C 
BRANCH  13  14
ATOM     14  C   UNL     1      18.804  10.286   5.691  1.00  0.00    -0.000 C 
BRANCH  14  15
ATOM     15  C   UNL     1      17.358  10.794   5.844  1.00  0.00    -0.000 C 
BRANCH  15  16
ATOM     16  C   UNL     1      16.275   9.841   5.303  1.00  0.00    -0.000 C 
BRANCH  16  17
ATOM     17  C   UNL     1      16.815   8.627   4.524  1.00  0.00    -0.000 C 
BRANCH  17  18
ATOM     18  C   UNL     1      16.399   7.284   5.151  1.00  0.00    -0.000 C 
BRANCH  18  19
ATOM     19  C   UNL     1      17.459   6.189   4.952  1.00  0.00    -0.003 C 
ATOM     20  C   UNL     1      18.559   6.602   3.974  1.00  0.00     0.004 C 
ENDBRANCH  18  19
ENDBRANCH  17  18
ENDBRANCH  16  17
ENDBRANCH  15  16
ENDBRANCH  14  15
ENDBRANCH  13  14
ENDBRANCH  12  13
ENDBRANCH   1  12
TORSDOF 16
ENDMDL
MODEL 8
REMARK VINA RESULT:    -4.180      1.639      2.516
REMARK INTER + INTRA:         -10.155
REMARK INTER:                  -8.422
REMARK INTRA:                  -1.733
REMARK UNBOUND:                -2.065
REMARK SMILES CCCCCCCCCCCCCCCCCC(=O)[O-]
REMARK SMILES IDX 10 1 11 2 12 3 13 4 14 5 15 6 16 7 17 8 18 9 19 10 20 11
REMARK SMILES IDX 9 12 8 13 7 14 6 15 5 16 4 17 3 18 2 19 1 20
REMARK H PARENT
REMARK Flexibility Score: inf
ROOT
ATOM      1  C   UNL     1      20.622   7.424   6.645  1.00  0.00     0.000 C 
ENDROOT
BRANCH   1   2
ATOM      2  C   UNL     1      22.030   7.197   7.223  1.00  0.00     0.000 C 
BRANCH   2   3
ATOM      3  C   UNL     1      22.587   5.794   6.915  1.00  0.00     0.000 C 
BRANCH   3   4
ATOM      4  C   UNL     1      23.760   5.757   5.918  1.00  0.00     0.000 C 
BRANCH   4   5
ATOM      5  C   UNL     1      23.309   5.516   4.470  1.00  0.00     0.000 C 
BRANCH   5   6
ATOM      6  C   UNL     1      24.501   5.127   3.582  1.00  0.00     0.000 C 
BRANCH   6   7
ATOM      7  C   UNL     1      24.131   5.044   2.093  1.00  0.00     0.006 C 
BRANCH   7   8
ATOM      8  C   UNL     1      24.960   3.999   1.333  1.00  0.00     0.053 C 
BRANCH   8   9
ATOM      9  C   UNL     1      24.247   2.683   1.312  1.00  0.00     0.041 C 
ATOM     10  O   UNL     1      23.414   2.427   0.402  1.00  0.00    -0.550 OA
ATOM     11  O   UNL     1      24.466   1.757   2.324  1.00  0.00    -0.550 OA
ENDBRANCH   8   9
ENDBRANCH   7   8
ENDBRANCH   6   7
ENDBRANCH   5   6
ENDBRANCH   4   5
ENDBRANCH   3   4
ENDBRANCH   2   3
ENDBRANCH   1   2
BRANCH   1  12
ATOM     12  C   UNL     1      19.957   8.702   7.183  1.00  0.00     0.000 C 
BRANCH  12  13
ATOM     13  C   UNL     1      18.530   8.459   7.706  1.00  0.00    -0.000 C 
BRANCH  13  14
ATOM     14  C   UNL     1      18.126   6.970   7.629  1.00  0.00    -0.000 C 
BRANCH  14  15
ATOM     15  C   UNL     1      16.681   6.747   7.144  1.00  0.00    -0.000 C 
BRANCH  15  16
ATOM     16  C   UNL     1      16.458   6.985   5.638  1.00  0.00    -0.000 C 
BRANCH  16  17
ATOM     17  C   UNL     1      17.454   6.257   4.716  1.00  0.00    -0.000 C 
BRANCH  17  18
ATOM     18  C   UNL     1      18.263   7.222   3.832  1.00  0.00    -0.000 C 
BRANCH  18  19
ATOM     19  C   UNL     1      17.582   8.591   3.680  1.00  0.00    -0.003 C 
ATOM     20  C   UNL     1      18.526   9.757   3.974  1.00  0.00     0.004 C 
ENDBRANCH  18  19
ENDBRANCH  17  18
ENDBRANCH  16  17
ENDBRANCH  15  16
ENDBRANCH  14  15
ENDBRANCH  13  14
ENDBRANCH  12  13
ENDBRANCH   1  12
TORSDOF 16
ENDMDL
MODEL 9
REMARK VINA RESULT:    -4.121      2.527      6.113
REMARK INTER + INTRA:         -10.041
REMARK INTER:                  -8.524
REMARK INTRA:                  -1.517
REMARK UNBOUND:                -2.065
REMARK SMILES CCCCCCCCCCCCCCCCCC(=O)[O-]
REMARK SMILES IDX 10 1 11 2 12 3 13 4 14 5 15 6 16 7 17 8 18 9 19 10 20 11
REMARK SMILES IDX 9 12 8 13 7 14 6 15 5 16 4 17 3 18 2 19 1 20
REMARK H PARENT
REMARK Flexibility Score: inf
ROOT
ATOM      1  C   UNL     1      20.328   9.584   7.578  1.00  0.00     0.000 C 
ENDROOT
BRANCH   1   2
ATOM      2  C   UNL     1      19.421  10.620   6.888  1.00  0.00     0.000 C 
BRANCH   2   3
ATOM      3  C   UNL     1      18.903  10.146   5.517  1.00  0.00     0.000 C 
BRANCH   3   4
ATOM      4  C   UNL     1      17.372  10.158   5.353  1.00  0.00     0.000 C 
BRANCH   4   5
ATOM      5  C   UNL     1      16.679   9.008   6.099  1.00  0.00     0.000 C 
BRANCH   5   6
ATOM      6  C   UNL     1      15.990   8.052   5.114  1.00  0.00     0.000 C 
BRANCH   6   7
ATOM      7  C   UNL     1      16.629   6.655   5.096  1.00  0.00     0.006 C 
BRANCH   7   8
ATOM      8  C   UNL     1      18.021   6.646   4.450  1.00  0.00     0.053 C 
BRANCH   8   9
ATOM      9  C   UNL     1      17.923   6.977   2.994  1.00  0.00     0.041 C 
ATOM     10  O   UNL     1      17.262   6.237   2.218  1.00  0.00    -0.550 OA
ATOM     11  O   UNL     1      18.600   8.078   2.483  1.00  0.00    -0.550 OA
ENDBRANCH   8   9
ENDBRANCH   7   8
ENDBRANCH   6   7
ENDBRANCH   5   6
ENDBRANCH   4   5
ENDBRANCH   3   4
ENDBRANCH   2   3
ENDBRANCH   1   2
BRANCH   1  12
ATOM     12  C   UNL     1      20.122   8.160   7.037  1.00  0.00     0.000 C 
BRANCH  12  13
ATOM     13  C   UNL     1      21.158   7.159   7.579  1.00  0.00    -0.000 C 
BRANCH  13  14
ATOM     14  C   UNL     1      22.052   6.581   6.460  1.00  0.00    -0.000 C 
BRANCH  14  15
ATOM     15  C   UNL     1      23.555   6.597   6.800  1.00  0.00    -0.000 C 
BRANCH  15  16
ATOM     16  C   UNL     1      24.424   5.661   5.940  1.00  0.00    -0.000 C 
BRANCH  16  17
ATOM     17  C   UNL     1      23.667   4.927   4.818  1.00  0.00    -0.000 C 
BRANCH  17  18
ATOM     18  C   UNL     1      24.288   5.160   3.429  1.00  0.00    -0.000 C 
BRANCH  18  19
ATOM     19  C   UNL     1      23.511   4.449   2.310  1.00  0.00    -0.003 C 
ATOM     20  C   UNL     1      24.420   3.926   1.198  1.00  0.00     0.004 C 
ENDBRANCH  18  19
ENDBRANCH  17  18
ENDBRANCH  16  17
ENDBRANCH  15  16
ENDBRANCH  14  15
ENDBRANCH  13  14
ENDBRANCH  12  13
ENDBRANCH   1  12
TORSDOF 16
ENDMDL
