MODEL 1
REMARK VINA RESULT:     5.749      0.000      0.000
REMARK INTER + INTRA:           9.687
REMARK INTER:                  10.791
REMARK INTRA:                  -1.104
REMARK UNBOUND:                -1.104
REMARK SMILES CCCCCCCCC=CCCCCCCCC(=O)[O-]
REMARK SMILES IDX 10 1 9 2 11 3 12 4 13 5 14 6 15 7 16 8 17 9 18 10 19 11
REMARK SMILES IDX 20 12 8 13 7 14 6 15 5 16 4 17 3 18 2 19 1 20
REMARK H PARENT
REMARK Flexibility Score: inf
ROOT
ATOM      1  C   UNL     1       5.238  -4.194  39.984  1.00  0.00    -0.031 C 
ATOM      2  C   UNL     1       4.154  -4.843  39.533  1.00  0.00    -0.031 C 
ENDROOT
BRANCH   1   3
ATOM      3  C   UNL     1       5.490  -4.003  41.456  1.00  0.00     0.027 C 
BRANCH   3   4
ATOM      4  C   UNL     1       6.851  -3.345  41.737  1.00  0.00     0.004 C 
BRANCH   4   5
ATOM      5  C   UNL     1       7.854  -3.576  40.594  1.00  0.00     0.000 C 
BRANCH   5   6
ATOM      6  C   UNL     1       9.081  -4.394  41.033  1.00  0.00     0.000 C 
BRANCH   6   7
ATOM      7  C   UNL     1      10.428  -3.656  40.929  1.00  0.00     0.000 C 
BRANCH   7   8
ATOM      8  C   UNL     1      11.121  -3.865  39.573  1.00  0.00     0.006 C 
BRANCH   8   9
ATOM      9  C   UNL     1      11.122  -2.589  38.720  1.00  0.00     0.053 C 
BRANCH   9  10
ATOM     10  C   UNL     1      10.546  -2.828  37.357  1.00  0.00     0.041 C 
ATOM     11  O   UNL     1      10.818  -3.886  36.730  1.00  0.00    -0.550 OA
ATOM     12  O   UNL     1       9.731  -1.869  36.769  1.00  0.00    -0.550 OA
ENDBRANCH   9  10
ENDBRANCH   8   9
ENDBRANCH   7   8
ENDBRANCH   6   7
ENDBRANCH   5   6
ENDBRANCH   4   5
ENDBRANCH   3   4
ENDBRANCH   1   3
BRANCH   2  13
ATOM     13  C   UNL     1       3.917  -5.051  38.062  1.00  0.00     0.027 C 
BRANCH  13  14
ATOM     14  C   UNL     1       2.947  -4.016  37.476  1.00  0.00     0.004 C 
BRANCH  14  15
ATOM     15  C   UNL     1       3.616  -2.645  37.272  1.00  0.00     0.000 C 
BRANCH  15  16
ATOM     16  C   UNL     1       2.699  -1.480  37.701  1.00  0.00     0.000 C 
BRANCH  16  17
ATOM     17  C   UNL     1       2.250  -1.555  39.170  1.00  0.00    -0.000 C 
BRANCH  17  18
ATOM     18  C   UNL     1       2.283  -0.189  39.875  1.00  0.00    -0.000 C 
BRANCH  18  19
ATOM     19  C   UNL     1       1.988  -0.294  41.380  1.00  0.00    -0.003 C 
ATOM     20  C   UNL     1       0.499  -0.161  41.703  1.00  0.00     0.004 C 
ENDBRANCH  18  19
ENDBRANCH  17  18
ENDBRANCH  16  17
ENDBRANCH  15  16
ENDBRANCH  14  15
ENDBRANCH  13  14
ENDBRANCH   2  13
TORSDOF 15
ENDMDL
MODEL 2
REMARK VINA RESULT:     6.609     15.478     19.994
REMARK INTER + INTRA:          11.300
REMARK INTER:                  12.388
REMARK INTRA:                  -1.088
REMARK UNBOUND:                -1.104
REMARK SMILES CCCCCCCCC=CCCCCCCCC(=O)[O-]
REMARK SMILES IDX 10 1 9 2 11 3 12 4 13 5 14 6 15 7 16 8 17 9 18 10 19 11
REMARK SMILES IDX 20 12 8 13 7 14 6 15 5 16 4 17 3 18 2 19 1 20
REMARK H PARENT
REMARK Flexibility Score: inf
ROOT
ATOM      1  C   UNL     1      -2.939  14.855  40.083  1.00  0.00    -0.031 C 
ATOM      2  C   UNL     1      -3.042  14.160  38.942  1.00  0.00    -0.031 C 
ENDROOT
BRANCH   1   3
ATOM      3  C   UNL     1      -3.503  14.336  41.380  1.00  0.00     0.027 C 
BRANCH   3   4
ATOM      4  C   UNL     1      -4.168  12.959  41.221  1.00  0.00     0.004 C 
BRANCH   4   5
ATOM      5  C   UNL     1      -5.543  12.895  41.906  1.00  0.00     0.000 C 
BRANCH   5   6
ATOM      6  C   UNL     1      -6.604  13.757  41.199  1.00  0.00     0.000 C 
BRANCH   6   7
ATOM      7  C   UNL     1      -8.012  13.139  41.141  1.00  0.00     0.000 C 
BRANCH   7   8
ATOM      8  C   UNL     1      -8.823  13.612  39.924  1.00  0.00     0.006 C 
BRANCH   8   9
ATOM      9  C   UNL     1      -9.125  12.467  38.947  1.00  0.00     0.053 C 
BRANCH   9  10
ATOM     10  C   UNL     1      -8.040  12.304  37.926  1.00  0.00     0.041 C 
ATOM     11  O   UNL     1      -8.327  11.989  36.740  1.00  0.00    -0.550 OA
ATOM     12  O   UNL     1      -6.711  12.473  38.291  1.00  0.00    -0.550 OA
ENDBRANCH   9  10
ENDBRANCH   8   9
ENDBRANCH   7   8
ENDBRANCH   6   7
ENDBRANCH   5   6
ENDBRANCH   4   5
ENDBRANCH   3   4
ENDBRANCH   1   3
BRANCH   2  13
ATOM     13  C   UNL     1      -2.459  14.671  37.653  1.00  0.00     0.027 C 
BRANCH  13  14
ATOM     14  C   UNL     1      -1.285  13.812  37.164  1.00  0.00     0.004 C 
BRANCH  14  15
ATOM     15  C   UNL     1      -0.916  12.707  38.171  1.00  0.00     0.000 C 
BRANCH  15  16
ATOM     16  C   UNL     1      -1.257  11.299  37.641  1.00  0.00     0.000 C 
BRANCH  16  17
ATOM     17  C   UNL     1      -1.077  10.184  38.685  1.00  0.00    -0.000 C 
BRANCH  17  18
ATOM     18  C   UNL     1      -0.899  10.726  40.113  1.00  0.00    -0.000 C 
BRANCH  18  19
ATOM     19  C   UNL     1      -0.550   9.622  41.123  1.00  0.00    -0.003 C 
ATOM     20  C   UNL     1       0.790   9.859  41.820  1.00  0.00     0.004 C 
ENDBRANCH  18  19
ENDBRANCH  17  18
ENDBRANCH  16  17
ENDBRANCH  15  16
ENDBRANCH  14  15
ENDBRANCH  13  14
ENDBRANCH   2  13
TORSDOF 15
ENDMDL
MODEL 3
REMARK VINA RESULT:     6.653     15.213     18.812
REMARK INTER + INTRA:          11.383
REMARK INTER:                  11.807
REMARK INTRA:                  -0.424
REMARK UNBOUND:                -1.104
REMARK SMILES CCCCCCCCC=CCCCCCCCC(=O)[O-]
REMARK SMILES IDX 10 1 9 2 11 3 12 4 13 5 14 6 15 7 16 8 17 9 18 10 19 11
REMARK SMILES IDX 20 12 8 13 7 14 6 15 5 16 4 17 3 18 2 19 1 20
REMARK H PARENT
REMARK Flexibility Score: inf
ROOT
ATOM      1  C   UNL     1      -3.143  14.527  38.894  1.00  0.00    -0.031 C 
ATOM      2  C   UNL     1      -2.779  14.804  40.155  1.00  0.00    -0.031 C 
ENDROOT
BRANCH   1   3
ATOM      3  C   UNL     1      -2.420  15.121  37.714  1.00  0.00     0.027 C 
BRANCH   3   4
ATOM      4  C   UNL     1      -0.945  14.691  37.652  1.00  0.00     0.004 C 
BRANCH   4   5
ATOM      5  C   UNL     1      -0.770  13.183  37.904  1.00  0.00     0.000 C 
BRANCH   5   6
ATOM      6  C   UNL     1      -1.901  12.339  37.291  1.00  0.00     0.000 C 
BRANCH   6   7
ATOM      7  C   UNL     1      -1.806  10.827  37.562  1.00  0.00     0.000 C 
BRANCH   7   8
ATOM      8  C   UNL     1      -0.723  10.472  38.593  1.00  0.00     0.006 C 
BRANCH   8   9
ATOM      9  C   UNL     1      -1.102  10.925  40.011  1.00  0.00     0.053 C 
BRANCH   9  10
ATOM     10  C   UNL     1      -0.428  10.095  41.061  1.00  0.00     0.041 C 
ATOM     11  O   UNL     1      -1.061   9.174  41.644  1.00  0.00    -0.550 OA
ATOM     12  O   UNL     1       0.890  10.356  41.414  1.00  0.00    -0.550 OA
ENDBRANCH   9  10
ENDBRANCH   8   9
ENDBRANCH   7   8
ENDBRANCH   6   7
ENDBRANCH   5   6
ENDBRANCH   4   5
ENDBRANCH   3   4
ENDBRANCH   1   3
BRANCH   2  13
ATOM     13  C   UNL     1      -3.489  14.192  41.331  1.00  0.00     0.027 C 
BRANCH  13  14
ATOM     14  C   UNL     1      -4.764  13.445  40.917  1.00  0.00     0.004 C 
BRANCH  14  15
ATOM     15  C   UNL     1      -5.704  13.197  42.111  1.00  0.00     0.000 C 
BRANCH  15  16
ATOM     16  C   UNL     1      -7.191  13.253  41.703  1.00  0.00     0.000 C 
BRANCH  16  17
ATOM     17  C   UNL     1      -7.439  12.929  40.220  1.00  0.00    -0.000 C 
BRANCH  17  18
ATOM     18  C   UNL     1      -8.873  13.252  39.769  1.00  0.00    -0.000 C 
BRANCH  18  19
ATOM     19  C   UNL     1      -9.125  12.887  38.297  1.00  0.00    -0.003 C 
ATOM     20  C   UNL     1      -7.913  12.233  37.633  1.00  0.00     0.004 C 
ENDBRANCH  18  19
ENDBRANCH  17  18
ENDBRANCH  16  17
ENDBRANCH  15  16
ENDBRANCH  14  15
ENDBRANCH  13  14
ENDBRANCH   2  13
TORSDOF 15
ENDMDL
MODEL 4
REMARK VINA RESULT:     6.758      3.662      8.114
REMARK INTER + INTRA:          11.580
REMARK INTER:                  12.865
REMARK INTRA:                  -1.285
REMARK UNBOUND:                -1.104
REMARK SMILES CCCCCCCCC=CCCCCCCCC(=O)[O-]
REMARK SMILES IDX 10 1 9 2 11 3 12 4 13 5 14 6 15 7 16 8 17 9 18 10 19 11
REMARK SMILES IDX 20 12 8 13 7 14 6 15 5 16 4 17 3 18 2 19 1 20
REMARK H PARENT
REMARK Flexibility Score: inf
ROOT
ATOM      1  C   UNL     1       4.830  -4.561  40.514  1.00  0.00    -0.031 C 
ATOM      2  C   UNL     1       5.817  -3.671  40.344  1.00  0.00    -0.031 C 
ENDROOT
BRANCH   1   3
ATOM      3  C   UNL     1       4.056  -5.117  39.347  1.00  0.00     0.027 C 
BRANCH   3   4
ATOM      4  C   UNL     1       4.541  -4.555  38.001  1.00  0.00     0.004 C 
BRANCH   4   5
ATOM      5  C   UNL     1       3.415  -3.844  37.230  1.00  0.00     0.000 C 
BRANCH   5   6
ATOM      6  C   UNL     1       3.269  -2.362  37.617  1.00  0.00     0.000 C 
BRANCH   6   7
ATOM      7  C   UNL     1       2.237  -2.075  38.721  1.00  0.00     0.000 C 
BRANCH   7   8
ATOM      8  C   UNL     1       2.186  -0.592  39.121  1.00  0.00     0.006 C 
BRANCH   8   9
ATOM      9  C   UNL     1       2.373  -0.392  40.632  1.00  0.00     0.053 C 
BRANCH   9  10
ATOM     10  C   UNL     1       1.085  -0.045  41.314  1.00  0.00     0.041 C 
ATOM     11  O   UNL     1       0.261  -0.950  41.613  1.00  0.00    -0.550 OA
ATOM     12  O   UNL     1       0.782   1.282  41.594  1.00  0.00    -0.550 OA
ENDBRANCH   9  10
ENDBRANCH   8   9
ENDBRANCH   7   8
ENDBRANCH   6   7
ENDBRANCH   5   6
ENDBRANCH   4   5
ENDBRANCH   3   4
ENDBRANCH   1   3
BRANCH   2  13
ATOM     13  C   UNL     1       6.602  -3.134  41.510  1.00  0.00     0.027 C 
BRANCH  13  14
ATOM     14  C   UNL     1       7.865  -3.960  41.791  1.00  0.00     0.004 C 
BRANCH  14  15
ATOM     15  C   UNL     1       8.787  -4.045  40.561  1.00  0.00     0.000 C 
BRANCH  15  16
ATOM     16  C   UNL     1      10.268  -3.816  40.926  1.00  0.00     0.000 C 
BRANCH  16  17
ATOM     17  C   UNL     1      11.106  -3.228  39.778  1.00  0.00    -0.000 C 
BRANCH  17  18
ATOM     18  C   UNL     1      11.125  -4.126  38.531  1.00  0.00    -0.000 C 
BRANCH  18  19
ATOM     19  C   UNL     1      11.050  -3.322  37.223  1.00  0.00    -0.003 C 
ATOM     20  C   UNL     1      10.298  -2.001  37.382  1.00  0.00     0.004 C 
ENDBRANCH  18  19
ENDBRANCH  17  18
ENDBRANCH  16  17
ENDBRANCH  15  16
ENDBRANCH  14  15
ENDBRANCH  13  14
ENDBRANCH   2  13
TORSDOF 15
ENDMDL
MODEL 5
REMARK VINA RESULT:     7.456     19.634     21.877
REMARK INTER + INTRA:          12.890
REMARK INTER:                  13.529
REMARK INTRA:                  -0.639
REMARK UNBOUND:                -1.104
REMARK SMILES CCCCCCCCC=CCCCCCCCC(=O)[O-]
REMARK SMILES IDX 10 1 9 2 11 3 12 4 13 5 14 6 15 7 16 8 17 9 18 10 19 11
REMARK SMILES IDX 20 12 8 13 7 14 6 15 5 16 4 17 3 18 2 19 1 20
REMARK H PARENT
REMARK Flexibility Score: inf
ROOT
ATOM      1  C   UNL     1       5.831  14.100  24.460  1.00  0.00    -0.031 C 
ATOM      2  C   UNL     1       4.939  15.009  24.877  1.00  0.00    -0.031 C 
ENDROOT
BRANCH   1   3
ATOM      3  C   UNL     1       6.237  13.996  23.013  1.00  0.00     0.027 C 
BRANCH   3   4
ATOM      4  C   UNL     1       6.654  12.569  22.623  1.00  0.00     0.004 C 
BRANCH   4   5
ATOM      5  C   UNL     1       8.020  12.536  21.915  1.00  0.00     0.000 C 
BRANCH   5   6
ATOM      6  C   UNL     1       8.983  13.623  22.424  1.00  0.00     0.000 C 
BRANCH   6   7
ATOM      7  C   UNL     1      10.471  13.230  22.416  1.00  0.00     0.000 C 
BRANCH   7   8
ATOM      8  C   UNL     1      11.125  13.338  23.804  1.00  0.00     0.006 C 
BRANCH   8   9
ATOM      9  C   UNL     1      11.116  11.998  24.554  1.00  0.00     0.053 C 
BRANCH   9  10
ATOM     10  C   UNL     1      10.891  12.183  26.024  1.00  0.00     0.041 C 
ATOM     11  O   UNL     1      11.111  13.300  26.564  1.00  0.00    -0.550 OA
ATOM     12  O   UNL     1      10.464  11.114  26.802  1.00  0.00    -0.550 OA
ENDBRANCH   9  10
ENDBRANCH   8   9
ENDBRANCH   7   8
ENDBRANCH   6   7
ENDBRANCH   5   6
ENDBRANCH   4   5
ENDBRANCH   3   4
ENDBRANCH   1   3
BRANCH   2  13
ATOM     13  C   UNL     1       4.552  15.125  26.326  1.00  0.00     0.027 C 
BRANCH  13  14
ATOM     14  C   UNL     1       3.524  14.064  26.741  1.00  0.00     0.004 C 
BRANCH  14  15
ATOM     15  C   UNL     1       3.961  12.644  26.336  1.00  0.00     0.000 C 
BRANCH  15  16
ATOM     16  C   UNL     1       2.852  11.890  25.573  1.00  0.00     0.000 C 
BRANCH  16  17
ATOM     17  C   UNL     1       2.738  10.404  25.956  1.00  0.00    -0.000 C 
BRANCH  17  18
ATOM     18  C   UNL     1       2.838   9.465  24.743  1.00  0.00    -0.000 C 
BRANCH  18  19
ATOM     19  C   UNL     1       2.147  10.038  23.495  1.00  0.00    -0.003 C 
ATOM     20  C   UNL     1       2.868   9.670  22.198  1.00  0.00     0.004 C 
ENDBRANCH  18  19
ENDBRANCH  17  18
ENDBRANCH  16  17
ENDBRANCH  15  16
ENDBRANCH  14  15
ENDBRANCH  13  14
ENDBRANCH   2  13
TORSDOF 15
ENDMDL
MODEL 6
REMARK VINA RESULT:     7.461     14.421     19.108
REMARK INTER + INTRA:          12.899
REMARK INTER:                  13.771
REMARK INTRA:                  -0.872
REMARK UNBOUND:                -1.104
REMARK SMILES CCCCCCCCC=CCCCCCCCC(=O)[O-]
REMARK SMILES IDX 10 1 9 2 11 3 12 4 13 5 14 6 15 7 16 8 17 9 18 10 19 11
REMARK SMILES IDX 20 12 8 13 7 14 6 15 5 16 4 17 3 18 2 19 1 20
REMARK H PARENT
REMARK Flexibility Score: inf
ROOT
ATOM      1  C   UNL     1      -1.930  13.891  37.593  1.00  0.00    -0.031 C 
ATOM      2  C   UNL     1      -1.798  12.673  38.135  1.00  0.00    -0.031 C 
ENDROOT
BRANCH   1   3
ATOM      3  C   UNL     1      -2.078  15.125  38.444  1.00  0.00     0.027 C 
BRANCH   3   4
ATOM      4  C   UNL     1      -3.338  15.082  39.324  1.00  0.00     0.004 C 
BRANCH   4   5
ATOM      5  C   UNL     1      -3.084  14.374  40.666  1.00  0.00     0.000 C 
BRANCH   5   6
ATOM      6  C   UNL     1      -4.173  13.344  41.014  1.00  0.00     0.000 C 
BRANCH   6   7
ATOM      7  C   UNL     1      -5.570  13.935  41.272  1.00  0.00     0.000 C 
BRANCH   7   8
ATOM      8  C   UNL     1      -6.663  12.859  41.383  1.00  0.00     0.006 C 
BRANCH   8   9
ATOM      9  C   UNL     1      -7.982  13.303  40.735  1.00  0.00     0.053 C 
BRANCH   9  10
ATOM     10  C   UNL     1      -8.053  12.915  39.290  1.00  0.00     0.041 C 
ATOM     11  O   UNL     1      -9.125  13.061  38.645  1.00  0.00    -0.550 OA
ATOM     12  O   UNL     1      -6.941  12.367  38.662  1.00  0.00    -0.550 OA
ENDBRANCH   9  10
ENDBRANCH   8   9
ENDBRANCH   7   8
ENDBRANCH   6   7
ENDBRANCH   5   6
ENDBRANCH   4   5
ENDBRANCH   3   4
ENDBRANCH   1   3
BRANCH   2  13
ATOM     13  C   UNL     1      -1.628  11.445  37.282  1.00  0.00     0.027 C 
BRANCH  13  14
ATOM     14  C   UNL     1      -1.181  10.225  38.098  1.00  0.00     0.004 C 
BRANCH  14  15
ATOM     15  C   UNL     1      -0.448  10.630  39.390  1.00  0.00     0.000 C 
BRANCH  15  16
ATOM     16  C   UNL     1      -0.623   9.583  40.511  1.00  0.00     0.000 C 
BRANCH  16  17
ATOM     17  C   UNL     1       0.221   9.872  41.764  1.00  0.00    -0.000 C 
BRANCH  17  18
ATOM     18  C   UNL     1       1.463   8.972  41.868  1.00  0.00    -0.000 C 
BRANCH  18  19
ATOM     19  C   UNL     1       1.372   7.733  40.963  1.00  0.00    -0.003 C 
ATOM     20  C   UNL     1       1.980   6.485  41.603  1.00  0.00     0.004 C 
ENDBRANCH  18  19
ENDBRANCH  17  18
ENDBRANCH  16  17
ENDBRANCH  15  16
ENDBRANCH  14  15
ENDBRANCH  13  14
ENDBRANCH   2  13
TORSDOF 15
ENDMDL
MODEL 7
REMARK VINA RESULT:     7.568      1.601      3.480
REMARK INTER + INTRA:          13.101
REMARK INTER:                  14.054
REMARK INTRA:                  -0.953
REMARK UNBOUND:                -1.104
REMARK SMILES CCCCCCCCC=CCCCCCCCC(=O)[O-]
REMARK SMILES IDX 10 1 9 2 11 3 12 4 13 5 14 6 15 7 16 8 17 9 18 10 19 11
REMARK SMILES IDX 20 12 8 13 7 14 6 15 5 16 4 17 3 18 2 19 1 20
REMARK H PARENT
REMARK Flexibility Score: inf
ROOT
ATOM      1  C   UNL     1       3.246  -3.750  37.390  1.00  0.00    -0.031 C 
ATOM      2  C   UNL     1       3.467  -2.573  37.993  1.00  0.00    -0.031 C 
ENDROOT
BRANCH   1   3
ATOM      3  C   UNL     1       3.877  -5.024  37.887  1.00  0.00     0.027 C 
BRANCH   3   4
ATOM      4  C   UNL     1       4.103  -5.012  39.407  1.00  0.00     0.004 C 
BRANCH   4   5
ATOM      5  C   UNL     1       5.505  -4.502  39.782  1.00  0.00     0.000 C 
BRANCH   5   6
ATOM      6  C   UNL     1       5.506  -3.637  41.054  1.00  0.00     0.000 C 
BRANCH   6   7
ATOM      7  C   UNL     1       6.856  -3.558  41.788  1.00  0.00     0.000 C 
BRANCH   7   8
ATOM      8  C   UNL     1       7.975  -4.324  41.064  1.00  0.00     0.006 C 
BRANCH   8   9
ATOM      9  C   UNL     1       9.166  -3.420  40.717  1.00  0.00     0.053 C 
BRANCH   9  10
ATOM     10  C   UNL     1       9.355  -3.288  39.237  1.00  0.00     0.041 C 
ATOM     11  O   UNL     1       8.434  -2.814  38.519  1.00  0.00    -0.550 OA
ATOM     12  O   UNL     1      10.539  -3.713  38.646  1.00  0.00    -0.550 OA
ENDBRANCH   9  10
ENDBRANCH   8   9
ENDBRANCH   7   8
ENDBRANCH   6   7
ENDBRANCH   5   6
ENDBRANCH   4   5
ENDBRANCH   3   4
ENDBRANCH   1   3
BRANCH   2  13
ATOM     13  C   UNL     1       2.818  -1.306  37.507  1.00  0.00     0.027 C 
BRANCH  13  14
ATOM     14  C   UNL     1       2.599  -0.292  38.639  1.00  0.00     0.004 C 
BRANCH  14  15
ATOM     15  C   UNL     1       1.609  -0.811  39.697  1.00  0.00     0.000 C 
BRANCH  15  16
ATOM     16  C   UNL     1       1.902  -0.238  41.099  1.00  0.00     0.000 C 
BRANCH  16  17
ATOM     17  C   UNL     1       0.720   0.530  41.715  1.00  0.00    -0.000 C 
BRANCH  17  18
ATOM     18  C   UNL     1       0.285   1.736  40.867  1.00  0.00    -0.000 C 
BRANCH  18  19
ATOM     19  C   UNL     1      -0.636   2.696  41.636  1.00  0.00    -0.003 C 
ATOM     20  C   UNL     1       0.008   4.060  41.888  1.00  0.00     0.004 C 
ENDBRANCH  18  19
ENDBRANCH  17  18
ENDBRANCH  16  17
ENDBRANCH  15  16
ENDBRANCH  14  15
ENDBRANCH  13  14
ENDBRANCH   2  13
TORSDOF 15
ENDMDL
MODEL 8
REMARK VINA RESULT:     7.638     19.844     22.616
REMARK INTER + INTRA:          13.232
REMARK INTER:                  13.611
REMARK INTRA:                  -0.379
REMARK UNBOUND:                -1.104
REMARK SMILES CCCCCCCCC=CCCCCCCCC(=O)[O-]
REMARK SMILES IDX 10 1 9 2 11 3 12 4 13 5 14 6 15 7 16 8 17 9 18 10 19 11
REMARK SMILES IDX 20 12 8 13 7 14 6 15 5 16 4 17 3 18 2 19 1 20
REMARK H PARENT
REMARK Flexibility Score: inf
ROOT
ATOM      1  C   UNL     1       5.307  14.205  24.744  1.00  0.00    -0.031 C 
ATOM      2  C   UNL     1       5.162  14.003  23.427  1.00  0.00    -0.031 C 
ENDROOT
BRANCH   1   3
ATOM      3  C   UNL     1       4.392  15.125  25.510  1.00  0.00     0.027 C 
BRANCH   3   4
ATOM      4  C   UNL     1       3.249  14.368  26.205  1.00  0.00     0.004 C 
BRANCH   4   5
ATOM      5  C   UNL     1       3.753  13.135  26.975  1.00  0.00     0.000 C 
BRANCH   5   6
ATOM      6  C   UNL     1       3.995  11.919  26.063  1.00  0.00     0.000 C 
BRANCH   6   7
ATOM      7  C   UNL     1       2.775  11.468  25.241  1.00  0.00     0.000 C 
BRANCH   7   8
ATOM      8  C   UNL     1       2.981  10.102  24.567  1.00  0.00     0.006 C 
BRANCH   8   9
ATOM      9  C   UNL     1       2.960  10.202  23.035  1.00  0.00     0.053 C 
BRANCH   9  10
ATOM     10  C   UNL     1       1.612   9.872  22.472  1.00  0.00     0.041 C 
ATOM     11  O   UNL     1       1.290   8.672  22.259  1.00  0.00    -0.550 OA
ATOM     12  O   UNL     1       0.721  10.890  22.157  1.00  0.00    -0.550 OA
ENDBRANCH   9  10
ENDBRANCH   8   9
ENDBRANCH   7   8
ENDBRANCH   6   7
ENDBRANCH   5   6
ENDBRANCH   4   5
ENDBRANCH   3   4
ENDBRANCH   1   3
BRANCH   2  13
ATOM     13  C   UNL     1       6.064  13.067  22.670  1.00  0.00     0.027 C 
BRANCH  13  14
ATOM     14  C   UNL     1       7.482  13.023  23.256  1.00  0.00     0.004 C 
BRANCH  14  15
ATOM     15  C   UNL     1       8.561  12.984  22.160  1.00  0.00     0.000 C 
BRANCH  15  16
ATOM     16  C   UNL     1       9.875  13.656  22.611  1.00  0.00     0.000 C 
BRANCH  16  17
ATOM     17  C   UNL     1      10.721  12.788  23.558  1.00  0.00    -0.000 C 
BRANCH  17  18
ATOM     18  C   UNL     1      10.090  12.635  24.952  1.00  0.00    -0.000 C 
BRANCH  18  19
ATOM     19  C   UNL     1      11.125  12.283  26.033  1.00  0.00    -0.003 C 
ATOM     20  C   UNL     1      10.616  11.233  27.020  1.00  0.00     0.004 C 
ENDBRANCH  18  19
ENDBRANCH  17  18
ENDBRANCH  16  17
ENDBRANCH  15  16
ENDBRANCH  14  15
ENDBRANCH  13  14
ENDBRANCH   2  13
TORSDOF 15
ENDMDL
MODEL 9
REMARK VINA RESULT:     7.668      1.253      2.539
REMARK INTER + INTRA:          13.287
REMARK INTER:                  14.182
REMARK INTRA:                  -0.894
REMARK UNBOUND:                -1.104
REMARK SMILES CCCCCCCCC=CCCCCCCCC(=O)[O-]
REMARK SMILES IDX 10 1 9 2 11 3 12 4 13 5 14 6 15 7 16 8 17 9 18 10 19 11
REMARK SMILES IDX 20 12 8 13 7 14 6 15 5 16 4 17 3 18 2 19 1 20
REMARK H PARENT
REMARK Flexibility Score: inf
ROOT
ATOM      1  C   UNL     1       4.448  -3.912  38.294  1.00  0.00    -0.031 C 
ATOM      2  C   UNL     1       3.324  -3.247  37.989  1.00  0.00    -0.031 C 
ENDROOT
BRANCH   1   3
ATOM      3  C   UNL     1       4.434  -5.116  39.199  1.00  0.00     0.027 C 
BRANCH   3   4
ATOM      4  C   UNL     1       4.754  -4.756  40.659  1.00  0.00     0.004 C 
BRANCH   4   5
ATOM      5  C   UNL     1       5.788  -3.621  40.763  1.00  0.00     0.000 C 
BRANCH   5   6
ATOM      6  C   UNL     1       6.910  -3.925  41.771  1.00  0.00     0.000 C 
BRANCH   6   7
ATOM      7  C   UNL     1       8.287  -3.341  41.410  1.00  0.00     0.000 C 
BRANCH   7   8
ATOM      8  C   UNL     1       9.184  -4.343  40.665  1.00  0.00     0.006 C 
BRANCH   8   9
ATOM      9  C   UNL     1      10.407  -3.665  40.029  1.00  0.00     0.053 C 
BRANCH   9  10
ATOM     10  C   UNL     1      10.087  -3.085  38.685  1.00  0.00     0.041 C 
ATOM     11  O   UNL     1       8.889  -2.906  38.340  1.00  0.00    -0.550 OA
ATOM     12  O   UNL     1      11.113  -2.766  37.804  1.00  0.00    -0.550 OA
ENDBRANCH   9  10
ENDBRANCH   8   9
ENDBRANCH   7   8
ENDBRANCH   6   7
ENDBRANCH   5   6
ENDBRANCH   4   5
ENDBRANCH   3   4
ENDBRANCH   1   3
BRANCH   2  13
ATOM     13  C   UNL     1       3.339  -2.059  37.067  1.00  0.00     0.027 C 
BRANCH  13  14
ATOM     14  C   UNL     1       2.710  -0.815  37.709  1.00  0.00     0.004 C 
BRANCH  14  15
ATOM     15  C   UNL     1       1.920  -1.159  38.985  1.00  0.00     0.000 C 
BRANCH  15  16
ATOM     16  C   UNL     1       2.214  -0.173  40.135  1.00  0.00     0.000 C 
BRANCH  16  17
ATOM     17  C   UNL     1       1.435  -0.477  41.426  1.00  0.00    -0.000 C 
BRANCH  17  18
ATOM     18  C   UNL     1       0.173   0.387  41.580  1.00  0.00    -0.000 C 
BRANCH  18  19
ATOM     19  C   UNL     1       0.446   1.879  41.330  1.00  0.00    -0.003 C 
ATOM     20  C   UNL     1      -0.821   2.664  40.989  1.00  0.00     0.004 C 
ENDBRANCH  18  19
ENDBRANCH  17  18
ENDBRANCH  16  17
ENDBRANCH  15  16
ENDBRANCH  14  15
ENDBRANCH  13  14
ENDBRANCH   2  13
TORSDOF 15
ENDMDL
