MODEL 1
REMARK VINA RESULT:    -5.433      0.000      0.000
REMARK INTER + INTRA:         -13.324
REMARK INTER:                 -11.785
REMARK INTRA:                  -1.539
REMARK UNBOUND:                -1.539
REMARK SMILES CCCCCCCCCCCCCCCCCCCCCC(=O)[O-]
REMARK SMILES IDX 12 1 11 2 10 3 9 4 8 5 7 6 6 7 5 8 4 9 3 10 2 11 1 12 13 13
REMARK SMILES IDX 14 14 15 15 16 16 17 17 18 18 19 19 20 20 21 21 22 22 23 23
REMARK SMILES IDX 24 24
REMARK H PARENT
REMARK Flexibility Score: inf
ROOT
ATOM      1  C   UNL     1       3.693  58.259  20.563  1.00  0.00     0.000 C 
ENDROOT
BRANCH   1   2
ATOM      2  C   UNL     1       4.672  57.281  21.239  1.00  0.00     0.000 C 
BRANCH   2   3
ATOM      3  C   UNL     1       5.896  56.889  20.392  1.00  0.00     0.000 C 
BRANCH   3   4
ATOM      4  C   UNL     1       6.989  56.096  21.139  1.00  0.00    -0.000 C 
BRANCH   4   5
ATOM      5  C   UNL     1       6.574  54.694  21.619  1.00  0.00    -0.000 C 
BRANCH   5   6
ATOM      6  C   UNL     1       7.595  53.606  21.248  1.00  0.00    -0.000 C 
BRANCH   6   7
ATOM      7  C   UNL     1       8.911  54.184  20.697  1.00  0.00    -0.000 C 
BRANCH   7   8
ATOM      8  C   UNL     1      10.193  53.573  21.291  1.00  0.00    -0.000 C 
BRANCH   8   9
ATOM      9  C   UNL     1       9.988  53.008  22.706  1.00  0.00    -0.000 C 
BRANCH   9  10
ATOM     10  C   UNL     1      10.373  54.027  23.801  1.00  0.00    -0.000 C 
BRANCH  10  11
ATOM     11  C   UNL     1       9.219  54.363  24.759  1.00  0.00    -0.003 C 
ATOM     12  C   UNL     1       8.104  53.320  24.743  1.00  0.00     0.004 C 
ENDBRANCH  10  11
ENDBRANCH   9  10
ENDBRANCH   8   9
ENDBRANCH   7   8
ENDBRANCH   6   7
ENDBRANCH   5   6
ENDBRANCH   4   5
ENDBRANCH   3   4
ENDBRANCH   2   3
ENDBRANCH   1   2
BRANCH   1  13
ATOM     13  C   UNL     1       2.839  59.079  21.555  1.00  0.00     0.000 C 
BRANCH  13  14
ATOM     14  C   UNL     1       2.212  60.330  20.914  1.00  0.00     0.000 C 
BRANCH  14  15
ATOM     15  C   UNL     1       0.989  59.981  20.040  1.00  0.00     0.000 C 
BRANCH  15  16
ATOM     16  C   UNL     1      -0.157  61.000  20.154  1.00  0.00     0.000 C 
BRANCH  16  17
ATOM     17  C   UNL     1      -0.122  62.063  19.043  1.00  0.00     0.000 C 
BRANCH  17  18
ATOM     18  C   UNL     1      -0.812  61.586  17.754  1.00  0.00     0.000 C 
BRANCH  18  19
ATOM     19  C   UNL     1      -0.513  62.499  16.553  1.00  0.00     0.000 C 
BRANCH  19  20
ATOM     20  C   UNL     1      -0.024  61.726  15.316  1.00  0.00     0.006 C 
BRANCH  20  21
ATOM     21  C   UNL     1       0.245  60.234  15.576  1.00  0.00     0.053 C 
BRANCH  21  22
ATOM     22  C   UNL     1       1.708  59.922  15.675  1.00  0.00     0.041 C 
ATOM     23  O   UNL     1       2.470  60.145  14.696  1.00  0.00    -0.550 OA
ATOM     24  O   UNL     1       2.240  59.429  16.860  1.00  0.00    -0.550 OA
ENDBRANCH  21  22
ENDBRANCH  20  21
ENDBRANCH  19  20
ENDBRANCH  18  19
ENDBRANCH  17  18
ENDBRANCH  16  17
ENDBRANCH  15  16
ENDBRANCH  14  15
ENDBRANCH  13  14
ENDBRANCH   1  13
TORSDOF 20
ENDMDL
MODEL 2
REMARK VINA RESULT:    -5.415      7.911     14.660
REMARK INTER + INTRA:         -13.285
REMARK INTER:                 -11.431
REMARK INTRA:                  -1.853
REMARK UNBOUND:                -1.539
REMARK SMILES CCCCCCCCCCCCCCCCCCCCCC(=O)[O-]
REMARK SMILES IDX 12 1 11 2 10 3 9 4 8 5 7 6 6 7 5 8 4 9 3 10 2 11 1 12 13 13
REMARK SMILES IDX 14 14 15 15 16 16 17 17 18 18 19 19 20 20 21 21 22 22 23 23
REMARK SMILES IDX 24 24
REMARK H PARENT
REMARK Flexibility Score: inf
ROOT
ATOM      1  C   UNL     1      10.286  49.529  22.336  1.00  0.00     0.000 C 
ENDROOT
BRANCH   1   2
ATOM      2  C   UNL     1      10.312  51.032  22.671  1.00  0.00     0.000 C 
BRANCH   2   3
ATOM      3  C   UNL     1       9.942  51.969  21.508  1.00  0.00     0.000 C 
BRANCH   3   4
ATOM      4  C   UNL     1      10.372  53.441  21.684  1.00  0.00    -0.000 C 
BRANCH   4   5
ATOM      5  C   UNL     1       9.629  54.217  22.786  1.00  0.00    -0.000 C 
BRANCH   5   6
ATOM      6  C   UNL     1       8.502  55.109  22.238  1.00  0.00    -0.000 C 
BRANCH   6   7
ATOM      7  C   UNL     1       7.130  54.412  22.248  1.00  0.00    -0.000 C 
BRANCH   7   8
ATOM      8  C   UNL     1       6.265  54.656  20.998  1.00  0.00    -0.000 C 
BRANCH   8   9
ATOM      9  C   UNL     1       7.032  55.354  19.864  1.00  0.00    -0.000 C 
BRANCH   9  10
ATOM     10  C   UNL     1       7.630  54.347  18.857  1.00  0.00    -0.000 C 
BRANCH  10  11
ATOM     11  C   UNL     1       6.685  54.009  17.693  1.00  0.00    -0.003 C 
ATOM     12  C   UNL     1       6.643  55.096  16.621  1.00  0.00     0.004 C 
ENDBRANCH  10  11
ENDBRANCH   9  10
ENDBRANCH   8   9
ENDBRANCH   7   8
ENDBRANCH   6   7
ENDBRANCH   5   6
ENDBRANCH   4   5
ENDBRANCH   3   4
ENDBRANCH   2   3
ENDBRANCH   1   2
BRANCH   1  13
ATOM     13  C   UNL     1      11.503  48.745  22.873  1.00  0.00     0.000 C 
BRANCH  13  14
ATOM     14  C   UNL     1      11.202  47.252  23.097  1.00  0.00     0.000 C 
BRANCH  14  15
ATOM     15  C   UNL     1       9.693  46.988  23.291  1.00  0.00     0.000 C 
BRANCH  15  16
ATOM     16  C   UNL     1       9.373  45.548  23.728  1.00  0.00     0.000 C 
BRANCH  16  17
ATOM     17  C   UNL     1      10.507  44.562  23.403  1.00  0.00     0.000 C 
BRANCH  17  18
ATOM     18  C   UNL     1      11.093  43.906  24.665  1.00  0.00     0.000 C 
BRANCH  18  19
ATOM     19  C   UNL     1      10.662  44.622  25.956  1.00  0.00     0.000 C 
BRANCH  19  20
ATOM     20  C   UNL     1      11.853  45.086  26.813  1.00  0.00     0.006 C 
BRANCH  20  21
ATOM     21  C   UNL     1      12.873  45.951  26.051  1.00  0.00     0.053 C 
BRANCH  21  22
ATOM     22  C   UNL     1      12.875  47.378  26.512  1.00  0.00     0.041 C 
ATOM     23  O   UNL     1      12.266  47.702  27.566  1.00  0.00    -0.550 OA
ATOM     24  O   UNL     1      13.587  48.340  25.806  1.00  0.00    -0.550 OA
ENDBRANCH  21  22
ENDBRANCH  20  21
ENDBRANCH  19  20
ENDBRANCH  18  19
ENDBRANCH  17  18
ENDBRANCH  16  17
ENDBRANCH  15  16
ENDBRANCH  14  15
ENDBRANCH  13  14
ENDBRANCH   1  13
TORSDOF 20
ENDMDL
MODEL 3
REMARK VINA RESULT:    -5.354      8.510     14.443
REMARK INTER + INTRA:         -13.152
REMARK INTER:                 -10.754
REMARK INTRA:                  -2.399
REMARK UNBOUND:                -1.539
REMARK SMILES CCCCCCCCCCCCCCCCCCCCCC(=O)[O-]
REMARK SMILES IDX 12 1 11 2 10 3 9 4 8 5 7 6 6 7 5 8 4 9 3 10 2 11 1 12 13 13
REMARK SMILES IDX 14 14 15 15 16 16 17 17 18 18 19 19 20 20 21 21 22 22 23 23
REMARK SMILES IDX 24 24
REMARK H PARENT
REMARK Flexibility Score: inf
ROOT
ATOM      1  C   UNL     1      10.297  49.581  22.543  1.00  0.00     0.000 C 
ENDROOT
BRANCH   1   2
ATOM      2  C   UNL     1      10.632  51.085  22.507  1.00  0.00     0.000 C 
BRANCH   2   3
ATOM      3  C   UNL     1       9.682  51.947  21.657  1.00  0.00     0.000 C 
BRANCH   3   4
ATOM      4  C   UNL     1      10.280  53.273  21.140  1.00  0.00    -0.000 C 
BRANCH   4   5
ATOM      5  C   UNL     1       9.319  54.476  21.149  1.00  0.00    -0.000 C 
BRANCH   5   6
ATOM      6  C   UNL     1       8.002  54.197  20.406  1.00  0.00    -0.000 C 
BRANCH   6   7
ATOM      7  C   UNL     1       6.775  54.230  21.334  1.00  0.00    -0.000 C 
BRANCH   7   8
ATOM      8  C   UNL     1       7.089  54.443  22.826  1.00  0.00    -0.000 C 
BRANCH   8   9
ATOM      9  C   UNL     1       7.177  53.126  23.614  1.00  0.00    -0.000 C 
BRANCH   9  10
ATOM     10  C   UNL     1       8.183  53.211  24.782  1.00  0.00    -0.000 C 
BRANCH  10  11
ATOM     11  C   UNL     1       9.045  54.483  24.757  1.00  0.00    -0.003 C 
ATOM     12  C   UNL     1      10.544  54.190  24.732  1.00  0.00     0.004 C 
ENDBRANCH  10  11
ENDBRANCH   9  10
ENDBRANCH   8   9
ENDBRANCH   7   8
ENDBRANCH   6   7
ENDBRANCH   5   6
ENDBRANCH   4   5
ENDBRANCH   3   4
ENDBRANCH   2   3
ENDBRANCH   1   2
BRANCH   1  13
ATOM     13  C   UNL     1      11.481  48.684  22.963  1.00  0.00     0.000 C 
BRANCH  13  14
ATOM     14  C   UNL     1      11.120  47.188  22.988  1.00  0.00     0.000 C 
BRANCH  14  15
ATOM     15  C   UNL     1       9.628  46.958  23.310  1.00  0.00     0.000 C 
BRANCH  15  16
ATOM     16  C   UNL     1       9.261  45.475  23.488  1.00  0.00     0.000 C 
BRANCH  16  17
ATOM     17  C   UNL     1      10.490  44.581  23.718  1.00  0.00     0.000 C 
BRANCH  17  18
ATOM     18  C   UNL     1      10.484  43.922  25.108  1.00  0.00     0.000 C 
BRANCH  18  19
ATOM     19  C   UNL     1      11.012  44.859  26.207  1.00  0.00     0.000 C 
BRANCH  19  20
ATOM     20  C   UNL     1      12.464  45.308  25.967  1.00  0.00     0.006 C 
BRANCH  20  21
ATOM     21  C   UNL     1      13.097  46.046  27.160  1.00  0.00     0.053 C 
BRANCH  21  22
ATOM     22  C   UNL     1      12.660  47.477  27.249  1.00  0.00     0.041 C 
ATOM     23  O   UNL     1      12.497  48.155  26.199  1.00  0.00    -0.550 OA
ATOM     24  O   UNL     1      12.387  48.051  28.485  1.00  0.00    -0.550 OA
ENDBRANCH  21  22
ENDBRANCH  20  21
ENDBRANCH  19  20
ENDBRANCH  18  19
ENDBRANCH  17  18
ENDBRANCH  16  17
ENDBRANCH  15  16
ENDBRANCH  14  15
ENDBRANCH  13  14
ENDBRANCH   1  13
TORSDOF 20
ENDMDL
MODEL 4
REMARK VINA RESULT:    -5.275      8.193     13.808
REMARK INTER + INTRA:         -12.981
REMARK INTER:                 -10.882
REMARK INTRA:                  -2.099
REMARK UNBOUND:                -1.539
REMARK SMILES CCCCCCCCCCCCCCCCCCCCCC(=O)[O-]
REMARK SMILES IDX 12 1 11 2 10 3 9 4 8 5 7 6 6 7 5 8 4 9 3 10 2 11 1 12 13 13
REMARK SMILES IDX 14 14 15 15 16 16 17 17 18 18 19 19 20 20 21 21 22 22 23 23
REMARK SMILES IDX 24 24
REMARK H PARENT
REMARK Flexibility Score: inf
ROOT
ATOM      1  C   UNL     1      10.222  53.654  21.659  1.00  0.00     0.000 C 
ENDROOT
BRANCH   1   2
ATOM      2  C   UNL     1      10.795  53.988  23.050  1.00  0.00     0.000 C 
BRANCH   2   3
ATOM      3  C   UNL     1       9.910  54.898  23.921  1.00  0.00     0.000 C 
BRANCH   3   4
ATOM      4  C   UNL     1       9.121  54.179  25.035  1.00  0.00    -0.000 C 
BRANCH   4   5
ATOM      5  C   UNL     1       7.973  53.275  24.551  1.00  0.00    -0.000 C 
BRANCH   5   6
ATOM      6  C   UNL     1       6.901  54.039  23.757  1.00  0.00    -0.000 C 
BRANCH   6   7
ATOM      7  C   UNL     1       6.954  53.746  22.247  1.00  0.00    -0.000 C 
BRANCH   7   8
ATOM      8  C   UNL     1       6.340  54.834  21.348  1.00  0.00    -0.000 C 
BRANCH   8   9
ATOM      9  C   UNL     1       7.332  55.954  20.998  1.00  0.00    -0.000 C 
BRANCH   9  10
ATOM     10  C   UNL     1       7.808  55.875  19.531  1.00  0.00    -0.000 C 
BRANCH  10  11
ATOM     11  C   UNL     1       7.296  54.632  18.787  1.00  0.00    -0.003 C 
ATOM     12  C   UNL     1       6.935  54.913  17.330  1.00  0.00     0.004 C 
ENDBRANCH  10  11
ENDBRANCH   9  10
ENDBRANCH   8   9
ENDBRANCH   7   8
ENDBRANCH   6   7
ENDBRANCH   5   6
ENDBRANCH   4   5
ENDBRANCH   3   4
ENDBRANCH   2   3
ENDBRANCH   1   2
BRANCH   1  13
ATOM     13  C   UNL     1      10.210  52.146  21.331  1.00  0.00     0.000 C 
BRANCH  13  14
ATOM     14  C   UNL     1      10.219  51.259  22.589  1.00  0.00     0.000 C 
BRANCH  14  15
ATOM     15  C   UNL     1      10.209  49.756  22.237  1.00  0.00     0.000 C 
BRANCH  15  16
ATOM     16  C   UNL     1      10.872  48.871  23.307  1.00  0.00     0.000 C 
BRANCH  16  17
ATOM     17  C   UNL     1      12.020  48.018  22.746  1.00  0.00     0.000 C 
BRANCH  17  18
ATOM     18  C   UNL     1      12.762  47.237  23.845  1.00  0.00     0.000 C 
BRANCH  18  19
ATOM     19  C   UNL     1      11.803  46.498  24.793  1.00  0.00     0.000 C 
BRANCH  19  20
ATOM     20  C   UNL     1      12.202  46.627  26.274  1.00  0.00     0.006 C 
BRANCH  20  21
ATOM     21  C   UNL     1      12.828  47.984  26.638  1.00  0.00     0.053 C 
BRANCH  21  22
ATOM     22  C   UNL     1      14.263  47.863  27.053  1.00  0.00     0.041 C 
ATOM     23  O   UNL     1      14.724  46.747  27.415  1.00  0.00    -0.550 OA
ATOM     24  O   UNL     1      15.104  48.967  26.997  1.00  0.00    -0.550 OA
ENDBRANCH  21  22
ENDBRANCH  20  21
ENDBRANCH  19  20
ENDBRANCH  18  19
ENDBRANCH  17  18
ENDBRANCH  16  17
ENDBRANCH  15  16
ENDBRANCH  14  15
ENDBRANCH  13  14
ENDBRANCH   1  13
TORSDOF 20
ENDMDL
MODEL 5
REMARK VINA RESULT:    -5.237      1.369      1.761
REMARK INTER + INTRA:         -12.899
REMARK INTER:                 -11.153
REMARK INTRA:                  -1.746
REMARK UNBOUND:                -1.539
REMARK SMILES CCCCCCCCCCCCCCCCCCCCCC(=O)[O-]
REMARK SMILES IDX 12 1 11 2 10 3 9 4 8 5 7 6 6 7 5 8 4 9 3 10 2 11 1 12 13 13
REMARK SMILES IDX 14 14 15 15 16 16 17 17 18 18 19 19 20 20 21 21 22 22 23 23
REMARK SMILES IDX 24 24
REMARK H PARENT
REMARK Flexibility Score: inf
ROOT
ATOM      1  C   UNL     1       3.406  57.924  20.841  1.00  0.00     0.000 C 
ENDROOT
BRANCH   1   2
ATOM      2  C   UNL     1       4.749  57.396  21.381  1.00  0.00     0.000 C 
BRANCH   2   3
ATOM      3  C   UNL     1       5.414  56.302  20.527  1.00  0.00     0.000 C 
BRANCH   3   4
ATOM      4  C   UNL     1       6.769  56.689  19.899  1.00  0.00    -0.000 C 
BRANCH   4   5
ATOM      5  C   UNL     1       7.308  55.710  18.841  1.00  0.00    -0.000 C 
BRANCH   5   6
ATOM      6  C   UNL     1       7.657  54.330  19.422  1.00  0.00    -0.000 C 
BRANCH   6   7
ATOM      7  C   UNL     1       8.520  54.417  20.693  1.00  0.00    -0.000 C 
BRANCH   7   8
ATOM      8  C   UNL     1       7.969  53.654  21.911  1.00  0.00    -0.000 C 
BRANCH   8   9
ATOM      9  C   UNL     1       8.965  52.629  22.478  1.00  0.00    -0.000 C 
BRANCH   9  10
ATOM     10  C   UNL     1      10.206  53.305  23.102  1.00  0.00    -0.000 C 
BRANCH  10  11
ATOM     11  C   UNL     1       9.867  54.522  23.976  1.00  0.00    -0.003 C 
ATOM     12  C   UNL     1       9.896  54.212  25.471  1.00  0.00     0.004 C 
ENDBRANCH  10  11
ENDBRANCH   9  10
ENDBRANCH   8   9
ENDBRANCH   7   8
ENDBRANCH   6   7
ENDBRANCH   5   6
ENDBRANCH   4   5
ENDBRANCH   3   4
ENDBRANCH   2   3
ENDBRANCH   1   2
BRANCH   1  13
ATOM     13  C   UNL     1       3.507  59.294  20.138  1.00  0.00     0.000 C 
BRANCH  13  14
ATOM     14  C   UNL     1       2.567  60.351  20.747  1.00  0.00     0.000 C 
BRANCH  14  15
ATOM     15  C   UNL     1       1.640  59.748  21.824  1.00  0.00     0.000 C 
BRANCH  15  16
ATOM     16  C   UNL     1       0.149  59.800  21.447  1.00  0.00     0.000 C 
BRANCH  16  17
ATOM     17  C   UNL     1      -0.161  60.869  20.387  1.00  0.00     0.000 C 
BRANCH  17  18
ATOM     18  C   UNL     1      -1.240  60.412  19.391  1.00  0.00     0.000 C 
BRANCH  18  19
ATOM     19  C   UNL     1      -0.855  60.703  17.931  1.00  0.00     0.000 C 
BRANCH  19  20
ATOM     20  C   UNL     1       0.658  60.905  17.736  1.00  0.00     0.006 C 
BRANCH  20  21
ATOM     21  C   UNL     1       1.395  59.655  17.222  1.00  0.00     0.053 C 
BRANCH  21  22
ATOM     22  C   UNL     1       1.318  59.515  15.731  1.00  0.00     0.041 C 
ATOM     23  O   UNL     1       0.797  58.489  15.218  1.00  0.00    -0.550 OA
ATOM     24  O   UNL     1       1.779  60.535  14.907  1.00  0.00    -0.550 OA
ENDBRANCH  21  22
ENDBRANCH  20  21
ENDBRANCH  19  20
ENDBRANCH  18  19
ENDBRANCH  17  18
ENDBRANCH  16  17
ENDBRANCH  15  16
ENDBRANCH  14  15
ENDBRANCH  13  14
ENDBRANCH   1  13
TORSDOF 20
ENDMDL
MODEL 6
REMARK VINA RESULT:    -5.210      3.909     10.879
REMARK INTER + INTRA:         -12.842
REMARK INTER:                 -10.888
REMARK INTRA:                  -1.953
REMARK UNBOUND:                -1.539
REMARK SMILES CCCCCCCCCCCCCCCCCCCCCC(=O)[O-]
REMARK SMILES IDX 12 1 11 2 10 3 9 4 8 5 7 6 6 7 5 8 4 9 3 10 2 11 1 12 13 13
REMARK SMILES IDX 14 14 15 15 16 16 17 17 18 18 19 19 20 20 21 21 22 22 23 23
REMARK SMILES IDX 24 24
REMARK H PARENT
REMARK Flexibility Score: inf
ROOT
ATOM      1  C   UNL     1       0.299  59.733  21.617  1.00  0.00     0.000 C 
ENDROOT
BRANCH   1   2
ATOM      2  C   UNL     1      -0.411  60.091  20.297  1.00  0.00     0.000 C 
BRANCH   2   3
ATOM      3  C   UNL     1       0.154  61.319  19.561  1.00  0.00     0.000 C 
BRANCH   3   4
ATOM      4  C   UNL     1       1.322  61.029  18.595  1.00  0.00    -0.000 C 
BRANCH   4   5
ATOM      5  C   UNL     1       1.319  59.627  17.960  1.00  0.00    -0.000 C 
BRANCH   5   6
ATOM      6  C   UNL     1       1.595  59.652  16.448  1.00  0.00    -0.000 C 
BRANCH   6   7
ATOM      7  C   UNL     1       0.383  59.205  15.611  1.00  0.00    -0.000 C 
BRANCH   7   8
ATOM      8  C   UNL     1      -0.990  59.571  16.202  1.00  0.00    -0.000 C 
BRANCH   8   9
ATOM      9  C   UNL     1      -1.376  61.039  15.960  1.00  0.00    -0.000 C 
BRANCH   9  10
ATOM     10  C   UNL     1      -1.251  61.437  14.473  1.00  0.00    -0.000 C 
BRANCH  10  11
ATOM     11  C   UNL     1      -0.489  62.753  14.252  1.00  0.00    -0.003 C 
ATOM     12  C   UNL     1       1.013  62.551  14.064  1.00  0.00     0.004 C 
ENDBRANCH  10  11
ENDBRANCH   9  10
ENDBRANCH   8   9
ENDBRANCH   7   8
ENDBRANCH   6   7
ENDBRANCH   5   6
ENDBRANCH   4   5
ENDBRANCH   3   4
ENDBRANCH   2   3
ENDBRANCH   1   2
BRANCH   1  13
ATOM     13  C   UNL     1       1.296  58.560  21.495  1.00  0.00     0.000 C 
BRANCH  13  14
ATOM     14  C   UNL     1       2.763  59.024  21.441  1.00  0.00     0.000 C 
BRANCH  14  15
ATOM     15  C   UNL     1       3.621  58.125  20.525  1.00  0.00     0.000 C 
BRANCH  15  16
ATOM     16  C   UNL     1       4.658  57.284  21.289  1.00  0.00     0.000 C 
BRANCH  16  17
ATOM     17  C   UNL     1       5.906  56.970  20.448  1.00  0.00     0.000 C 
BRANCH  17  18
ATOM     18  C   UNL     1       6.757  55.844  21.060  1.00  0.00     0.000 C 
BRANCH  18  19
ATOM     19  C   UNL     1       7.922  55.424  20.148  1.00  0.00     0.000 C 
BRANCH  19  20
ATOM     20  C   UNL     1       8.819  54.342  20.776  1.00  0.00     0.006 C 
BRANCH  20  21
ATOM     21  C   UNL     1       8.784  54.316  22.314  1.00  0.00     0.053 C 
BRANCH  21  22
ATOM     22  C   UNL     1       9.962  53.600  22.904  1.00  0.00     0.041 C 
ATOM     23  O   UNL     1      10.656  54.155  23.798  1.00  0.00    -0.550 OA
ATOM     24  O   UNL     1      10.268  52.306  22.502  1.00  0.00    -0.550 OA
ENDBRANCH  21  22
ENDBRANCH  20  21
ENDBRANCH  19  20
ENDBRANCH  18  19
ENDBRANCH  17  18
ENDBRANCH  16  17
ENDBRANCH  15  16
ENDBRANCH  14  15
ENDBRANCH  13  14
ENDBRANCH   1  13
TORSDOF 20
ENDMDL
MODEL 7
REMARK VINA RESULT:    -5.193      3.641     11.021
REMARK INTER + INTRA:         -12.804
REMARK INTER:                 -11.341
REMARK INTRA:                  -1.463
REMARK UNBOUND:                -1.539
REMARK SMILES CCCCCCCCCCCCCCCCCCCCCC(=O)[O-]
REMARK SMILES IDX 12 1 11 2 10 3 9 4 8 5 7 6 6 7 5 8 4 9 3 10 2 11 1 12 13 13
REMARK SMILES IDX 14 14 15 15 16 16 17 17 18 18 19 19 20 20 21 21 22 22 23 23
REMARK SMILES IDX 24 24
REMARK H PARENT
REMARK Flexibility Score: inf
ROOT
ATOM      1  C   UNL     1       3.414  58.875  20.038  1.00  0.00     0.000 C 
ENDROOT
BRANCH   1   2
ATOM      2  C   UNL     1       2.588  59.921  20.811  1.00  0.00     0.000 C 
BRANCH   2   3
ATOM      3  C   UNL     1       1.884  59.397  22.075  1.00  0.00     0.000 C 
BRANCH   3   4
ATOM      4  C   UNL     1       0.521  60.049  22.389  1.00  0.00    -0.000 C 
BRANCH   4   5
ATOM      5  C   UNL     1      -0.594  59.769  21.365  1.00  0.00    -0.000 C 
BRANCH   5   6
ATOM      6  C   UNL     1      -0.948  60.999  20.512  1.00  0.00    -0.000 C 
BRANCH   6   7
ATOM      7  C   UNL     1      -0.917  60.707  19.001  1.00  0.00    -0.000 C 
BRANCH   7   8
ATOM      8  C   UNL     1       0.206  61.416  18.222  1.00  0.00    -0.000 C 
BRANCH   8   9
ATOM      9  C   UNL     1       0.064  61.267  16.698  1.00  0.00    -0.000 C 
BRANCH   9  10
ATOM     10  C   UNL     1      -0.514  59.893  16.297  1.00  0.00    -0.000 C 
BRANCH  10  11
ATOM     11  C   UNL     1       0.535  58.931  15.717  1.00  0.00    -0.003 C 
ATOM     12  C   UNL     1       1.838  59.629  15.331  1.00  0.00     0.004 C 
ENDBRANCH  10  11
ENDBRANCH   9  10
ENDBRANCH   8   9
ENDBRANCH   7   8
ENDBRANCH   6   7
ENDBRANCH   5   6
ENDBRANCH   4   5
ENDBRANCH   3   4
ENDBRANCH   2   3
ENDBRANCH   1   2
BRANCH   1  13
ATOM     13  C   UNL     1       3.977  57.741  20.923  1.00  0.00     0.000 C 
BRANCH  13  14
ATOM     14  C   UNL     1       5.369  57.264  20.471  1.00  0.00     0.000 C 
BRANCH  14  15
ATOM     15  C   UNL     1       5.933  56.167  21.399  1.00  0.00     0.000 C 
BRANCH  15  16
ATOM     16  C   UNL     1       5.932  54.766  20.764  1.00  0.00     0.000 C 
BRANCH  16  17
ATOM     17  C   UNL     1       7.182  53.948  21.124  1.00  0.00     0.000 C 
BRANCH  17  18
ATOM     18  C   UNL     1       8.477  54.592  20.599  1.00  0.00     0.000 C 
BRANCH  18  19
ATOM     19  C   UNL     1       9.740  53.894  21.129  1.00  0.00     0.000 C 
BRANCH  19  20
ATOM     20  C   UNL     1       9.496  53.118  22.435  1.00  0.00     0.006 C 
BRANCH  20  21
ATOM     21  C   UNL     1      10.176  53.738  23.668  1.00  0.00     0.053 C 
BRANCH  21  22
ATOM     22  C   UNL     1       9.228  53.928  24.814  1.00  0.00     0.041 C 
ATOM     23  O   UNL     1       7.990  53.770  24.643  1.00  0.00    -0.550 OA
ATOM     24  O   UNL     1       9.713  54.232  26.081  1.00  0.00    -0.550 OA
ENDBRANCH  21  22
ENDBRANCH  20  21
ENDBRANCH  19  20
ENDBRANCH  18  19
ENDBRANCH  17  18
ENDBRANCH  16  17
ENDBRANCH  15  16
ENDBRANCH  14  15
ENDBRANCH  13  14
ENDBRANCH   1  13
TORSDOF 20
ENDMDL
MODEL 8
REMARK VINA RESULT:    -5.185      5.737      9.572
REMARK INTER + INTRA:         -12.787
REMARK INTER:                 -11.181
REMARK INTRA:                  -1.606
REMARK UNBOUND:                -1.539
REMARK SMILES CCCCCCCCCCCCCCCCCCCCCC(=O)[O-]
REMARK SMILES IDX 12 1 11 2 10 3 9 4 8 5 7 6 6 7 5 8 4 9 3 10 2 11 1 12 13 13
REMARK SMILES IDX 14 14 15 15 16 16 17 17 18 18 19 19 20 20 21 21 22 22 23 23
REMARK SMILES IDX 24 24
REMARK H PARENT
REMARK Flexibility Score: inf
ROOT
ATOM      1  C   UNL     1       9.892  51.907  21.539  1.00  0.00     0.000 C 
ENDROOT
BRANCH   1   2
ATOM      2  C   UNL     1       9.949  50.912  22.714  1.00  0.00     0.000 C 
BRANCH   2   3
ATOM      3  C   UNL     1      11.011  49.806  22.584  1.00  0.00     0.000 C 
BRANCH   3   4
ATOM      4  C   UNL     1      10.462  48.364  22.558  1.00  0.00    -0.000 C 
BRANCH   4   5
ATOM      5  C   UNL     1      10.484  47.626  23.909  1.00  0.00    -0.000 C 
BRANCH   5   6
ATOM      6  C   UNL     1      10.312  46.105  23.766  1.00  0.00    -0.000 C 
BRANCH   6   7
ATOM      7  C   UNL     1      10.575  45.347  25.079  1.00  0.00    -0.000 C 
BRANCH   7   8
ATOM      8  C   UNL     1      12.016  45.442  25.611  1.00  0.00    -0.000 C 
BRANCH   8   9
ATOM      9  C   UNL     1      12.106  45.265  27.136  1.00  0.00    -0.000 C 
BRANCH   9  10
ATOM     10  C   UNL     1      12.496  46.575  27.853  1.00  0.00    -0.000 C 
BRANCH  10  11
ATOM     11  C   UNL     1      13.993  46.908  27.752  1.00  0.00    -0.003 C 
ATOM     12  C   UNL     1      14.892  45.785  28.263  1.00  0.00     0.004 C 
ENDBRANCH  10  11
ENDBRANCH   9  10
ENDBRANCH   8   9
ENDBRANCH   7   8
ENDBRANCH   6   7
ENDBRANCH   5   6
ENDBRANCH   4   5
ENDBRANCH   3   4
ENDBRANCH   2   3
ENDBRANCH   1   2
BRANCH   1  13
ATOM     13  C   UNL     1      10.655  53.225  21.795  1.00  0.00     0.000 C 
BRANCH  13  14
ATOM     14  C   UNL     1      10.504  53.734  23.240  1.00  0.00     0.000 C 
BRANCH  14  15
ATOM     15  C   UNL     1       9.258  54.630  23.410  1.00  0.00     0.000 C 
BRANCH  15  16
ATOM     16  C   UNL     1       8.075  53.914  24.084  1.00  0.00     0.000 C 
BRANCH  16  17
ATOM     17  C   UNL     1       6.947  53.571  23.098  1.00  0.00     0.000 C 
BRANCH  17  18
ATOM     18  C   UNL     1       7.159  54.214  21.717  1.00  0.00     0.000 C 
BRANCH  18  19
ATOM     19  C   UNL     1       6.087  55.265  21.386  1.00  0.00     0.000 C 
BRANCH  19  20
ATOM     20  C   UNL     1       6.470  56.160  20.193  1.00  0.00     0.006 C 
BRANCH  20  21
ATOM     21  C   UNL     1       7.551  55.557  19.280  1.00  0.00     0.053 C 
BRANCH  21  22
ATOM     22  C   UNL     1       6.970  54.799  18.124  1.00  0.00     0.041 C 
ATOM     23  O   UNL     1       6.433  53.675  18.310  1.00  0.00    -0.550 OA
ATOM     24  O   UNL     1       6.979  55.353  16.849  1.00  0.00    -0.550 OA
ENDBRANCH  21  22
ENDBRANCH  20  21
ENDBRANCH  19  20
ENDBRANCH  18  19
ENDBRANCH  17  18
ENDBRANCH  16  17
ENDBRANCH  15  16
ENDBRANCH  14  15
ENDBRANCH  13  14
ENDBRANCH   1  13
TORSDOF 20
ENDMDL
MODEL 9
REMARK VINA RESULT:    -5.133      5.974     10.330
REMARK INTER + INTRA:         -12.675
REMARK INTER:                 -11.309
REMARK INTRA:                  -1.366
REMARK UNBOUND:                -1.539
REMARK SMILES CCCCCCCCCCCCCCCCCCCCCC(=O)[O-]
REMARK SMILES IDX 12 1 11 2 10 3 9 4 8 5 7 6 6 7 5 8 4 9 3 10 2 11 1 12 13 13
REMARK SMILES IDX 14 14 15 15 16 16 17 17 18 18 19 19 20 20 21 21 22 22 23 23
REMARK SMILES IDX 24 24
REMARK H PARENT
REMARK Flexibility Score: inf
ROOT
ATOM      1  C   UNL     1      10.533  49.409  22.365  1.00  0.00     0.000 C 
ENDROOT
BRANCH   1   2
ATOM      2  C   UNL     1      11.699  48.634  23.008  1.00  0.00     0.000 C 
BRANCH   2   3
ATOM      3  C   UNL     1      11.356  47.903  24.319  1.00  0.00     0.000 C 
BRANCH   3   4
ATOM      4  C   UNL     1      10.114  46.989  24.259  1.00  0.00    -0.000 C 
BRANCH   4   5
ATOM      5  C   UNL     1      10.258  45.741  23.368  1.00  0.00    -0.000 C 
BRANCH   5   6
ATOM      6  C   UNL     1      10.833  44.530  24.121  1.00  0.00    -0.000 C 
BRANCH   6   7
ATOM      7  C   UNL     1      10.549  44.576  25.633  1.00  0.00    -0.000 C 
BRANCH   7   8
ATOM      8  C   UNL     1      11.785  44.804  26.522  1.00  0.00    -0.000 C 
BRANCH   8   9
ATOM      9  C   UNL     1      11.422  45.231  27.954  1.00  0.00    -0.000 C 
BRANCH   9  10
ATOM     10  C   UNL     1      12.537  46.073  28.611  1.00  0.00    -0.000 C 
BRANCH  10  11
ATOM     11  C   UNL     1      12.433  47.575  28.304  1.00  0.00    -0.003 C 
ATOM     12  C   UNL     1      13.463  48.051  27.282  1.00  0.00     0.004 C 
ENDBRANCH  10  11
ENDBRANCH   9  10
ENDBRANCH   8   9
ENDBRANCH   7   8
ENDBRANCH   6   7
ENDBRANCH   5   6
ENDBRANCH   4   5
ENDBRANCH   3   4
ENDBRANCH   2   3
ENDBRANCH   1   2
BRANCH   1  13
ATOM     13  C   UNL     1      10.514  50.914  22.707  1.00  0.00     0.000 C 
BRANCH  13  14
ATOM     14  C   UNL     1       9.787  51.760  21.647  1.00  0.00     0.000 C 
BRANCH  14  15
ATOM     15  C   UNL     1      10.200  53.247  21.710  1.00  0.00     0.000 C 
BRANCH  15  16
ATOM     16  C   UNL     1       9.666  53.979  22.953  1.00  0.00     0.000 C 
BRANCH  16  17
ATOM     17  C   UNL     1       8.136  53.895  23.082  1.00  0.00     0.000 C 
BRANCH  17  18
ATOM     18  C   UNL     1       7.429  53.948  21.717  1.00  0.00     0.000 C 
BRANCH  18  19
ATOM     19  C   UNL     1       7.139  55.386  21.258  1.00  0.00     0.000 C 
BRANCH  19  20
ATOM     20  C   UNL     1       7.991  55.816  20.050  1.00  0.00     0.006 C 
BRANCH  20  21
ATOM     21  C   UNL     1       7.172  56.119  18.784  1.00  0.00     0.053 C 
BRANCH  21  22
ATOM     22  C   UNL     1       7.105  54.949  17.848  1.00  0.00     0.041 C 
ATOM     23  O   UNL     1       7.593  53.839  18.189  1.00  0.00    -0.550 OA
ATOM     24  O   UNL     1       6.466  55.070  16.620  1.00  0.00    -0.550 OA
ENDBRANCH  21  22
ENDBRANCH  20  21
ENDBRANCH  19  20
ENDBRANCH  18  19
ENDBRANCH  17  18
ENDBRANCH  16  17
ENDBRANCH  15  16
ENDBRANCH  14  15
ENDBRANCH  13  14
ENDBRANCH   1  13
TORSDOF 20
ENDMDL
