MODEL 1
REMARK VINA RESULT:    -5.602      0.000      0.000
REMARK INTER + INTRA:          -5.928
REMARK INTER:                  -6.094
REMARK INTRA:                   0.165
REMARK UNBOUND:                 0.165
REMARK SMILES C[C@@H]1[C@H](C)CC[C@]2(C(=O)[O-])CC[C@@]3(C)C(=CC[C@@H]4[C@]5(C)CC[C@H](O)C(C)(C)[C@H]5CC[C@@]43C)[C@@H]12
REMARK SMILES IDX 7 1 6 2 11 3 33 4 5 5 12 6 15 7 2 8 3 9 13 10 16 11 1 12
REMARK SMILES IDX 4 13 14 14 31 15 17 16 18 17 30 18 32 19 19 20 29 21 28 22
REMARK SMILES IDX 21 23 20 24 25 25 22 26 23 27 26 28 27 29 8 30 9 31 10 32
REMARK SMILES IDX 24 33
REMARK H PARENT 24 34
REMARK Flexibility Score: inf
ROOT
ATOM      1  C   UNL     1      41.802  18.713  -4.512  1.00  0.00     0.017 C 
ATOM      2  C   UNL     1      40.284  18.937  -4.239  1.00  0.00     0.014 C 
ATOM      3  C   UNL     1      41.936  17.772  -5.728  1.00  0.00     0.014 C 
ATOM      4  C   UNL     1      42.429  17.995  -3.282  1.00  0.00     0.030 C 
ATOM      5  C   UNL     1      39.949  19.579  -2.873  1.00  0.00     0.004 C 
ATOM      6  C   UNL     1      43.400  17.552  -6.110  1.00  0.00     0.013 C 
ATOM      7  C   UNL     1      43.872  17.491  -3.541  1.00  0.00    -0.063 C 
ATOM      8  C   UNL     1      42.198  18.765  -1.920  1.00  0.00    -0.003 C 
ATOM      9  C   UNL     1      41.185  19.952  -2.036  1.00  0.00    -0.011 C 
ATOM     10  C   UNL     1      44.362  17.071  -4.949  1.00  0.00    -0.006 C 
ATOM     11  C   UNL     1      44.650  17.124  -2.495  1.00  0.00    -0.027 C 
ATOM     12  C   UNL     1      41.768  17.771  -0.809  1.00  0.00     0.008 C 
ATOM     13  C   UNL     1      40.764  20.539  -0.678  1.00  0.00     0.008 C 
ATOM     14  C   UNL     1      45.675  17.896  -5.209  1.00  0.00     0.017 C 
ATOM     15  C   UNL     1      44.615  15.459  -4.961  1.00  0.00    -0.020 C 
ATOM     16  C   UNL     1      45.676  16.027  -2.628  1.00  0.00     0.032 C 
ATOM     17  C   UNL     1      45.109  14.899  -3.530  1.00  0.00     0.006 C 
ATOM     18  C   UNL     1      45.613  15.100  -6.114  1.00  0.00     0.008 C 
ATOM     19  C   UNL     1      43.270  14.727  -5.268  1.00  0.00     0.012 C 
ATOM     20  C   UNL     1      45.926  13.505  -3.517  1.00  0.00    -0.025 C 
ATOM     21  C   UNL     1      46.166  13.684  -6.069  1.00  0.00     0.005 C 
ATOM     22  C   UNL     1      46.917  13.458  -4.737  1.00  0.00     0.003 C 
ATOM     23  C   UNL     1      46.784  13.358  -2.213  1.00  0.00     0.010 C 
ATOM     24  C   UNL     1      44.891  12.318  -3.525  1.00  0.00     0.012 C 
ATOM     25  C   UNL     1      47.947  12.254  -4.768  1.00  0.00    -0.006 C 
ATOM     26  C   UNL     1      47.728  12.144  -2.201  1.00  0.00     0.033 C 
ATOM     27  C   UNL     1      48.691  12.163  -3.396  1.00  0.00     0.120 C 
ATOM     28  C   UNL     1      47.288  10.891  -5.106  1.00  0.00     0.014 C 
ATOM     29  C   UNL     1      49.026  12.502  -5.864  1.00  0.00     0.014 C 
ENDROOT
BRANCH   1  30
ATOM     30  C   UNL     1      42.469  20.049  -4.835  1.00  0.00     0.048 C 
ATOM     31  O   UNL     1      42.000  20.786  -5.743  1.00  0.00    -0.550 OA
ATOM     32  O   UNL     1      43.617  20.459  -4.167  1.00  0.00    -0.550 OA
ENDBRANCH   1  30
BRANCH  27  33
ATOM     33  O   UNL     1      49.580  13.247  -3.253  1.00  0.00    -0.393 OA
ATOM     34  H   UNL     1      50.354  13.071  -3.849  1.00  0.00     0.210 HD
ENDBRANCH  27  33
TORSDOF 2
ENDMDL
MODEL 2
REMARK VINA RESULT:    -4.926      1.688      8.176
REMARK INTER + INTRA:          -5.192
REMARK INTER:                  -5.598
REMARK INTRA:                   0.405
REMARK UNBOUND:                 0.165
REMARK SMILES C[C@@H]1[C@H](C)CC[C@]2(C(=O)[O-])CC[C@@]3(C)C(=CC[C@@H]4[C@]5(C)CC[C@H](O)C(C)(C)[C@H]5CC[C@@]43C)[C@@H]12
REMARK SMILES IDX 7 1 6 2 11 3 33 4 5 5 12 6 15 7 2 8 3 9 13 10 16 11 1 12
REMARK SMILES IDX 4 13 14 14 31 15 17 16 18 17 30 18 32 19 19 20 29 21 28 22
REMARK SMILES IDX 21 23 20 24 25 25 22 26 23 27 26 28 27 29 8 30 9 31 10 32
REMARK SMILES IDX 24 33
REMARK H PARENT 24 34
REMARK Flexibility Score: inf
ROOT
ATOM      1  C   UNL     1      48.304  12.479  -4.786  1.00  0.00     0.017 C 
ATOM      2  C   UNL     1      49.170  11.872  -5.930  1.00  0.00     0.014 C 
ATOM      3  C   UNL     1      46.860  11.959  -4.952  1.00  0.00     0.014 C 
ATOM      4  C   UNL     1      48.274  14.026  -4.949  1.00  0.00     0.030 C 
ATOM      5  C   UNL     1      50.556  12.530  -6.125  1.00  0.00     0.004 C 
ATOM      6  C   UNL     1      45.951  12.452  -3.825  1.00  0.00     0.013 C 
ATOM      7  C   UNL     1      47.239  14.716  -4.024  1.00  0.00    -0.063 C 
ATOM      8  C   UNL     1      49.714  14.680  -4.987  1.00  0.00    -0.003 C 
ATOM      9  C   UNL     1      50.873  13.636  -5.104  1.00  0.00    -0.011 C 
ATOM     10  C   UNL     1      45.935  14.014  -3.573  1.00  0.00    -0.006 C 
ATOM     11  C   UNL     1      47.304  16.055  -3.830  1.00  0.00    -0.027 C 
ATOM     12  C   UNL     1      49.793  15.732  -6.125  1.00  0.00     0.008 C 
ATOM     13  C   UNL     1      52.245  14.268  -5.397  1.00  0.00     0.008 C 
ATOM     14  C   UNL     1      45.912  14.121  -2.004  1.00  0.00     0.017 C 
ATOM     15  C   UNL     1      44.663  14.757  -4.275  1.00  0.00    -0.020 C 
ATOM     16  C   UNL     1      46.059  16.875  -3.600  1.00  0.00     0.032 C 
ATOM     17  C   UNL     1      44.915  16.337  -4.497  1.00  0.00     0.006 C 
ATOM     18  C   UNL     1      43.370  14.476  -3.436  1.00  0.00     0.008 C 
ATOM     19  C   UNL     1      44.434  14.154  -5.697  1.00  0.00     0.012 C 
ATOM     20  C   UNL     1      43.614  17.286  -4.632  1.00  0.00    -0.025 C 
ATOM     21  C   UNL     1      42.167  15.332  -3.801  1.00  0.00     0.005 C 
ATOM     22  C   UNL     1      42.512  16.826  -3.609  1.00  0.00     0.003 C 
ATOM     23  C   UNL     1      43.962  18.779  -4.304  1.00  0.00     0.010 C 
ATOM     24  C   UNL     1      43.117  17.245  -6.125  1.00  0.00     0.012 C 
ATOM     25  C   UNL     1      41.248  17.771  -3.457  1.00  0.00    -0.006 C 
ATOM     26  C   UNL     1      42.747  19.720  -4.235  1.00  0.00     0.033 C 
ATOM     27  C   UNL     1      41.717  19.240  -3.203  1.00  0.00     0.120 C 
ATOM     28  C   UNL     1      40.295  17.722  -4.679  1.00  0.00     0.014 C 
ATOM     29  C   UNL     1      40.401  17.335  -2.224  1.00  0.00     0.014 C 
ENDROOT
BRANCH   1  30
ATOM     30  C   UNL     1      48.848  12.025  -3.433  1.00  0.00     0.048 C 
ATOM     31  O   UNL     1      49.359  10.879  -3.310  1.00  0.00    -0.550 OA
ATOM     32  O   UNL     1      48.759  12.842  -2.312  1.00  0.00    -0.550 OA
ENDBRANCH   1  30
BRANCH  27  33
ATOM     33  O   UNL     1      42.271  19.357  -1.913  1.00  0.00    -0.393 OA
ATOM     34  H   UNL     1      41.802  20.107  -1.461  1.00  0.00     0.210 HD
ENDBRANCH  27  33
TORSDOF 2
ENDMDL
MODEL 3
REMARK VINA RESULT:    -3.894      1.823      2.585
REMARK INTER + INTRA:          -4.070
REMARK INTER:                  -4.297
REMARK INTRA:                   0.227
REMARK UNBOUND:                 0.165
REMARK SMILES C[C@@H]1[C@H](C)CC[C@]2(C(=O)[O-])CC[C@@]3(C)C(=CC[C@@H]4[C@]5(C)CC[C@H](O)C(C)(C)[C@H]5CC[C@@]43C)[C@@H]12
REMARK SMILES IDX 7 1 6 2 11 3 33 4 5 5 12 6 15 7 2 8 3 9 13 10 16 11 1 12
REMARK SMILES IDX 4 13 14 14 31 15 17 16 18 17 30 18 32 19 19 20 29 21 28 22
REMARK SMILES IDX 21 23 20 24 25 25 22 26 23 27 26 28 27 29 8 30 9 31 10 32
REMARK SMILES IDX 24 33
REMARK H PARENT 24 34
REMARK Flexibility Score: inf
ROOT
ATOM      1  C   UNL     1      41.647  16.905  -3.418  1.00  0.00     0.017 C 
ATOM      2  C   UNL     1      40.778  17.558  -2.302  1.00  0.00     0.014 C 
ATOM      3  C   UNL     1      41.622  15.375  -3.210  1.00  0.00     0.014 C 
ATOM      4  C   UNL     1      43.118  17.385  -3.252  1.00  0.00     0.030 C 
ATOM      5  C   UNL     1      40.948  19.087  -2.148  1.00  0.00     0.004 C 
ATOM      6  C   UNL     1      42.397  14.646  -4.308  1.00  0.00     0.013 C 
ATOM      7  C   UNL     1      44.117  16.605  -4.144  1.00  0.00    -0.063 C 
ATOM      8  C   UNL     1      43.268  18.960  -3.256  1.00  0.00    -0.003 C 
ATOM      9  C   UNL     1      41.902  19.719  -3.176  1.00  0.00    -0.011 C 
ATOM     10  C   UNL     1      43.882  15.131  -4.558  1.00  0.00    -0.006 C 
ATOM     11  C   UNL     1      45.364  17.096  -4.339  1.00  0.00    -0.027 C 
ATOM     12  C   UNL     1      44.224  19.408  -2.120  1.00  0.00     0.008 C 
ATOM     13  C   UNL     1      42.050  21.229  -2.924  1.00  0.00     0.008 C 
ATOM     14  C   UNL     1      44.008  15.101  -6.125  1.00  0.00     0.017 C 
ATOM     15  C   UNL     1      44.991  14.191  -3.816  1.00  0.00    -0.020 C 
ATOM     16  C   UNL     1      46.547  16.181  -4.530  1.00  0.00     0.032 C 
ATOM     17  C   UNL     1      46.400  14.949  -3.599  1.00  0.00     0.006 C 
ATOM     18  C   UNL     1      45.155  12.854  -4.616  1.00  0.00     0.008 C 
ATOM     19  C   UNL     1      44.479  13.817  -2.389  1.00  0.00     0.012 C 
ATOM     20  C   UNL     1      47.719  14.032  -3.424  1.00  0.00    -0.025 C 
ATOM     21  C   UNL     1      46.351  12.005  -4.214  1.00  0.00     0.005 C 
ATOM     22  C   UNL     1      47.654  12.812  -4.414  1.00  0.00     0.003 C 
ATOM     23  C   UNL     1      49.021  14.837  -3.760  1.00  0.00     0.010 C 
ATOM     24  C   UNL     1      47.825  13.590  -1.917  1.00  0.00     0.012 C 
ATOM     25  C   UNL     1      48.960  11.920  -4.527  1.00  0.00    -0.006 C 
ATOM     26  C   UNL     1      50.307  13.993  -3.790  1.00  0.00     0.033 C 
ATOM     27  C   UNL     1      50.199  12.834  -4.792  1.00  0.00     0.120 C 
ATOM     28  C   UNL     1      49.209  11.037  -3.276  1.00  0.00     0.014 C 
ATOM     29  C   UNL     1      48.837  10.944  -5.734  1.00  0.00     0.014 C 
ENDROOT
BRANCH   1  30
ATOM     30  C   UNL     1      41.056  17.234  -4.788  1.00  0.00     0.048 C 
ATOM     31  O   UNL     1      39.875  16.891  -5.066  1.00  0.00    -0.550 OA
ATOM     32  O   UNL     1      41.812  17.878  -5.761  1.00  0.00    -0.550 OA
ENDBRANCH   1  30
BRANCH  27  33
ATOM     33  O   UNL     1      50.145  13.360  -6.097  1.00  0.00    -0.393 OA
ATOM     34  H   UNL     1      50.979  13.083  -6.560  1.00  0.00     0.210 HD
ENDBRANCH  27  33
TORSDOF 2
ENDMDL
MODEL 4
REMARK VINA RESULT:    -3.637      2.022      7.854
REMARK INTER + INTRA:          -3.790
REMARK INTER:                  -5.376
REMARK INTRA:                   1.586
REMARK UNBOUND:                 0.165
REMARK SMILES C[C@@H]1[C@H](C)CC[C@]2(C(=O)[O-])CC[C@@]3(C)C(=CC[C@@H]4[C@]5(C)CC[C@H](O)C(C)(C)[C@H]5CC[C@@]43C)[C@@H]12
REMARK SMILES IDX 7 1 6 2 11 3 33 4 5 5 12 6 15 7 2 8 3 9 13 10 16 11 1 12
REMARK SMILES IDX 4 13 14 14 31 15 17 16 18 17 30 18 32 19 19 20 29 21 28 22
REMARK SMILES IDX 21 23 20 24 25 25 22 26 23 27 26 28 27 29 8 30 9 31 10 32
REMARK SMILES IDX 24 33
REMARK H PARENT 24 34
REMARK Flexibility Score: inf
ROOT
ATOM      1  C   UNL     1      45.372  12.177  -4.144  1.00  0.00     0.017 C 
ATOM      2  C   UNL     1      46.626  11.395  -4.637  1.00  0.00     0.014 C 
ATOM      3  C   UNL     1      44.539  12.575  -5.380  1.00  0.00     0.014 C 
ATOM      4  C   UNL     1      45.843  13.485  -3.445  1.00  0.00     0.030 C 
ATOM      5  C   UNL     1      47.739  11.202  -3.580  1.00  0.00     0.004 C 
ATOM      6  C   UNL     1      43.247  13.290  -4.982  1.00  0.00     0.013 C 
ATOM      7  C   UNL     1      44.680  14.465  -3.141  1.00  0.00    -0.063 C 
ATOM      8  C   UNL     1      46.863  13.233  -2.263  1.00  0.00    -0.003 C 
ATOM      9  C   UNL     1      47.387  11.760  -2.191  1.00  0.00    -0.011 C 
ATOM     10  C   UNL     1      43.405  14.534  -4.017  1.00  0.00    -0.006 C 
ATOM     11  C   UNL     1      44.878  15.491  -2.280  1.00  0.00    -0.027 C 
ATOM     12  C   UNL     1      48.041  14.240  -2.350  1.00  0.00     0.008 C 
ATOM     13  C   UNL     1      48.561  11.570  -1.216  1.00  0.00     0.008 C 
ATOM     14  C   UNL     1      42.196  14.371  -3.025  1.00  0.00     0.017 C 
ATOM     15  C   UNL     1      43.384  15.959  -4.810  1.00  0.00    -0.020 C 
ATOM     16  C   UNL     1      44.166  16.809  -2.452  1.00  0.00     0.032 C 
ATOM     17  C   UNL     1      44.072  17.149  -3.962  1.00  0.00     0.006 C 
ATOM     18  C   UNL     1      41.912  16.302  -5.223  1.00  0.00     0.008 C 
ATOM     19  C   UNL     1      44.217  15.831  -6.125  1.00  0.00     0.012 C 
ATOM     20  C   UNL     1      43.640  18.665  -4.321  1.00  0.00    -0.025 C 
ATOM     21  C   UNL     1      41.695  17.725  -5.713  1.00  0.00     0.005 C 
ATOM     22  C   UNL     1      42.095  18.724  -4.603  1.00  0.00     0.003 C 
ATOM     23  C   UNL     1      43.936  19.639  -3.129  1.00  0.00     0.010 C 
ATOM     24  C   UNL     1      44.504  19.155  -5.543  1.00  0.00     0.012 C 
ATOM     25  C   UNL     1      41.460  20.168  -4.769  1.00  0.00    -0.006 C 
ATOM     26  C   UNL     1      43.394  21.066  -3.318  1.00  0.00     0.033 C 
ATOM     27  C   UNL     1      41.878  21.068  -3.562  1.00  0.00     0.120 C 
ATOM     28  C   UNL     1      41.845  20.857  -6.104  1.00  0.00     0.014 C 
ATOM     29  C   UNL     1      39.906  20.072  -4.759  1.00  0.00     0.014 C 
ENDROOT
BRANCH   1  30
ATOM     30  C   UNL     1      44.530  11.279  -3.239  1.00  0.00     0.048 C 
ATOM     31  O   UNL     1      43.400  10.875  -3.625  1.00  0.00    -0.550 OA
ATOM     32  O   UNL     1      44.970  10.923  -1.969  1.00  0.00    -0.550 OA
ENDBRANCH   1  30
BRANCH  27  33
ATOM     33  O   UNL     1      41.224  20.643  -2.389  1.00  0.00    -0.393 OA
ATOM     34  H   UNL     1      41.871  20.739  -1.642  1.00  0.00     0.210 HD
ENDBRANCH  27  33
TORSDOF 2
ENDMDL
