MODEL 1
REMARK VINA RESULT:    -4.207      0.000      0.000
REMARK INTER + INTRA:          -8.871
REMARK INTER:                  -7.159
REMARK INTRA:                  -1.712
REMARK UNBOUND:                -1.712
REMARK SMILES CCCCCCCCCCCCCC(=O)[O-]
REMARK SMILES IDX 8 1 9 2 10 3 11 4 12 5 13 6 14 7 15 8 16 9 7 10 6 11 5 12
REMARK SMILES IDX 4 13 3 14 2 15 1 16
REMARK H PARENT
REMARK Flexibility Score: inf
ROOT
ATOM      1  C   UNL     1     -38.795  21.154 -30.875  1.00  0.00     0.000 C 
ENDROOT
BRANCH   1   2
ATOM      2  C   UNL     1     -38.758  21.189 -29.343  1.00  0.00     0.000 C 
BRANCH   2   3
ATOM      3  C   UNL     1     -39.873  20.323 -28.744  1.00  0.00     0.000 C 
BRANCH   3   4
ATOM      4  C   UNL     1     -39.316  18.987 -28.232  1.00  0.00     0.000 C 
BRANCH   4   5
ATOM      5  C   UNL     1     -37.778  18.946 -28.221  1.00  0.00     0.006 C 
BRANCH   5   6
ATOM      6  C   UNL     1     -37.180  17.554 -28.475  1.00  0.00     0.053 C 
BRANCH   6   7
ATOM      7  C   UNL     1     -36.880  17.329 -29.925  1.00  0.00     0.041 C 
ATOM      8  O   UNL     1     -37.818  17.218 -30.757  1.00  0.00    -0.550 OA
ATOM      9  O   UNL     1     -35.563  17.210 -30.353  1.00  0.00    -0.550 OA
ENDBRANCH   6   7
ENDBRANCH   5   6
ENDBRANCH   4   5
ENDBRANCH   3   4
ENDBRANCH   2   3
ENDBRANCH   1   2
BRANCH   1  10
ATOM     10  C   UNL     1     -37.458  20.667 -31.448  1.00  0.00     0.000 C 
BRANCH  10  11
ATOM     11  C   UNL     1     -36.283  21.447 -30.843  1.00  0.00    -0.000 C 
BRANCH  11  12
ATOM     12  C   UNL     1     -35.036  20.557 -30.725  1.00  0.00    -0.000 C 
BRANCH  12  13
ATOM     13  C   UNL     1     -34.228  20.834 -29.447  1.00  0.00    -0.000 C 
BRANCH  13  14
ATOM     14  C   UNL     1     -35.122  21.215 -28.254  1.00  0.00    -0.000 C 
BRANCH  14  15
ATOM     15  C   UNL     1     -34.743  22.575 -27.646  1.00  0.00    -0.003 C 
ATOM     16  C   UNL     1     -35.830  23.632 -27.834  1.00  0.00     0.004 C 
ENDBRANCH  14  15
ENDBRANCH  13  14
ENDBRANCH  12  13
ENDBRANCH  11  12
ENDBRANCH  10  11
ENDBRANCH   1  10
TORSDOF 12
ENDMDL
MODEL 2
REMARK VINA RESULT:    -4.195      2.489      5.156
REMARK INTER + INTRA:          -8.850
REMARK INTER:                  -6.995
REMARK INTRA:                  -1.855
REMARK UNBOUND:                -1.712
REMARK SMILES CCCCCCCCCCCCCC(=O)[O-]
REMARK SMILES IDX 8 1 9 2 10 3 11 4 12 5 13 6 14 7 15 8 16 9 7 10 6 11 5 12
REMARK SMILES IDX 4 13 3 14 2 15 1 16
REMARK H PARENT
REMARK Flexibility Score: inf
ROOT
ATOM      1  C   UNL     1     -36.923  17.654 -30.014  1.00  0.00     0.000 C 
ENDROOT
BRANCH   1   2
ATOM      2  C   UNL     1     -35.448  17.422 -30.362  1.00  0.00     0.000 C 
BRANCH   2   3
ATOM      3  C   UNL     1     -34.546  18.431 -29.642  1.00  0.00     0.000 C 
BRANCH   3   4
ATOM      4  C   UNL     1     -34.696  19.833 -30.248  1.00  0.00     0.000 C 
BRANCH   4   5
ATOM      5  C   UNL     1     -34.158  20.943 -29.326  1.00  0.00     0.006 C 
BRANCH   5   6
ATOM      6  C   UNL     1     -35.185  21.481 -28.318  1.00  0.00     0.053 C 
BRANCH   6   7
ATOM      7  C   UNL     1     -35.579  22.894 -28.619  1.00  0.00     0.041 C 
ATOM      8  O   UNL     1     -36.304  23.536 -27.815  1.00  0.00    -0.550 OA
ATOM      9  O   UNL     1     -35.169  23.493 -29.805  1.00  0.00    -0.550 OA
ENDBRANCH   6   7
ENDBRANCH   5   6
ENDBRANCH   4   5
ENDBRANCH   3   4
ENDBRANCH   2   3
ENDBRANCH   1   2
BRANCH   1  10
ATOM     10  C   UNL     1     -37.145  17.609 -28.497  1.00  0.00     0.000 C 
BRANCH  10  11
ATOM     11  C   UNL     1     -37.856  18.876 -28.006  1.00  0.00    -0.000 C 
BRANCH  11  12
ATOM     12  C   UNL     1     -39.264  18.985 -28.613  1.00  0.00    -0.000 C 
BRANCH  12  13
ATOM     13  C   UNL     1     -39.650  20.432 -28.960  1.00  0.00    -0.000 C 
BRANCH  13  14
ATOM     14  C   UNL     1     -38.570  21.147 -29.791  1.00  0.00    -0.000 C 
BRANCH  14  15
ATOM     15  C   UNL     1     -38.531  20.659 -31.249  1.00  0.00    -0.003 C 
ATOM     16  C   UNL     1     -37.349  21.225 -32.032  1.00  0.00     0.004 C 
ENDBRANCH  14  15
ENDBRANCH  13  14
ENDBRANCH  12  13
ENDBRANCH  11  12
ENDBRANCH  10  11
ENDBRANCH   1  10
TORSDOF 12
ENDMDL
MODEL 3
REMARK VINA RESULT:    -4.113      3.177      4.869
REMARK INTER + INTRA:          -8.711
REMARK INTER:                  -6.870
REMARK INTRA:                  -1.841
REMARK UNBOUND:                -1.712
REMARK SMILES CCCCCCCCCCCCCC(=O)[O-]
REMARK SMILES IDX 8 1 9 2 10 3 11 4 12 5 13 6 14 7 15 8 16 9 7 10 6 11 5 12
REMARK SMILES IDX 4 13 3 14 2 15 1 16
REMARK H PARENT
REMARK Flexibility Score: inf
ROOT
ATOM      1  C   UNL     1     -38.130  20.163 -31.264  1.00  0.00     0.000 C 
ENDROOT
BRANCH   1   2
ATOM      2  C   UNL     1     -36.839  20.891 -30.871  1.00  0.00     0.000 C 
BRANCH   2   3
ATOM      3  C   UNL     1     -37.144  22.255 -30.242  1.00  0.00     0.000 C 
BRANCH   3   4
ATOM      4  C   UNL     1     -37.894  22.092 -28.912  1.00  0.00     0.000 C 
BRANCH   4   5
ATOM      5  C   UNL     1     -39.234  22.848 -28.886  1.00  0.00     0.006 C 
BRANCH   5   6
ATOM      6  C   UNL     1     -40.432  22.030 -29.392  1.00  0.00     0.053 C 
BRANCH   6   7
ATOM      7  C   UNL     1     -41.460  22.892 -30.057  1.00  0.00     0.041 C 
ATOM      8  O   UNL     1     -41.727  22.734 -31.277  1.00  0.00    -0.550 OA
ATOM      9  O   UNL     1     -42.101  23.892 -29.336  1.00  0.00    -0.550 OA
ENDBRANCH   6   7
ENDBRANCH   5   6
ENDBRANCH   4   5
ENDBRANCH   3   4
ENDBRANCH   2   3
ENDBRANCH   1   2
BRANCH   1  10
ATOM     10  C   UNL     1     -38.181  18.759 -30.647  1.00  0.00     0.000 C 
BRANCH  10  11
ATOM     11  C   UNL     1     -39.137  18.718 -29.450  1.00  0.00    -0.000 C 
BRANCH  11  12
ATOM     12  C   UNL     1     -38.359  18.638 -28.128  1.00  0.00    -0.000 C 
BRANCH  12  13
ATOM     13  C   UNL     1     -36.905  18.178 -28.322  1.00  0.00    -0.000 C 
BRANCH  13  14
ATOM     14  C   UNL     1     -35.888  19.176 -27.741  1.00  0.00    -0.000 C 
BRANCH  14  15
ATOM     15  C   UNL     1     -34.483  19.000 -28.341  1.00  0.00    -0.003 C 
ATOM     16  C   UNL     1     -34.508  18.386 -29.739  1.00  0.00     0.004 C 
ENDBRANCH  14  15
ENDBRANCH  13  14
ENDBRANCH  12  13
ENDBRANCH  11  12
ENDBRANCH  10  11
ENDBRANCH   1  10
TORSDOF 12
ENDMDL
MODEL 4
REMARK VINA RESULT:    -4.099      2.902      5.459
REMARK INTER + INTRA:          -8.687
REMARK INTER:                  -6.795
REMARK INTRA:                  -1.892
REMARK UNBOUND:                -1.712
REMARK SMILES CCCCCCCCCCCCCC(=O)[O-]
REMARK SMILES IDX 8 1 9 2 10 3 11 4 12 5 13 6 14 7 15 8 16 9 7 10 6 11 5 12
REMARK SMILES IDX 4 13 3 14 2 15 1 16
REMARK H PARENT
REMARK Flexibility Score: inf
ROOT
ATOM      1  C   UNL     1     -34.841  18.613 -29.112  1.00  0.00     0.000 C 
ENDROOT
BRANCH   1   2
ATOM      2  C   UNL     1     -34.946  19.413 -30.416  1.00  0.00     0.000 C 
BRANCH   2   3
ATOM      3  C   UNL     1     -34.579  20.885 -30.192  1.00  0.00     0.000 C 
BRANCH   3   4
ATOM      4  C   UNL     1     -35.554  21.813 -30.929  1.00  0.00     0.000 C 
BRANCH   4   5
ATOM      5  C   UNL     1     -35.898  23.079 -30.123  1.00  0.00     0.006 C 
BRANCH   5   6
ATOM      6  C   UNL     1     -36.206  22.820 -28.640  1.00  0.00     0.053 C 
BRANCH   6   7
ATOM      7  C   UNL     1     -35.200  23.464 -27.738  1.00  0.00     0.041 C 
ATOM      8  O   UNL     1     -34.614  22.784 -26.854  1.00  0.00    -0.550 OA
ATOM      9  O   UNL     1     -34.931  24.822 -27.852  1.00  0.00    -0.550 OA
ENDBRANCH   6   7
ENDBRANCH   5   6
ENDBRANCH   4   5
ENDBRANCH   3   4
ENDBRANCH   2   3
ENDBRANCH   1   2
BRANCH   1  10
ATOM     10  C   UNL     1     -35.308  19.450 -27.914  1.00  0.00     0.000 C 
BRANCH  10  11
ATOM     11  C   UNL     1     -36.243  18.640 -27.008  1.00  0.00    -0.000 C 
BRANCH  11  12
ATOM     12  C   UNL     1     -37.310  17.906 -27.835  1.00  0.00    -0.000 C 
BRANCH  12  13
ATOM     13  C   UNL     1     -38.485  18.816 -28.230  1.00  0.00    -0.000 C 
BRANCH  13  14
ATOM     14  C   UNL     1     -38.640  18.952 -29.754  1.00  0.00    -0.000 C 
BRANCH  14  15
ATOM     15  C   UNL     1     -38.764  20.417 -30.204  1.00  0.00    -0.003 C 
ATOM     16  C   UNL     1     -39.530  21.281 -29.203  1.00  0.00     0.004 C 
ENDBRANCH  14  15
ENDBRANCH  13  14
ENDBRANCH  12  13
ENDBRANCH  11  12
ENDBRANCH  10  11
ENDBRANCH   1  10
TORSDOF 12
ENDMDL
MODEL 5
REMARK VINA RESULT:    -4.069      2.001      3.182
REMARK INTER + INTRA:          -8.636
REMARK INTER:                  -6.939
REMARK INTRA:                  -1.696
REMARK UNBOUND:                -1.712
REMARK SMILES CCCCCCCCCCCCCC(=O)[O-]
REMARK SMILES IDX 8 1 9 2 10 3 11 4 12 5 13 6 14 7 15 8 16 9 7 10 6 11 5 12
REMARK SMILES IDX 4 13 3 14 2 15 1 16
REMARK H PARENT
REMARK Flexibility Score: inf
ROOT
ATOM      1  C   UNL     1     -35.223  19.656 -27.887  1.00  0.00     0.000 C 
ENDROOT
BRANCH   1   2
ATOM      2  C   UNL     1     -36.144  18.656 -27.177  1.00  0.00     0.000 C 
BRANCH   2   3
ATOM      3  C   UNL     1     -37.161  18.054 -28.153  1.00  0.00     0.000 C 
BRANCH   3   4
ATOM      4  C   UNL     1     -38.441  18.901 -28.205  1.00  0.00     0.000 C 
BRANCH   4   5
ATOM      5  C   UNL     1     -39.132  18.854 -29.580  1.00  0.00     0.006 C 
BRANCH   5   6
ATOM      6  C   UNL     1     -38.213  19.198 -30.762  1.00  0.00     0.053 C 
BRANCH   6   7
ATOM      7  C   UNL     1     -38.394  20.612 -31.220  1.00  0.00     0.041 C 
ATOM      8  O   UNL     1     -39.339  21.310 -30.766  1.00  0.00    -0.550 OA
ATOM      9  O   UNL     1     -37.537  21.150 -32.172  1.00  0.00    -0.550 OA
ENDBRANCH   6   7
ENDBRANCH   5   6
ENDBRANCH   4   5
ENDBRANCH   3   4
ENDBRANCH   2   3
ENDBRANCH   1   2
BRANCH   1  10
ATOM     10  C   UNL     1     -34.531  19.007 -29.093  1.00  0.00     0.000 C 
BRANCH  10  11
ATOM     11  C   UNL     1     -34.721  19.852 -30.358  1.00  0.00    -0.000 C 
BRANCH  11  12
ATOM     12  C   UNL     1     -33.937  21.170 -30.261  1.00  0.00    -0.000 C 
BRANCH  12  13
ATOM     13  C   UNL     1     -34.853  22.404 -30.212  1.00  0.00    -0.000 C 
BRANCH  13  14
ATOM     14  C   UNL     1     -34.566  23.304 -28.997  1.00  0.00    -0.000 C 
BRANCH  14  15
ATOM     15  C   UNL     1     -35.773  23.416 -28.051  1.00  0.00    -0.003 C 
ATOM     16  C   UNL     1     -37.031  22.755 -28.613  1.00  0.00     0.004 C 
ENDBRANCH  14  15
ENDBRANCH  13  14
ENDBRANCH  12  13
ENDBRANCH  11  12
ENDBRANCH  10  11
ENDBRANCH   1  10
TORSDOF 12
ENDMDL
MODEL 6
REMARK VINA RESULT:    -4.035     14.298     16.535
REMARK INTER + INTRA:          -8.579
REMARK INTER:                  -7.302
REMARK INTRA:                  -1.276
REMARK UNBOUND:                -1.712
REMARK SMILES CCCCCCCCCCCCCC(=O)[O-]
REMARK SMILES IDX 8 1 9 2 10 3 11 4 12 5 13 6 14 7 15 8 16 9 7 10 6 11 5 12
REMARK SMILES IDX 4 13 3 14 2 15 1 16
REMARK H PARENT
REMARK Flexibility Score: inf
ROOT
ATOM      1  C   UNL     1     -46.725   8.857 -29.798  1.00  0.00     0.000 C 
ENDROOT
BRANCH   1   2
ATOM      2  C   UNL     1     -48.183   9.315 -29.662  1.00  0.00     0.000 C 
BRANCH   2   3
ATOM      3  C   UNL     1     -48.262  10.787 -29.243  1.00  0.00     0.000 C 
BRANCH   3   4
ATOM      4  C   UNL     1     -49.516  11.457 -29.822  1.00  0.00     0.000 C 
BRANCH   4   5
ATOM      5  C   UNL     1     -49.583  12.964 -29.516  1.00  0.00     0.006 C 
BRANCH   5   6
ATOM      6  C   UNL     1     -49.302  13.869 -30.726  1.00  0.00     0.053 C 
BRANCH   6   7
ATOM      7  C   UNL     1     -50.502  14.680 -31.110  1.00  0.00     0.041 C 
ATOM      8  O   UNL     1     -50.465  15.423 -32.126  1.00  0.00    -0.550 OA
ATOM      9  O   UNL     1     -51.649  14.638 -30.328  1.00  0.00    -0.550 OA
ENDBRANCH   6   7
ENDBRANCH   5   6
ENDBRANCH   4   5
ENDBRANCH   3   4
ENDBRANCH   2   3
ENDBRANCH   1   2
BRANCH   1  10
ATOM     10  C   UNL     1     -46.607   7.337 -29.635  1.00  0.00     0.000 C 
BRANCH  10  11
ATOM     11  C   UNL     1     -47.711   6.612 -30.416  1.00  0.00    -0.000 C 
BRANCH  11  12
ATOM     12  C   UNL     1     -47.191   6.125 -31.777  1.00  0.00    -0.000 C 
BRANCH  12  13
ATOM     13  C   UNL     1     -48.070   6.591 -32.950  1.00  0.00    -0.000 C 
BRANCH  13  14
ATOM     14  C   UNL     1     -47.852   8.074 -33.298  1.00  0.00    -0.000 C 
BRANCH  14  15
ATOM     15  C   UNL     1     -49.114   8.922 -33.071  1.00  0.00    -0.003 C 
ATOM     16  C   UNL     1     -50.336   8.082 -32.706  1.00  0.00     0.004 C 
ENDBRANCH  14  15
ENDBRANCH  13  14
ENDBRANCH  12  13
ENDBRANCH  11  12
ENDBRANCH  10  11
ENDBRANCH   1  10
TORSDOF 12
ENDMDL
MODEL 7
REMARK VINA RESULT:    -4.033      1.921      3.982
REMARK INTER + INTRA:          -8.574
REMARK INTER:                  -6.607
REMARK INTRA:                  -1.967
REMARK UNBOUND:                -1.712
REMARK SMILES CCCCCCCCCCCCCC(=O)[O-]
REMARK SMILES IDX 8 1 9 2 10 3 11 4 12 5 13 6 14 7 15 8 16 9 7 10 6 11 5 12
REMARK SMILES IDX 4 13 3 14 2 15 1 16
REMARK H PARENT
REMARK Flexibility Score: inf
ROOT
ATOM      1  C   UNL     1     -34.829  23.111 -30.183  1.00  0.00     0.000 C 
ENDROOT
BRANCH   1   2
ATOM      2  C   UNL     1     -36.233  22.518 -30.359  1.00  0.00     0.000 C 
BRANCH   2   3
ATOM      3  C   UNL     1     -36.303  21.626 -31.604  1.00  0.00     0.000 C 
BRANCH   3   4
ATOM      4  C   UNL     1     -37.575  20.768 -31.596  1.00  0.00     0.000 C 
BRANCH   4   5
ATOM      5  C   UNL     1     -38.150  20.567 -30.182  1.00  0.00     0.006 C 
BRANCH   5   6
ATOM      6  C   UNL     1     -38.763  19.179 -29.940  1.00  0.00     0.053 C 
BRANCH   6   7
ATOM      7  C   UNL     1     -39.089  18.954 -28.495  1.00  0.00     0.041 C 
ATOM      8  O   UNL     1     -40.178  19.370 -28.019  1.00  0.00    -0.550 OA
ATOM      9  O   UNL     1     -38.176  18.313 -27.668  1.00  0.00    -0.550 OA
ENDBRANCH   6   7
ENDBRANCH   5   6
ENDBRANCH   4   5
ENDBRANCH   3   4
ENDBRANCH   2   3
ENDBRANCH   1   2
BRANCH   1  10
ATOM     10  C   UNL     1     -34.234  22.725 -28.824  1.00  0.00     0.000 C 
BRANCH  10  11
ATOM     11  C   UNL     1     -35.195  21.826 -28.037  1.00  0.00    -0.000 C 
BRANCH  11  12
ATOM     12  C   UNL     1     -34.527  20.490 -27.677  1.00  0.00    -0.000 C 
BRANCH  12  13
ATOM     13  C   UNL     1     -34.935  19.348 -28.621  1.00  0.00    -0.000 C 
BRANCH  13  14
ATOM     14  C   UNL     1     -33.993  19.216 -29.830  1.00  0.00    -0.000 C 
BRANCH  14  15
ATOM     15  C   UNL     1     -34.290  17.966 -30.673  1.00  0.00    -0.003 C 
ATOM     16  C   UNL     1     -35.650  17.346 -30.356  1.00  0.00     0.004 C 
ENDBRANCH  14  15
ENDBRANCH  13  14
ENDBRANCH  12  13
ENDBRANCH  11  12
ENDBRANCH  10  11
ENDBRANCH   1  10
TORSDOF 12
ENDMDL
MODEL 8
REMARK VINA RESULT:    -3.958      2.291      5.010
REMARK INTER + INTRA:          -8.448
REMARK INTER:                  -6.731
REMARK INTRA:                  -1.717
REMARK UNBOUND:                -1.712
REMARK SMILES CCCCCCCCCCCCCC(=O)[O-]
REMARK SMILES IDX 8 1 9 2 10 3 11 4 12 5 13 6 14 7 15 8 16 9 7 10 6 11 5 12
REMARK SMILES IDX 4 13 3 14 2 15 1 16
REMARK H PARENT
REMARK Flexibility Score: inf
ROOT
ATOM      1  C   UNL     1     -33.952  21.839 -27.705  1.00  0.00     0.000 C 
ENDROOT
BRANCH   1   2
ATOM      2  C   UNL     1     -34.675  23.086 -27.180  1.00  0.00     0.000 C 
BRANCH   2   3
ATOM      3  C   UNL     1     -35.909  23.408 -28.031  1.00  0.00     0.000 C 
BRANCH   3   4
ATOM      4  C   UNL     1     -35.841  22.696 -29.390  1.00  0.00     0.000 C 
BRANCH   4   5
ATOM      5  C   UNL     1     -37.204  22.143 -29.843  1.00  0.00     0.006 C 
BRANCH   5   6
ATOM      6  C   UNL     1     -38.303  22.213 -28.772  1.00  0.00     0.053 C 
BRANCH   6   7
ATOM      7  C   UNL     1     -39.548  21.499 -29.198  1.00  0.00     0.041 C 
ATOM      8  O   UNL     1     -40.286  21.989 -30.093  1.00  0.00    -0.550 OA
ATOM      9  O   UNL     1     -39.911  20.307 -28.584  1.00  0.00    -0.550 OA
ENDBRANCH   6   7
ENDBRANCH   5   6
ENDBRANCH   4   5
ENDBRANCH   3   4
ENDBRANCH   2   3
ENDBRANCH   1   2
BRANCH   1  10
ATOM     10  C   UNL     1     -34.067  20.676 -26.711  1.00  0.00     0.000 C 
BRANCH  10  11
ATOM     11  C   UNL     1     -34.096  19.328 -27.441  1.00  0.00    -0.000 C 
BRANCH  11  12
ATOM     12  C   UNL     1     -35.247  19.280 -28.458  1.00  0.00    -0.000 C 
BRANCH  12  13
ATOM     13  C   UNL     1     -36.607  18.987 -27.802  1.00  0.00    -0.000 C 
BRANCH  13  14
ATOM     14  C   UNL     1     -37.367  17.847 -28.502  1.00  0.00    -0.000 C 
BRANCH  14  15
ATOM     15  C   UNL     1     -37.130  17.829 -30.022  1.00  0.00    -0.003 C 
ATOM     16  C   UNL     1     -38.355  18.276 -30.818  1.00  0.00     0.004 C 
ENDBRANCH  14  15
ENDBRANCH  13  14
ENDBRANCH  12  13
ENDBRANCH  11  12
ENDBRANCH  10  11
ENDBRANCH   1  10
TORSDOF 12
ENDMDL
MODEL 9
REMARK VINA RESULT:    -3.943     14.604     16.459
REMARK INTER + INTRA:          -8.422
REMARK INTER:                  -6.492
REMARK INTRA:                  -1.930
REMARK UNBOUND:                -1.712
REMARK SMILES CCCCCCCCCCCCCC(=O)[O-]
REMARK SMILES IDX 8 1 9 2 10 3 11 4 12 5 13 6 14 7 15 8 16 9 7 10 6 11 5 12
REMARK SMILES IDX 4 13 3 14 2 15 1 16
REMARK H PARENT
REMARK Flexibility Score: inf
ROOT
ATOM      1  C   UNL     1     -49.572  10.426 -29.806  1.00  0.00     0.000 C 
ENDROOT
BRANCH   1   2
ATOM      2  C   UNL     1     -50.773   9.654 -30.365  1.00  0.00     0.000 C 
BRANCH   2   3
ATOM      3  C   UNL     1     -50.742   9.620 -31.897  1.00  0.00     0.000 C 
BRANCH   3   4
ATOM      4  C   UNL     1     -49.305   9.749 -32.421  1.00  0.00     0.000 C 
BRANCH   4   5
ATOM      5  C   UNL     1     -48.778   8.446 -33.048  1.00  0.00     0.006 C 
BRANCH   5   6
ATOM      6  C   UNL     1     -47.388   8.021 -32.552  1.00  0.00     0.053 C 
BRANCH   6   7
ATOM      7  C   UNL     1     -47.310   7.994 -31.056  1.00  0.00     0.041 C 
ATOM      8  O   UNL     1     -48.018   7.186 -30.400  1.00  0.00    -0.550 OA
ATOM      9  O   UNL     1     -46.479   8.883 -30.387  1.00  0.00    -0.550 OA
ENDBRANCH   6   7
ENDBRANCH   5   6
ENDBRANCH   4   5
ENDBRANCH   3   4
ENDBRANCH   2   3
ENDBRANCH   1   2
BRANCH   1  10
ATOM     10  C   UNL     1     -50.029  11.581 -28.906  1.00  0.00     0.000 C 
BRANCH  10  11
ATOM     11  C   UNL     1     -49.423  12.912 -29.367  1.00  0.00    -0.000 C 
BRANCH  11  12
ATOM     12  C   UNL     1     -49.735  13.173 -30.848  1.00  0.00    -0.000 C 
BRANCH  12  13
ATOM     13  C   UNL     1     -51.072  13.905 -31.053  1.00  0.00    -0.000 C 
BRANCH  13  14
ATOM     14  C   UNL     1     -52.179  12.974 -31.578  1.00  0.00    -0.000 C 
BRANCH  14  15
ATOM     15  C   UNL     1     -53.212  12.620 -30.494  1.00  0.00    -0.003 C 
ATOM     16  C   UNL     1     -53.152  13.557 -29.290  1.00  0.00     0.004 C 
ENDBRANCH  14  15
ENDBRANCH  13  14
ENDBRANCH  12  13
ENDBRANCH  11  12
ENDBRANCH  10  11
ENDBRANCH   1  10
TORSDOF 12
ENDMDL
