MODEL 1
REMARK VINA RESULT:    -4.557      0.000      0.000
REMARK INTER + INTRA:          -8.909
REMARK INTER:                  -7.754
REMARK INTRA:                  -1.154
REMARK UNBOUND:                -1.154
REMARK SMILES CCCCCCCCCCCCCC(=O)[O-]
REMARK SMILES IDX 8 1 9 2 10 3 11 4 12 5 13 6 14 7 15 8 16 9 7 10 6 11 5 12
REMARK SMILES IDX 4 13 3 14 2 15 1 16
REMARK H PARENT
REMARK Flexibility Score: inf
ROOT
ATOM      1  C   UNL     1     -26.990 -11.547  16.612  1.00  0.00     0.000 C 
ENDROOT
BRANCH   1   2
ATOM      2  C   UNL     1     -27.848 -10.496  17.340  1.00  0.00     0.000 C 
BRANCH   2   3
ATOM      3  C   UNL     1     -29.261 -11.009  17.658  1.00  0.00     0.000 C 
BRANCH   3   4
ATOM      4  C   UNL     1     -29.638 -12.249  16.829  1.00  0.00     0.000 C 
BRANCH   4   5
ATOM      5  C   UNL     1     -30.679 -13.140  17.532  1.00  0.00     0.006 C 
BRANCH   5   6
ATOM      6  C   UNL     1     -30.683 -14.601  17.053  1.00  0.00     0.053 C 
BRANCH   6   7
ATOM      7  C   UNL     1     -31.517 -14.784  15.823  1.00  0.00     0.041 C 
ATOM      8  O   UNL     1     -32.551 -14.088  15.648  1.00  0.00    -0.550 OA
ATOM      9  O   UNL     1     -31.132 -15.702  14.852  1.00  0.00    -0.550 OA
ENDBRANCH   6   7
ENDBRANCH   5   6
ENDBRANCH   4   5
ENDBRANCH   3   4
ENDBRANCH   2   3
ENDBRANCH   1   2
BRANCH   1  10
ATOM     10  C   UNL     1     -25.539 -11.583  17.118  1.00  0.00     0.000 C 
BRANCH  10  11
ATOM     11  C   UNL     1     -25.182 -12.922  17.787  1.00  0.00    -0.000 C 
BRANCH  11  12
ATOM     12  C   UNL     1     -26.420 -13.780  18.105  1.00  0.00    -0.000 C 
BRANCH  12  13
ATOM     13  C   UNL     1     -26.224 -15.302  17.948  1.00  0.00    -0.000 C 
BRANCH  13  14
ATOM     14  C   UNL     1     -27.449 -16.066  17.414  1.00  0.00    -0.000 C 
BRANCH  14  15
ATOM     15  C   UNL     1     -27.068 -17.333  16.635  1.00  0.00    -0.003 C 
ATOM     16  C   UNL     1     -25.554 -17.447  16.480  1.00  0.00     0.004 C 
ENDBRANCH  14  15
ENDBRANCH  13  14
ENDBRANCH  12  13
ENDBRANCH  11  12
ENDBRANCH  10  11
ENDBRANCH   1  10
TORSDOF 12
ENDMDL
MODEL 2
REMARK VINA RESULT:    -4.412      1.302      4.018
REMARK INTER + INTRA:          -8.661
REMARK INTER:                  -7.215
REMARK INTRA:                  -1.446
REMARK UNBOUND:                -1.154
REMARK SMILES CCCCCCCCCCCCCC(=O)[O-]
REMARK SMILES IDX 8 1 9 2 10 3 11 4 12 5 13 6 14 7 15 8 16 9 7 10 6 11 5 12
REMARK SMILES IDX 4 13 3 14 2 15 1 16
REMARK H PARENT
REMARK Flexibility Score: inf
ROOT
ATOM      1  C   UNL     1     -25.475 -13.309  17.323  1.00  0.00     0.000 C 
ENDROOT
BRANCH   1   2
ATOM      2  C   UNL     1     -26.511 -14.129  18.114  1.00  0.00     0.000 C 
BRANCH   2   3
ATOM      3  C   UNL     1     -26.668 -15.558  17.573  1.00  0.00     0.000 C 
BRANCH   3   4
ATOM      4  C   UNL     1     -28.136 -16.018  17.541  1.00  0.00     0.000 C 
BRANCH   4   5
ATOM      5  C   UNL     1     -28.523 -16.679  16.205  1.00  0.00     0.006 C 
BRANCH   5   6
ATOM      6  C   UNL     1     -30.016 -17.022  16.082  1.00  0.00     0.053 C 
BRANCH   6   7
ATOM      7  C   UNL     1     -30.551 -16.712  14.718  1.00  0.00     0.041 C 
ATOM      8  O   UNL     1     -30.065 -15.764  14.047  1.00  0.00    -0.550 OA
ATOM      9  O   UNL     1     -31.565 -17.492  14.175  1.00  0.00    -0.550 OA
ENDBRANCH   6   7
ENDBRANCH   5   6
ENDBRANCH   4   5
ENDBRANCH   3   4
ENDBRANCH   2   3
ENDBRANCH   1   2
BRANCH   1  10
ATOM     10  C   UNL     1     -25.726 -11.796  17.407  1.00  0.00     0.000 C 
BRANCH  10  11
ATOM     11  C   UNL     1     -26.922 -11.348  16.547  1.00  0.00    -0.000 C 
BRANCH  11  12
ATOM     12  C   UNL     1     -27.947 -10.515  17.337  1.00  0.00    -0.000 C 
BRANCH  12  13
ATOM     13  C   UNL     1     -29.279 -11.229  17.645  1.00  0.00    -0.000 C 
BRANCH  13  14
ATOM     14  C   UNL     1     -29.553 -12.492  16.808  1.00  0.00    -0.000 C 
BRANCH  14  15
ATOM     15  C   UNL     1     -30.606 -13.411  17.443  1.00  0.00    -0.003 C 
ATOM     16  C   UNL     1     -31.732 -13.717  16.459  1.00  0.00     0.004 C 
ENDBRANCH  14  15
ENDBRANCH  13  14
ENDBRANCH  12  13
ENDBRANCH  11  12
ENDBRANCH  10  11
ENDBRANCH   1  10
TORSDOF 12
ENDMDL
MODEL 3
REMARK VINA RESULT:    -4.298      4.144      5.929
REMARK INTER + INTRA:          -8.467
REMARK INTER:                  -7.751
REMARK INTRA:                  -0.716
REMARK UNBOUND:                -1.154
REMARK SMILES CCCCCCCCCCCCCC(=O)[O-]
REMARK SMILES IDX 8 1 9 2 10 3 11 4 12 5 13 6 14 7 15 8 16 9 7 10 6 11 5 12
REMARK SMILES IDX 4 13 3 14 2 15 1 16
REMARK H PARENT
REMARK Flexibility Score: inf
ROOT
ATOM      1  C   UNL     1     -30.795 -15.247  14.828  1.00  0.00     0.000 C 
ENDROOT
BRANCH   1   2
ATOM      2  C   UNL     1     -29.924 -14.764  16.002  1.00  0.00     0.000 C 
BRANCH   2   3
ATOM      3  C   UNL     1     -30.757 -14.380  17.235  1.00  0.00     0.000 C 
BRANCH   3   4
ATOM      4  C   UNL     1     -30.494 -12.936  17.697  1.00  0.00     0.000 C 
BRANCH   4   5
ATOM      5  C   UNL     1     -29.621 -12.144  16.706  1.00  0.00     0.006 C 
BRANCH   5   6
ATOM      6  C   UNL     1     -28.657 -11.150  17.372  1.00  0.00     0.053 C 
BRANCH   6   7
ATOM      7  C   UNL     1     -27.239 -11.629  17.326  1.00  0.00     0.041 C 
ATOM      8  O   UNL     1     -26.294 -10.804  17.229  1.00  0.00    -0.550 OA
ATOM      9  O   UNL     1     -26.960 -12.987  17.425  1.00  0.00    -0.550 OA
ENDBRANCH   6   7
ENDBRANCH   5   6
ENDBRANCH   4   5
ENDBRANCH   3   4
ENDBRANCH   2   3
ENDBRANCH   1   2
BRANCH   1  10
ATOM     10  C   UNL     1     -30.903 -16.778  14.759  1.00  0.00     0.000 C 
BRANCH  10  11
ATOM     11  C   UNL     1     -30.363 -17.347  13.436  1.00  0.00    -0.000 C 
BRANCH  11  12
ATOM     12  C   UNL     1     -28.945 -17.931  13.571  1.00  0.00    -0.000 C 
BRANCH  12  13
ATOM     13  C   UNL     1     -28.109 -17.941  12.274  1.00  0.00    -0.000 C 
BRANCH  13  14
ATOM     14  C   UNL     1     -28.787 -17.289  11.056  1.00  0.00    -0.000 C 
BRANCH  14  15
ATOM     15  C   UNL     1     -28.054 -17.581   9.739  1.00  0.00    -0.003 C 
ATOM     16  C   UNL     1     -27.507 -19.006   9.720  1.00  0.00     0.004 C 
ENDBRANCH  14  15
ENDBRANCH  13  14
ENDBRANCH  12  13
ENDBRANCH  11  12
ENDBRANCH  10  11
ENDBRANCH   1  10
TORSDOF 12
ENDMDL
MODEL 4
REMARK VINA RESULT:    -4.294      1.270      2.097
REMARK INTER + INTRA:          -8.461
REMARK INTER:                  -7.142
REMARK INTRA:                  -1.319
REMARK UNBOUND:                -1.154
REMARK SMILES CCCCCCCCCCCCCC(=O)[O-]
REMARK SMILES IDX 8 1 9 2 10 3 11 4 12 5 13 6 14 7 15 8 16 9 7 10 6 11 5 12
REMARK SMILES IDX 4 13 3 14 2 15 1 16
REMARK H PARENT
REMARK Flexibility Score: inf
ROOT
ATOM      1  C   UNL     1     -25.513 -12.564  17.012  1.00  0.00     0.000 C 
ENDROOT
BRANCH   1   2
ATOM      2  C   UNL     1     -26.655 -11.580  16.698  1.00  0.00     0.000 C 
BRANCH   2   3
ATOM      3  C   UNL     1     -27.674 -11.476  17.844  1.00  0.00     0.000 C 
BRANCH   3   4
ATOM      4  C   UNL     1     -29.107 -11.239  17.338  1.00  0.00     0.000 C 
BRANCH   4   5
ATOM      5  C   UNL     1     -29.706 -12.477  16.646  1.00  0.00     0.006 C 
BRANCH   5   6
ATOM      6  C   UNL     1     -30.684 -13.276  17.522  1.00  0.00     0.053 C 
BRANCH   6   7
ATOM      7  C   UNL     1     -31.768 -13.916  16.711  1.00  0.00     0.041 C 
ATOM      8  O   UNL     1     -32.976 -13.746  17.021  1.00  0.00    -0.550 OA
ATOM      9  O   UNL     1     -31.445 -14.672  15.591  1.00  0.00    -0.550 OA
ENDBRANCH   6   7
ENDBRANCH   5   6
ENDBRANCH   4   5
ENDBRANCH   3   4
ENDBRANCH   2   3
ENDBRANCH   1   2
BRANCH   1  10
ATOM     10  C   UNL     1     -25.889 -13.582  18.099  1.00  0.00     0.000 C 
BRANCH  10  11
ATOM     11  C   UNL     1     -26.236 -14.964  17.517  1.00  0.00    -0.000 C 
BRANCH  11  12
ATOM     12  C   UNL     1     -27.683 -15.393  17.820  1.00  0.00    -0.000 C 
BRANCH  12  13
ATOM     13  C   UNL     1     -28.374 -16.210  16.709  1.00  0.00    -0.000 C 
BRANCH  13  14
ATOM     14  C   UNL     1     -27.596 -17.449  16.229  1.00  0.00    -0.000 C 
BRANCH  14  15
ATOM     15  C   UNL     1     -28.380 -18.287  15.209  1.00  0.00    -0.003 C 
ATOM     16  C   UNL     1     -29.830 -17.819  15.114  1.00  0.00     0.004 C 
ENDBRANCH  14  15
ENDBRANCH  13  14
ENDBRANCH  12  13
ENDBRANCH  11  12
ENDBRANCH  10  11
ENDBRANCH   1  10
TORSDOF 12
ENDMDL
MODEL 5
REMARK VINA RESULT:    -4.286      2.337      4.629
REMARK INTER + INTRA:          -8.446
REMARK INTER:                  -7.298
REMARK INTRA:                  -1.149
REMARK UNBOUND:                -1.154
REMARK SMILES CCCCCCCCCCCCCC(=O)[O-]
REMARK SMILES IDX 8 1 9 2 10 3 11 4 12 5 13 6 14 7 15 8 16 9 7 10 6 11 5 12
REMARK SMILES IDX 4 13 3 14 2 15 1 16
REMARK H PARENT
REMARK Flexibility Score: inf
ROOT
ATOM      1  C   UNL     1     -27.008 -11.620  16.621  1.00  0.00     0.000 C 
ENDROOT
BRANCH   1   2
ATOM      2  C   UNL     1     -25.546 -11.630  17.103  1.00  0.00     0.000 C 
BRANCH   2   3
ATOM      3  C   UNL     1     -25.154 -12.958  17.769  1.00  0.00     0.000 C 
BRANCH   3   4
ATOM      4  C   UNL     1     -26.377 -13.822  18.125  1.00  0.00     0.000 C 
BRANCH   4   5
ATOM      5  C   UNL     1     -26.075 -15.330  18.076  1.00  0.00     0.006 C 
BRANCH   5   6
ATOM      6  C   UNL     1     -26.869 -16.097  17.006  1.00  0.00     0.053 C 
BRANCH   6   7
ATOM      7  C   UNL     1     -26.288 -17.451  16.740  1.00  0.00     0.041 C 
ATOM      8  O   UNL     1     -25.139 -17.560  16.237  1.00  0.00    -0.550 OA
ATOM      9  O   UNL     1     -27.002 -18.594  17.079  1.00  0.00    -0.550 OA
ENDBRANCH   6   7
ENDBRANCH   5   6
ENDBRANCH   4   5
ENDBRANCH   3   4
ENDBRANCH   2   3
ENDBRANCH   1   2
BRANCH   1  10
ATOM     10  C   UNL     1     -27.866 -10.574  17.348  1.00  0.00     0.000 C 
BRANCH  10  11
ATOM     11  C   UNL     1     -29.261 -11.109  17.716  1.00  0.00    -0.000 C 
BRANCH  11  12
ATOM     12  C   UNL     1     -29.767 -12.182  16.735  1.00  0.00    -0.000 C 
BRANCH  12  13
ATOM     13  C   UNL     1     -30.614 -13.306  17.367  1.00  0.00    -0.000 C 
BRANCH  13  14
ATOM     14  C   UNL     1     -29.967 -14.702  17.345  1.00  0.00    -0.000 C 
BRANCH  14  15
ATOM     15  C   UNL     1     -30.813 -15.738  16.589  1.00  0.00    -0.003 C 
ATOM     16  C   UNL     1     -30.862 -15.423  15.097  1.00  0.00     0.004 C 
ENDBRANCH  14  15
ENDBRANCH  13  14
ENDBRANCH  12  13
ENDBRANCH  11  12
ENDBRANCH  10  11
ENDBRANCH   1  10
TORSDOF 12
ENDMDL
MODEL 6
REMARK VINA RESULT:    -4.284      1.332      2.032
REMARK INTER + INTRA:          -8.443
REMARK INTER:                  -6.832
REMARK INTRA:                  -1.612
REMARK UNBOUND:                -1.154
REMARK SMILES CCCCCCCCCCCCCC(=O)[O-]
REMARK SMILES IDX 8 1 9 2 10 3 11 4 12 5 13 6 14 7 15 8 16 9 7 10 6 11 5 12
REMARK SMILES IDX 4 13 3 14 2 15 1 16
REMARK H PARENT
REMARK Flexibility Score: inf
ROOT
ATOM      1  C   UNL     1     -27.779 -11.365  17.752  1.00  0.00     0.000 C 
ENDROOT
BRANCH   1   2
ATOM      2  C   UNL     1     -29.166 -11.496  17.098  1.00  0.00     0.000 C 
BRANCH   2   3
ATOM      3  C   UNL     1     -29.759 -12.905  17.252  1.00  0.00     0.000 C 
BRANCH   3   4
ATOM      4  C   UNL     1     -29.888 -13.640  15.906  1.00  0.00     0.000 C 
BRANCH   4   5
ATOM      5  C   UNL     1     -31.051 -14.649  15.888  1.00  0.00     0.006 C 
BRANCH   5   6
ATOM      6  C   UNL     1     -32.112 -14.405  16.973  1.00  0.00     0.053 C 
BRANCH   6   7
ATOM      7  C   UNL     1     -33.407 -13.928  16.392  1.00  0.00     0.041 C 
ATOM      8  O   UNL     1     -33.472 -13.589  15.181  1.00  0.00    -0.550 OA
ATOM      9  O   UNL     1     -34.551 -13.890  17.180  1.00  0.00    -0.550 OA
ENDBRANCH   6   7
ENDBRANCH   5   6
ENDBRANCH   4   5
ENDBRANCH   3   4
ENDBRANCH   2   3
ENDBRANCH   1   2
BRANCH   1  10
ATOM     10  C   UNL     1     -26.634 -11.401  16.729  1.00  0.00     0.000 C 
BRANCH  10  11
ATOM     11  C   UNL     1     -25.533 -12.405  17.112  1.00  0.00    -0.000 C 
BRANCH  11  12
ATOM     12  C   UNL     1     -26.030 -13.497  18.077  1.00  0.00    -0.000 C 
BRANCH  12  13
ATOM     13  C   UNL     1     -26.257 -14.884  17.441  1.00  0.00    -0.000 C 
BRANCH  13  14
ATOM     14  C   UNL     1     -27.332 -15.748  18.125  1.00  0.00    -0.000 C 
BRANCH  14  15
ATOM     15  C   UNL     1     -28.085 -16.653  17.138  1.00  0.00    -0.003 C 
ATOM     16  C   UNL     1     -29.281 -17.321  17.810  1.00  0.00     0.004 C 
ENDBRANCH  14  15
ENDBRANCH  13  14
ENDBRANCH  12  13
ENDBRANCH  11  12
ENDBRANCH  10  11
ENDBRANCH   1  10
TORSDOF 12
ENDMDL
MODEL 7
REMARK VINA RESULT:    -4.283      2.829      5.134
REMARK INTER + INTRA:          -8.443
REMARK INTER:                  -7.395
REMARK INTRA:                  -1.048
REMARK UNBOUND:                -1.154
REMARK SMILES CCCCCCCCCCCCCC(=O)[O-]
REMARK SMILES IDX 8 1 9 2 10 3 11 4 12 5 13 6 14 7 15 8 16 9 7 10 6 11 5 12
REMARK SMILES IDX 4 13 3 14 2 15 1 16
REMARK H PARENT
REMARK Flexibility Score: inf
ROOT
ATOM      1  C   UNL     1     -30.207 -14.295  16.330  1.00  0.00     0.000 C 
ENDROOT
BRANCH   1   2
ATOM      2  C   UNL     1     -29.897 -15.672  16.946  1.00  0.00     0.000 C 
BRANCH   2   3
ATOM      3  C   UNL     1     -29.122 -16.586  15.984  1.00  0.00     0.000 C 
BRANCH   3   4
ATOM      4  C   UNL     1     -29.976 -17.760  15.472  1.00  0.00     0.000 C 
BRANCH   4   5
ATOM      5  C   UNL     1     -29.578 -18.210  14.054  1.00  0.00     0.006 C 
BRANCH   5   6
ATOM      6  C   UNL     1     -29.282 -17.053  13.086  1.00  0.00     0.053 C 
BRANCH   6   7
ATOM      7  C   UNL     1     -28.356 -17.467  11.985  1.00  0.00     0.041 C 
ATOM      8  O   UNL     1     -28.614 -17.161  10.791  1.00  0.00    -0.550 OA
ATOM      9  O   UNL     1     -27.190 -18.163  12.281  1.00  0.00    -0.550 OA
ENDBRANCH   6   7
ENDBRANCH   5   6
ENDBRANCH   4   5
ENDBRANCH   3   4
ENDBRANCH   2   3
ENDBRANCH   1   2
BRANCH   1  10
ATOM     10  C   UNL     1     -30.019 -13.142  17.328  1.00  0.00     0.000 C 
BRANCH  10  11
ATOM     11  C   UNL     1     -29.341 -11.917  16.692  1.00  0.00    -0.000 C 
BRANCH  11  12
ATOM     12  C   UNL     1     -28.611 -11.036  17.722  1.00  0.00    -0.000 C 
BRANCH  12  13
ATOM     13  C   UNL     1     -27.147 -10.692  17.375  1.00  0.00    -0.000 C 
BRANCH  13  14
ATOM     14  C   UNL     1     -26.380 -11.791  16.618  1.00  0.00    -0.000 C 
BRANCH  14  15
ATOM     15  C   UNL     1     -25.598 -12.724  17.554  1.00  0.00    -0.003 C 
ATOM     16  C   UNL     1     -26.331 -14.049  17.744  1.00  0.00     0.004 C 
ENDBRANCH  14  15
ENDBRANCH  13  14
ENDBRANCH  12  13
ENDBRANCH  11  12
ENDBRANCH  10  11
ENDBRANCH   1  10
TORSDOF 12
ENDMDL
MODEL 8
REMARK VINA RESULT:    -4.277      1.689      3.351
REMARK INTER + INTRA:          -8.432
REMARK INTER:                  -7.019
REMARK INTRA:                  -1.413
REMARK UNBOUND:                -1.154
REMARK SMILES CCCCCCCCCCCCCC(=O)[O-]
REMARK SMILES IDX 8 1 9 2 10 3 11 4 12 5 13 6 14 7 15 8 16 9 7 10 6 11 5 12
REMARK SMILES IDX 4 13 3 14 2 15 1 16
REMARK H PARENT
REMARK Flexibility Score: inf
ROOT
ATOM      1  C   UNL     1     -29.714 -12.807  16.547  1.00  0.00     0.000 C 
ENDROOT
BRANCH   1   2
ATOM      2  C   UNL     1     -30.401 -13.481  17.749  1.00  0.00     0.000 C 
BRANCH   2   3
ATOM      3  C   UNL     1     -30.809 -14.933  17.455  1.00  0.00     0.000 C 
BRANCH   3   4
ATOM      4  C   UNL     1     -31.964 -15.026  16.443  1.00  0.00     0.000 C 
BRANCH   4   5
ATOM      5  C   UNL     1     -31.710 -16.076  15.346  1.00  0.00     0.006 C 
BRANCH   5   6
ATOM      6  C   UNL     1     -30.553 -15.726  14.396  1.00  0.00     0.053 C 
BRANCH   6   7
ATOM      7  C   UNL     1     -29.591 -16.864  14.242  1.00  0.00     0.041 C 
ATOM      8  O   UNL     1     -29.414 -17.676  15.187  1.00  0.00    -0.550 OA
ATOM      9  O   UNL     1     -28.915 -17.045  13.042  1.00  0.00    -0.550 OA
ENDBRANCH   6   7
ENDBRANCH   5   6
ENDBRANCH   4   5
ENDBRANCH   3   4
ENDBRANCH   2   3
ENDBRANCH   1   2
BRANCH   1  10
ATOM     10  C   UNL     1     -29.218 -11.388  16.866  1.00  0.00     0.000 C 
BRANCH  10  11
ATOM     11  C   UNL     1     -27.956 -11.389  17.746  1.00  0.00    -0.000 C 
BRANCH  11  12
ATOM     12  C   UNL     1     -26.657 -11.503  16.928  1.00  0.00    -0.000 C 
BRANCH  12  13
ATOM     13  C   UNL     1     -25.730 -12.671  17.322  1.00  0.00    -0.000 C 
BRANCH  13  14
ATOM     14  C   UNL     1     -26.405 -13.799  18.123  1.00  0.00    -0.000 C 
BRANCH  14  15
ATOM     15  C   UNL     1     -26.274 -15.171  17.446  1.00  0.00    -0.003 C 
ATOM     16  C   UNL     1     -27.355 -16.131  17.935  1.00  0.00     0.004 C 
ENDBRANCH  14  15
ENDBRANCH  13  14
ENDBRANCH  12  13
ENDBRANCH  11  12
ENDBRANCH  10  11
ENDBRANCH   1  10
TORSDOF 12
ENDMDL
MODEL 9
REMARK VINA RESULT:    -4.268      3.183      5.564
REMARK INTER + INTRA:          -8.416
REMARK INTER:                  -7.517
REMARK INTRA:                  -0.899
REMARK UNBOUND:                -1.154
REMARK SMILES CCCCCCCCCCCCCC(=O)[O-]
REMARK SMILES IDX 8 1 9 2 10 3 11 4 12 5 13 6 14 7 15 8 16 9 7 10 6 11 5 12
REMARK SMILES IDX 4 13 3 14 2 15 1 16
REMARK H PARENT
REMARK Flexibility Score: inf
ROOT
ATOM      1  C   UNL     1     -29.266 -15.100  16.826  1.00  0.00     0.000 C 
ENDROOT
BRANCH   1   2
ATOM      2  C   UNL     1     -30.280 -16.248  16.676  1.00  0.00     0.000 C 
BRANCH   2   3
ATOM      3  C   UNL     1     -30.566 -16.593  15.206  1.00  0.00     0.000 C 
BRANCH   3   4
ATOM      4  C   UNL     1     -29.301 -17.030  14.447  1.00  0.00     0.000 C 
BRANCH   4   5
ATOM      5  C   UNL     1     -29.593 -17.444  12.993  1.00  0.00     0.006 C 
BRANCH   5   6
ATOM      6  C   UNL     1     -28.421 -17.215  12.026  1.00  0.00     0.053 C 
BRANCH   6   7
ATOM      7  C   UNL     1     -27.479 -18.379  12.001  1.00  0.00     0.041 C 
ATOM      8  O   UNL     1     -26.591 -18.494  12.885  1.00  0.00    -0.550 OA
ATOM      9  O   UNL     1     -27.605 -19.354  11.019  1.00  0.00    -0.550 OA
ENDBRANCH   6   7
ENDBRANCH   5   6
ENDBRANCH   4   5
ENDBRANCH   3   4
ENDBRANCH   2   3
ENDBRANCH   1   2
BRANCH   1  10
ATOM     10  C   UNL     1     -29.798 -13.763  16.287  1.00  0.00     0.000 C 
BRANCH  10  11
ATOM     11  C   UNL     1     -30.049 -12.735  17.404  1.00  0.00    -0.000 C 
BRANCH  11  12
ATOM     12  C   UNL     1     -29.279 -11.420  17.189  1.00  0.00    -0.000 C 
BRANCH  12  13
ATOM     13  C   UNL     1     -27.852 -11.388  17.775  1.00  0.00    -0.000 C 
BRANCH  13  14
ATOM     14  C   UNL     1     -26.718 -11.502  16.740  1.00  0.00    -0.000 C 
BRANCH  14  15
ATOM     15  C   UNL     1     -25.530 -12.332  17.246  1.00  0.00    -0.003 C 
ATOM     16  C   UNL     1     -26.001 -13.649  17.857  1.00  0.00     0.004 C 
ENDBRANCH  14  15
ENDBRANCH  13  14
ENDBRANCH  12  13
ENDBRANCH  11  12
ENDBRANCH  10  11
ENDBRANCH   1  10
TORSDOF 12
ENDMDL
