MODEL 1
REMARK VINA RESULT:    -3.332      0.000      0.000
REMARK INTER + INTRA:          -7.373
REMARK INTER:                  -8.396
REMARK INTRA:                   1.023
REMARK UNBOUND:                 1.023
REMARK SMILES CCCCCCCCCCCCCCCCCCCCCCCCCCCC(=O)[O-]
REMARK SMILES IDX 15 1 16 2 17 3 18 4 19 5 20 6 21 7 22 8 23 9 24 10 25 11
REMARK SMILES IDX 26 12 27 13 28 14 29 15 30 16 14 17 13 18 12 19 11 20 10 21
REMARK SMILES IDX 9 22 8 23 7 24 6 25 5 26 4 27 3 28 2 29 1 30
REMARK H PARENT
REMARK Flexibility Score: inf
ROOT
ATOM      1  C   UNL     1      -6.816 -11.681   0.700  1.00  0.00     0.000 C 
ENDROOT
BRANCH   1   2
ATOM      2  C   UNL     1      -6.723 -10.447   1.610  1.00  0.00     0.000 C 
BRANCH   2   3
ATOM      3  C   UNL     1      -5.305  -9.862   1.601  1.00  0.00     0.000 C 
BRANCH   3   4
ATOM      4  C   UNL     1      -5.043  -9.043   2.872  1.00  0.00     0.000 C 
BRANCH   4   5
ATOM      5  C   UNL     1      -5.486  -7.586   2.691  1.00  0.00     0.000 C 
BRANCH   5   6
ATOM      6  C   UNL     1      -6.957  -7.404   3.090  1.00  0.00     0.000 C 
BRANCH   6   7
ATOM      7  C   UNL     1      -7.863  -7.032   1.903  1.00  0.00     0.000 C 
BRANCH   7   8
ATOM      8  C   UNL     1      -7.369  -5.813   1.097  1.00  0.00     0.000 C 
BRANCH   8   9
ATOM      9  C   UNL     1      -6.602  -4.808   1.970  1.00  0.00     0.000 C 
BRANCH   9  10
ATOM     10  C   UNL     1      -7.478  -4.295   3.122  1.00  0.00     0.000 C 
BRANCH  10  11
ATOM     11  C   UNL     1      -7.981  -2.857   2.897  1.00  0.00     0.000 C 
BRANCH  11  12
ATOM     12  C   UNL     1      -9.507  -2.722   2.708  1.00  0.00     0.006 C 
BRANCH  12  13
ATOM     13  C   UNL     1     -10.307  -3.974   3.095  1.00  0.00     0.053 C 
BRANCH  13  14
ATOM     14  C   UNL     1     -11.435  -4.238   2.147  1.00  0.00     0.041 C 
ATOM     15  O   UNL     1     -12.628  -4.128   2.534  1.00  0.00    -0.550 OA
ATOM     16  O   UNL     1     -11.169  -4.587   0.829  1.00  0.00    -0.550 OA
ENDBRANCH  13  14
ENDBRANCH  12  13
ENDBRANCH  11  12
ENDBRANCH  10  11
ENDBRANCH   9  10
ENDBRANCH   8   9
ENDBRANCH   7   8
ENDBRANCH   6   7
ENDBRANCH   5   6
ENDBRANCH   4   5
ENDBRANCH   3   4
ENDBRANCH   2   3
ENDBRANCH   1   2
BRANCH   1  17
ATOM     17  C   UNL     1      -5.834 -11.614  -0.489  1.00  0.00     0.000 C 
BRANCH  17  18
ATOM     18  C   UNL     1      -5.046 -12.914  -0.723  1.00  0.00     0.000 C 
BRANCH  18  19
ATOM     19  C   UNL     1      -4.893 -13.820   0.514  1.00  0.00     0.000 C 
BRANCH  19  20
ATOM     20  C   UNL     1      -6.181 -14.539   0.961  1.00  0.00     0.000 C 
BRANCH  20  21
ATOM     21  C   UNL     1      -6.015 -15.500   2.153  1.00  0.00     0.000 C 
BRANCH  21  22
ATOM     22  C   UNL     1      -5.199 -16.770   1.827  1.00  0.00    -0.000 C 
BRANCH  22  23
ATOM     23  C   UNL     1      -5.811 -17.581   0.673  1.00  0.00    -0.000 C 
BRANCH  23  24
ATOM     24  C   UNL     1      -4.922 -18.770   0.248  1.00  0.00    -0.000 C 
BRANCH  24  25
ATOM     25  C   UNL     1      -5.003 -19.094  -1.256  1.00  0.00    -0.000 C 
BRANCH  25  26
ATOM     26  C   UNL     1      -5.423 -20.539  -1.583  1.00  0.00    -0.000 C 
BRANCH  26  27
ATOM     27  C   UNL     1      -6.536 -21.117  -0.682  1.00  0.00    -0.000 C 
BRANCH  27  28
ATOM     28  C   UNL     1      -7.056 -20.163   0.409  1.00  0.00    -0.000 C 
BRANCH  28  29
ATOM     29  C   UNL     1      -7.332 -20.878   1.740  1.00  0.00    -0.003 C 
ATOM     30  C   UNL     1      -7.185 -19.920   2.919  1.00  0.00     0.004 C 
ENDBRANCH  28  29
ENDBRANCH  27  28
ENDBRANCH  26  27
ENDBRANCH  25  26
ENDBRANCH  24  25
ENDBRANCH  23  24
ENDBRANCH  22  23
ENDBRANCH  21  22
ENDBRANCH  20  21
ENDBRANCH  19  20
ENDBRANCH  18  19
ENDBRANCH  17  18
ENDBRANCH   1  17
TORSDOF 26
ENDMDL
MODEL 2
REMARK VINA RESULT:    -2.895     21.161     22.908
REMARK INTER + INTRA:          -6.271
REMARK INTER:                  -4.418
REMARK INTRA:                  -1.854
REMARK UNBOUND:                 1.023
REMARK SMILES CCCCCCCCCCCCCCCCCCCCCCCCCCCC(=O)[O-]
REMARK SMILES IDX 15 1 16 2 17 3 18 4 19 5 20 6 21 7 22 8 23 9 24 10 25 11
REMARK SMILES IDX 26 12 27 13 28 14 29 15 30 16 14 17 13 18 12 19 11 20 10 21
REMARK SMILES IDX 9 22 8 23 7 24 6 25 5 26 4 27 3 28 2 29 1 30
REMARK H PARENT
REMARK Flexibility Score: inf
ROOT
ATOM      1  C   UNL     1     -23.499  -9.850 -16.617  1.00  0.00     0.000 C 
ENDROOT
BRANCH   1   2
ATOM      2  C   UNL     1     -22.914  -8.434 -16.716  1.00  0.00     0.000 C 
BRANCH   2   3
ATOM      3  C   UNL     1     -23.834  -7.409 -16.040  1.00  0.00     0.000 C 
BRANCH   3   4
ATOM      4  C   UNL     1     -23.759  -6.052 -16.752  1.00  0.00     0.000 C 
BRANCH   4   5
ATOM      5  C   UNL     1     -22.303  -5.629 -16.982  1.00  0.00     0.000 C 
BRANCH   5   6
ATOM      6  C   UNL     1     -22.164  -4.100 -16.960  1.00  0.00     0.000 C 
BRANCH   6   7
ATOM      7  C   UNL     1     -23.520  -3.372 -16.957  1.00  0.00     0.000 C 
BRANCH   7   8
ATOM      8  C   UNL     1     -23.825  -2.625 -15.643  1.00  0.00     0.000 C 
BRANCH   8   9
ATOM      9  C   UNL     1     -22.558  -2.349 -14.820  1.00  0.00     0.000 C 
BRANCH   9  10
ATOM     10  C   UNL     1     -22.887  -2.208 -13.327  1.00  0.00     0.000 C 
BRANCH  10  11
ATOM     11  C   UNL     1     -22.004  -3.097 -12.433  1.00  0.00     0.000 C 
BRANCH  11  12
ATOM     12  C   UNL     1     -20.921  -3.904 -13.180  1.00  0.00     0.006 C 
BRANCH  12  13
ATOM     13  C   UNL     1     -20.750  -5.347 -12.682  1.00  0.00     0.053 C 
BRANCH  13  14
ATOM     14  C   UNL     1     -20.373  -6.284 -13.787  1.00  0.00     0.041 C 
ATOM     15  O   UNL     1     -20.694  -7.500 -13.724  1.00  0.00    -0.550 OA
ATOM     16  O   UNL     1     -19.684  -5.810 -14.896  1.00  0.00    -0.550 OA
ENDBRANCH  13  14
ENDBRANCH  12  13
ENDBRANCH  11  12
ENDBRANCH  10  11
ENDBRANCH   9  10
ENDBRANCH   8   9
ENDBRANCH   7   8
ENDBRANCH   6   7
ENDBRANCH   5   6
ENDBRANCH   4   5
ENDBRANCH   3   4
ENDBRANCH   2   3
ENDBRANCH   1   2
BRANCH   1  17
ATOM     17  C   UNL     1     -22.559 -10.827 -15.880  1.00  0.00     0.000 C 
BRANCH  17  18
ATOM     18  C   UNL     1     -23.058 -12.283 -15.865  1.00  0.00     0.000 C 
BRANCH  18  19
ATOM     19  C   UNL     1     -22.721 -13.105 -17.124  1.00  0.00     0.000 C 
BRANCH  19  20
ATOM     20  C   UNL     1     -23.041 -14.609 -17.029  1.00  0.00     0.000 C 
BRANCH  20  21
ATOM     21  C   UNL     1     -21.814 -15.536 -16.937  1.00  0.00     0.000 C 
BRANCH  21  22
ATOM     22  C   UNL     1     -22.143 -17.033 -17.123  1.00  0.00    -0.000 C 
BRANCH  22  23
ATOM     23  C   UNL     1     -23.294 -17.498 -16.215  1.00  0.00    -0.000 C 
BRANCH  23  24
ATOM     24  C   UNL     1     -23.437 -19.035 -16.182  1.00  0.00    -0.000 C 
BRANCH  24  25
ATOM     25  C   UNL     1     -22.237 -19.752 -15.535  1.00  0.00    -0.000 C 
BRANCH  25  26
ATOM     26  C   UNL     1     -21.715 -20.971 -16.319  1.00  0.00    -0.000 C 
BRANCH  26  27
ATOM     27  C   UNL     1     -20.182 -21.034 -16.484  1.00  0.00    -0.000 C 
BRANCH  27  28
ATOM     28  C   UNL     1     -19.372 -20.433 -15.321  1.00  0.00    -0.000 C 
BRANCH  28  29
ATOM     29  C   UNL     1     -18.206 -19.556 -15.800  1.00  0.00    -0.003 C 
ATOM     30  C   UNL     1     -17.285 -19.184 -14.641  1.00  0.00     0.004 C 
ENDBRANCH  28  29
ENDBRANCH  27  28
ENDBRANCH  26  27
ENDBRANCH  25  26
ENDBRANCH  24  25
ENDBRANCH  23  24
ENDBRANCH  22  23
ENDBRANCH  21  22
ENDBRANCH  20  21
ENDBRANCH  19  20
ENDBRANCH  18  19
ENDBRANCH  17  18
ENDBRANCH   1  17
TORSDOF 26
ENDMDL
MODEL 3
REMARK VINA RESULT:    -2.848      3.138      5.325
REMARK INTER + INTRA:          -6.155
REMARK INTER:                  -5.077
REMARK INTRA:                  -1.078
REMARK UNBOUND:                 1.023
REMARK SMILES CCCCCCCCCCCCCCCCCCCCCCCCCCCC(=O)[O-]
REMARK SMILES IDX 15 1 16 2 17 3 18 4 19 5 20 6 21 7 22 8 23 9 24 10 25 11
REMARK SMILES IDX 26 12 27 13 28 14 29 15 30 16 14 17 13 18 12 19 11 20 10 21
REMARK SMILES IDX 9 22 8 23 7 24 6 25 5 26 4 27 3 28 2 29 1 30
REMARK H PARENT
REMARK Flexibility Score: inf
ROOT
ATOM      1  C   UNL     1      -6.039 -15.704   0.837  1.00  0.00     0.000 C 
ENDROOT
BRANCH   1   2
ATOM      2  C   UNL     1      -5.381 -14.399   1.309  1.00  0.00     0.000 C 
BRANCH   2   3
ATOM      3  C   UNL     1      -6.422 -13.438   1.896  1.00  0.00     0.000 C 
BRANCH   3   4
ATOM      4  C   UNL     1      -6.138 -11.993   1.465  1.00  0.00     0.000 C 
BRANCH   4   5
ATOM      5  C   UNL     1      -4.970 -11.398   2.262  1.00  0.00     0.000 C 
BRANCH   5   6
ATOM      6  C   UNL     1      -5.169  -9.893   2.488  1.00  0.00     0.000 C 
BRANCH   6   7
ATOM      7  C   UNL     1      -6.628  -9.442   2.295  1.00  0.00     0.000 C 
BRANCH   7   8
ATOM      8  C   UNL     1      -6.773  -7.988   1.800  1.00  0.00     0.000 C 
BRANCH   8   9
ATOM      9  C   UNL     1      -7.336  -7.056   2.883  1.00  0.00     0.000 C 
BRANCH   9  10
ATOM     10  C   UNL     1      -7.828  -5.735   2.275  1.00  0.00     0.000 C 
BRANCH  10  11
ATOM     11  C   UNL     1      -9.342  -5.520   2.454  1.00  0.00     0.000 C 
BRANCH  11  12
ATOM     12  C   UNL     1      -9.821  -4.066   2.266  1.00  0.00     0.006 C 
BRANCH  12  13
ATOM     13  C   UNL     1     -11.078  -3.704   3.071  1.00  0.00     0.053 C 
BRANCH  13  14
ATOM     14  C   UNL     1     -12.328  -3.846   2.259  1.00  0.00     0.041 C 
ATOM     15  O   UNL     1     -13.456  -3.803   2.818  1.00  0.00    -0.550 OA
ATOM     16  O   UNL     1     -12.248  -4.008   0.882  1.00  0.00    -0.550 OA
ENDBRANCH  13  14
ENDBRANCH  12  13
ENDBRANCH  11  12
ENDBRANCH  10  11
ENDBRANCH   9  10
ENDBRANCH   8   9
ENDBRANCH   7   8
ENDBRANCH   6   7
ENDBRANCH   5   6
ENDBRANCH   4   5
ENDBRANCH   3   4
ENDBRANCH   2   3
ENDBRANCH   1   2
BRANCH   1  17
ATOM     17  C   UNL     1      -5.653 -16.912   1.718  1.00  0.00     0.000 C 
BRANCH  17  18
ATOM     18  C   UNL     1      -6.594 -18.120   1.568  1.00  0.00     0.000 C 
BRANCH  18  19
ATOM     19  C   UNL     1      -6.639 -18.745   0.160  1.00  0.00     0.000 C 
BRANCH  19  20
ATOM     20  C   UNL     1      -6.833 -20.274   0.129  1.00  0.00     0.000 C 
BRANCH  20  21
ATOM     21  C   UNL     1      -7.503 -20.823  -1.145  1.00  0.00     0.000 C 
BRANCH  21  22
ATOM     22  C   UNL     1      -6.852 -20.334  -2.457  1.00  0.00    -0.000 C 
BRANCH  22  23
ATOM     23  C   UNL     1      -5.500 -21.013  -2.730  1.00  0.00    -0.000 C 
BRANCH  23  24
ATOM     24  C   UNL     1      -4.877 -20.573  -4.072  1.00  0.00    -0.000 C 
BRANCH  24  25
ATOM     25  C   UNL     1      -5.616 -21.125  -5.306  1.00  0.00    -0.000 C 
BRANCH  25  26
ATOM     26  C   UNL     1      -6.177 -20.051  -6.256  1.00  0.00    -0.000 C 
BRANCH  26  27
ATOM     27  C   UNL     1      -5.345 -19.808  -7.533  1.00  0.00    -0.000 C 
BRANCH  27  28
ATOM     28  C   UNL     1      -4.875 -18.357  -7.743  1.00  0.00    -0.000 C 
BRANCH  28  29
ATOM     29  C   UNL     1      -4.944 -17.916  -9.212  1.00  0.00    -0.003 C 
ATOM     30  C   UNL     1      -5.057 -19.120 -10.143  1.00  0.00     0.004 C 
ENDBRANCH  28  29
ENDBRANCH  27  28
ENDBRANCH  26  27
ENDBRANCH  25  26
ENDBRANCH  24  25
ENDBRANCH  23  24
ENDBRANCH  22  23
ENDBRANCH  21  22
ENDBRANCH  20  21
ENDBRANCH  19  20
ENDBRANCH  18  19
ENDBRANCH  17  18
ENDBRANCH   1  17
TORSDOF 26
ENDMDL
MODEL 4
REMARK VINA RESULT:    -2.616      2.267      2.922
REMARK INTER + INTRA:          -5.569
REMARK INTER:                  -6.029
REMARK INTRA:                   0.460
REMARK UNBOUND:                 1.023
REMARK SMILES CCCCCCCCCCCCCCCCCCCCCCCCCCCC(=O)[O-]
REMARK SMILES IDX 15 1 16 2 17 3 18 4 19 5 20 6 21 7 22 8 23 9 24 10 25 11
REMARK SMILES IDX 26 12 27 13 28 14 29 15 30 16 14 17 13 18 12 19 11 20 10 21
REMARK SMILES IDX 9 22 8 23 7 24 6 25 5 26 4 27 3 28 2 29 1 30
REMARK H PARENT
REMARK Flexibility Score: inf
ROOT
ATOM      1  C   UNL     1      -6.720 -11.803   0.083  1.00  0.00     0.000 C 
ENDROOT
BRANCH   1   2
ATOM      2  C   UNL     1      -6.742 -10.569   0.997  1.00  0.00     0.000 C 
BRANCH   2   3
ATOM      3  C   UNL     1      -5.740 -10.719   2.148  1.00  0.00     0.000 C 
BRANCH   3   4
ATOM      4  C   UNL     1      -5.714  -9.456   3.019  1.00  0.00     0.000 C 
BRANCH   4   5
ATOM      5  C   UNL     1      -5.276  -8.232   2.204  1.00  0.00     0.000 C 
BRANCH   5   6
ATOM      6  C   UNL     1      -4.892  -7.066   3.125  1.00  0.00     0.000 C 
BRANCH   6   7
ATOM      7  C   UNL     1      -5.671  -5.774   2.819  1.00  0.00     0.000 C 
BRANCH   7   8
ATOM      8  C   UNL     1      -6.939  -5.995   1.970  1.00  0.00     0.000 C 
BRANCH   8   9
ATOM      9  C   UNL     1      -6.619  -6.574   0.583  1.00  0.00     0.000 C 
BRANCH   9  10
ATOM     10  C   UNL     1      -5.879  -5.548  -0.288  1.00  0.00     0.000 C 
BRANCH  10  11
ATOM     11  C   UNL     1      -6.131  -4.095   0.154  1.00  0.00     0.000 C 
BRANCH  11  12
ATOM     12  C   UNL     1      -4.875  -3.200   0.199  1.00  0.00     0.006 C 
BRANCH  12  13
ATOM     13  C   UNL     1      -5.147  -1.746   0.614  1.00  0.00     0.053 C 
BRANCH  13  14
ATOM     14  C   UNL     1      -5.790  -1.656   1.963  1.00  0.00     0.041 C 
ATOM     15  O   UNL     1      -5.116  -1.876   3.004  1.00  0.00    -0.550 OA
ATOM     16  O   UNL     1      -7.132  -1.312   2.073  1.00  0.00    -0.550 OA
ENDBRANCH  13  14
ENDBRANCH  12  13
ENDBRANCH  11  12
ENDBRANCH  10  11
ENDBRANCH   9  10
ENDBRANCH   8   9
ENDBRANCH   7   8
ENDBRANCH   6   7
ENDBRANCH   5   6
ENDBRANCH   4   5
ENDBRANCH   3   4
ENDBRANCH   2   3
ENDBRANCH   1   2
BRANCH   1  17
ATOM     17  C   UNL     1      -5.289 -12.196  -0.344  1.00  0.00     0.000 C 
BRANCH  17  18
ATOM     18  C   UNL     1      -5.107 -13.702  -0.608  1.00  0.00     0.000 C 
BRANCH  18  19
ATOM     19  C   UNL     1      -4.972 -14.576   0.654  1.00  0.00     0.000 C 
BRANCH  19  20
ATOM     20  C   UNL     1      -6.058 -14.352   1.724  1.00  0.00     0.000 C 
BRANCH  20  21
ATOM     21  C   UNL     1      -6.243 -15.511   2.722  1.00  0.00     0.000 C 
BRANCH  21  22
ATOM     22  C   UNL     1      -5.323 -16.722   2.455  1.00  0.00    -0.000 C 
BRANCH  22  23
ATOM     23  C   UNL     1      -5.277 -17.107   0.966  1.00  0.00    -0.000 C 
BRANCH  23  24
ATOM     24  C   UNL     1      -4.875 -18.582   0.749  1.00  0.00    -0.000 C 
BRANCH  24  25
ATOM     25  C   UNL     1      -5.112 -19.080  -0.690  1.00  0.00    -0.000 C 
BRANCH  25  26
ATOM     26  C   UNL     1      -6.418 -19.871  -0.891  1.00  0.00    -0.000 C 
BRANCH  26  27
ATOM     27  C   UNL     1      -7.431 -19.769   0.269  1.00  0.00    -0.000 C 
BRANCH  27  28
ATOM     28  C   UNL     1      -7.699 -21.085   1.022  1.00  0.00    -0.000 C 
BRANCH  28  29
ATOM     29  C   UNL     1      -7.113 -21.088   2.441  1.00  0.00    -0.003 C 
ATOM     30  C   UNL     1      -7.076 -19.678   3.024  1.00  0.00     0.004 C 
ENDBRANCH  28  29
ENDBRANCH  27  28
ENDBRANCH  26  27
ENDBRANCH  25  26
ENDBRANCH  24  25
ENDBRANCH  23  24
ENDBRANCH  22  23
ENDBRANCH  21  22
ENDBRANCH  20  21
ENDBRANCH  19  20
ENDBRANCH  18  19
ENDBRANCH  17  18
ENDBRANCH   1  17
TORSDOF 26
ENDMDL
MODEL 5
REMARK VINA RESULT:    -2.595      3.424      5.658
REMARK INTER + INTRA:          -5.516
REMARK INTER:                  -4.272
REMARK INTRA:                  -1.244
REMARK UNBOUND:                 1.023
REMARK SMILES CCCCCCCCCCCCCCCCCCCCCCCCCCCC(=O)[O-]
REMARK SMILES IDX 15 1 16 2 17 3 18 4 19 5 20 6 21 7 22 8 23 9 24 10 25 11
REMARK SMILES IDX 26 12 27 13 28 14 29 15 30 16 14 17 13 18 12 19 11 20 10 21
REMARK SMILES IDX 9 22 8 23 7 24 6 25 5 26 4 27 3 28 2 29 1 30
REMARK H PARENT
REMARK Flexibility Score: inf
ROOT
ATOM      1  C   UNL     1      -6.010 -15.758   0.854  1.00  0.00     0.000 C 
ENDROOT
BRANCH   1   2
ATOM      2  C   UNL     1      -5.387 -14.387   1.159  1.00  0.00     0.000 C 
BRANCH   2   3
ATOM      3  C   UNL     1      -6.432 -13.424   1.736  1.00  0.00     0.000 C 
BRANCH   3   4
ATOM      4  C   UNL     1      -6.194 -11.994   1.235  1.00  0.00     0.000 C 
BRANCH   4   5
ATOM      5  C   UNL     1      -5.115 -11.289   2.067  1.00  0.00     0.000 C 
BRANCH   5   6
ATOM      6  C   UNL     1      -5.462  -9.808   2.277  1.00  0.00     0.000 C 
BRANCH   6   7
ATOM      7  C   UNL     1      -6.946  -9.494   2.014  1.00  0.00     0.000 C 
BRANCH   7   8
ATOM      8  C   UNL     1      -7.230  -8.003   1.740  1.00  0.00     0.000 C 
BRANCH   8   9
ATOM      9  C   UNL     1      -7.813  -7.285   2.967  1.00  0.00     0.000 C 
BRANCH   9  10
ATOM     10  C   UNL     1      -7.721  -5.760   2.810  1.00  0.00     0.000 C 
BRANCH  10  11
ATOM     11  C   UNL     1      -6.949  -5.332   1.549  1.00  0.00     0.000 C 
BRANCH  11  12
ATOM     12  C   UNL     1      -5.786  -4.349   1.797  1.00  0.00     0.006 C 
BRANCH  12  13
ATOM     13  C   UNL     1      -6.137  -3.175   2.723  1.00  0.00     0.053 C 
BRANCH  13  14
ATOM     14  C   UNL     1      -6.297  -1.891   1.969  1.00  0.00     0.041 C 
ATOM     15  O   UNL     1      -7.374  -1.243   2.043  1.00  0.00    -0.550 OA
ATOM     16  O   UNL     1      -5.250  -1.401   1.199  1.00  0.00    -0.550 OA
ENDBRANCH  13  14
ENDBRANCH  12  13
ENDBRANCH  11  12
ENDBRANCH  10  11
ENDBRANCH   9  10
ENDBRANCH   8   9
ENDBRANCH   7   8
ENDBRANCH   6   7
ENDBRANCH   5   6
ENDBRANCH   4   5
ENDBRANCH   3   4
ENDBRANCH   2   3
ENDBRANCH   1   2
BRANCH   1  17
ATOM     17  C   UNL     1      -5.702 -16.803   1.948  1.00  0.00     0.000 C 
BRANCH  17  18
ATOM     18  C   UNL     1      -6.587 -18.060   1.877  1.00  0.00     0.000 C 
BRANCH  18  19
ATOM     19  C   UNL     1      -6.791 -18.639   0.463  1.00  0.00     0.000 C 
BRANCH  19  20
ATOM     20  C   UNL     1      -6.985 -20.166   0.404  1.00  0.00     0.000 C 
BRANCH  20  21
ATOM     21  C   UNL     1      -7.707 -20.687  -0.854  1.00  0.00     0.000 C 
BRANCH  21  22
ATOM     22  C   UNL     1      -7.000 -20.324  -2.178  1.00  0.00    -0.000 C 
BRANCH  22  23
ATOM     23  C   UNL     1      -5.651 -21.044  -2.340  1.00  0.00    -0.000 C 
BRANCH  23  24
ATOM     24  C   UNL     1      -4.916 -20.640  -3.637  1.00  0.00    -0.000 C 
BRANCH  24  25
ATOM     25  C   UNL     1      -5.632 -21.099  -4.921  1.00  0.00    -0.000 C 
BRANCH  25  26
ATOM     26  C   UNL     1      -5.907 -19.980  -5.942  1.00  0.00    -0.000 C 
BRANCH  26  27
ATOM     27  C   UNL     1      -4.948 -19.946  -7.151  1.00  0.00    -0.000 C 
BRANCH  27  28
ATOM     28  C   UNL     1      -5.595 -20.276  -8.509  1.00  0.00    -0.000 C 
BRANCH  28  29
ATOM     29  C   UNL     1      -5.136 -19.332  -9.630  1.00  0.00    -0.003 C 
ATOM     30  C   UNL     1      -5.347 -17.872  -9.239  1.00  0.00     0.004 C 
ENDBRANCH  28  29
ENDBRANCH  27  28
ENDBRANCH  26  27
ENDBRANCH  25  26
ENDBRANCH  24  25
ENDBRANCH  23  24
ENDBRANCH  22  23
ENDBRANCH  21  22
ENDBRANCH  20  21
ENDBRANCH  19  20
ENDBRANCH  18  19
ENDBRANCH  17  18
ENDBRANCH   1  17
TORSDOF 26
ENDMDL
MODEL 6
REMARK VINA RESULT:    -2.472     20.519     25.113
REMARK INTER + INTRA:          -5.206
REMARK INTER:                  -3.718
REMARK INTRA:                  -1.488
REMARK UNBOUND:                 1.023
REMARK SMILES CCCCCCCCCCCCCCCCCCCCCCCCCCCC(=O)[O-]
REMARK SMILES IDX 15 1 16 2 17 3 18 4 19 5 20 6 21 7 22 8 23 9 24 10 25 11
REMARK SMILES IDX 26 12 27 13 28 14 29 15 30 16 14 17 13 18 12 19 11 20 10 21
REMARK SMILES IDX 9 22 8 23 7 24 6 25 5 26 4 27 3 28 2 29 1 30
REMARK H PARENT
REMARK Flexibility Score: inf
ROOT
ATOM      1  C   UNL     1     -23.022  -4.881 -16.655  1.00  0.00     0.000 C 
ENDROOT
BRANCH   1   2
ATOM      2  C   UNL     1     -24.078  -5.892 -17.125  1.00  0.00     0.000 C 
BRANCH   2   3
ATOM      3  C   UNL     1     -24.443  -6.869 -16.001  1.00  0.00     0.000 C 
BRANCH   3   4
ATOM      4  C   UNL     1     -24.496  -8.310 -16.525  1.00  0.00     0.000 C 
BRANCH   4   5
ATOM      5  C   UNL     1     -23.099  -8.809 -16.915  1.00  0.00     0.000 C 
BRANCH   5   6
ATOM      6  C   UNL     1     -23.079 -10.337 -17.059  1.00  0.00     0.000 C 
BRANCH   6   7
ATOM      7  C   UNL     1     -23.231 -11.070 -15.714  1.00  0.00     0.000 C 
BRANCH   7   8
ATOM      8  C   UNL     1     -21.928 -11.146 -14.892  1.00  0.00     0.000 C 
BRANCH   8   9
ATOM      9  C   UNL     1     -21.563  -9.797 -14.252  1.00  0.00     0.000 C 
BRANCH   9  10
ATOM     10  C   UNL     1     -20.349  -9.937 -13.323  1.00  0.00     0.000 C 
BRANCH  10  11
ATOM     11  C   UNL     1     -19.715  -8.582 -12.958  1.00  0.00     0.000 C 
BRANCH  11  12
ATOM     12  C   UNL     1     -20.693  -7.389 -12.936  1.00  0.00     0.006 C 
BRANCH  12  13
ATOM     13  C   UNL     1     -20.881  -6.699 -14.296  1.00  0.00     0.053 C 
BRANCH  13  14
ATOM     14  C   UNL     1     -20.159  -5.389 -14.368  1.00  0.00     0.041 C 
ATOM     15  O   UNL     1     -19.984  -4.703 -13.326  1.00  0.00    -0.550 OA
ATOM     16  O   UNL     1     -19.661  -4.935 -15.583  1.00  0.00    -0.550 OA
ENDBRANCH  13  14
ENDBRANCH  12  13
ENDBRANCH  11  12
ENDBRANCH  10  11
ENDBRANCH   9  10
ENDBRANCH   8   9
ENDBRANCH   7   8
ENDBRANCH   6   7
ENDBRANCH   5   6
ENDBRANCH   4   5
ENDBRANCH   3   4
ENDBRANCH   2   3
ENDBRANCH   1   2
BRANCH   1  17
ATOM     17  C   UNL     1     -23.520  -3.422 -16.743  1.00  0.00     0.000 C 
BRANCH  17  18
ATOM     18  C   UNL     1     -24.902  -3.194 -16.105  1.00  0.00     0.000 C 
BRANCH  18  19
ATOM     19  C   UNL     1     -24.876  -2.639 -14.667  1.00  0.00     0.000 C 
BRANCH  19  20
ATOM     20  C   UNL     1     -23.982  -3.416 -13.682  1.00  0.00     0.000 C 
BRANCH  20  21
ATOM     21  C   UNL     1     -23.981  -2.882 -12.237  1.00  0.00     0.000 C 
BRANCH  21  22
ATOM     22  C   UNL     1     -23.355  -1.477 -12.089  1.00  0.00    -0.000 C 
BRANCH  22  23
ATOM     23  C   UNL     1     -22.938  -0.875 -13.441  1.00  0.00    -0.000 C 
BRANCH  23  24
ATOM     24  C   UNL     1     -21.495  -1.256 -13.838  1.00  0.00    -0.000 C 
BRANCH  24  25
ATOM     25  C   UNL     1     -21.315  -1.499 -15.349  1.00  0.00    -0.000 C 
BRANCH  25  26
ATOM     26  C   UNL     1     -19.978  -1.001 -15.927  1.00  0.00    -0.000 C 
BRANCH  26  27
ATOM     27  C   UNL     1     -19.438  -1.815 -17.123  1.00  0.00    -0.000 C 
BRANCH  27  28
ATOM     28  C   UNL     1     -17.938  -2.154 -17.060  1.00  0.00    -0.000 C 
BRANCH  28  29
ATOM     29  C   UNL     1     -17.107  -1.052 -16.387  1.00  0.00    -0.003 C 
ATOM     30  C   UNL     1     -15.720  -0.948 -17.015  1.00  0.00     0.004 C 
ENDBRANCH  28  29
ENDBRANCH  27  28
ENDBRANCH  26  27
ENDBRANCH  25  26
ENDBRANCH  24  25
ENDBRANCH  23  24
ENDBRANCH  22  23
ENDBRANCH  21  22
ENDBRANCH  20  21
ENDBRANCH  19  20
ENDBRANCH  18  19
ENDBRANCH  17  18
ENDBRANCH   1  17
TORSDOF 26
ENDMDL
MODEL 7
REMARK VINA RESULT:    -2.087     20.943     25.422
REMARK INTER + INTRA:          -4.237
REMARK INTER:                  -2.388
REMARK INTRA:                  -1.849
REMARK UNBOUND:                 1.023
REMARK SMILES CCCCCCCCCCCCCCCCCCCCCCCCCCCC(=O)[O-]
REMARK SMILES IDX 15 1 16 2 17 3 18 4 19 5 20 6 21 7 22 8 23 9 24 10 25 11
REMARK SMILES IDX 26 12 27 13 28 14 29 15 30 16 14 17 13 18 12 19 11 20 10 21
REMARK SMILES IDX 9 22 8 23 7 24 6 25 5 26 4 27 3 28 2 29 1 30
REMARK H PARENT
REMARK Flexibility Score: inf
ROOT
ATOM      1  C   UNL     1     -19.721  -8.087 -13.945  1.00  0.00     0.000 C 
ENDROOT
BRANCH   1   2
ATOM      2  C   UNL     1     -19.579  -9.324 -13.046  1.00  0.00     0.000 C 
BRANCH   2   3
ATOM      3  C   UNL     1     -20.378 -10.507 -13.606  1.00  0.00     0.000 C 
BRANCH   3   4
ATOM      4  C   UNL     1     -21.578 -10.018 -14.427  1.00  0.00     0.000 C 
BRANCH   4   5
ATOM      5  C   UNL     1     -22.448 -11.194 -14.890  1.00  0.00     0.000 C 
BRANCH   5   6
ATOM      6  C   UNL     1     -23.446 -10.750 -15.967  1.00  0.00     0.000 C 
BRANCH   6   7
ATOM      7  C   UNL     1     -23.571 -11.757 -17.125  1.00  0.00     0.000 C 
BRANCH   7   8
ATOM      8  C   UNL     1     -23.250 -13.211 -16.726  1.00  0.00     0.000 C 
BRANCH   8   9
ATOM      9  C   UNL     1     -21.818 -13.618 -17.107  1.00  0.00     0.000 C 
BRANCH   9  10
ATOM     10  C   UNL     1     -21.624 -15.137 -16.987  1.00  0.00     0.000 C 
BRANCH  10  11
ATOM     11  C   UNL     1     -20.161 -15.534 -16.716  1.00  0.00     0.000 C 
BRANCH  11  12
ATOM     12  C   UNL     1     -19.974 -16.906 -16.036  1.00  0.00     0.006 C 
BRANCH  12  13
ATOM     13  C   UNL     1     -18.532 -17.436 -16.066  1.00  0.00     0.053 C 
BRANCH  13  14
ATOM     14  C   UNL     1     -18.473 -18.888 -16.427  1.00  0.00     0.041 C 
ATOM     15  O   UNL     1     -19.524 -19.581 -16.444  1.00  0.00    -0.550 OA
ATOM     16  O   UNL     1     -17.257 -19.472 -16.763  1.00  0.00    -0.550 OA
ENDBRANCH  13  14
ENDBRANCH  12  13
ENDBRANCH  11  12
ENDBRANCH  10  11
ENDBRANCH   9  10
ENDBRANCH   8   9
ENDBRANCH   7   8
ENDBRANCH   6   7
ENDBRANCH   5   6
ENDBRANCH   4   5
ENDBRANCH   3   4
ENDBRANCH   2   3
ENDBRANCH   1   2
BRANCH   1  17
ATOM     17  C   UNL     1     -20.696  -7.042 -13.363  1.00  0.00     0.000 C 
BRANCH  17  18
ATOM     18  C   UNL     1     -21.331  -6.122 -14.421  1.00  0.00     0.000 C 
BRANCH  18  19
ATOM     19  C   UNL     1     -21.214  -6.618 -15.876  1.00  0.00     0.000 C 
BRANCH  19  20
ATOM     20  C   UNL     1     -22.551  -6.967 -16.557  1.00  0.00     0.000 C 
BRANCH  20  21
ATOM     21  C   UNL     1     -23.392  -5.757 -17.009  1.00  0.00     0.000 C 
BRANCH  21  22
ATOM     22  C   UNL     1     -23.973  -4.927 -15.844  1.00  0.00    -0.000 C 
BRANCH  22  23
ATOM     23  C   UNL     1     -24.257  -3.470 -16.246  1.00  0.00    -0.000 C 
BRANCH  23  24
ATOM     24  C   UNL     1     -23.005  -2.752 -16.794  1.00  0.00    -0.000 C 
BRANCH  24  25
ATOM     25  C   UNL     1     -21.812  -2.761 -15.819  1.00  0.00    -0.000 C 
BRANCH  25  26
ATOM     26  C   UNL     1     -21.975  -1.847 -14.590  1.00  0.00    -0.000 C 
BRANCH  26  27
ATOM     27  C   UNL     1     -21.590  -2.490 -13.241  1.00  0.00    -0.000 C 
BRANCH  27  28
ATOM     28  C   UNL     1     -22.684  -2.444 -12.158  1.00  0.00    -0.000 C 
BRANCH  28  29
ATOM     29  C   UNL     1     -22.474  -1.306 -11.149  1.00  0.00    -0.003 C 
ATOM     30  C   UNL     1     -21.532  -1.731 -10.028  1.00  0.00     0.004 C 
ENDBRANCH  28  29
ENDBRANCH  27  28
ENDBRANCH  26  27
ENDBRANCH  25  26
ENDBRANCH  24  25
ENDBRANCH  23  24
ENDBRANCH  22  23
ENDBRANCH  21  22
ENDBRANCH  20  21
ENDBRANCH  19  20
ENDBRANCH  18  19
ENDBRANCH  17  18
ENDBRANCH   1  17
TORSDOF 26
ENDMDL
