MODEL 1
REMARK VINA RESULT:    -4.639      0.000      0.000
REMARK INTER + INTRA:         -13.390
REMARK INTER:                 -10.063
REMARK INTRA:                  -3.327
REMARK UNBOUND:                -3.327
REMARK SMILES CCCCCCCCCCCCCCCCCCCCCC(=O)[O-]
REMARK SMILES IDX 12 1 11 2 10 3 9 4 8 5 7 6 6 7 5 8 4 9 3 10 2 11 1 12 13 13
REMARK SMILES IDX 14 14 15 15 16 16 17 17 18 18 19 19 20 20 21 21 22 22 23 23
REMARK SMILES IDX 24 24
REMARK H PARENT
REMARK Flexibility Score: inf
ROOT
ATOM      1  C   UNL     1       9.785 -18.818  20.390  1.00  0.00     0.000 C 
ENDROOT
BRANCH   1   2
ATOM      2  C   UNL     1       8.466 -19.188  19.692  1.00  0.00     0.000 C 
BRANCH   2   3
ATOM      3  C   UNL     1       7.538 -17.975  19.504  1.00  0.00     0.000 C 
BRANCH   3   4
ATOM      4  C   UNL     1       8.059 -16.716  20.215  1.00  0.00    -0.000 C 
BRANCH   4   5
ATOM      5  C   UNL     1       6.924 -15.818  20.736  1.00  0.00    -0.000 C 
BRANCH   5   6
ATOM      6  C   UNL     1       7.150 -15.437  22.203  1.00  0.00    -0.000 C 
BRANCH   6   7
ATOM      7  C   UNL     1       8.303 -16.250  22.810  1.00  0.00    -0.000 C 
BRANCH   7   8
ATOM      8  C   UNL     1       9.212 -15.412  23.730  1.00  0.00    -0.000 C 
BRANCH   8   9
ATOM      9  C   UNL     1      10.616 -16.000  23.968  1.00  0.00    -0.000 C 
BRANCH   9  10
ATOM     10  C   UNL     1      11.416 -16.183  22.668  1.00  0.00    -0.000 C 
BRANCH  10  11
ATOM     11  C   UNL     1      12.590 -15.199  22.604  1.00  0.00    -0.003 C 
ATOM     12  C   UNL     1      13.883 -15.853  23.081  1.00  0.00     0.004 C 
ENDBRANCH  10  11
ENDBRANCH   9  10
ENDBRANCH   8   9
ENDBRANCH   7   8
ENDBRANCH   6   7
ENDBRANCH   5   6
ENDBRANCH   4   5
ENDBRANCH   3   4
ENDBRANCH   2   3
ENDBRANCH   1   2
BRANCH   1  13
ATOM     13  C   UNL     1      10.538 -20.049  20.924  1.00  0.00     0.000 C 
BRANCH  13  14
ATOM     14  C   UNL     1      10.102 -21.353  20.223  1.00  0.00     0.000 C 
BRANCH  14  15
ATOM     15  C   UNL     1      10.091 -22.584  21.150  1.00  0.00     0.000 C 
BRANCH  15  16
ATOM     16  C   UNL     1       8.699 -23.026  21.637  1.00  0.00     0.000 C 
BRANCH  16  17
ATOM     17  C   UNL     1       7.517 -22.489  20.809  1.00  0.00     0.000 C 
BRANCH  17  18
ATOM     18  C   UNL     1       6.630 -21.507  21.595  1.00  0.00     0.000 C 
BRANCH  18  19
ATOM     19  C   UNL     1       7.163 -21.253  23.021  1.00  0.00     0.000 C 
BRANCH  19  20
ATOM     20  C   UNL     1       7.584 -19.795  23.275  1.00  0.00     0.006 C 
BRANCH  20  21
ATOM     21  C   UNL     1       6.570 -19.016  24.118  1.00  0.00     0.053 C 
BRANCH  21  22
ATOM     22  C   UNL     1       7.059 -18.874  25.524  1.00  0.00     0.041 C 
ATOM     23  O   UNL     1       7.582 -17.797  25.909  1.00  0.00    -0.550 OA
ATOM     24  O   UNL     1       6.892 -19.917  26.425  1.00  0.00    -0.550 OA
ENDBRANCH  21  22
ENDBRANCH  20  21
ENDBRANCH  19  20
ENDBRANCH  18  19
ENDBRANCH  17  18
ENDBRANCH  16  17
ENDBRANCH  15  16
ENDBRANCH  14  15
ENDBRANCH  13  14
ENDBRANCH   1  13
TORSDOF 20
ENDMDL
MODEL 2
REMARK VINA RESULT:    -4.626      2.187      4.005
REMARK INTER + INTRA:         -13.361
REMARK INTER:                  -9.567
REMARK INTRA:                  -3.794
REMARK UNBOUND:                -3.327
REMARK SMILES CCCCCCCCCCCCCCCCCCCCCC(=O)[O-]
REMARK SMILES IDX 12 1 11 2 10 3 9 4 8 5 7 6 6 7 5 8 4 9 3 10 2 11 1 12 13 13
REMARK SMILES IDX 14 14 15 15 16 16 17 17 18 18 19 19 20 20 21 21 22 22 23 23
REMARK SMILES IDX 24 24
REMARK H PARENT
REMARK Flexibility Score: inf
ROOT
ATOM      1  C   UNL     1      11.717 -21.909  22.215  1.00  0.00     0.000 C 
ENDROOT
BRANCH   1   2
ATOM      2  C   UNL     1      11.436 -20.872  21.115  1.00  0.00     0.000 C 
BRANCH   2   3
ATOM      3  C   UNL     1      11.134 -19.475  21.686  1.00  0.00     0.000 C 
BRANCH   3   4
ATOM      4  C   UNL     1      10.967 -19.484  23.214  1.00  0.00    -0.000 C 
BRANCH   4   5
ATOM      5  C   UNL     1      11.342 -18.139  23.858  1.00  0.00    -0.000 C 
BRANCH   5   6
ATOM      6  C   UNL     1      11.339 -17.010  22.822  1.00  0.00    -0.000 C 
BRANCH   6   7
ATOM      7  C   UNL     1      12.591 -16.131  22.963  1.00  0.00    -0.000 C 
BRANCH   7   8
ATOM      8  C   UNL     1      13.901 -16.943  22.956  1.00  0.00    -0.000 C 
BRANCH   8   9
ATOM      9  C   UNL     1      14.584 -17.064  21.580  1.00  0.00    -0.000 C 
BRANCH   9  10
ATOM     10  C   UNL     1      14.651 -18.513  21.071  1.00  0.00    -0.000 C 
BRANCH  10  11
ATOM     11  C   UNL     1      14.944 -19.484  22.221  1.00  0.00    -0.003 C 
ATOM     12  C   UNL     1      16.443 -19.587  22.485  1.00  0.00     0.004 C 
ENDBRANCH  10  11
ENDBRANCH   9  10
ENDBRANCH   8   9
ENDBRANCH   7   8
ENDBRANCH   6   7
ENDBRANCH   5   6
ENDBRANCH   4   5
ENDBRANCH   3   4
ENDBRANCH   2   3
ENDBRANCH   1   2
BRANCH   1  13
ATOM     13  C   UNL     1      10.736 -23.093  22.177  1.00  0.00     0.000 C 
BRANCH  13  14
ATOM     14  C   UNL     1       9.656 -22.926  21.086  1.00  0.00     0.000 C 
BRANCH  14  15
ATOM     15  C   UNL     1       8.214 -22.947  21.630  1.00  0.00     0.000 C 
BRANCH  15  16
ATOM     16  C   UNL     1       7.529 -21.571  21.724  1.00  0.00     0.000 C 
BRANCH  16  17
ATOM     17  C   UNL     1       7.233 -21.087  23.157  1.00  0.00     0.000 C 
BRANCH  17  18
ATOM     18  C   UNL     1       7.202 -19.554  23.278  1.00  0.00     0.000 C 
BRANCH  18  19
ATOM     19  C   UNL     1       7.541 -18.856  21.943  1.00  0.00     0.000 C 
BRANCH  19  20
ATOM     20  C   UNL     1       7.763 -17.339  22.076  1.00  0.00     0.006 C 
BRANCH  20  21
ATOM     21  C   UNL     1       7.589 -16.831  23.510  1.00  0.00     0.053 C 
BRANCH  21  22
ATOM     22  C   UNL     1       8.012 -15.400  23.612  1.00  0.00     0.041 C 
ATOM     23  O   UNL     1       7.456 -14.521  22.904  1.00  0.00    -0.550 OA
ATOM     24  O   UNL     1       8.990 -15.029  24.525  1.00  0.00    -0.550 OA
ENDBRANCH  21  22
ENDBRANCH  20  21
ENDBRANCH  19  20
ENDBRANCH  18  19
ENDBRANCH  17  18
ENDBRANCH  16  17
ENDBRANCH  15  16
ENDBRANCH  14  15
ENDBRANCH  13  14
ENDBRANCH   1  13
TORSDOF 20
ENDMDL
MODEL 3
REMARK VINA RESULT:    -4.606      2.008      5.717
REMARK INTER + INTRA:         -13.319
REMARK INTER:                  -9.162
REMARK INTRA:                  -4.157
REMARK UNBOUND:                -3.327
REMARK SMILES CCCCCCCCCCCCCCCCCCCCCC(=O)[O-]
REMARK SMILES IDX 12 1 11 2 10 3 9 4 8 5 7 6 6 7 5 8 4 9 3 10 2 11 1 12 13 13
REMARK SMILES IDX 14 14 15 15 16 16 17 17 18 18 19 19 20 20 21 21 22 22 23 23
REMARK SMILES IDX 24 24
REMARK H PARENT
REMARK Flexibility Score: inf
ROOT
ATOM      1  C   UNL     1       6.609 -20.770  22.870  1.00  0.00     0.000 C 
ENDROOT
BRANCH   1   2
ATOM      2  C   UNL     1       7.570 -21.911  22.498  1.00  0.00     0.000 C 
BRANCH   2   3
ATOM      3  C   UNL     1       8.007 -21.856  21.023  1.00  0.00     0.000 C 
BRANCH   3   4
ATOM      4  C   UNL     1       9.350 -22.561  20.778  1.00  0.00    -0.000 C 
BRANCH   4   5
ATOM      5  C   UNL     1      10.190 -22.697  22.059  1.00  0.00    -0.000 C 
BRANCH   5   6
ATOM      6  C   UNL     1      11.606 -22.150  21.854  1.00  0.00    -0.000 C 
BRANCH   6   7
ATOM      7  C   UNL     1      11.816 -21.701  20.400  1.00  0.00    -0.000 C 
BRANCH   7   8
ATOM      8  C   UNL     1      12.978 -20.703  20.238  1.00  0.00    -0.000 C 
BRANCH   8   9
ATOM      9  C   UNL     1      12.794 -19.667  19.112  1.00  0.00    -0.000 C 
BRANCH   9  10
ATOM     10  C   UNL     1      11.718 -20.075  18.093  1.00  0.00    -0.000 C 
BRANCH  10  11
ATOM     11  C   UNL     1      10.575 -19.053  18.065  1.00  0.00    -0.003 C 
ATOM     12  C   UNL     1       9.228 -19.729  18.303  1.00  0.00     0.004 C 
ENDBRANCH  10  11
ENDBRANCH   9  10
ENDBRANCH   8   9
ENDBRANCH   7   8
ENDBRANCH   6   7
ENDBRANCH   5   6
ENDBRANCH   4   5
ENDBRANCH   3   4
ENDBRANCH   2   3
ENDBRANCH   1   2
BRANCH   1  13
ATOM     13  C   UNL     1       7.018 -20.051  24.168  1.00  0.00     0.000 C 
BRANCH  13  14
ATOM     14  C   UNL     1       7.876 -18.796  23.898  1.00  0.00     0.000 C 
BRANCH  14  15
ATOM     15  C   UNL     1       7.533 -18.081  22.577  1.00  0.00     0.000 C 
BRANCH  15  16
ATOM     16  C   UNL     1       8.674 -18.026  21.544  1.00  0.00     0.000 C 
BRANCH  16  17
ATOM     17  C   UNL     1       9.958 -18.775  21.950  1.00  0.00     0.000 C 
BRANCH  17  18
ATOM     18  C   UNL     1      11.152 -17.835  22.187  1.00  0.00     0.000 C 
BRANCH  18  19
ATOM     19  C   UNL     1      11.705 -17.945  23.625  1.00  0.00     0.000 C 
BRANCH  19  20
ATOM     20  C   UNL     1      11.090 -16.930  24.604  1.00  0.00     0.006 C 
BRANCH  20  21
ATOM     21  C   UNL     1      10.494 -15.706  23.904  1.00  0.00     0.053 C 
BRANCH  21  22
ATOM     22  C   UNL     1       9.141 -15.394  24.459  1.00  0.00     0.041 C 
ATOM     23  O   UNL     1       8.272 -14.838  23.740  1.00  0.00    -0.550 OA
ATOM     24  O   UNL     1       8.823 -15.762  25.760  1.00  0.00    -0.550 OA
ENDBRANCH  21  22
ENDBRANCH  20  21
ENDBRANCH  19  20
ENDBRANCH  18  19
ENDBRANCH  17  18
ENDBRANCH  16  17
ENDBRANCH  15  16
ENDBRANCH  14  15
ENDBRANCH  13  14
ENDBRANCH   1  13
TORSDOF 20
ENDMDL
MODEL 4
REMARK VINA RESULT:    -4.585      2.719      6.198
REMARK INTER + INTRA:         -13.273
REMARK INTER:                  -9.405
REMARK INTRA:                  -3.868
REMARK UNBOUND:                -3.327
REMARK SMILES CCCCCCCCCCCCCCCCCCCCCC(=O)[O-]
REMARK SMILES IDX 12 1 11 2 10 3 9 4 8 5 7 6 6 7 5 8 4 9 3 10 2 11 1 12 13 13
REMARK SMILES IDX 14 14 15 15 16 16 17 17 18 18 19 19 20 20 21 21 22 22 23 23
REMARK SMILES IDX 24 24
REMARK H PARENT
REMARK Flexibility Score: inf
ROOT
ATOM      1  C   UNL     1       9.231 -18.454  21.953  1.00  0.00     0.000 C 
ENDROOT
BRANCH   1   2
ATOM      2  C   UNL     1       9.167 -19.477  23.099  1.00  0.00     0.000 C 
BRANCH   2   3
ATOM      3  C   UNL     1       7.734 -19.688  23.621  1.00  0.00     0.000 C 
BRANCH   3   4
ATOM      4  C   UNL     1       7.201 -21.100  23.328  1.00  0.00    -0.000 C 
BRANCH   4   5
ATOM      5  C   UNL     1       6.673 -21.247  21.892  1.00  0.00    -0.000 C 
BRANCH   5   6
ATOM      6  C   UNL     1       7.473 -22.296  21.113  1.00  0.00    -0.000 C 
BRANCH   6   7
ATOM      7  C   UNL     1       8.396 -21.628  20.082  1.00  0.00    -0.000 C 
BRANCH   7   8
ATOM      8  C   UNL     1       9.878 -22.009  20.264  1.00  0.00    -0.000 C 
BRANCH   8   9
ATOM      9  C   UNL     1      10.220 -22.664  21.616  1.00  0.00    -0.000 C 
BRANCH   9  10
ATOM     10  C   UNL     1      11.560 -22.179  22.193  1.00  0.00    -0.000 C 
BRANCH  10  11
ATOM     11  C   UNL     1      12.443 -21.575  21.095  1.00  0.00    -0.003 C 
ATOM     12  C   UNL     1      12.649 -20.079  21.316  1.00  0.00     0.004 C 
ENDBRANCH  10  11
ENDBRANCH   9  10
ENDBRANCH   8   9
ENDBRANCH   7   8
ENDBRANCH   6   7
ENDBRANCH   5   6
ENDBRANCH   4   5
ENDBRANCH   3   4
ENDBRANCH   2   3
ENDBRANCH   1   2
BRANCH   1  13
ATOM     13  C   UNL     1       7.883 -17.751  21.711  1.00  0.00     0.000 C 
BRANCH  13  14
ATOM     14  C   UNL     1       7.926 -16.255  22.092  1.00  0.00     0.000 C 
BRANCH  14  15
ATOM     15  C   UNL     1       7.834 -15.995  23.608  1.00  0.00     0.000 C 
BRANCH  15  16
ATOM     16  C   UNL     1       9.042 -15.267  24.224  1.00  0.00     0.000 C 
BRANCH  16  17
ATOM     17  C   UNL     1      10.219 -16.177  24.623  1.00  0.00     0.000 C 
BRANCH  17  18
ATOM     18  C   UNL     1      11.394 -16.110  23.633  1.00  0.00     0.000 C 
BRANCH  18  19
ATOM     19  C   UNL     1      12.514 -17.111  23.987  1.00  0.00     0.000 C 
BRANCH  19  20
ATOM     20  C   UNL     1      12.144 -18.077  25.127  1.00  0.00     0.006 C 
BRANCH  20  21
ATOM     21  C   UNL     1      12.513 -19.532  24.824  1.00  0.00     0.053 C 
BRANCH  21  22
ATOM     22  C   UNL     1      13.521 -20.031  25.809  1.00  0.00     0.041 C 
ATOM     23  O   UNL     1      14.247 -19.221  26.441  1.00  0.00    -0.550 OA
ATOM     24  O   UNL     1      13.627 -21.391  26.066  1.00  0.00    -0.550 OA
ENDBRANCH  21  22
ENDBRANCH  20  21
ENDBRANCH  19  20
ENDBRANCH  18  19
ENDBRANCH  17  18
ENDBRANCH  16  17
ENDBRANCH  15  16
ENDBRANCH  14  15
ENDBRANCH  13  14
ENDBRANCH   1  13
TORSDOF 20
ENDMDL
MODEL 5
REMARK VINA RESULT:    -4.543      2.336      5.416
REMARK INTER + INTRA:         -13.183
REMARK INTER:                  -9.296
REMARK INTRA:                  -3.886
REMARK UNBOUND:                -3.327
REMARK SMILES CCCCCCCCCCCCCCCCCCCCCC(=O)[O-]
REMARK SMILES IDX 12 1 11 2 10 3 9 4 8 5 7 6 6 7 5 8 4 9 3 10 2 11 1 12 13 13
REMARK SMILES IDX 14 14 15 15 16 16 17 17 18 18 19 19 20 20 21 21 22 22 23 23
REMARK SMILES IDX 24 24
REMARK H PARENT
REMARK Flexibility Score: inf
ROOT
ATOM      1  C   UNL     1       7.261 -21.126  23.080  1.00  0.00     0.000 C 
ENDROOT
BRANCH   1   2
ATOM      2  C   UNL     1       7.512 -21.714  21.682  1.00  0.00     0.000 C 
BRANCH   2   3
ATOM      3  C   UNL     1       8.436 -22.944  21.717  1.00  0.00     0.000 C 
BRANCH   3   4
ATOM      4  C   UNL     1       9.821 -22.661  21.113  1.00  0.00    -0.000 C 
BRANCH   4   5
ATOM      5  C   UNL     1      10.922 -22.554  22.181  1.00  0.00    -0.000 C 
BRANCH   5   6
ATOM      6  C   UNL     1      12.180 -21.889  21.614  1.00  0.00    -0.000 C 
BRANCH   6   7
ATOM      7  C   UNL     1      11.989 -21.524  20.134  1.00  0.00    -0.000 C 
BRANCH   7   8
ATOM      8  C   UNL     1      13.130 -20.654  19.576  1.00  0.00    -0.000 C 
BRANCH   8   9
ATOM      9  C   UNL     1      14.306 -20.423  20.544  1.00  0.00    -0.000 C 
BRANCH   9  10
ATOM     10  C   UNL     1      14.590 -18.933  20.797  1.00  0.00    -0.000 C 
BRANCH  10  11
ATOM     11  C   UNL     1      15.352 -18.736  22.113  1.00  0.00    -0.003 C 
ATOM     12  C   UNL     1      14.844 -19.691  23.190  1.00  0.00     0.004 C 
ENDBRANCH  10  11
ENDBRANCH   9  10
ENDBRANCH   8   9
ENDBRANCH   7   8
ENDBRANCH   6   7
ENDBRANCH   5   6
ENDBRANCH   4   5
ENDBRANCH   3   4
ENDBRANCH   2   3
ENDBRANCH   1   2
BRANCH   1  13
ATOM     13  C   UNL     1       7.207 -19.588  23.075  1.00  0.00     0.000 C 
BRANCH  13  14
ATOM     14  C   UNL     1       7.588 -18.992  21.703  1.00  0.00     0.000 C 
BRANCH  14  15
ATOM     15  C   UNL     1       7.988 -17.505  21.760  1.00  0.00     0.000 C 
BRANCH  15  16
ATOM     16  C   UNL     1       9.440 -17.200  21.347  1.00  0.00     0.000 C 
BRANCH  16  17
ATOM     17  C   UNL     1      10.405 -18.398  21.423  1.00  0.00     0.000 C 
BRANCH  17  18
ATOM     18  C   UNL     1      11.425 -18.275  22.568  1.00  0.00     0.000 C 
BRANCH  18  19
ATOM     19  C   UNL     1      11.037 -19.134  23.791  1.00  0.00     0.000 C 
BRANCH  19  20
ATOM     20  C   UNL     1      10.220 -18.372  24.849  1.00  0.00     0.006 C 
BRANCH  20  21
ATOM     21  C   UNL     1      10.679 -16.923  25.031  1.00  0.00     0.053 C 
BRANCH  21  22
ATOM     22  C   UNL     1       9.500 -16.003  25.070  1.00  0.00     0.041 C 
ATOM     23  O   UNL     1       8.623 -16.132  25.962  1.00  0.00    -0.550 OA
ATOM     24  O   UNL     1       9.395 -14.970  24.148  1.00  0.00    -0.550 OA
ENDBRANCH  21  22
ENDBRANCH  20  21
ENDBRANCH  19  20
ENDBRANCH  18  19
ENDBRANCH  17  18
ENDBRANCH  16  17
ENDBRANCH  15  16
ENDBRANCH  14  15
ENDBRANCH  13  14
ENDBRANCH   1  13
TORSDOF 20
ENDMDL
MODEL 6
REMARK VINA RESULT:    -4.543      2.835      5.005
REMARK INTER + INTRA:         -13.182
REMARK INTER:                  -9.142
REMARK INTRA:                  -4.040
REMARK UNBOUND:                -3.327
REMARK SMILES CCCCCCCCCCCCCCCCCCCCCC(=O)[O-]
REMARK SMILES IDX 12 1 11 2 10 3 9 4 8 5 7 6 6 7 5 8 4 9 3 10 2 11 1 12 13 13
REMARK SMILES IDX 14 14 15 15 16 16 17 17 18 18 19 19 20 20 21 21 22 22 23 23
REMARK SMILES IDX 24 24
REMARK H PARENT
REMARK Flexibility Score: inf
ROOT
ATOM      1  C   UNL     1       7.099 -20.320  22.329  1.00  0.00     0.000 C 
ENDROOT
BRANCH   1   2
ATOM      2  C   UNL     1       7.851 -19.215  21.570  1.00  0.00     0.000 C 
BRANCH   2   3
ATOM      3  C   UNL     1       9.308 -19.064  22.041  1.00  0.00     0.000 C 
BRANCH   3   4
ATOM      4  C   UNL     1       9.976 -17.791  21.499  1.00  0.00    -0.000 C 
BRANCH   4   5
ATOM      5  C   UNL     1      11.240 -17.405  22.285  1.00  0.00    -0.000 C 
BRANCH   5   6
ATOM      6  C   UNL     1      11.098 -16.014  22.913  1.00  0.00    -0.000 C 
BRANCH   6   7
ATOM      7  C   UNL     1      10.599 -16.114  24.362  1.00  0.00    -0.000 C 
BRANCH   7   8
ATOM      8  C   UNL     1       9.183 -15.538  24.554  1.00  0.00    -0.000 C 
BRANCH   8   9
ATOM      9  C   UNL     1       8.064 -16.589  24.681  1.00  0.00    -0.000 C 
BRANCH   9  10
ATOM     10  C   UNL     1       7.057 -16.534  23.522  1.00  0.00    -0.000 C 
BRANCH  10  11
ATOM     11  C   UNL     1       7.342 -15.339  22.604  1.00  0.00    -0.003 C 
ATOM     12  C   UNL     1       6.885 -15.622  21.176  1.00  0.00     0.004 C 
ENDBRANCH  10  11
ENDBRANCH   9  10
ENDBRANCH   8   9
ENDBRANCH   7   8
ENDBRANCH   6   7
ENDBRANCH   5   6
ENDBRANCH   4   5
ENDBRANCH   3   4
ENDBRANCH   2   3
ENDBRANCH   1   2
BRANCH   1  13
ATOM     13  C   UNL     1       7.997 -21.523  22.667  1.00  0.00     0.000 C 
BRANCH  13  14
ATOM     14  C   UNL     1       8.024 -22.572  21.534  1.00  0.00     0.000 C 
BRANCH  14  15
ATOM     15  C   UNL     1       9.443 -22.928  21.049  1.00  0.00     0.000 C 
BRANCH  15  16
ATOM     16  C   UNL     1      10.554 -22.770  22.103  1.00  0.00     0.000 C 
BRANCH  16  17
ATOM     17  C   UNL     1      11.636 -21.728  21.760  1.00  0.00     0.000 C 
BRANCH  17  18
ATOM     18  C   UNL     1      12.059 -21.765  20.281  1.00  0.00     0.000 C 
BRANCH  18  19
ATOM     19  C   UNL     1      11.682 -20.468  19.533  1.00  0.00     0.000 C 
BRANCH  19  20
ATOM     20  C   UNL     1      10.821 -20.704  18.280  1.00  0.00     0.006 C 
BRANCH  20  21
ATOM     21  C   UNL     1       9.387 -20.188  18.431  1.00  0.00     0.053 C 
BRANCH  21  22
ATOM     22  C   UNL     1       9.263 -18.814  17.854  1.00  0.00     0.041 C 
ATOM     23  O   UNL     1       8.435 -17.997  18.333  1.00  0.00    -0.550 OA
ATOM     24  O   UNL     1      10.096 -18.419  16.816  1.00  0.00    -0.550 OA
ENDBRANCH  21  22
ENDBRANCH  20  21
ENDBRANCH  19  20
ENDBRANCH  18  19
ENDBRANCH  17  18
ENDBRANCH  16  17
ENDBRANCH  15  16
ENDBRANCH  14  15
ENDBRANCH  13  14
ENDBRANCH   1  13
TORSDOF 20
ENDMDL
MODEL 7
REMARK VINA RESULT:    -4.524      2.588      6.612
REMARK INTER + INTRA:         -13.142
REMARK INTER:                  -9.181
REMARK INTRA:                  -3.960
REMARK UNBOUND:                -3.327
REMARK SMILES CCCCCCCCCCCCCCCCCCCCCC(=O)[O-]
REMARK SMILES IDX 12 1 11 2 10 3 9 4 8 5 7 6 6 7 5 8 4 9 3 10 2 11 1 12 13 13
REMARK SMILES IDX 14 14 15 15 16 16 17 17 18 18 19 19 20 20 21 21 22 22 23 23
REMARK SMILES IDX 24 24
REMARK H PARENT
REMARK Flexibility Score: inf
ROOT
ATOM      1  C   UNL     1      11.432 -17.405  23.062  1.00  0.00     0.000 C 
ENDROOT
BRANCH   1   2
ATOM      2  C   UNL     1      10.895 -18.662  23.765  1.00  0.00     0.000 C 
BRANCH   2   3
ATOM      3  C   UNL     1      11.556 -19.953  23.250  1.00  0.00     0.000 C 
BRANCH   3   4
ATOM      4  C   UNL     1      10.528 -21.009  22.814  1.00  0.00    -0.000 C 
BRANCH   4   5
ATOM      5  C   UNL     1      10.972 -21.785  21.562  1.00  0.00    -0.000 C 
BRANCH   5   6
ATOM      6  C   UNL     1      10.032 -22.962  21.278  1.00  0.00    -0.000 C 
BRANCH   6   7
ATOM      7  C   UNL     1       8.680 -22.766  21.981  1.00  0.00    -0.000 C 
BRANCH   7   8
ATOM      8  C   UNL     1       7.580 -22.248  21.036  1.00  0.00    -0.000 C 
BRANCH   8   9
ATOM      9  C   UNL     1       6.858 -20.974  21.516  1.00  0.00    -0.000 C 
BRANCH   9  10
ATOM     10  C   UNL     1       6.812 -20.853  23.048  1.00  0.00    -0.000 C 
BRANCH  10  11
ATOM     11  C   UNL     1       7.275 -19.463  23.502  1.00  0.00    -0.003 C 
ATOM     12  C   UNL     1       6.957 -19.233  24.976  1.00  0.00     0.004 C 
ENDBRANCH  10  11
ENDBRANCH   9  10
ENDBRANCH   8   9
ENDBRANCH   7   8
ENDBRANCH   6   7
ENDBRANCH   5   6
ENDBRANCH   4   5
ENDBRANCH   3   4
ENDBRANCH   2   3
ENDBRANCH   1   2
BRANCH   1  13
ATOM     13  C   UNL     1      10.877 -16.104  23.669  1.00  0.00     0.000 C 
BRANCH  13  14
ATOM     14  C   UNL     1      10.058 -16.359  24.953  1.00  0.00     0.000 C 
BRANCH  14  15
ATOM     15  C   UNL     1       8.580 -15.936  24.842  1.00  0.00     0.000 C 
BRANCH  15  16
ATOM     16  C   UNL     1       8.211 -15.171  23.557  1.00  0.00     0.000 C 
BRANCH  16  17
ATOM     17  C   UNL     1       6.962 -15.694  22.822  1.00  0.00     0.000 C 
BRANCH  17  18
ATOM     18  C   UNL     1       7.128 -15.713  21.293  1.00  0.00     0.000 C 
BRANCH  18  19
ATOM     19  C   UNL     1       7.492 -17.116  20.763  1.00  0.00     0.000 C 
BRANCH  19  20
ATOM     20  C   UNL     1       8.974 -17.267  20.375  1.00  0.00     0.006 C 
BRANCH  20  21
ATOM     21  C   UNL     1       9.404 -18.727  20.205  1.00  0.00     0.053 C 
BRANCH  21  22
ATOM     22  C   UNL     1      10.609 -18.818  19.325  1.00  0.00     0.041 C 
ATOM     23  O   UNL     1      11.707 -18.332  19.700  1.00  0.00    -0.550 OA
ATOM     24  O   UNL     1      10.532 -19.483  18.108  1.00  0.00    -0.550 OA
ENDBRANCH  21  22
ENDBRANCH  20  21
ENDBRANCH  19  20
ENDBRANCH  18  19
ENDBRANCH  17  18
ENDBRANCH  16  17
ENDBRANCH  15  16
ENDBRANCH  14  15
ENDBRANCH  13  14
ENDBRANCH   1  13
TORSDOF 20
ENDMDL
MODEL 8
REMARK VINA RESULT:    -4.520      2.111      4.432
REMARK INTER + INTRA:         -13.131
REMARK INTER:                  -9.147
REMARK INTRA:                  -3.984
REMARK UNBOUND:                -3.327
REMARK SMILES CCCCCCCCCCCCCCCCCCCCCC(=O)[O-]
REMARK SMILES IDX 12 1 11 2 10 3 9 4 8 5 7 6 6 7 5 8 4 9 3 10 2 11 1 12 13 13
REMARK SMILES IDX 14 14 15 15 16 16 17 17 18 18 19 19 20 20 21 21 22 22 23 23
REMARK SMILES IDX 24 24
REMARK H PARENT
REMARK Flexibility Score: inf
ROOT
ATOM      1  C   UNL     1      10.702 -22.210  21.057  1.00  0.00     0.000 C 
ENDROOT
BRANCH   1   2
ATOM      2  C   UNL     1      11.671 -21.127  21.558  1.00  0.00     0.000 C 
BRANCH   2   3
ATOM      3  C   UNL     1      11.147 -20.401  22.809  1.00  0.00     0.000 C 
BRANCH   3   4
ATOM      4  C   UNL     1      10.706 -18.959  22.514  1.00  0.00    -0.000 C 
BRANCH   4   5
ATOM      5  C   UNL     1      10.994 -18.536  21.064  1.00  0.00    -0.000 C 
BRANCH   5   6
ATOM      6  C   UNL     1      10.020 -17.447  20.601  1.00  0.00    -0.000 C 
BRANCH   6   7
ATOM      7  C   UNL     1       8.713 -18.065  20.080  1.00  0.00    -0.000 C 
BRANCH   7   8
ATOM      8  C   UNL     1       8.824 -18.576  18.632  1.00  0.00    -0.000 C 
BRANCH   8   9
ATOM      9  C   UNL     1       8.988 -20.102  18.492  1.00  0.00    -0.000 C 
BRANCH   9  10
ATOM     10  C   UNL     1      10.354 -20.507  17.915  1.00  0.00    -0.000 C 
BRANCH  10  11
ATOM     11  C   UNL     1      11.147 -19.273  17.468  1.00  0.00    -0.003 C 
ATOM     12  C   UNL     1      12.636 -19.445  17.752  1.00  0.00     0.004 C 
ENDBRANCH  10  11
ENDBRANCH   9  10
ENDBRANCH   8   9
ENDBRANCH   7   8
ENDBRANCH   6   7
ENDBRANCH   5   6
ENDBRANCH   4   5
ENDBRANCH   3   4
ENDBRANCH   2   3
ENDBRANCH   1   2
BRANCH   1  13
ATOM     13  C   UNL     1       9.660 -22.608  22.117  1.00  0.00     0.000 C 
BRANCH  13  14
ATOM     14  C   UNL     1       8.309 -23.014  21.488  1.00  0.00     0.000 C 
BRANCH  14  15
ATOM     15  C   UNL     1       7.387 -21.820  21.171  1.00  0.00     0.000 C 
BRANCH  15  16
ATOM     16  C   UNL     1       7.433 -20.667  22.190  1.00  0.00     0.000 C 
BRANCH  16  17
ATOM     17  C   UNL     1       6.434 -20.787  23.357  1.00  0.00     0.000 C 
BRANCH  17  18
ATOM     18  C   UNL     1       7.014 -20.302  24.697  1.00  0.00     0.000 C 
BRANCH  18  19
ATOM     19  C   UNL     1       7.933 -19.073  24.524  1.00  0.00     0.000 C 
BRANCH  19  20
ATOM     20  C   UNL     1       7.177 -17.733  24.497  1.00  0.00     0.006 C 
BRANCH  20  21
ATOM     21  C   UNL     1       7.922 -16.640  23.726  1.00  0.00     0.053 C 
BRANCH  21  22
ATOM     22  C   UNL     1       8.911 -15.955  24.614  1.00  0.00     0.041 C 
ATOM     23  O   UNL     1       8.710 -15.885  25.854  1.00  0.00    -0.550 OA
ATOM     24  O   UNL     1      10.082 -15.436  24.078  1.00  0.00    -0.550 OA
ENDBRANCH  21  22
ENDBRANCH  20  21
ENDBRANCH  19  20
ENDBRANCH  18  19
ENDBRANCH  17  18
ENDBRANCH  16  17
ENDBRANCH  15  16
ENDBRANCH  14  15
ENDBRANCH  13  14
ENDBRANCH   1  13
TORSDOF 20
ENDMDL
MODEL 9
REMARK VINA RESULT:    -4.507      2.224      6.129
REMARK INTER + INTRA:         -13.104
REMARK INTER:                  -9.410
REMARK INTRA:                  -3.694
REMARK UNBOUND:                -3.327
REMARK SMILES CCCCCCCCCCCCCCCCCCCCCC(=O)[O-]
REMARK SMILES IDX 12 1 11 2 10 3 9 4 8 5 7 6 6 7 5 8 4 9 3 10 2 11 1 12 13 13
REMARK SMILES IDX 14 14 15 15 16 16 17 17 18 18 19 19 20 20 21 21 22 22 23 23
REMARK SMILES IDX 24 24
REMARK H PARENT
REMARK Flexibility Score: inf
ROOT
ATOM      1  C   UNL     1      11.270 -19.324  20.828  1.00  0.00     0.000 C 
ENDROOT
BRANCH   1   2
ATOM      2  C   UNL     1      12.202 -20.432  21.344  1.00  0.00     0.000 C 
BRANCH   2   3
ATOM      3  C   UNL     1      11.750 -21.835  20.901  1.00  0.00     0.000 C 
BRANCH   3   4
ATOM      4  C   UNL     1      11.146 -22.653  22.053  1.00  0.00    -0.000 C 
BRANCH   4   5
ATOM      5  C   UNL     1       9.666 -22.999  21.820  1.00  0.00    -0.000 C 
BRANCH   5   6
ATOM      6  C   UNL     1       9.145 -22.360  20.528  1.00  0.00    -0.000 C 
BRANCH   6   7
ATOM      7  C   UNL     1       7.665 -21.973  20.664  1.00  0.00    -0.000 C 
BRANCH   7   8
ATOM      8  C   UNL     1       7.455 -20.648  21.422  1.00  0.00    -0.000 C 
BRANCH   8   9
ATOM      9  C   UNL     1       6.573 -20.751  22.681  1.00  0.00    -0.000 C 
BRANCH   9  10
ATOM     10  C   UNL     1       7.335 -20.420  23.974  1.00  0.00    -0.000 C 
BRANCH  10  11
ATOM     11  C   UNL     1       6.798 -19.133  24.612  1.00  0.00    -0.003 C 
ATOM     12  C   UNL     1       7.603 -18.758  25.852  1.00  0.00     0.004 C 
ENDBRANCH  10  11
ENDBRANCH   9  10
ENDBRANCH   8   9
ENDBRANCH   7   8
ENDBRANCH   6   7
ENDBRANCH   5   6
ENDBRANCH   4   5
ENDBRANCH   3   4
ENDBRANCH   2   3
ENDBRANCH   1   2
BRANCH   1  13
ATOM     13  C   UNL     1      10.432 -18.685  21.949  1.00  0.00     0.000 C 
BRANCH  13  14
ATOM     14  C   UNL     1      10.853 -19.178  23.350  1.00  0.00     0.000 C 
BRANCH  14  15
ATOM     15  C   UNL     1      11.043 -18.045  24.377  1.00  0.00     0.000 C 
BRANCH  15  16
ATOM     16  C   UNL     1      11.591 -16.725  23.804  1.00  0.00     0.000 C 
BRANCH  16  17
ATOM     17  C   UNL     1      10.569 -15.576  23.719  1.00  0.00     0.000 C 
BRANCH  17  18
ATOM     18  C   UNL     1       9.449 -15.689  24.767  1.00  0.00     0.000 C 
BRANCH  18  19
ATOM     19  C   UNL     1       8.046 -15.532  24.141  1.00  0.00     0.000 C 
BRANCH  19  20
ATOM     20  C   UNL     1       7.896 -16.225  22.775  1.00  0.00     0.006 C 
BRANCH  20  21
ATOM     21  C   UNL     1       7.094 -15.396  21.767  1.00  0.00     0.053 C 
BRANCH  21  22
ATOM     22  C   UNL     1       7.149 -16.026  20.412  1.00  0.00     0.041 C 
ATOM     23  O   UNL     1       7.792 -17.093  20.233  1.00  0.00    -0.550 OA
ATOM     24  O   UNL     1       6.449 -15.461  19.355  1.00  0.00    -0.550 OA
ENDBRANCH  21  22
ENDBRANCH  20  21
ENDBRANCH  19  20
ENDBRANCH  18  19
ENDBRANCH  17  18
ENDBRANCH  16  17
ENDBRANCH  15  16
ENDBRANCH  14  15
ENDBRANCH  13  14
ENDBRANCH   1  13
TORSDOF 20
ENDMDL
