MODEL 1
REMARK VINA RESULT:    -3.975      0.000      0.000
REMARK INTER + INTRA:         -12.841
REMARK INTER:                  -9.086
REMARK INTRA:                  -3.755
REMARK UNBOUND:                -3.755
REMARK SMILES CCCCCCCCCCCCCCCCCCCCCCCC(=O)[O-]
REMARK SMILES IDX 13 1 14 2 15 3 16 4 17 5 18 6 19 7 20 8 21 9 22 10 23 11
REMARK SMILES IDX 24 12 25 13 26 14 12 15 11 16 10 17 9 18 8 19 7 20 6 21 5 22
REMARK SMILES IDX 4 23 3 24 2 25 1 26
REMARK H PARENT
REMARK Flexibility Score: inf
ROOT
ATOM      1  C   UNL     1      10.784   3.559  -4.602  1.00  0.00     0.000 C 
ENDROOT
BRANCH   1   2
ATOM      2  C   UNL     1      11.398   2.193  -4.955  1.00  0.00     0.000 C 
BRANCH   2   3
ATOM      3  C   UNL     1      11.811   1.389  -3.714  1.00  0.00     0.000 C 
BRANCH   3   4
ATOM      4  C   UNL     1      12.034   2.316  -2.512  1.00  0.00     0.000 C 
BRANCH   4   5
ATOM      5  C   UNL     1      12.492   1.522  -1.280  1.00  0.00     0.000 C 
BRANCH   5   6
ATOM      6  C   UNL     1      11.419   1.471  -0.181  1.00  0.00     0.000 C 
BRANCH   6   7
ATOM      7  C   UNL     1      10.335   2.547  -0.369  1.00  0.00     0.000 C 
BRANCH   7   8
ATOM      8  C   UNL     1       9.855   3.134   0.969  1.00  0.00     0.000 C 
BRANCH   8   9
ATOM      9  C   UNL     1       8.492   3.836   0.843  1.00  0.00     0.000 C 
BRANCH   9  10
ATOM     10  C   UNL     1       8.522   5.285   1.355  1.00  0.00     0.006 C 
BRANCH  10  11
ATOM     11  C   UNL     1       9.947   5.804   1.587  1.00  0.00     0.053 C 
BRANCH  11  12
ATOM     12  C   UNL     1       9.936   7.285   1.798  1.00  0.00     0.041 C 
ATOM     13  O   UNL     1       9.951   8.066   0.810  1.00  0.00    -0.550 OA
ATOM     14  O   UNL     1       9.958   7.804   3.087  1.00  0.00    -0.550 OA
ENDBRANCH  11  12
ENDBRANCH  10  11
ENDBRANCH   9  10
ENDBRANCH   8   9
ENDBRANCH   7   8
ENDBRANCH   6   7
ENDBRANCH   5   6
ENDBRANCH   4   5
ENDBRANCH   3   4
ENDBRANCH   2   3
ENDBRANCH   1   2
BRANCH   1  15
ATOM     15  C   UNL     1      10.741   4.510  -5.809  1.00  0.00     0.000 C 
BRANCH  15  16
ATOM     16  C   UNL     1       9.531   5.465  -5.782  1.00  0.00     0.000 C 
BRANCH  16  17
ATOM     17  C   UNL     1       9.876   6.959  -5.641  1.00  0.00     0.000 C 
BRANCH  17  18
ATOM     18  C   UNL     1      11.081   7.278  -4.736  1.00  0.00    -0.000 C 
BRANCH  18  19
ATOM     19  C   UNL     1      10.697   7.682  -3.296  1.00  0.00    -0.000 C 
BRANCH  19  20
ATOM     20  C   UNL     1      10.811   6.512  -2.302  1.00  0.00    -0.000 C 
BRANCH  20  21
ATOM     21  C   UNL     1       9.482   5.759  -2.125  1.00  0.00    -0.000 C 
BRANCH  21  22
ATOM     22  C   UNL     1       8.284   6.709  -1.955  1.00  0.00    -0.000 C 
BRANCH  22  23
ATOM     23  C   UNL     1       7.219   6.530  -3.051  1.00  0.00    -0.000 C 
BRANCH  23  24
ATOM     24  C   UNL     1       5.876   5.962  -2.560  1.00  0.00    -0.000 C 
BRANCH  24  25
ATOM     25  C   UNL     1       6.026   4.620  -1.828  1.00  0.00    -0.003 C 
ATOM     26  C   UNL     1       6.079   3.456  -2.815  1.00  0.00     0.004 C 
ENDBRANCH  24  25
ENDBRANCH  23  24
ENDBRANCH  22  23
ENDBRANCH  21  22
ENDBRANCH  20  21
ENDBRANCH  19  20
ENDBRANCH  18  19
ENDBRANCH  17  18
ENDBRANCH  16  17
ENDBRANCH  15  16
ENDBRANCH   1  15
TORSDOF 22
ENDMDL
MODEL 2
REMARK VINA RESULT:    -3.927      1.943      3.481
REMARK INTER + INTRA:         -12.732
REMARK INTER:                  -8.410
REMARK INTRA:                  -4.321
REMARK UNBOUND:                -3.755
REMARK SMILES CCCCCCCCCCCCCCCCCCCCCCCC(=O)[O-]
REMARK SMILES IDX 13 1 14 2 15 3 16 4 17 5 18 6 19 7 20 8 21 9 22 10 23 11
REMARK SMILES IDX 24 12 25 13 26 14 12 15 11 16 10 17 9 18 8 19 7 20 6 21 5 22
REMARK SMILES IDX 4 23 3 24 2 25 1 26
REMARK H PARENT
REMARK Flexibility Score: inf
ROOT
ATOM      1  C   UNL     1      12.230   1.928  -1.790  1.00  0.00     0.000 C 
ENDROOT
BRANCH   1   2
ATOM      2  C   UNL     1      11.353   1.949  -0.527  1.00  0.00     0.000 C 
BRANCH   2   3
ATOM      3  C   UNL     1       9.851   1.941  -0.846  1.00  0.00     0.000 C 
BRANCH   3   4
ATOM      4  C   UNL     1       9.062   2.719   0.215  1.00  0.00     0.000 C 
BRANCH   4   5
ATOM      5  C   UNL     1       9.994   3.609   1.052  1.00  0.00     0.000 C 
BRANCH   5   6
ATOM      6  C   UNL     1       9.347   4.955   1.418  1.00  0.00     0.000 C 
BRANCH   6   7
ATOM      7  C   UNL     1      10.294   5.860   2.225  1.00  0.00     0.000 C 
BRANCH   7   8
ATOM      8  C   UNL     1       9.962   7.352   2.056  1.00  0.00     0.000 C 
BRANCH   8   9
ATOM      9  C   UNL     1       8.880   7.826   3.040  1.00  0.00     0.000 C 
BRANCH   9  10
ATOM     10  C   UNL     1       7.520   8.057   2.361  1.00  0.00     0.006 C 
BRANCH  10  11
ATOM     11  C   UNL     1       6.335   7.767   3.291  1.00  0.00     0.053 C 
BRANCH  11  12
ATOM     12  C   UNL     1       6.253   6.304   3.592  1.00  0.00     0.041 C 
ATOM     13  O   UNL     1       6.178   5.467   2.653  1.00  0.00    -0.550 OA
ATOM     14  O   UNL     1       6.208   5.866   4.909  1.00  0.00    -0.550 OA
ENDBRANCH  11  12
ENDBRANCH  10  11
ENDBRANCH   9  10
ENDBRANCH   8   9
ENDBRANCH   7   8
ENDBRANCH   6   7
ENDBRANCH   5   6
ENDBRANCH   4   5
ENDBRANCH   3   4
ENDBRANCH   2   3
ENDBRANCH   1   2
BRANCH   1  15
ATOM     15  C   UNL     1      11.412   1.661  -3.065  1.00  0.00     0.000 C 
BRANCH  15  16
ATOM     16  C   UNL     1      11.420   2.849  -4.047  1.00  0.00     0.000 C 
BRANCH  16  17
ATOM     17  C   UNL     1      10.165   3.741  -4.010  1.00  0.00     0.000 C 
BRANCH  17  18
ATOM     18  C   UNL     1      10.396   5.191  -3.545  1.00  0.00    -0.000 C 
BRANCH  18  19
ATOM     19  C   UNL     1      10.735   5.324  -2.045  1.00  0.00    -0.000 C 
BRANCH  19  20
ATOM     20  C   UNL     1      10.752   6.787  -1.568  1.00  0.00    -0.000 C 
BRANCH  20  21
ATOM     21  C   UNL     1       9.594   7.611  -2.157  1.00  0.00    -0.000 C 
BRANCH  21  22
ATOM     22  C   UNL     1       8.413   7.750  -1.182  1.00  0.00    -0.000 C 
BRANCH  22  23
ATOM     23  C   UNL     1       7.164   6.977  -1.641  1.00  0.00    -0.000 C 
BRANCH  23  24
ATOM     24  C   UNL     1       6.946   5.625  -0.938  1.00  0.00    -0.000 C 
BRANCH  24  25
ATOM     25  C   UNL     1       6.002   4.694  -1.713  1.00  0.00    -0.003 C 
ATOM     26  C   UNL     1       6.785   3.718  -2.588  1.00  0.00     0.004 C 
ENDBRANCH  24  25
ENDBRANCH  23  24
ENDBRANCH  22  23
ENDBRANCH  21  22
ENDBRANCH  20  21
ENDBRANCH  19  20
ENDBRANCH  18  19
ENDBRANCH  17  18
ENDBRANCH  16  17
ENDBRANCH  15  16
ENDBRANCH   1  15
TORSDOF 22
ENDMDL
MODEL 3
REMARK VINA RESULT:    -3.887      1.498      3.749
REMARK INTER + INTRA:         -12.641
REMARK INTER:                  -8.651
REMARK INTRA:                  -3.990
REMARK UNBOUND:                -3.755
REMARK SMILES CCCCCCCCCCCCCCCCCCCCCCCC(=O)[O-]
REMARK SMILES IDX 13 1 14 2 15 3 16 4 17 5 18 6 19 7 20 8 21 9 22 10 23 11
REMARK SMILES IDX 24 12 25 13 26 14 12 15 11 16 10 17 9 18 8 19 7 20 6 21 5 22
REMARK SMILES IDX 4 23 3 24 2 25 1 26
REMARK H PARENT
REMARK Flexibility Score: inf
ROOT
ATOM      1  C   UNL     1      12.249   1.702  -1.958  1.00  0.00     0.000 C 
ENDROOT
BRANCH   1   2
ATOM      2  C   UNL     1      11.683   1.624  -0.531  1.00  0.00     0.000 C 
BRANCH   2   3
ATOM      3  C   UNL     1      10.223   2.093  -0.444  1.00  0.00     0.000 C 
BRANCH   3   4
ATOM      4  C   UNL     1      10.041   3.105   0.694  1.00  0.00     0.000 C 
BRANCH   4   5
ATOM      5  C   UNL     1       8.612   3.668   0.708  1.00  0.00     0.000 C 
BRANCH   5   6
ATOM      6  C   UNL     1       8.068   3.922  -0.707  1.00  0.00     0.000 C 
BRANCH   6   7
ATOM      7  C   UNL     1       7.319   5.262  -0.817  1.00  0.00     0.000 C 
BRANCH   7   8
ATOM      8  C   UNL     1       6.793   5.751   0.543  1.00  0.00     0.000 C 
BRANCH   8   9
ATOM      9  C   UNL     1       6.869   7.280   0.683  1.00  0.00     0.000 C 
BRANCH   9  10
ATOM     10  C   UNL     1       7.537   7.723   1.996  1.00  0.00     0.006 C 
BRANCH  10  11
ATOM     11  C   UNL     1       8.291   6.584   2.692  1.00  0.00     0.053 C 
BRANCH  11  12
ATOM     12  C   UNL     1       9.749   6.905   2.789  1.00  0.00     0.041 C 
ATOM     13  O   UNL     1      10.141   8.099   2.712  1.00  0.00    -0.550 OA
ATOM     14  O   UNL     1      10.680   5.881   2.914  1.00  0.00    -0.550 OA
ENDBRANCH  11  12
ENDBRANCH  10  11
ENDBRANCH   9  10
ENDBRANCH   8   9
ENDBRANCH   7   8
ENDBRANCH   6   7
ENDBRANCH   5   6
ENDBRANCH   4   5
ENDBRANCH   3   4
ENDBRANCH   2   3
ENDBRANCH   1   2
BRANCH   1  15
ATOM     15  C   UNL     1      11.187   1.391  -3.026  1.00  0.00     0.000 C 
BRANCH  15  16
ATOM     16  C   UNL     1      11.677   1.667  -4.461  1.00  0.00     0.000 C 
BRANCH  16  17
ATOM     17  C   UNL     1      11.123   2.949  -5.109  1.00  0.00     0.000 C 
BRANCH  17  18
ATOM     18  C   UNL     1      10.378   3.904  -4.157  1.00  0.00    -0.000 C 
BRANCH  18  19
ATOM     19  C   UNL     1       9.878   5.200  -4.831  1.00  0.00    -0.000 C 
BRANCH  19  20
ATOM     20  C   UNL     1       8.469   5.605  -4.362  1.00  0.00    -0.000 C 
BRANCH  20  21
ATOM     21  C   UNL     1       8.079   7.018  -4.827  1.00  0.00    -0.000 C 
BRANCH  21  22
ATOM     22  C   UNL     1       8.929   8.114  -4.162  1.00  0.00    -0.000 C 
BRANCH  22  23
ATOM     23  C   UNL     1       8.774   8.143  -2.631  1.00  0.00    -0.000 C 
BRANCH  23  24
ATOM     24  C   UNL     1      10.093   8.294  -1.851  1.00  0.00    -0.000 C 
BRANCH  24  25
ATOM     25  C   UNL     1      10.310   7.175  -0.821  1.00  0.00    -0.003 C 
ATOM     26  C   UNL     1      11.074   6.003  -1.431  1.00  0.00     0.004 C 
ENDBRANCH  24  25
ENDBRANCH  23  24
ENDBRANCH  22  23
ENDBRANCH  21  22
ENDBRANCH  20  21
ENDBRANCH  19  20
ENDBRANCH  18  19
ENDBRANCH  17  18
ENDBRANCH  16  17
ENDBRANCH  15  16
ENDBRANCH   1  15
TORSDOF 22
ENDMDL
MODEL 4
REMARK VINA RESULT:    -3.878      1.324      4.621
REMARK INTER + INTRA:         -12.620
REMARK INTER:                  -8.784
REMARK INTRA:                  -3.836
REMARK UNBOUND:                -3.755
REMARK SMILES CCCCCCCCCCCCCCCCCCCCCCCC(=O)[O-]
REMARK SMILES IDX 13 1 14 2 15 3 16 4 17 5 18 6 19 7 20 8 21 9 22 10 23 11
REMARK SMILES IDX 24 12 25 13 26 14 12 15 11 16 10 17 9 18 8 19 7 20 6 21 5 22
REMARK SMILES IDX 4 23 3 24 2 25 1 26
REMARK H PARENT
REMARK Flexibility Score: inf
ROOT
ATOM      1  C   UNL     1      10.382   1.751  -0.518  1.00  0.00     0.000 C 
ENDROOT
BRANCH   1   2
ATOM      2  C   UNL     1      10.026   2.970   0.350  1.00  0.00     0.000 C 
BRANCH   2   3
ATOM      3  C   UNL     1       8.845   3.774  -0.213  1.00  0.00     0.000 C 
BRANCH   3   4
ATOM      4  C   UNL     1       8.584   3.409  -1.680  1.00  0.00     0.000 C 
BRANCH   4   5
ATOM      5  C   UNL     1       7.558   4.362  -2.311  1.00  0.00     0.000 C 
BRANCH   5   6
ATOM      6  C   UNL     1       6.677   5.056  -1.260  1.00  0.00     0.000 C 
BRANCH   6   7
ATOM      7  C   UNL     1       6.866   6.583  -1.251  1.00  0.00     0.000 C 
BRANCH   7   8
ATOM      8  C   UNL     1       6.808   7.172   0.168  1.00  0.00     0.000 C 
BRANCH   8   9
ATOM      9  C   UNL     1       7.883   8.246   0.400  1.00  0.00     0.000 C 
BRANCH   9  10
ATOM     10  C   UNL     1       9.270   7.646   0.688  1.00  0.00     0.006 C 
BRANCH  10  11
ATOM     11  C   UNL     1       9.788   7.995   2.089  1.00  0.00     0.053 C 
BRANCH  11  12
ATOM     12  C   UNL     1       9.628   6.828   3.011  1.00  0.00     0.041 C 
ATOM     13  O   UNL     1       8.481   6.486   3.406  1.00  0.00    -0.550 OA
ATOM     14  O   UNL     1      10.747   6.148   3.474  1.00  0.00    -0.550 OA
ENDBRANCH  11  12
ENDBRANCH  10  11
ENDBRANCH   9  10
ENDBRANCH   8   9
ENDBRANCH   7   8
ENDBRANCH   6   7
ENDBRANCH   5   6
ENDBRANCH   4   5
ENDBRANCH   3   4
ENDBRANCH   2   3
ENDBRANCH   1   2
BRANCH   1  15
ATOM     15  C   UNL     1      11.879   1.699  -0.868  1.00  0.00     0.000 C 
BRANCH  15  16
ATOM     16  C   UNL     1      12.201   2.333  -2.235  1.00  0.00     0.000 C 
BRANCH  16  17
ATOM     17  C   UNL     1      11.725   1.530  -3.460  1.00  0.00     0.000 C 
BRANCH  17  18
ATOM     18  C   UNL     1      11.463   2.358  -4.733  1.00  0.00    -0.000 C 
BRANCH  18  19
ATOM     19  C   UNL     1      10.726   3.690  -4.477  1.00  0.00    -0.000 C 
BRANCH  19  20
ATOM     20  C   UNL     1      10.551   4.526  -5.757  1.00  0.00    -0.000 C 
BRANCH  20  21
ATOM     21  C   UNL     1       9.169   5.195  -5.838  1.00  0.00    -0.000 C 
BRANCH  21  22
ATOM     22  C   UNL     1       9.169   6.622  -5.263  1.00  0.00    -0.000 C 
BRANCH  22  23
ATOM     23  C   UNL     1      10.572   7.254  -5.235  1.00  0.00    -0.000 C 
BRANCH  23  24
ATOM     24  C   UNL     1      11.081   7.635  -3.833  1.00  0.00    -0.000 C 
BRANCH  24  25
ATOM     25  C   UNL     1      10.270   6.981  -2.705  1.00  0.00    -0.003 C 
ATOM     26  C   UNL     1      11.150   6.080  -1.843  1.00  0.00     0.004 C 
ENDBRANCH  24  25
ENDBRANCH  23  24
ENDBRANCH  22  23
ENDBRANCH  21  22
ENDBRANCH  20  21
ENDBRANCH  19  20
ENDBRANCH  18  19
ENDBRANCH  17  18
ENDBRANCH  16  17
ENDBRANCH  15  16
ENDBRANCH   1  15
TORSDOF 22
ENDMDL
MODEL 5
REMARK VINA RESULT:    -3.867      3.082      5.503
REMARK INTER + INTRA:         -12.595
REMARK INTER:                  -8.363
REMARK INTRA:                  -4.232
REMARK UNBOUND:                -3.755
REMARK SMILES CCCCCCCCCCCCCCCCCCCCCCCC(=O)[O-]
REMARK SMILES IDX 13 1 14 2 15 3 16 4 17 5 18 6 19 7 20 8 21 9 22 10 23 11
REMARK SMILES IDX 24 12 25 13 26 14 12 15 11 16 10 17 9 18 8 19 7 20 6 21 5 22
REMARK SMILES IDX 4 23 3 24 2 25 1 26
REMARK H PARENT
REMARK Flexibility Score: inf
ROOT
ATOM      1  C   UNL     1      10.870   5.373  -2.357  1.00  0.00     0.000 C 
ENDROOT
BRANCH   1   2
ATOM      2  C   UNL     1       9.755   4.700  -3.174  1.00  0.00     0.000 C 
BRANCH   2   3
ATOM      3  C   UNL     1       8.357   5.226  -2.816  1.00  0.00     0.000 C 
BRANCH   3   4
ATOM      4  C   UNL     1       7.575   4.189  -1.999  1.00  0.00     0.000 C 
BRANCH   4   5
ATOM      5  C   UNL     1       8.514   3.116  -1.428  1.00  0.00     0.000 C 
BRANCH   5   6
ATOM      6  C   UNL     1       8.935   3.415   0.020  1.00  0.00     0.000 C 
BRANCH   6   7
ATOM      7  C   UNL     1      10.304   2.805   0.371  1.00  0.00     0.000 C 
BRANCH   7   8
ATOM      8  C   UNL     1      10.705   1.675  -0.591  1.00  0.00     0.000 C 
BRANCH   8   9
ATOM      9  C   UNL     1      12.152   1.820  -1.092  1.00  0.00     0.000 C 
BRANCH   9  10
ATOM     10  C   UNL     1      12.233   2.066  -2.607  1.00  0.00     0.006 C 
BRANCH  10  11
ATOM     11  C   UNL     1      11.182   1.275  -3.395  1.00  0.00     0.053 C 
BRANCH  11  12
ATOM     12  C   UNL     1      11.497   1.298  -4.857  1.00  0.00     0.041 C 
ATOM     13  O   UNL     1      11.833   0.238  -5.450  1.00  0.00    -0.550 OA
ATOM     14  O   UNL     1      11.468   2.498  -5.557  1.00  0.00    -0.550 OA
ENDBRANCH  11  12
ENDBRANCH  10  11
ENDBRANCH   9  10
ENDBRANCH   8   9
ENDBRANCH   7   8
ENDBRANCH   6   7
ENDBRANCH   5   6
ENDBRANCH   4   5
ENDBRANCH   3   4
ENDBRANCH   2   3
ENDBRANCH   1   2
BRANCH   1  15
ATOM     15  C   UNL     1      10.392   6.659  -1.661  1.00  0.00     0.000 C 
BRANCH  15  16
ATOM     16  C   UNL     1      10.673   7.930  -2.485  1.00  0.00     0.000 C 
BRANCH  16  17
ATOM     17  C   UNL     1       9.644   9.063  -2.317  1.00  0.00     0.000 C 
BRANCH  17  18
ATOM     18  C   UNL     1       8.498   9.076  -3.347  1.00  0.00    -0.000 C 
BRANCH  18  19
ATOM     19  C   UNL     1       7.133   8.638  -2.775  1.00  0.00    -0.000 C 
BRANCH  19  20
ATOM     20  C   UNL     1       7.060   8.776  -1.244  1.00  0.00    -0.000 C 
BRANCH  20  21
ATOM     21  C   UNL     1       6.590   7.482  -0.559  1.00  0.00    -0.000 C 
BRANCH  21  22
ATOM     22  C   UNL     1       7.416   7.144   0.694  1.00  0.00    -0.000 C 
BRANCH  22  23
ATOM     23  C   UNL     1       8.445   8.234   1.043  1.00  0.00    -0.000 C 
BRANCH  23  24
ATOM     24  C   UNL     1       9.452   7.844   2.141  1.00  0.00    -0.000 C 
BRANCH  24  25
ATOM     25  C   UNL     1       9.964   6.404   1.997  1.00  0.00    -0.003 C 
ATOM     26  C   UNL     1      10.904   6.035   3.142  1.00  0.00     0.004 C 
ENDBRANCH  24  25
ENDBRANCH  23  24
ENDBRANCH  22  23
ENDBRANCH  21  22
ENDBRANCH  20  21
ENDBRANCH  19  20
ENDBRANCH  18  19
ENDBRANCH  17  18
ENDBRANCH  16  17
ENDBRANCH  15  16
ENDBRANCH   1  15
TORSDOF 22
ENDMDL
MODEL 6
REMARK VINA RESULT:    -3.855      1.532      5.014
REMARK INTER + INTRA:         -12.567
REMARK INTER:                  -8.621
REMARK INTRA:                  -3.946
REMARK UNBOUND:                -3.755
REMARK SMILES CCCCCCCCCCCCCCCCCCCCCCCC(=O)[O-]
REMARK SMILES IDX 13 1 14 2 15 3 16 4 17 5 18 6 19 7 20 8 21 9 22 10 23 11
REMARK SMILES IDX 24 12 25 13 26 14 12 15 11 16 10 17 9 18 8 19 7 20 6 21 5 22
REMARK SMILES IDX 4 23 3 24 2 25 1 26
REMARK H PARENT
REMARK Flexibility Score: inf
ROOT
ATOM      1  C   UNL     1      10.106   2.289  -0.200  1.00  0.00     0.000 C 
ENDROOT
BRANCH   1   2
ATOM      2  C   UNL     1       9.997   3.331   0.926  1.00  0.00     0.000 C 
BRANCH   2   3
ATOM      3  C   UNL     1       8.781   4.254   0.764  1.00  0.00     0.000 C 
BRANCH   3   4
ATOM      4  C   UNL     1       8.106   4.037  -0.596  1.00  0.00     0.000 C 
BRANCH   4   5
ATOM      5  C   UNL     1       7.205   5.226  -0.962  1.00  0.00     0.000 C 
BRANCH   5   6
ATOM      6  C   UNL     1       7.387   6.416  -0.005  1.00  0.00     0.000 C 
BRANCH   6   7
ATOM      7  C   UNL     1       7.313   7.770  -0.732  1.00  0.00     0.000 C 
BRANCH   7   8
ATOM      8  C   UNL     1       8.344   8.778  -0.198  1.00  0.00     0.000 C 
BRANCH   8   9
ATOM      9  C   UNL     1       9.507   8.092   0.537  1.00  0.00     0.000 C 
BRANCH   9  10
ATOM     10  C   UNL     1       9.889   8.808   1.843  1.00  0.00     0.006 C 
BRANCH  10  11
ATOM     11  C   UNL     1       8.899   8.534   2.982  1.00  0.00     0.053 C 
BRANCH  11  12
ATOM     12  C   UNL     1       8.853   7.072   3.293  1.00  0.00     0.041 C 
ATOM     13  O   UNL     1       9.918   6.399   3.338  1.00  0.00    -0.550 OA
ATOM     14  O   UNL     1       7.632   6.439   3.486  1.00  0.00    -0.550 OA
ENDBRANCH  11  12
ENDBRANCH  10  11
ENDBRANCH   9  10
ENDBRANCH   8   9
ENDBRANCH   7   8
ENDBRANCH   6   7
ENDBRANCH   5   6
ENDBRANCH   4   5
ENDBRANCH   3   4
ENDBRANCH   2   3
ENDBRANCH   1   2
BRANCH   1  15
ATOM     15  C   UNL     1      11.493   1.626  -0.252  1.00  0.00     0.000 C 
BRANCH  15  16
ATOM     16  C   UNL     1      12.068   1.541  -1.679  1.00  0.00     0.000 C 
BRANCH  16  17
ATOM     17  C   UNL     1      11.033   1.656  -2.813  1.00  0.00     0.000 C 
BRANCH  17  18
ATOM     18  C   UNL     1      11.551   2.279  -4.123  1.00  0.00    -0.000 C 
BRANCH  18  19
ATOM     19  C   UNL     1      10.835   3.586  -4.524  1.00  0.00    -0.000 C 
BRANCH  19  20
ATOM     20  C   UNL     1      10.169   4.289  -3.328  1.00  0.00    -0.000 C 
BRANCH  20  21
ATOM     21  C   UNL     1      11.183   5.037  -2.446  1.00  0.00    -0.000 C 
BRANCH  21  22
ATOM     22  C   UNL     1      10.705   6.449  -2.066  1.00  0.00    -0.000 C 
BRANCH  22  23
ATOM     23  C   UNL     1      10.002   7.175  -3.227  1.00  0.00    -0.000 C 
BRANCH  23  24
ATOM     24  C   UNL     1      10.737   8.423  -3.748  1.00  0.00    -0.000 C 
BRANCH  24  25
ATOM     25  C   UNL     1      11.679   8.114  -4.921  1.00  0.00    -0.003 C 
ATOM     26  C   UNL     1      11.077   7.065  -5.852  1.00  0.00     0.004 C 
ENDBRANCH  24  25
ENDBRANCH  23  24
ENDBRANCH  22  23
ENDBRANCH  21  22
ENDBRANCH  20  21
ENDBRANCH  19  20
ENDBRANCH  18  19
ENDBRANCH  17  18
ENDBRANCH  16  17
ENDBRANCH  15  16
ENDBRANCH   1  15
TORSDOF 22
ENDMDL
MODEL 7
REMARK VINA RESULT:    -3.798      2.538      5.561
REMARK INTER + INTRA:         -12.437
REMARK INTER:                  -8.070
REMARK INTRA:                  -4.367
REMARK UNBOUND:                -3.755
REMARK SMILES CCCCCCCCCCCCCCCCCCCCCCCC(=O)[O-]
REMARK SMILES IDX 13 1 14 2 15 3 16 4 17 5 18 6 19 7 20 8 21 9 22 10 23 11
REMARK SMILES IDX 24 12 25 13 26 14 12 15 11 16 10 17 9 18 8 19 7 20 6 21 5 22
REMARK SMILES IDX 4 23 3 24 2 25 1 26
REMARK H PARENT
REMARK Flexibility Score: inf
ROOT
ATOM      1  C   UNL     1       8.639   4.535  -0.425  1.00  0.00     0.000 C 
ENDROOT
BRANCH   1   2
ATOM      2  C   UNL     1       8.629   3.924  -1.837  1.00  0.00     0.000 C 
BRANCH   2   3
ATOM      3  C   UNL     1       7.259   4.038  -2.522  1.00  0.00     0.000 C 
BRANCH   3   4
ATOM      4  C   UNL     1       7.347   4.914  -3.779  1.00  0.00     0.000 C 
BRANCH   4   5
ATOM      5  C   UNL     1       8.810   5.199  -4.150  1.00  0.00     0.000 C 
BRANCH   5   6
ATOM      6  C   UNL     1       9.111   4.895  -5.627  1.00  0.00     0.000 C 
BRANCH   6   7
ATOM      7  C   UNL     1      10.426   4.118  -5.810  1.00  0.00     0.000 C 
BRANCH   7   8
ATOM      8  C   UNL     1      10.968   3.562  -4.482  1.00  0.00     0.000 C 
BRANCH   8   9
ATOM      9  C   UNL     1      11.454   2.109  -4.612  1.00  0.00     0.000 C 
BRANCH   9  10
ATOM     10  C   UNL     1      11.552   1.393  -3.254  1.00  0.00     0.006 C 
BRANCH  10  11
ATOM     11  C   UNL     1      12.103   2.296  -2.144  1.00  0.00     0.053 C 
BRANCH  11  12
ATOM     12  C   UNL     1      11.964   1.631  -0.812  1.00  0.00     0.041 C 
ATOM     13  O   UNL     1      11.094   2.030   0.008  1.00  0.00    -0.550 OA
ATOM     14  O   UNL     1      12.826   0.603  -0.454  1.00  0.00    -0.550 OA
ENDBRANCH  11  12
ENDBRANCH  10  11
ENDBRANCH   9  10
ENDBRANCH   8   9
ENDBRANCH   7   8
ENDBRANCH   6   7
ENDBRANCH   5   6
ENDBRANCH   4   5
ENDBRANCH   3   4
ENDBRANCH   2   3
ENDBRANCH   1   2
BRANCH   1  15
ATOM     15  C   UNL     1       9.930   5.320  -0.138  1.00  0.00     0.000 C 
BRANCH  15  16
ATOM     16  C   UNL     1      10.733   5.648  -1.411  1.00  0.00     0.000 C 
BRANCH  16  17
ATOM     17  C   UNL     1      10.669   7.117  -1.868  1.00  0.00     0.000 C 
BRANCH  17  18
ATOM     18  C   UNL     1      10.227   8.127  -0.792  1.00  0.00    -0.000 C 
BRANCH  18  19
ATOM     19  C   UNL     1       8.948   8.912  -1.155  1.00  0.00    -0.000 C 
BRANCH  19  20
ATOM     20  C   UNL     1       7.861   8.019  -1.779  1.00  0.00    -0.000 C 
BRANCH  20  21
ATOM     21  C   UNL     1       6.806   7.573  -0.753  1.00  0.00    -0.000 C 
BRANCH  21  22
ATOM     22  C   UNL     1       7.167   7.987   0.684  1.00  0.00    -0.000 C 
BRANCH  22  23
ATOM     23  C   UNL     1       6.653   6.992   1.740  1.00  0.00    -0.000 C 
BRANCH  23  24
ATOM     24  C   UNL     1       7.718   6.503   2.738  1.00  0.00    -0.000 C 
BRANCH  24  25
ATOM     25  C   UNL     1       8.973   7.389   2.755  1.00  0.00    -0.003 C 
ATOM     26  C   UNL     1      10.204   6.594   3.182  1.00  0.00     0.004 C 
ENDBRANCH  24  25
ENDBRANCH  23  24
ENDBRANCH  22  23
ENDBRANCH  21  22
ENDBRANCH  20  21
ENDBRANCH  19  20
ENDBRANCH  18  19
ENDBRANCH  17  18
ENDBRANCH  16  17
ENDBRANCH  15  16
ENDBRANCH   1  15
TORSDOF 22
ENDMDL
MODEL 8
REMARK VINA RESULT:    -3.776      1.202      4.270
REMARK INTER + INTRA:         -12.388
REMARK INTER:                  -8.539
REMARK INTRA:                  -3.849
REMARK UNBOUND:                -3.755
REMARK SMILES CCCCCCCCCCCCCCCCCCCCCCCC(=O)[O-]
REMARK SMILES IDX 13 1 14 2 15 3 16 4 17 5 18 6 19 7 20 8 21 9 22 10 23 11
REMARK SMILES IDX 24 12 25 13 26 14 12 15 11 16 10 17 9 18 8 19 7 20 6 21 5 22
REMARK SMILES IDX 4 23 3 24 2 25 1 26
REMARK H PARENT
REMARK Flexibility Score: inf
ROOT
ATOM      1  C   UNL     1      10.350   1.801  -0.527  1.00  0.00     0.000 C 
ENDROOT
BRANCH   1   2
ATOM      2  C   UNL     1      10.012   2.848   0.548  1.00  0.00     0.000 C 
BRANCH   2   3
ATOM      3  C   UNL     1       9.050   3.932   0.038  1.00  0.00     0.000 C 
BRANCH   3   4
ATOM      4  C   UNL     1       9.511   4.476  -1.320  1.00  0.00     0.000 C 
BRANCH   4   5
ATOM      5  C   UNL     1      10.552   5.591  -1.143  1.00  0.00     0.000 C 
BRANCH   5   6
ATOM      6  C   UNL     1      10.770   6.402  -2.431  1.00  0.00     0.000 C 
BRANCH   6   7
ATOM      7  C   UNL     1      10.474   7.899  -2.239  1.00  0.00     0.000 C 
BRANCH   7   8
ATOM      8  C   UNL     1       9.273   8.144  -1.309  1.00  0.00     0.000 C 
BRANCH   8   9
ATOM      9  C   UNL     1       9.644   9.005  -0.090  1.00  0.00     0.000 C 
BRANCH   9  10
ATOM     10  C   UNL     1       8.749   8.724   1.129  1.00  0.00     0.006 C 
BRANCH  10  11
ATOM     11  C   UNL     1       8.822   7.265   1.595  1.00  0.00     0.053 C 
BRANCH  11  12
ATOM     12  C   UNL     1       9.933   7.085   2.579  1.00  0.00     0.041 C 
ATOM     13  O   UNL     1      10.328   8.059   3.274  1.00  0.00    -0.550 OA
ATOM     14  O   UNL     1      10.568   5.855   2.696  1.00  0.00    -0.550 OA
ENDBRANCH  11  12
ENDBRANCH  10  11
ENDBRANCH   9  10
ENDBRANCH   8   9
ENDBRANCH   7   8
ENDBRANCH   6   7
ENDBRANCH   5   6
ENDBRANCH   4   5
ENDBRANCH   3   4
ENDBRANCH   2   3
ENDBRANCH   1   2
BRANCH   1  15
ATOM     15  C   UNL     1      11.861   1.709  -0.798  1.00  0.00     0.000 C 
BRANCH  15  16
ATOM     16  C   UNL     1      12.248   2.171  -2.217  1.00  0.00     0.000 C 
BRANCH  16  17
ATOM     17  C   UNL     1      11.699   1.302  -3.363  1.00  0.00     0.000 C 
BRANCH  17  18
ATOM     18  C   UNL     1      11.498   2.029  -4.707  1.00  0.00    -0.000 C 
BRANCH  18  19
ATOM     19  C   UNL     1      10.788   3.394  -4.583  1.00  0.00    -0.000 C 
BRANCH  19  20
ATOM     20  C   UNL     1      10.749   4.164  -5.915  1.00  0.00    -0.000 C 
BRANCH  20  21
ATOM     21  C   UNL     1      10.089   5.546  -5.777  1.00  0.00    -0.000 C 
BRANCH  21  22
ATOM     22  C   UNL     1       8.554   5.464  -5.718  1.00  0.00    -0.000 C 
BRANCH  22  23
ATOM     23  C   UNL     1       7.933   6.535  -4.803  1.00  0.00    -0.000 C 
BRANCH  23  24
ATOM     24  C   UNL     1       7.159   5.982  -3.594  1.00  0.00    -0.000 C 
BRANCH  24  25
ATOM     25  C   UNL     1       6.467   4.643  -3.889  1.00  0.00    -0.003 C 
ATOM     26  C   UNL     1       6.202   3.863  -2.604  1.00  0.00     0.004 C 
ENDBRANCH  24  25
ENDBRANCH  23  24
ENDBRANCH  22  23
ENDBRANCH  21  22
ENDBRANCH  20  21
ENDBRANCH  19  20
ENDBRANCH  18  19
ENDBRANCH  17  18
ENDBRANCH  16  17
ENDBRANCH  15  16
ENDBRANCH   1  15
TORSDOF 22
ENDMDL
MODEL 9
REMARK VINA RESULT:    -3.625      1.981      4.730
REMARK INTER + INTRA:         -12.042
REMARK INTER:                  -8.577
REMARK INTRA:                  -3.465
REMARK UNBOUND:                -3.755
REMARK SMILES CCCCCCCCCCCCCCCCCCCCCCCC(=O)[O-]
REMARK SMILES IDX 13 1 14 2 15 3 16 4 17 5 18 6 19 7 20 8 21 9 22 10 23 11
REMARK SMILES IDX 24 12 25 13 26 14 12 15 11 16 10 17 9 18 8 19 7 20 6 21 5 22
REMARK SMILES IDX 4 23 3 24 2 25 1 26
REMARK H PARENT
REMARK Flexibility Score: inf
ROOT
ATOM      1  C   UNL     1      11.143   2.060  -0.694  1.00  0.00     0.000 C 
ENDROOT
BRANCH   1   2
ATOM      2  C   UNL     1       9.633   2.203  -0.946  1.00  0.00     0.000 C 
BRANCH   2   3
ATOM      3  C   UNL     1       8.941   3.101   0.091  1.00  0.00     0.000 C 
BRANCH   3   4
ATOM      4  C   UNL     1       9.968   3.731   1.040  1.00  0.00     0.000 C 
BRANCH   4   5
ATOM      5  C   UNL     1       9.778   5.252   1.129  1.00  0.00     0.000 C 
BRANCH   5   6
ATOM      6  C   UNL     1      10.291   5.832   2.456  1.00  0.00     0.000 C 
BRANCH   6   7
ATOM      7  C   UNL     1       9.991   7.335   2.596  1.00  0.00     0.000 C 
BRANCH   7   8
ATOM      8  C   UNL     1       9.251   7.900   1.372  1.00  0.00     0.000 C 
BRANCH   8   9
ATOM      9  C   UNL     1       8.139   8.887   1.765  1.00  0.00     0.000 C 
BRANCH   9  10
ATOM     10  C   UNL     1       7.736   8.768   3.244  1.00  0.00     0.006 C 
BRANCH  10  11
ATOM     11  C   UNL     1       6.399   8.042   3.439  1.00  0.00     0.053 C 
BRANCH  11  12
ATOM     12  C   UNL     1       6.631   6.616   3.829  1.00  0.00     0.041 C 
ATOM     13  O   UNL     1       6.851   6.316   5.033  1.00  0.00    -0.550 OA
ATOM     14  O   UNL     1       6.655   5.624   2.857  1.00  0.00    -0.550 OA
ENDBRANCH  11  12
ENDBRANCH  10  11
ENDBRANCH   9  10
ENDBRANCH   8   9
ENDBRANCH   7   8
ENDBRANCH   6   7
ENDBRANCH   5   6
ENDBRANCH   4   5
ENDBRANCH   3   4
ENDBRANCH   2   3
ENDBRANCH   1   2
BRANCH   1  15
ATOM     15  C   UNL     1      11.927   1.782  -1.988  1.00  0.00     0.000 C 
BRANCH  15  16
ATOM     16  C   UNL     1      11.072   1.949  -3.259  1.00  0.00     0.000 C 
BRANCH  16  17
ATOM     17  C   UNL     1      11.566   1.167  -4.490  1.00  0.00     0.000 C 
BRANCH  17  18
ATOM     18  C   UNL     1      11.540   1.943  -5.821  1.00  0.00    -0.000 C 
BRANCH  18  19
ATOM     19  C   UNL     1      10.486   3.070  -5.872  1.00  0.00    -0.000 C 
BRANCH  19  20
ATOM     20  C   UNL     1      11.120   4.471  -5.945  1.00  0.00    -0.000 C 
BRANCH  20  21
ATOM     21  C   UNL     1      10.207   5.560  -5.358  1.00  0.00    -0.000 C 
BRANCH  21  22
ATOM     22  C   UNL     1       9.039   4.977  -4.545  1.00  0.00    -0.000 C 
BRANCH  22  23
ATOM     23  C   UNL     1       9.177   5.232  -3.033  1.00  0.00    -0.000 C 
BRANCH  23  24
ATOM     24  C   UNL     1      10.599   5.592  -2.567  1.00  0.00    -0.000 C 
BRANCH  24  25
ATOM     25  C   UNL     1      10.747   7.075  -2.195  1.00  0.00    -0.003 C 
ATOM     26  C   UNL     1       9.389   7.770  -2.142  1.00  0.00     0.004 C 
ENDBRANCH  24  25
ENDBRANCH  23  24
ENDBRANCH  22  23
ENDBRANCH  21  22
ENDBRANCH  20  21
ENDBRANCH  19  20
ENDBRANCH  18  19
ENDBRANCH  17  18
ENDBRANCH  16  17
ENDBRANCH  15  16
ENDBRANCH   1  15
TORSDOF 22
ENDMDL
