MODEL 1
REMARK VINA RESULT:    -6.588      0.000      0.000
REMARK INTER + INTRA:          -8.070
REMARK INTER:                  -7.936
REMARK INTRA:                  -0.134
REMARK UNBOUND:                -0.134
REMARK SMILES O=c1c(O)c(-c2ccc(O)c(O)c2)oc2cc(O)cc(O)c12
REMARK SMILES IDX 5 1 3 2 2 3 1 4 22 5 20 6 19 7 17 8 16 9 15 10 14 11 6 12
REMARK SMILES IDX 7 13 8 14 9 15 13 16 11 17 10 18 12 20 4 22 21 24 18 26
REMARK H PARENT 10 19 12 21 4 23 21 25 18 27
REMARK Flexibility Score: inf
ROOT
ATOM      1  C   UNL     1       2.171 -11.592 -32.595  1.00  0.00     0.180 A 
ATOM      2  C   UNL     1       1.019 -10.786 -32.616  1.00  0.00     0.208 A 
ATOM      3  C   UNL     1       0.234 -10.689 -31.455  1.00  0.00     0.238 A 
ATOM      4  O   UNL     1      -0.764  -9.924 -31.463  1.00  0.00    -0.285 OA
ATOM      5  C   UNL     1       0.600 -11.413 -30.295  1.00  0.00     0.111 A 
ATOM      6  C   UNL     1      -0.143 -11.421 -29.077  1.00  0.00     0.134 A 
ATOM      7  C   UNL     1       0.382 -12.067 -27.951  1.00  0.00     0.093 A 
ATOM      8  C   UNL     1       1.593 -12.762 -28.019  1.00  0.00     0.123 A 
ATOM      9  C   UNL     1       2.297 -12.809 -29.219  1.00  0.00     0.094 A 
ATOM     10  C   UNL     1       1.816 -12.144 -30.350  1.00  0.00     0.146 A 
ATOM     11  O   UNL     1       2.524 -12.206 -31.472  1.00  0.00    -0.452 OA
ENDROOT
BRANCH   1  12
ATOM     12  C   UNL     1       3.034 -11.763 -33.786  1.00  0.00     0.025 A 
ATOM     13  C   UNL     1       4.364 -11.307 -33.798  1.00  0.00     0.016 A 
ATOM     14  C   UNL     1       5.152 -11.458 -34.942  1.00  0.00     0.051 A 
ATOM     15  C   UNL     1       4.620 -12.051 -36.094  1.00  0.00     0.157 A 
ATOM     16  C   UNL     1       2.499 -12.338 -34.950  1.00  0.00     0.062 A 
ATOM     17  C   UNL     1       3.286 -12.491 -36.098  1.00  0.00     0.158 A 
BRANCH  15  18
ATOM     18  O   UNL     1       5.409 -12.202 -37.233  1.00  0.00    -0.504 OA
ATOM     19  H   UNL     1       5.716 -11.403 -37.775  1.00  0.00     0.293 HD
ENDBRANCH  15  18
BRANCH  17  20
ATOM     20  O   UNL     1       2.724 -13.080 -37.230  1.00  0.00    -0.504 OA
ATOM     21  H   UNL     1       3.162 -13.862 -37.702  1.00  0.00     0.293 HD
ENDBRANCH  17  20
ENDBRANCH   1  12
BRANCH   2  22
ATOM     22  O   UNL     1       0.688 -10.063 -33.765  1.00  0.00    -0.502 OA
ATOM     23  H   UNL     1       0.259  -9.146 -33.727  1.00  0.00     0.293 HD
ENDBRANCH   2  22
BRANCH   6  24
ATOM     24  O   UNL     1      -1.405 -10.837 -28.929  1.00  0.00    -0.507 OA
ATOM     25  H   UNL     1      -1.838 -10.226 -29.604  1.00  0.00     0.293 HD
ENDBRANCH   6  24
BRANCH   8  26
ATOM     26  O   UNL     1       2.101 -13.416 -26.899  1.00  0.00    -0.508 OA
ATOM     27  H   UNL     1       1.777 -13.195 -25.964  1.00  0.00     0.293 HD
ENDBRANCH   8  26
TORSDOF 6
ENDMDL
MODEL 2
REMARK VINA RESULT:    -6.490      1.429      7.061
REMARK INTER + INTRA:          -7.952
REMARK INTER:                  -7.671
REMARK INTRA:                  -0.281
REMARK UNBOUND:                -0.134
REMARK SMILES O=c1c(O)c(-c2ccc(O)c(O)c2)oc2cc(O)cc(O)c12
REMARK SMILES IDX 5 1 3 2 2 3 1 4 22 5 20 6 19 7 17 8 16 9 15 10 14 11 6 12
REMARK SMILES IDX 7 13 8 14 9 15 13 16 11 17 10 18 12 20 4 22 21 24 18 26
REMARK H PARENT 10 19 12 21 4 23 21 25 18 27
REMARK Flexibility Score: inf
ROOT
ATOM      1  C   UNL     1       2.685 -11.789 -31.687  1.00  0.00     0.180 A 
ATOM      2  C   UNL     1       3.848 -11.001 -31.756  1.00  0.00     0.208 A 
ATOM      3  C   UNL     1       4.524 -10.888 -32.982  1.00  0.00     0.238 A 
ATOM      4  O   UNL     1       5.531 -10.139 -33.050  1.00  0.00    -0.285 OA
ATOM      5  C   UNL     1       4.037 -11.577 -34.120  1.00  0.00     0.111 A 
ATOM      6  C   UNL     1       4.663 -11.566 -35.402  1.00  0.00     0.134 A 
ATOM      7  C   UNL     1       4.024 -12.176 -36.488  1.00  0.00     0.093 A 
ATOM      8  C   UNL     1       2.813 -12.853 -36.323  1.00  0.00     0.123 A 
ATOM      9  C   UNL     1       2.223 -12.919 -35.064  1.00  0.00     0.094 A 
ATOM     10  C   UNL     1       2.819 -12.290 -33.968  1.00  0.00     0.146 A 
ATOM     11  O   UNL     1       2.218 -12.369 -32.787  1.00  0.00    -0.452 OA
ENDROOT
BRANCH   1  12
ATOM     12  C   UNL     1       1.935 -11.976 -30.425  1.00  0.00     0.025 A 
ATOM     13  C   UNL     1       2.413 -12.817 -29.405  1.00  0.00     0.016 A 
ATOM     14  C   UNL     1       1.675 -12.996 -28.233  1.00  0.00     0.051 A 
ATOM     15  C   UNL     1       0.443 -12.352 -28.067  1.00  0.00     0.157 A 
ATOM     16  C   UNL     1       0.688 -11.348 -30.263  1.00  0.00     0.062 A 
ATOM     17  C   UNL     1      -0.054 -11.526 -29.090  1.00  0.00     0.158 A 
BRANCH  15  18
ATOM     18  O   UNL     1      -0.290 -12.531 -26.896  1.00  0.00    -0.504 OA
ATOM     19  H   UNL     1       0.098 -12.306 -25.987  1.00  0.00     0.293 HD
ENDBRANCH  15  18
BRANCH  17  20
ATOM     20  O   UNL     1      -1.280 -10.875 -28.958  1.00  0.00    -0.504 OA
ATOM     21  H   UNL     1      -2.108 -11.182 -29.455  1.00  0.00     0.293 HD
ENDBRANCH  17  20
ENDBRANCH   1  12
BRANCH   2  22
ATOM     22  O   UNL     1       4.298 -10.313 -30.626  1.00  0.00    -0.502 OA
ATOM     23  H   UNL     1       3.935 -10.493 -29.698  1.00  0.00     0.293 HD
ENDBRANCH   2  22
BRANCH   6  24
ATOM     24  O   UNL     1       5.916 -10.999 -35.654  1.00  0.00    -0.507 OA
ATOM     25  H   UNL     1       6.587 -10.749 -34.944  1.00  0.00     0.293 HD
ENDBRANCH   6  24
BRANCH   8  26
ATOM     26  O   UNL     1       2.191 -13.472 -37.406  1.00  0.00    -0.508 OA
ATOM     27  H   UNL     1       1.198 -13.676 -37.401  1.00  0.00     0.293 HD
ENDBRANCH   8  26
TORSDOF 6
ENDMDL
MODEL 3
REMARK VINA RESULT:    -6.433      4.381      6.026
REMARK INTER + INTRA:          -7.884
REMARK INTER:                  -7.553
REMARK INTRA:                  -0.331
REMARK UNBOUND:                -0.134
REMARK SMILES O=c1c(O)c(-c2ccc(O)c(O)c2)oc2cc(O)cc(O)c12
REMARK SMILES IDX 5 1 3 2 2 3 1 4 22 5 20 6 19 7 17 8 16 9 15 10 14 11 6 12
REMARK SMILES IDX 7 13 8 14 9 15 13 16 11 17 10 18 12 20 4 22 21 24 18 26
REMARK H PARENT 10 19 12 21 4 23 21 25 18 27
REMARK Flexibility Score: inf
ROOT
ATOM      1  C   UNL     1       5.158  -8.671 -35.432  1.00  0.00     0.180 A 
ATOM      2  C   UNL     1       4.368  -9.759 -35.841  1.00  0.00     0.208 A 
ATOM      3  C   UNL     1       4.028 -10.746 -34.900  1.00  0.00     0.238 A 
ATOM      4  O   UNL     1       3.275 -11.688 -35.259  1.00  0.00    -0.285 OA
ATOM      5  C   UNL     1       4.495 -10.640 -33.568  1.00  0.00     0.111 A 
ATOM      6  C   UNL     1       4.245 -11.601 -32.543  1.00  0.00     0.134 A 
ATOM      7  C   UNL     1       4.646 -11.329 -31.229  1.00  0.00     0.093 A 
ATOM      8  C   UNL     1       5.345 -10.161 -30.917  1.00  0.00     0.123 A 
ATOM      9  C   UNL     1       5.646  -9.244 -31.921  1.00  0.00     0.094 A 
ATOM     10  C   UNL     1       5.228  -9.470 -33.235  1.00  0.00     0.146 A 
ATOM     11  O   UNL     1       5.527  -8.566 -34.160  1.00  0.00    -0.452 OA
ENDROOT
BRANCH   1  12
ATOM     12  C   UNL     1       5.578  -7.606 -36.371  1.00  0.00     0.025 A 
ATOM     13  C   UNL     1       6.785  -7.696 -37.088  1.00  0.00     0.016 A 
ATOM     14  C   UNL     1       7.171  -6.667 -37.951  1.00  0.00     0.051 A 
ATOM     15  C   UNL     1       6.369  -5.529 -38.099  1.00  0.00     0.157 A 
ATOM     16  C   UNL     1       4.787  -6.454 -36.507  1.00  0.00     0.062 A 
ATOM     17  C   UNL     1       5.172  -5.421 -37.371  1.00  0.00     0.158 A 
BRANCH  15  18
ATOM     18  O   UNL     1       6.757  -4.505 -38.961  1.00  0.00    -0.504 OA
ATOM     19  H   UNL     1       7.732  -4.336 -39.179  1.00  0.00     0.293 HD
ENDBRANCH  15  18
BRANCH  17  20
ATOM     20  O   UNL     1       4.353  -4.298 -37.491  1.00  0.00    -0.504 OA
ATOM     21  H   UNL     1       4.727  -3.357 -37.482  1.00  0.00     0.293 HD
ENDBRANCH  17  20
ENDBRANCH   1  12
BRANCH   2  22
ATOM     22  O   UNL     1       3.899  -9.833 -37.155  1.00  0.00    -0.502 OA
ATOM     23  H   UNL     1       3.929 -10.689 -37.696  1.00  0.00     0.293 HD
ENDBRANCH   2  22
BRANCH   6  24
ATOM     24  O   UNL     1       3.637 -12.839 -32.766  1.00  0.00    -0.507 OA
ATOM     25  H   UNL     1       3.456 -13.528 -32.052  1.00  0.00     0.293 HD
ENDBRANCH   6  24
BRANCH   8  26
ATOM     26  O   UNL     1       5.754  -9.905 -29.610  1.00  0.00    -0.508 OA
ATOM     27  H   UNL     1       5.177  -9.373 -28.968  1.00  0.00     0.293 HD
ENDBRANCH   8  26
TORSDOF 6
ENDMDL
MODEL 4
REMARK VINA RESULT:    -5.988      2.489      3.584
REMARK INTER + INTRA:          -7.347
REMARK INTER:                  -7.281
REMARK INTRA:                  -0.067
REMARK UNBOUND:                -0.134
REMARK SMILES O=c1c(O)c(-c2ccc(O)c(O)c2)oc2cc(O)cc(O)c12
REMARK SMILES IDX 5 1 3 2 2 3 1 4 22 5 20 6 19 7 17 8 16 9 15 10 14 11 6 12
REMARK SMILES IDX 7 13 8 14 9 15 13 16 11 17 10 18 12 20 4 22 21 24 18 26
REMARK H PARENT 10 19 12 21 4 23 21 25 18 27
REMARK Flexibility Score: inf
ROOT
ATOM      1  C   UNL     1       2.899 -11.619 -31.352  1.00  0.00     0.180 A 
ATOM      2  C   UNL     1       2.509 -12.629 -30.456  1.00  0.00     0.208 A 
ATOM      3  C   UNL     1       2.461 -12.341 -29.082  1.00  0.00     0.238 A 
ATOM      4  O   UNL     1       2.059 -13.232 -28.291  1.00  0.00    -0.285 OA
ATOM      5  C   UNL     1       2.821 -11.051 -28.621  1.00  0.00     0.111 A 
ATOM      6  C   UNL     1       2.848 -10.660 -27.249  1.00  0.00     0.134 A 
ATOM      7  C   UNL     1       3.092  -9.322 -26.917  1.00  0.00     0.093 A 
ATOM      8  C   UNL     1       3.375  -8.375 -27.904  1.00  0.00     0.123 A 
ATOM      9  C   UNL     1       3.408  -8.759 -29.242  1.00  0.00     0.094 A 
ATOM     10  C   UNL     1       3.134 -10.079 -29.607  1.00  0.00     0.146 A 
ATOM     11  O   UNL     1       3.167 -10.402 -30.895  1.00  0.00    -0.452 OA
ENDROOT
BRANCH   1  12
ATOM     12  C   UNL     1       2.997 -11.856 -32.810  1.00  0.00     0.025 A 
ATOM     13  C   UNL     1       1.899 -12.326 -33.552  1.00  0.00     0.016 A 
ATOM     14  C   UNL     1       2.022 -12.564 -34.923  1.00  0.00     0.051 A 
ATOM     15  C   UNL     1       3.246 -12.351 -35.571  1.00  0.00     0.157 A 
ATOM     16  C   UNL     1       4.227 -11.664 -33.460  1.00  0.00     0.062 A 
ATOM     17  C   UNL     1       4.354 -11.901 -34.834  1.00  0.00     0.158 A 
BRANCH  15  18
ATOM     18  O   UNL     1       3.365 -12.588 -36.939  1.00  0.00    -0.504 OA
ATOM     19  H   UNL     1       3.295 -13.523 -37.324  1.00  0.00     0.293 HD
ENDBRANCH  15  18
BRANCH  17  20
ATOM     20  O   UNL     1       5.588 -11.686 -35.448  1.00  0.00    -0.504 OA
ATOM     21  H   UNL     1       5.685 -11.628 -36.454  1.00  0.00     0.293 HD
ENDBRANCH  17  20
ENDBRANCH   1  12
BRANCH   2  22
ATOM     22  O   UNL     1       2.138 -13.889 -30.934  1.00  0.00    -0.502 OA
ATOM     23  H   UNL     1       2.555 -14.746 -30.591  1.00  0.00     0.293 HD
ENDBRANCH   2  22
BRANCH   6  24
ATOM     24  O   UNL     1       2.670 -11.545 -26.181  1.00  0.00    -0.507 OA
ATOM     25  H   UNL     1       3.072 -11.427 -25.264  1.00  0.00     0.293 HD
ENDBRANCH   6  24
BRANCH   8  26
ATOM     26  O   UNL     1       3.632  -7.048 -27.565  1.00  0.00    -0.508 OA
ATOM     27  H   UNL     1       4.269  -6.808 -26.813  1.00  0.00     0.293 HD
ENDBRANCH   8  26
TORSDOF 6
ENDMDL
MODEL 5
REMARK VINA RESULT:    -5.882      1.293      3.069
REMARK INTER + INTRA:          -7.220
REMARK INTER:                  -6.926
REMARK INTRA:                  -0.294
REMARK UNBOUND:                -0.134
REMARK SMILES O=c1c(O)c(-c2ccc(O)c(O)c2)oc2cc(O)cc(O)c12
REMARK SMILES IDX 5 1 3 2 2 3 1 4 22 5 20 6 19 7 17 8 16 9 15 10 14 11 6 12
REMARK SMILES IDX 7 13 8 14 9 15 13 16 11 17 10 18 12 20 4 22 21 24 18 26
REMARK H PARENT 10 19 12 21 4 23 21 25 18 27
REMARK Flexibility Score: inf
ROOT
ATOM      1  C   UNL     1       2.008 -11.604 -32.687  1.00  0.00     0.180 A 
ATOM      2  C   UNL     1       2.057 -12.442 -31.559  1.00  0.00     0.208 A 
ATOM      3  C   UNL     1       1.166 -12.209 -30.498  1.00  0.00     0.238 A 
ATOM      4  O   UNL     1       1.178 -12.995 -29.517  1.00  0.00    -0.285 OA
ATOM      5  C   UNL     1       0.250 -11.132 -30.571  1.00  0.00     0.111 A 
ATOM      6  C   UNL     1      -0.670 -10.780 -29.539  1.00  0.00     0.134 A 
ATOM      7  C   UNL     1      -1.619  -9.777 -29.773  1.00  0.00     0.093 A 
ATOM      8  C   UNL     1      -1.638  -9.070 -30.978  1.00  0.00     0.123 A 
ATOM      9  C   UNL     1      -0.707  -9.367 -31.969  1.00  0.00     0.094 A 
ATOM     10  C   UNL     1       0.230 -10.386 -31.779  1.00  0.00     0.146 A 
ATOM     11  O   UNL     1       1.094 -10.643 -32.754  1.00  0.00    -0.452 OA
ENDROOT
BRANCH   1  12
ATOM     12  C   UNL     1       2.931 -11.771 -33.832  1.00  0.00     0.025 A 
ATOM     13  C   UNL     1       4.265 -11.332 -33.769  1.00  0.00     0.016 A 
ATOM     14  C   UNL     1       5.111 -11.480 -34.871  1.00  0.00     0.051 A 
ATOM     15  C   UNL     1       4.634 -12.052 -36.057  1.00  0.00     0.157 A 
ATOM     16  C   UNL     1       2.452 -12.326 -35.031  1.00  0.00     0.062 A 
ATOM     17  C   UNL     1       3.296 -12.475 -36.137  1.00  0.00     0.158 A 
BRANCH  15  18
ATOM     18  O   UNL     1       5.480 -12.199 -37.154  1.00  0.00    -0.504 OA
ATOM     19  H   UNL     1       5.679 -13.110 -37.553  1.00  0.00     0.293 HD
ENDBRANCH  15  18
BRANCH  17  20
ATOM     20  O   UNL     1       2.789 -13.044 -37.305  1.00  0.00    -0.504 OA
ATOM     21  H   UNL     1       1.796 -13.076 -37.501  1.00  0.00     0.293 HD
ENDBRANCH  17  20
ENDBRANCH   1  12
BRANCH   2  22
ATOM     22  O   UNL     1       2.955 -13.512 -31.517  1.00  0.00    -0.502 OA
ATOM     23  H   UNL     1       3.881 -13.430 -31.116  1.00  0.00     0.293 HD
ENDBRANCH   2  22
BRANCH   6  24
ATOM     24  O   UNL     1      -0.675 -11.360 -28.267  1.00  0.00    -0.507 OA
ATOM     25  H   UNL     1      -1.503 -11.666 -27.778  1.00  0.00     0.293 HD
ENDBRANCH   6  24
BRANCH   8  26
ATOM     26  O   UNL     1      -2.576  -8.063 -31.196  1.00  0.00    -0.508 OA
ATOM     27  H   UNL     1      -2.384  -7.098 -30.951  1.00  0.00     0.293 HD
ENDBRANCH   8  26
TORSDOF 6
ENDMDL
MODEL 6
REMARK VINA RESULT:    -5.882      2.002      7.123
REMARK INTER + INTRA:          -7.220
REMARK INTER:                  -6.889
REMARK INTRA:                  -0.331
REMARK UNBOUND:                -0.134
REMARK SMILES O=c1c(O)c(-c2ccc(O)c(O)c2)oc2cc(O)cc(O)c12
REMARK SMILES IDX 5 1 3 2 2 3 1 4 22 5 20 6 19 7 17 8 16 9 15 10 14 11 6 12
REMARK SMILES IDX 7 13 8 14 9 15 13 16 11 17 10 18 12 20 4 22 21 24 18 26
REMARK H PARENT 10 19 12 21 4 23 21 25 18 27
REMARK Flexibility Score: inf
ROOT
ATOM      1  C   UNL     1       2.749 -11.275 -33.222  1.00  0.00     0.180 A 
ATOM      2  C   UNL     1       2.612 -12.095 -34.356  1.00  0.00     0.208 A 
ATOM      3  C   UNL     1       3.427 -11.853 -35.475  1.00  0.00     0.238 A 
ATOM      4  O   UNL     1       3.338 -12.623 -36.465  1.00  0.00    -0.285 OA
ATOM      5  C   UNL     1       4.356 -10.785 -35.451  1.00  0.00     0.111 A 
ATOM      6  C   UNL     1       5.203 -10.424 -36.541  1.00  0.00     0.134 A 
ATOM      7  C   UNL     1       6.176  -9.433 -36.361  1.00  0.00     0.093 A 
ATOM      8  C   UNL     1       6.288  -8.745 -35.150  1.00  0.00     0.123 A 
ATOM      9  C   UNL     1       5.426  -9.049 -34.100  1.00  0.00     0.094 A 
ATOM     10  C   UNL     1       4.469 -10.058 -34.237  1.00  0.00     0.146 A 
ATOM     11  O   UNL     1       3.674 -10.323 -33.207  1.00  0.00    -0.452 OA
ENDROOT
BRANCH   1  12
ATOM     12  C   UNL     1       1.909 -11.453 -32.017  1.00  0.00     0.025 A 
ATOM     13  C   UNL     1       0.688 -10.771 -31.867  1.00  0.00     0.016 A 
ATOM     14  C   UNL     1      -0.077 -10.937 -30.710  1.00  0.00     0.051 A 
ATOM     15  C   UNL     1       0.373 -11.771 -29.678  1.00  0.00     0.157 A 
ATOM     16  C   UNL     1       2.365 -12.272 -30.971  1.00  0.00     0.062 A 
ATOM     17  C   UNL     1       1.602 -12.440 -29.810  1.00  0.00     0.158 A 
BRANCH  15  18
ATOM     18  O   UNL     1      -0.393 -11.935 -28.525  1.00  0.00    -0.504 OA
ATOM     19  H   UNL     1      -1.059 -12.694 -28.434  1.00  0.00     0.293 HD
ENDBRANCH  15  18
BRANCH  17  20
ATOM     20  O   UNL     1       2.080 -13.273 -28.799  1.00  0.00    -0.504 OA
ATOM     21  H   UNL     1       3.069 -13.452 -28.672  1.00  0.00     0.293 HD
ENDBRANCH  17  20
ENDBRANCH   1  12
BRANCH   2  22
ATOM     22  O   UNL     1       1.703 -13.157 -34.350  1.00  0.00    -0.502 OA
ATOM     23  H   UNL     1       1.016 -13.289 -35.083  1.00  0.00     0.293 HD
ENDBRANCH   2  22
BRANCH   6  24
ATOM     24  O   UNL     1       5.112 -10.984 -37.819  1.00  0.00    -0.507 OA
ATOM     25  H   UNL     1       4.700 -10.527 -38.618  1.00  0.00     0.293 HD
ENDBRANCH   6  24
BRANCH   8  26
ATOM     26  O   UNL     1       7.248  -7.749 -34.984  1.00  0.00    -0.508 OA
ATOM     27  H   UNL     1       8.234  -7.935 -35.128  1.00  0.00     0.293 HD
ENDBRANCH   8  26
TORSDOF 6
ENDMDL
MODEL 7
REMARK VINA RESULT:    -5.756      2.921      4.028
REMARK INTER + INTRA:          -7.068
REMARK INTER:                  -6.735
REMARK INTRA:                  -0.333
REMARK UNBOUND:                -0.134
REMARK SMILES O=c1c(O)c(-c2ccc(O)c(O)c2)oc2cc(O)cc(O)c12
REMARK SMILES IDX 5 1 3 2 2 3 1 4 22 5 20 6 19 7 17 8 16 9 15 10 14 11 6 12
REMARK SMILES IDX 7 13 8 14 9 15 13 16 11 17 10 18 12 20 4 22 21 24 18 26
REMARK H PARENT 10 19 12 21 4 23 21 25 18 27
REMARK Flexibility Score: inf
ROOT
ATOM      1  C   UNL     1       4.203 -10.436 -34.176  1.00  0.00     0.180 A 
ATOM      2  C   UNL     1       3.468 -11.549 -34.620  1.00  0.00     0.208 A 
ATOM      3  C   UNL     1       2.845 -12.377 -33.672  1.00  0.00     0.238 A 
ATOM      4  O   UNL     1       2.144 -13.339 -34.078  1.00  0.00    -0.285 OA
ATOM      5  C   UNL     1       2.977 -12.090 -32.292  1.00  0.00     0.111 A 
ATOM      6  C   UNL     1       2.422 -12.883 -31.243  1.00  0.00     0.134 A 
ATOM      7  C   UNL     1       2.505 -12.433 -29.920  1.00  0.00     0.093 A 
ATOM      8  C   UNL     1       3.180 -11.252 -29.601  1.00  0.00     0.123 A 
ATOM      9  C   UNL     1       3.776 -10.502 -30.612  1.00  0.00     0.094 A 
ATOM     10  C   UNL     1       3.680 -10.906 -31.945  1.00  0.00     0.146 A 
ATOM     11  O   UNL     1       4.254 -10.156 -32.879  1.00  0.00    -0.452 OA
ENDROOT
BRANCH   1  12
ATOM     12  C   UNL     1       4.908  -9.533 -35.114  1.00  0.00     0.025 A 
ATOM     13  C   UNL     1       6.217  -9.805 -35.548  1.00  0.00     0.016 A 
ATOM     14  C   UNL     1       6.871  -8.926 -36.415  1.00  0.00     0.051 A 
ATOM     15  C   UNL     1       6.235  -7.755 -36.848  1.00  0.00     0.157 A 
ATOM     16  C   UNL     1       4.282  -8.348 -35.534  1.00  0.00     0.062 A 
ATOM     17  C   UNL     1       4.934  -7.464 -36.402  1.00  0.00     0.158 A 
BRANCH  15  18
ATOM     18  O   UNL     1       6.889  -6.881 -37.714  1.00  0.00    -0.504 OA
ATOM     19  H   UNL     1       7.381  -7.216 -38.534  1.00  0.00     0.293 HD
ENDBRANCH  15  18
BRANCH  17  20
ATOM     20  O   UNL     1       4.275  -6.305 -36.810  1.00  0.00    -0.504 OA
ATOM     21  H   UNL     1       3.823  -6.232 -37.713  1.00  0.00     0.293 HD
ENDBRANCH  17  20
ENDBRANCH   1  12
BRANCH   2  22
ATOM     22  O   UNL     1       3.332 -11.802 -35.988  1.00  0.00    -0.502 OA
ATOM     23  H   UNL     1       2.717 -11.260 -36.583  1.00  0.00     0.293 HD
ENDBRANCH   2  22
BRANCH   6  24
ATOM     24  O   UNL     1       1.809 -14.123 -31.443  1.00  0.00    -0.507 OA
ATOM     25  H   UNL     1       0.920 -14.257 -31.901  1.00  0.00     0.293 HD
ENDBRANCH   6  24
BRANCH   8  26
ATOM     26  O   UNL     1       3.272 -10.819 -28.280  1.00  0.00    -0.508 OA
ATOM     27  H   UNL     1       2.449 -10.719 -27.697  1.00  0.00     0.293 HD
ENDBRANCH   8  26
TORSDOF 6
ENDMDL
MODEL 8
REMARK VINA RESULT:    -5.746      2.255      2.869
REMARK INTER + INTRA:          -7.056
REMARK INTER:                  -7.071
REMARK INTRA:                   0.015
REMARK UNBOUND:                -0.134
REMARK SMILES O=c1c(O)c(-c2ccc(O)c(O)c2)oc2cc(O)cc(O)c12
REMARK SMILES IDX 5 1 3 2 2 3 1 4 22 5 20 6 19 7 17 8 16 9 15 10 14 11 6 12
REMARK SMILES IDX 7 13 8 14 9 15 13 16 11 17 10 18 12 20 4 22 21 24 18 26
REMARK H PARENT 10 19 12 21 4 23 21 25 18 27
REMARK Flexibility Score: inf
ROOT
ATOM      1  C   UNL     1       3.708 -11.081 -32.254  1.00  0.00     0.180 A 
ATOM      2  C   UNL     1       2.793 -12.146 -32.181  1.00  0.00     0.208 A 
ATOM      3  C   UNL     1       2.292 -12.530 -30.926  1.00  0.00     0.238 A 
ATOM      4  O   UNL     1       1.433 -13.447 -30.873  1.00  0.00    -0.285 OA
ATOM      5  C   UNL     1       2.725 -11.856 -29.759  1.00  0.00     0.111 A 
ATOM      6  C   UNL     1       2.315 -12.187 -28.433  1.00  0.00     0.134 A 
ATOM      7  C   UNL     1       2.705 -11.369 -27.365  1.00  0.00     0.093 A 
ATOM      8  C   UNL     1       3.544 -10.270 -27.568  1.00  0.00     0.123 A 
ATOM      9  C   UNL     1       3.997  -9.974 -28.851  1.00  0.00     0.094 A 
ATOM     10  C   UNL     1       3.597 -10.750 -29.941  1.00  0.00     0.146 A 
ATOM     11  O   UNL     1       4.044 -10.427 -31.149  1.00  0.00    -0.452 OA
ENDROOT
BRANCH   1  12
ATOM     12  C   UNL     1       4.297 -10.636 -33.537  1.00  0.00     0.025 A 
ATOM     13  C   UNL     1       4.237  -9.292 -33.944  1.00  0.00     0.016 A 
ATOM     14  C   UNL     1       4.780  -8.900 -35.170  1.00  0.00     0.051 A 
ATOM     15  C   UNL     1       5.376  -9.845 -36.014  1.00  0.00     0.157 A 
ATOM     16  C   UNL     1       4.878 -11.584 -34.396  1.00  0.00     0.062 A 
ATOM     17  C   UNL     1       5.422 -11.195 -35.625  1.00  0.00     0.158 A 
BRANCH  15  18
ATOM     18  O   UNL     1       5.918  -9.451 -37.236  1.00  0.00    -0.504 OA
ATOM     19  H   UNL     1       6.301 -10.125 -37.889  1.00  0.00     0.293 HD
ENDBRANCH  15  18
BRANCH  17  20
ATOM     20  O   UNL     1       6.004 -12.162 -36.446  1.00  0.00    -0.504 OA
ATOM     21  H   UNL     1       6.963 -12.093 -36.761  1.00  0.00     0.293 HD
ENDBRANCH  17  20
ENDBRANCH   1  12
BRANCH   2  22
ATOM     22  O   UNL     1       2.362 -12.784 -33.348  1.00  0.00    -0.502 OA
ATOM     23  H   UNL     1       2.315 -12.310 -34.242  1.00  0.00     0.293 HD
ENDBRANCH   2  22
BRANCH   6  24
ATOM     24  O   UNL     1       1.554 -13.314 -28.110  1.00  0.00    -0.507 OA
ATOM     25  H   UNL     1       1.049 -13.877 -28.777  1.00  0.00     0.293 HD
ENDBRANCH   6  24
BRANCH   8  26
ATOM     26  O   UNL     1       3.940  -9.471 -26.498  1.00  0.00    -0.508 OA
ATOM     27  H   UNL     1       4.919  -9.305 -26.294  1.00  0.00     0.293 HD
ENDBRANCH   8  26
TORSDOF 6
ENDMDL
MODEL 9
REMARK VINA RESULT:    -5.691      2.405      4.317
REMARK INTER + INTRA:          -6.990
REMARK INTER:                  -6.757
REMARK INTRA:                  -0.234
REMARK UNBOUND:                -0.134
REMARK SMILES O=c1c(O)c(-c2ccc(O)c(O)c2)oc2cc(O)cc(O)c12
REMARK SMILES IDX 5 1 3 2 2 3 1 4 22 5 20 6 19 7 17 8 16 9 15 10 14 11 6 12
REMARK SMILES IDX 7 13 8 14 9 15 13 16 11 17 10 18 12 20 4 22 21 24 18 26
REMARK H PARENT 10 19 12 21 4 23 21 25 18 27
REMARK Flexibility Score: inf
ROOT
ATOM      1  C   UNL     1       1.578 -12.032 -29.192  1.00  0.00     0.180 A 
ATOM      2  C   UNL     1       2.540 -11.268 -28.509  1.00  0.00     0.208 A 
ATOM      3  C   UNL     1       2.393 -11.064 -27.127  1.00  0.00     0.238 A 
ATOM      4  O   UNL     1       3.286 -10.426 -26.512  1.00  0.00    -0.285 OA
ATOM      5  C   UNL     1       1.278 -11.613 -26.449  1.00  0.00     0.111 A 
ATOM      6  C   UNL     1       1.008 -11.436 -25.059  1.00  0.00     0.134 A 
ATOM      7  C   UNL     1      -0.053 -12.133 -24.468  1.00  0.00     0.093 A 
ATOM      8  C   UNL     1      -0.894 -12.948 -25.230  1.00  0.00     0.123 A 
ATOM      9  C   UNL     1      -0.673 -13.080 -26.599  1.00  0.00     0.094 A 
ATOM     10  C   UNL     1       0.399 -12.427 -27.211  1.00  0.00     0.146 A 
ATOM     11  O   UNL     1       0.579 -12.588 -28.517  1.00  0.00    -0.452 OA
ENDROOT
BRANCH   1  12
ATOM     12  C   UNL     1       1.651 -12.268 -30.652  1.00  0.00     0.025 A 
ATOM     13  C   UNL     1       2.618 -13.125 -31.207  1.00  0.00     0.016 A 
ATOM     14  C   UNL     1       2.683 -13.314 -32.590  1.00  0.00     0.051 A 
ATOM     15  C   UNL     1       1.796 -12.640 -33.439  1.00  0.00     0.157 A 
ATOM     16  C   UNL     1       0.777 -11.579 -31.508  1.00  0.00     0.062 A 
ATOM     17  C   UNL     1       0.840 -11.766 -32.894  1.00  0.00     0.158 A 
BRANCH  15  18
ATOM     18  O   UNL     1       1.862 -12.832 -34.817  1.00  0.00    -0.504 OA
ATOM     19  H   UNL     1       1.028 -12.978 -35.373  1.00  0.00     0.293 HD
ENDBRANCH  15  18
BRANCH  17  20
ATOM     20  O   UNL     1      -0.054 -11.076 -33.712  1.00  0.00    -0.504 OA
ATOM     21  H   UNL     1       0.099 -10.971 -34.708  1.00  0.00     0.293 HD
ENDBRANCH  17  20
ENDBRANCH   1  12
BRANCH   2  22
ATOM     22  O   UNL     1       3.644 -10.753 -29.194  1.00  0.00    -0.502 OA
ATOM     23  H   UNL     1       4.138 -11.281 -29.904  1.00  0.00     0.293 HD
ENDBRANCH   2  22
BRANCH   6  24
ATOM     24  O   UNL     1       1.728 -10.574 -24.227  1.00  0.00    -0.507 OA
ATOM     25  H   UNL     1       1.707 -10.597 -23.219  1.00  0.00     0.293 HD
ENDBRANCH   6  24
BRANCH   8  26
ATOM     26  O   UNL     1      -1.957 -13.625 -24.637  1.00  0.00    -0.508 OA
ATOM     27  H   UNL     1      -2.749 -13.129 -24.245  1.00  0.00     0.293 HD
ENDBRANCH   8  26
TORSDOF 6
ENDMDL
