MODEL 1
REMARK VINA RESULT:    -4.506      0.000      0.000
REMARK INTER + INTRA:         -16.938
REMARK INTER:                 -11.881
REMARK INTRA:                  -5.057
REMARK UNBOUND:                -5.057
REMARK SMILES CCCCCCCCCCCCCCCCCCCCCCCCCCCCCC(=O)[O-]
REMARK SMILES IDX 16 1 17 2 18 3 19 4 20 5 21 6 22 7 23 8 24 9 25 10 26 11
REMARK SMILES IDX 27 12 28 13 29 14 30 15 31 16 32 17 15 18 14 19 13 20 12 21
REMARK SMILES IDX 11 22 10 23 9 24 8 25 7 26 6 27 5 28 4 29 3 30 2 31 1 32
REMARK H PARENT
REMARK Flexibility Score: inf
ROOT
ATOM      1  C   UNL     1      -3.041 -44.481  15.542  1.00  0.00     0.000 C 
ENDROOT
BRANCH   1   2
ATOM      2  C   UNL     1      -1.800 -45.016  16.287  1.00  0.00     0.000 C 
BRANCH   2   3
ATOM      3  C   UNL     1      -2.124 -45.634  17.659  1.00  0.00     0.000 C 
BRANCH   3   4
ATOM      4  C   UNL     1      -1.494 -47.031  17.857  1.00  0.00     0.000 C 
BRANCH   4   5
ATOM      5  C   UNL     1      -0.906 -47.598  16.553  1.00  0.00     0.000 C 
BRANCH   5   6
ATOM      6  C   UNL     1      -1.602 -48.898  16.101  1.00  0.00     0.000 C 
BRANCH   6   7
ATOM      7  C   UNL     1      -2.687 -49.343  17.096  1.00  0.00     0.000 C 
BRANCH   7   8
ATOM      8  C   UNL     1      -4.114 -49.046  16.604  1.00  0.00     0.000 C 
BRANCH   8   9
ATOM      9  C   UNL     1      -5.097 -48.681  17.736  1.00  0.00     0.000 C 
BRANCH   9  10
ATOM     10  C   UNL     1      -4.435 -48.784  19.122  1.00  0.00     0.000 C 
BRANCH  10  11
ATOM     11  C   UNL     1      -4.507 -47.473  19.924  1.00  0.00     0.000 C 
BRANCH  11  12
ATOM     12  C   UNL     1      -5.410 -46.382  19.316  1.00  0.00     0.000 C 
BRANCH  12  13
ATOM     13  C   UNL     1      -5.824 -45.260  20.287  1.00  0.00     0.006 C 
BRANCH  13  14
ATOM     14  C   UNL     1      -5.289 -43.882  19.877  1.00  0.00     0.053 C 
BRANCH  14  15
ATOM     15  C   UNL     1      -6.410 -43.000  19.425  1.00  0.00     0.041 C 
ATOM     16  O   UNL     1      -6.411 -41.774  19.721  1.00  0.00    -0.550 OA
ATOM     17  O   UNL     1      -7.458 -43.529  18.686  1.00  0.00    -0.550 OA
ENDBRANCH  14  15
ENDBRANCH  13  14
ENDBRANCH  12  13
ENDBRANCH  11  12
ENDBRANCH  10  11
ENDBRANCH   9  10
ENDBRANCH   8   9
ENDBRANCH   7   8
ENDBRANCH   6   7
ENDBRANCH   5   6
ENDBRANCH   4   5
ENDBRANCH   3   4
ENDBRANCH   2   3
ENDBRANCH   1   2
BRANCH   1  18
ATOM     18  C   UNL     1      -4.347 -44.609  16.350  1.00  0.00     0.000 C 
BRANCH  18  19
ATOM     19  C   UNL     1      -5.329 -45.618  15.726  1.00  0.00     0.000 C 
BRANCH  19  20
ATOM     20  C   UNL     1      -6.735 -45.028  15.517  1.00  0.00     0.000 C 
BRANCH  20  21
ATOM     21  C   UNL     1      -7.117 -44.791  14.046  1.00  0.00     0.000 C 
BRANCH  21  22
ATOM     22  C   UNL     1      -5.943 -45.033  13.082  1.00  0.00     0.000 C 
BRANCH  22  23
ATOM     23  C   UNL     1      -6.359 -45.846  11.844  1.00  0.00     0.000 C 
BRANCH  23  24
ATOM     24  C   UNL     1      -7.863 -45.721  11.534  1.00  0.00    -0.000 C 
BRANCH  24  25
ATOM     25  C   UNL     1      -8.482 -47.064  11.090  1.00  0.00    -0.000 C 
BRANCH  25  26
ATOM     26  C   UNL     1      -7.504 -48.250  11.121  1.00  0.00    -0.000 C 
BRANCH  26  27
ATOM     27  C   UNL     1      -6.944 -48.608   9.737  1.00  0.00    -0.000 C 
BRANCH  27  28
ATOM     28  C   UNL     1      -5.914 -49.746   9.833  1.00  0.00    -0.000 C 
BRANCH  28  29
ATOM     29  C   UNL     1      -4.663 -49.352  10.638  1.00  0.00    -0.000 C 
BRANCH  29  30
ATOM     30  C   UNL     1      -4.470 -50.123  11.956  1.00  0.00    -0.000 C 
BRANCH  30  31
ATOM     31  C   UNL     1      -3.409 -49.495  12.870  1.00  0.00    -0.003 C 
ATOM     32  C   UNL     1      -3.639 -47.995  13.025  1.00  0.00     0.004 C 
ENDBRANCH  30  31
ENDBRANCH  29  30
ENDBRANCH  28  29
ENDBRANCH  27  28
ENDBRANCH  26  27
ENDBRANCH  25  26
ENDBRANCH  24  25
ENDBRANCH  23  24
ENDBRANCH  22  23
ENDBRANCH  21  22
ENDBRANCH  20  21
ENDBRANCH  19  20
ENDBRANCH  18  19
ENDBRANCH   1  18
TORSDOF 28
ENDMDL
MODEL 2
REMARK VINA RESULT:    -4.497      5.070      9.119
REMARK INTER + INTRA:         -16.916
REMARK INTER:                 -13.070
REMARK INTRA:                  -3.846
REMARK UNBOUND:                -5.057
REMARK SMILES CCCCCCCCCCCCCCCCCCCCCCCCCCCCCC(=O)[O-]
REMARK SMILES IDX 16 1 17 2 18 3 19 4 20 5 21 6 22 7 23 8 24 9 25 10 26 11
REMARK SMILES IDX 27 12 28 13 29 14 30 15 31 16 32 17 15 18 14 19 13 20 12 21
REMARK SMILES IDX 11 22 10 23 9 24 8 25 7 26 6 27 5 28 4 29 3 30 2 31 1 32
REMARK H PARENT
REMARK Flexibility Score: inf
ROOT
ATOM      1  C   UNL     1      -3.604 -44.366  14.539  1.00  0.00     0.000 C 
ENDROOT
BRANCH   1   2
ATOM      2  C   UNL     1      -4.141 -45.813  14.566  1.00  0.00     0.000 C 
BRANCH   2   3
ATOM      3  C   UNL     1      -4.367 -46.412  13.166  1.00  0.00     0.000 C 
BRANCH   3   4
ATOM      4  C   UNL     1      -3.827 -47.853  13.030  1.00  0.00     0.000 C 
BRANCH   4   5
ATOM      5  C   UNL     1      -3.077 -48.318  14.291  1.00  0.00     0.000 C 
BRANCH   5   6
ATOM      6  C   UNL     1      -2.357 -49.667  14.092  1.00  0.00     0.000 C 
BRANCH   6   7
ATOM      7  C   UNL     1      -0.833 -49.535  14.259  1.00  0.00     0.000 C 
BRANCH   7   8
ATOM      8  C   UNL     1      -0.067 -49.696  12.935  1.00  0.00     0.000 C 
BRANCH   8   9
ATOM      9  C   UNL     1      -0.983 -49.804  11.697  1.00  0.00     0.000 C 
BRANCH   9  10
ATOM     10  C   UNL     1      -0.228 -49.469  10.399  1.00  0.00     0.000 C 
BRANCH  10  11
ATOM     11  C   UNL     1       0.975 -48.537  10.623  1.00  0.00     0.000 C 
BRANCH  11  12
ATOM     12  C   UNL     1       1.149 -47.426   9.570  1.00  0.00     0.000 C 
BRANCH  12  13
ATOM     13  C   UNL     1       2.288 -46.428   9.854  1.00  0.00     0.006 C 
BRANCH  13  14
ATOM     14  C   UNL     1       3.390 -47.013  10.747  1.00  0.00     0.053 C 
BRANCH  14  15
ATOM     15  C   UNL     1       4.586 -47.380   9.926  1.00  0.00     0.041 C 
ATOM     16  O   UNL     1       5.655 -46.720  10.032  1.00  0.00    -0.550 OA
ATOM     17  O   UNL     1       4.521 -48.445   9.038  1.00  0.00    -0.550 OA
ENDBRANCH  14  15
ENDBRANCH  13  14
ENDBRANCH  12  13
ENDBRANCH  11  12
ENDBRANCH  10  11
ENDBRANCH   9  10
ENDBRANCH   8   9
ENDBRANCH   7   8
ENDBRANCH   6   7
ENDBRANCH   5   6
ENDBRANCH   4   5
ENDBRANCH   3   4
ENDBRANCH   2   3
ENDBRANCH   1   2
BRANCH   1  18
ATOM     18  C   UNL     1      -2.406 -44.135  15.480  1.00  0.00     0.000 C 
BRANCH  18  19
ATOM     19  C   UNL     1      -1.958 -45.427  16.188  1.00  0.00     0.000 C 
BRANCH  19  20
ATOM     20  C   UNL     1      -2.045 -45.325  17.721  1.00  0.00     0.000 C 
BRANCH  20  21
ATOM     21  C   UNL     1      -1.778 -46.646  18.466  1.00  0.00     0.000 C 
BRANCH  21  22
ATOM     22  C   UNL     1      -2.139 -47.883  17.626  1.00  0.00     0.000 C 
BRANCH  22  23
ATOM     23  C   UNL     1      -2.804 -48.987  18.466  1.00  0.00     0.000 C 
BRANCH  23  24
ATOM     24  C   UNL     1      -4.320 -48.770  18.633  1.00  0.00    -0.000 C 
BRANCH  24  25
ATOM     25  C   UNL     1      -4.914 -47.899  17.504  1.00  0.00    -0.000 C 
BRANCH  25  26
ATOM     26  C   UNL     1      -5.563 -46.593  17.991  1.00  0.00    -0.000 C 
BRANCH  26  27
ATOM     27  C   UNL     1      -5.370 -46.346  19.494  1.00  0.00    -0.000 C 
BRANCH  27  28
ATOM     28  C   UNL     1      -5.574 -44.863  19.842  1.00  0.00    -0.000 C 
BRANCH  28  29
ATOM     29  C   UNL     1      -6.981 -44.567  20.393  1.00  0.00    -0.000 C 
BRANCH  29  30
ATOM     30  C   UNL     1      -7.499 -43.144  20.118  1.00  0.00    -0.000 C 
BRANCH  30  31
ATOM     31  C   UNL     1      -8.104 -42.985  18.717  1.00  0.00    -0.003 C 
ATOM     32  C   UNL     1      -7.345 -41.936  17.910  1.00  0.00     0.004 C 
ENDBRANCH  30  31
ENDBRANCH  29  30
ENDBRANCH  28  29
ENDBRANCH  27  28
ENDBRANCH  26  27
ENDBRANCH  25  26
ENDBRANCH  24  25
ENDBRANCH  23  24
ENDBRANCH  22  23
ENDBRANCH  21  22
ENDBRANCH  20  21
ENDBRANCH  19  20
ENDBRANCH  18  19
ENDBRANCH   1  18
TORSDOF 28
ENDMDL
MODEL 3
REMARK VINA RESULT:    -4.462      1.682      3.327
REMARK INTER + INTRA:         -16.822
REMARK INTER:                 -11.267
REMARK INTRA:                  -5.555
REMARK UNBOUND:                -5.057
REMARK SMILES CCCCCCCCCCCCCCCCCCCCCCCCCCCCCC(=O)[O-]
REMARK SMILES IDX 16 1 17 2 18 3 19 4 20 5 21 6 22 7 23 8 24 9 25 10 26 11
REMARK SMILES IDX 27 12 28 13 29 14 30 15 31 16 32 17 15 18 14 19 13 20 12 21
REMARK SMILES IDX 11 22 10 23 9 24 8 25 7 26 6 27 5 28 4 29 3 30 2 31 1 32
REMARK H PARENT
REMARK Flexibility Score: inf
ROOT
ATOM      1  C   UNL     1      -5.194 -45.503  15.370  1.00  0.00     0.000 C 
ENDROOT
BRANCH   1   2
ATOM      2  C   UNL     1      -3.716 -45.712  14.977  1.00  0.00     0.000 C 
BRANCH   2   3
ATOM      3  C   UNL     1      -2.754 -44.710  15.642  1.00  0.00     0.000 C 
BRANCH   3   4
ATOM      4  C   UNL     1      -1.738 -45.385  16.590  1.00  0.00     0.000 C 
BRANCH   4   5
ATOM      5  C   UNL     1      -1.647 -46.905  16.364  1.00  0.00     0.000 C 
BRANCH   5   6
ATOM      6  C   UNL     1      -1.510 -47.696  17.680  1.00  0.00     0.000 C 
BRANCH   6   7
ATOM      7  C   UNL     1      -2.290 -49.021  17.638  1.00  0.00     0.000 C 
BRANCH   7   8
ATOM      8  C   UNL     1      -3.601 -48.922  16.838  1.00  0.00     0.000 C 
BRANCH   8   9
ATOM      9  C   UNL     1      -4.829 -48.565  17.703  1.00  0.00     0.000 C 
BRANCH   9  10
ATOM     10  C   UNL     1      -4.532 -48.715  19.205  1.00  0.00     0.000 C 
BRANCH  10  11
ATOM     11  C   UNL     1      -4.562 -47.376  19.963  1.00  0.00     0.000 C 
BRANCH  11  12
ATOM     12  C   UNL     1      -4.476 -46.119  19.076  1.00  0.00     0.000 C 
BRANCH  12  13
ATOM     13  C   UNL     1      -5.174 -44.869  19.643  1.00  0.00     0.006 C 
BRANCH  13  14
ATOM     14  C   UNL     1      -6.693 -44.879  19.426  1.00  0.00     0.053 C 
BRANCH  14  15
ATOM     15  C   UNL     1      -7.268 -43.525  19.700  1.00  0.00     0.041 C 
ATOM     16  O   UNL     1      -8.171 -43.383  20.568  1.00  0.00    -0.550 OA
ATOM     17  O   UNL     1      -6.815 -42.420  18.992  1.00  0.00    -0.550 OA
ENDBRANCH  14  15
ENDBRANCH  13  14
ENDBRANCH  12  13
ENDBRANCH  11  12
ENDBRANCH  10  11
ENDBRANCH   9  10
ENDBRANCH   8   9
ENDBRANCH   7   8
ENDBRANCH   6   7
ENDBRANCH   5   6
ENDBRANCH   4   5
ENDBRANCH   3   4
ENDBRANCH   2   3
ENDBRANCH   1   2
BRANCH   1  18
ATOM     18  C   UNL     1      -5.470 -44.135  16.023  1.00  0.00     0.000 C 
BRANCH  18  19
ATOM     19  C   UNL     1      -6.793 -43.510  15.541  1.00  0.00     0.000 C 
BRANCH  19  20
ATOM     20  C   UNL     1      -7.281 -44.107  14.209  1.00  0.00     0.000 C 
BRANCH  20  21
ATOM     21  C   UNL     1      -8.777 -44.469  14.182  1.00  0.00     0.000 C 
BRANCH  21  22
ATOM     22  C   UNL     1      -9.047 -45.818  13.492  1.00  0.00     0.000 C 
BRANCH  22  23
ATOM     23  C   UNL     1      -8.860 -45.742  11.967  1.00  0.00     0.000 C 
BRANCH  23  24
ATOM     24  C   UNL     1      -8.043 -46.924  11.413  1.00  0.00    -0.000 C 
BRANCH  24  25
ATOM     25  C   UNL     1      -6.695 -46.472  10.808  1.00  0.00    -0.000 C 
BRANCH  25  26
ATOM     26  C   UNL     1      -5.503 -46.579  11.773  1.00  0.00    -0.000 C 
BRANCH  26  27
ATOM     27  C   UNL     1      -4.383 -45.576  11.465  1.00  0.00    -0.000 C 
BRANCH  27  28
ATOM     28  C   UNL     1      -4.936 -44.146  11.348  1.00  0.00    -0.000 C 
BRANCH  28  29
ATOM     29  C   UNL     1      -3.913 -43.074  11.765  1.00  0.00    -0.000 C 
BRANCH  29  30
ATOM     30  C   UNL     1      -4.192 -42.402  13.121  1.00  0.00    -0.000 C 
BRANCH  30  31
ATOM     31  C   UNL     1      -3.300 -41.182  13.381  1.00  0.00    -0.003 C 
ATOM     32  C   UNL     1      -1.829 -41.583  13.446  1.00  0.00     0.004 C 
ENDBRANCH  30  31
ENDBRANCH  29  30
ENDBRANCH  28  29
ENDBRANCH  27  28
ENDBRANCH  26  27
ENDBRANCH  25  26
ENDBRANCH  24  25
ENDBRANCH  23  24
ENDBRANCH  22  23
ENDBRANCH  21  22
ENDBRANCH  20  21
ENDBRANCH  19  20
ENDBRANCH  18  19
ENDBRANCH   1  18
TORSDOF 28
ENDMDL
MODEL 4
REMARK VINA RESULT:    -4.444      3.538      8.858
REMARK INTER + INTRA:         -16.775
REMARK INTER:                 -12.291
REMARK INTRA:                  -4.484
REMARK UNBOUND:                -5.057
REMARK SMILES CCCCCCCCCCCCCCCCCCCCCCCCCCCCCC(=O)[O-]
REMARK SMILES IDX 16 1 17 2 18 3 19 4 20 5 21 6 22 7 23 8 24 9 25 10 26 11
REMARK SMILES IDX 27 12 28 13 29 14 30 15 31 16 32 17 15 18 14 19 13 20 12 21
REMARK SMILES IDX 11 22 10 23 9 24 8 25 7 26 6 27 5 28 4 29 3 30 2 31 1 32
REMARK H PARENT
REMARK Flexibility Score: inf
ROOT
ATOM      1  C   UNL     1      -3.128 -44.612  15.472  1.00  0.00     0.000 C 
ENDROOT
BRANCH   1   2
ATOM      2  C   UNL     1      -4.407 -44.451  16.322  1.00  0.00     0.000 C 
BRANCH   2   3
ATOM      3  C   UNL     1      -5.548 -45.396  15.903  1.00  0.00     0.000 C 
BRANCH   3   4
ATOM      4  C   UNL     1      -6.834 -45.197  16.735  1.00  0.00     0.000 C 
BRANCH   4   5
ATOM      5  C   UNL     1      -8.107 -45.292  15.875  1.00  0.00     0.000 C 
BRANCH   5   6
ATOM      6  C   UNL     1      -8.361 -44.017  15.045  1.00  0.00     0.000 C 
BRANCH   6   7
ATOM      7  C   UNL     1      -8.914 -44.343  13.647  1.00  0.00     0.000 C 
BRANCH   7   8
ATOM      8  C   UNL     1      -7.848 -44.913  12.696  1.00  0.00     0.000 C 
BRANCH   8   9
ATOM      9  C   UNL     1      -8.051 -46.407  12.361  1.00  0.00     0.000 C 
BRANCH   9  10
ATOM     10  C   UNL     1      -7.281 -46.816  11.093  1.00  0.00     0.000 C 
BRANCH  10  11
ATOM     11  C   UNL     1      -7.955 -47.963  10.321  1.00  0.00     0.000 C 
BRANCH  11  12
ATOM     12  C   UNL     1      -7.679 -49.375  10.872  1.00  0.00     0.000 C 
BRANCH  12  13
ATOM     13  C   UNL     1      -6.476 -50.101  10.240  1.00  0.00     0.006 C 
BRANCH  13  14
ATOM     14  C   UNL     1      -6.528 -50.125   8.707  1.00  0.00     0.053 C 
BRANCH  14  15
ATOM     15  C   UNL     1      -5.356 -49.392   8.133  1.00  0.00     0.041 C 
ATOM     16  O   UNL     1      -4.225 -49.946   8.083  1.00  0.00    -0.550 OA
ATOM     17  O   UNL     1      -5.509 -48.096   7.662  1.00  0.00    -0.550 OA
ENDBRANCH  14  15
ENDBRANCH  13  14
ENDBRANCH  12  13
ENDBRANCH  11  12
ENDBRANCH  10  11
ENDBRANCH   9  10
ENDBRANCH   8   9
ENDBRANCH   7   8
ENDBRANCH   6   7
ENDBRANCH   5   6
ENDBRANCH   4   5
ENDBRANCH   3   4
ENDBRANCH   2   3
ENDBRANCH   1   2
BRANCH   1  18
ATOM     18  C   UNL     1      -1.954 -45.250  16.240  1.00  0.00     0.000 C 
BRANCH  18  19
ATOM     19  C   UNL     1      -2.204 -45.302  17.759  1.00  0.00     0.000 C 
BRANCH  19  20
ATOM     20  C   UNL     1      -1.674 -46.595  18.405  1.00  0.00     0.000 C 
BRANCH  20  21
ATOM     21  C   UNL     1      -1.466 -47.761  17.422  1.00  0.00     0.000 C 
BRANCH  21  22
ATOM     22  C   UNL     1      -2.492 -48.890  17.616  1.00  0.00     0.000 C 
BRANCH  22  23
ATOM     23  C   UNL     1      -3.831 -48.589  16.921  1.00  0.00     0.000 C 
BRANCH  23  24
ATOM     24  C   UNL     1      -4.960 -48.281  17.922  1.00  0.00    -0.000 C 
BRANCH  24  25
ATOM     25  C   UNL     1      -4.585 -48.676  19.368  1.00  0.00    -0.000 C 
BRANCH  25  26
ATOM     26  C   UNL     1      -4.548 -47.496  20.353  1.00  0.00    -0.000 C 
BRANCH  26  27
ATOM     27  C   UNL     1      -5.099 -46.193  19.758  1.00  0.00    -0.000 C 
BRANCH  27  28
ATOM     28  C   UNL     1      -6.145 -45.558  20.689  1.00  0.00    -0.000 C 
BRANCH  28  29
ATOM     29  C   UNL     1      -6.446 -44.090  20.334  1.00  0.00    -0.000 C 
BRANCH  29  30
ATOM     30  C   UNL     1      -5.316 -43.358  19.589  1.00  0.00    -0.000 C 
BRANCH  30  31
ATOM     31  C   UNL     1      -5.785 -42.065  18.908  1.00  0.00    -0.003 C 
ATOM     32  C   UNL     1      -7.285 -42.108  18.627  1.00  0.00     0.004 C 
ENDBRANCH  30  31
ENDBRANCH  29  30
ENDBRANCH  28  29
ENDBRANCH  27  28
ENDBRANCH  26  27
ENDBRANCH  25  26
ENDBRANCH  24  25
ENDBRANCH  23  24
ENDBRANCH  22  23
ENDBRANCH  21  22
ENDBRANCH  20  21
ENDBRANCH  19  20
ENDBRANCH  18  19
ENDBRANCH   1  18
TORSDOF 28
ENDMDL
MODEL 5
REMARK VINA RESULT:    -4.437      3.909      8.134
REMARK INTER + INTRA:         -16.757
REMARK INTER:                 -10.975
REMARK INTRA:                  -5.782
REMARK UNBOUND:                -5.057
REMARK SMILES CCCCCCCCCCCCCCCCCCCCCCCCCCCCCC(=O)[O-]
REMARK SMILES IDX 16 1 17 2 18 3 19 4 20 5 21 6 22 7 23 8 24 9 25 10 26 11
REMARK SMILES IDX 27 12 28 13 29 14 30 15 31 16 32 17 15 18 14 19 13 20 12 21
REMARK SMILES IDX 11 22 10 23 9 24 8 25 7 26 6 27 5 28 4 29 3 30 2 31 1 32
REMARK H PARENT
REMARK Flexibility Score: inf
ROOT
ATOM      1  C   UNL     1      -3.053 -44.506  15.576  1.00  0.00     0.000 C 
ENDROOT
BRANCH   1   2
ATOM      2  C   UNL     1      -4.426 -44.544  16.278  1.00  0.00     0.000 C 
BRANCH   2   3
ATOM      3  C   UNL     1      -5.459 -45.434  15.564  1.00  0.00     0.000 C 
BRANCH   3   4
ATOM      4  C   UNL     1      -6.744 -45.655  16.393  1.00  0.00     0.000 C 
BRANCH   4   5
ATOM      5  C   UNL     1      -7.932 -44.834  15.860  1.00  0.00     0.000 C 
BRANCH   5   6
ATOM      6  C   UNL     1      -8.187 -43.553  16.681  1.00  0.00     0.000 C 
BRANCH   6   7
ATOM      7  C   UNL     1      -7.989 -42.282  15.837  1.00  0.00     0.000 C 
BRANCH   7   8
ATOM      8  C   UNL     1      -6.615 -41.624  16.055  1.00  0.00     0.000 C 
BRANCH   8   9
ATOM      9  C   UNL     1      -5.880 -41.277  14.742  1.00  0.00     0.000 C 
BRANCH   9  10
ATOM     10  C   UNL     1      -6.258 -42.241  13.604  1.00  0.00     0.000 C 
BRANCH  10  11
ATOM     11  C   UNL     1      -5.041 -42.942  12.977  1.00  0.00     0.000 C 
BRANCH  11  12
ATOM     12  C   UNL     1      -4.007 -42.002  12.327  1.00  0.00     0.000 C 
BRANCH  12  13
ATOM     13  C   UNL     1      -2.629 -41.970  13.015  1.00  0.00     0.006 C 
BRANCH  13  14
ATOM     14  C   UNL     1      -2.244 -40.575  13.524  1.00  0.00     0.053 C 
BRANCH  14  15
ATOM     15  C   UNL     1      -1.395 -39.867  12.515  1.00  0.00     0.041 C 
ATOM     16  O   UNL     1      -1.365 -38.607  12.483  1.00  0.00    -0.550 OA
ATOM     17  O   UNL     1      -0.644 -40.596  11.603  1.00  0.00    -0.550 OA
ENDBRANCH  14  15
ENDBRANCH  13  14
ENDBRANCH  12  13
ENDBRANCH  11  12
ENDBRANCH  10  11
ENDBRANCH   9  10
ENDBRANCH   8   9
ENDBRANCH   7   8
ENDBRANCH   6   7
ENDBRANCH   5   6
ENDBRANCH   4   5
ENDBRANCH   3   4
ENDBRANCH   2   3
ENDBRANCH   1   2
BRANCH   1  18
ATOM     18  C   UNL     1      -1.995 -45.408  16.242  1.00  0.00     0.000 C 
BRANCH  18  19
ATOM     19  C   UNL     1      -2.157 -45.472  17.772  1.00  0.00     0.000 C 
BRANCH  19  20
ATOM     20  C   UNL     1      -1.615 -46.781  18.373  1.00  0.00     0.000 C 
BRANCH  20  21
ATOM     21  C   UNL     1      -1.448 -47.928  17.360  1.00  0.00     0.000 C 
BRANCH  21  22
ATOM     22  C   UNL     1      -2.488 -49.045  17.552  1.00  0.00     0.000 C 
BRANCH  22  23
ATOM     23  C   UNL     1      -3.816 -48.736  16.838  1.00  0.00     0.000 C 
BRANCH  23  24
ATOM     24  C   UNL     1      -4.977 -48.507  17.824  1.00  0.00    -0.000 C 
BRANCH  24  25
ATOM     25  C   UNL     1      -4.571 -48.801  19.285  1.00  0.00    -0.000 C 
BRANCH  25  26
ATOM     26  C   UNL     1      -4.553 -47.562  20.195  1.00  0.00    -0.000 C 
BRANCH  26  27
ATOM     27  C   UNL     1      -5.208 -46.330  19.553  1.00  0.00    -0.000 C 
BRANCH  27  28
ATOM     28  C   UNL     1      -6.121 -45.603  20.553  1.00  0.00    -0.000 C 
BRANCH  28  29
ATOM     29  C   UNL     1      -6.709 -44.299  19.985  1.00  0.00    -0.000 C 
BRANCH  29  30
ATOM     30  C   UNL     1      -5.676 -43.323  19.396  1.00  0.00    -0.000 C 
BRANCH  30  31
ATOM     31  C   UNL     1      -5.828 -41.892  19.928  1.00  0.00    -0.003 C 
ATOM     32  C   UNL     1      -4.500 -41.362  20.460  1.00  0.00     0.004 C 
ENDBRANCH  30  31
ENDBRANCH  29  30
ENDBRANCH  28  29
ENDBRANCH  27  28
ENDBRANCH  26  27
ENDBRANCH  25  26
ENDBRANCH  24  25
ENDBRANCH  23  24
ENDBRANCH  22  23
ENDBRANCH  21  22
ENDBRANCH  20  21
ENDBRANCH  19  20
ENDBRANCH  18  19
ENDBRANCH   1  18
TORSDOF 28
ENDMDL
MODEL 6
REMARK VINA RESULT:    -4.390      1.950      5.016
REMARK INTER + INTRA:         -16.634
REMARK INTER:                 -10.857
REMARK INTRA:                  -5.777
REMARK UNBOUND:                -5.057
REMARK SMILES CCCCCCCCCCCCCCCCCCCCCCCCCCCCCC(=O)[O-]
REMARK SMILES IDX 16 1 17 2 18 3 19 4 20 5 21 6 22 7 23 8 24 9 25 10 26 11
REMARK SMILES IDX 27 12 28 13 29 14 30 15 31 16 32 17 15 18 14 19 13 20 12 21
REMARK SMILES IDX 11 22 10 23 9 24 8 25 7 26 6 27 5 28 4 29 3 30 2 31 1 32
REMARK H PARENT
REMARK Flexibility Score: inf
ROOT
ATOM      1  C   UNL     1      -1.784 -49.891  16.093  1.00  0.00     0.000 C 
ENDROOT
BRANCH   1   2
ATOM      2  C   UNL     1      -3.219 -49.639  15.582  1.00  0.00     0.000 C 
BRANCH   2   3
ATOM      3  C   UNL     1      -4.227 -49.329  16.703  1.00  0.00     0.000 C 
BRANCH   3   4
ATOM      4  C   UNL     1      -4.722 -47.866  16.685  1.00  0.00     0.000 C 
BRANCH   4   5
ATOM      5  C   UNL     1      -5.434 -47.473  17.991  1.00  0.00     0.000 C 
BRANCH   5   6
ATOM      6  C   UNL     1      -4.681 -47.954  19.248  1.00  0.00     0.000 C 
BRANCH   6   7
ATOM      7  C   UNL     1      -4.615 -46.863  20.331  1.00  0.00     0.000 C 
BRANCH   7   8
ATOM      8  C   UNL     1      -5.607 -45.712  20.087  1.00  0.00     0.000 C 
BRANCH   8   9
ATOM      9  C   UNL     1      -4.925 -44.363  19.774  1.00  0.00     0.000 C 
BRANCH   9  10
ATOM     10  C   UNL     1      -5.929 -43.197  19.804  1.00  0.00     0.000 C 
BRANCH  10  11
ATOM     11  C   UNL     1      -7.353 -43.616  19.401  1.00  0.00     0.000 C 
BRANCH  11  12
ATOM     12  C   UNL     1      -8.468 -42.638  19.822  1.00  0.00     0.000 C 
BRANCH  12  13
ATOM     13  C   UNL     1      -9.114 -41.848  18.668  1.00  0.00     0.006 C 
BRANCH  13  14
ATOM     14  C   UNL     1      -8.465 -42.133  17.307  1.00  0.00     0.053 C 
BRANCH  14  15
ATOM     15  C   UNL     1      -7.629 -40.970  16.873  1.00  0.00     0.041 C 
ATOM     16  O   UNL     1      -6.373 -41.021  16.967  1.00  0.00    -0.550 OA
ATOM     17  O   UNL     1      -8.235 -39.826  16.372  1.00  0.00    -0.550 OA
ENDBRANCH  14  15
ENDBRANCH  13  14
ENDBRANCH  12  13
ENDBRANCH  11  12
ENDBRANCH  10  11
ENDBRANCH   9  10
ENDBRANCH   8   9
ENDBRANCH   7   8
ENDBRANCH   6   7
ENDBRANCH   5   6
ENDBRANCH   4   5
ENDBRANCH   3   4
ENDBRANCH   2   3
ENDBRANCH   1   2
BRANCH   1  18
ATOM     18  C   UNL     1      -1.450 -49.128  17.390  1.00  0.00     0.000 C 
BRANCH  18  19
ATOM     19  C   UNL     1      -1.078 -47.657  17.127  1.00  0.00     0.000 C 
BRANCH  19  20
ATOM     20  C   UNL     1      -1.626 -46.704  18.205  1.00  0.00     0.000 C 
BRANCH  20  21
ATOM     21  C   UNL     1      -2.107 -45.343  17.670  1.00  0.00     0.000 C 
BRANCH  21  22
ATOM     22  C   UNL     1      -1.798 -45.151  16.175  1.00  0.00     0.000 C 
BRANCH  22  23
ATOM     23  C   UNL     1      -2.889 -44.343  15.452  1.00  0.00     0.000 C 
BRANCH  23  24
ATOM     24  C   UNL     1      -4.173 -44.202  16.290  1.00  0.00    -0.000 C 
BRANCH  24  25
ATOM     25  C   UNL     1      -5.436 -44.073  15.409  1.00  0.00    -0.000 C 
BRANCH  25  26
ATOM     26  C   UNL     1      -6.656 -44.844  15.938  1.00  0.00    -0.000 C 
BRANCH  26  27
ATOM     27  C   UNL     1      -7.725 -45.094  14.867  1.00  0.00    -0.000 C 
BRANCH  27  28
ATOM     28  C   UNL     1      -7.284 -44.539  13.503  1.00  0.00    -0.000 C 
BRANCH  28  29
ATOM     29  C   UNL     1      -6.849 -45.643  12.522  1.00  0.00    -0.000 C 
BRANCH  29  30
ATOM     30  C   UNL     1      -5.677 -45.266  11.598  1.00  0.00    -0.000 C 
BRANCH  30  31
ATOM     31  C   UNL     1      -4.305 -45.532  12.230  1.00  0.00    -0.003 C 
ATOM     32  C   UNL     1      -4.315 -46.829  13.035  1.00  0.00     0.004 C 
ENDBRANCH  30  31
ENDBRANCH  29  30
ENDBRANCH  28  29
ENDBRANCH  27  28
ENDBRANCH  26  27
ENDBRANCH  25  26
ENDBRANCH  24  25
ENDBRANCH  23  24
ENDBRANCH  22  23
ENDBRANCH  21  22
ENDBRANCH  20  21
ENDBRANCH  19  20
ENDBRANCH  18  19
ENDBRANCH   1  18
TORSDOF 28
ENDMDL
MODEL 7
REMARK VINA RESULT:    -4.356      3.087      6.807
REMARK INTER + INTRA:         -16.544
REMARK INTER:                 -11.070
REMARK INTRA:                  -5.473
REMARK UNBOUND:                -5.057
REMARK SMILES CCCCCCCCCCCCCCCCCCCCCCCCCCCCCC(=O)[O-]
REMARK SMILES IDX 16 1 17 2 18 3 19 4 20 5 21 6 22 7 23 8 24 9 25 10 26 11
REMARK SMILES IDX 27 12 28 13 29 14 30 15 31 16 32 17 15 18 14 19 13 20 12 21
REMARK SMILES IDX 11 22 10 23 9 24 8 25 7 26 6 27 5 28 4 29 3 30 2 31 1 32
REMARK H PARENT
REMARK Flexibility Score: inf
ROOT
ATOM      1  C   UNL     1      -5.271 -47.339  17.168  1.00  0.00     0.000 C 
ENDROOT
BRANCH   1   2
ATOM      2  C   UNL     1      -6.266 -46.316  17.755  1.00  0.00     0.000 C 
BRANCH   2   3
ATOM      3  C   UNL     1      -5.587 -45.168  18.525  1.00  0.00     0.000 C 
BRANCH   3   4
ATOM      4  C   UNL     1      -5.361 -45.492  20.019  1.00  0.00     0.000 C 
BRANCH   4   5
ATOM      5  C   UNL     1      -6.452 -44.885  20.920  1.00  0.00     0.000 C 
BRANCH   5   6
ATOM      6  C   UNL     1      -6.720 -43.398  20.611  1.00  0.00     0.000 C 
BRANCH   6   7
ATOM      7  C   UNL     1      -8.209 -43.128  20.337  1.00  0.00     0.000 C 
BRANCH   7   8
ATOM      8  C   UNL     1      -8.524 -42.955  18.842  1.00  0.00     0.000 C 
BRANCH   8   9
ATOM      9  C   UNL     1      -7.588 -41.960  18.122  1.00  0.00     0.000 C 
BRANCH   9  10
ATOM     10  C   UNL     1      -7.535 -42.221  16.606  1.00  0.00     0.000 C 
BRANCH  10  11
ATOM     11  C   UNL     1      -6.151 -41.945  15.994  1.00  0.00     0.000 C 
BRANCH  11  12
ATOM     12  C   UNL     1      -6.156 -41.595  14.494  1.00  0.00     0.000 C 
BRANCH  12  13
ATOM     13  C   UNL     1      -5.049 -40.622  14.045  1.00  0.00     0.006 C 
BRANCH  13  14
ATOM     14  C   UNL     1      -3.945 -41.306  13.227  1.00  0.00     0.053 C 
BRANCH  14  15
ATOM     15  C   UNL     1      -2.620 -40.669  13.505  1.00  0.00     0.041 C 
ATOM     16  O   UNL     1      -1.555 -41.323  13.342  1.00  0.00    -0.550 OA
ATOM     17  O   UNL     1      -2.558 -39.356  13.951  1.00  0.00    -0.550 OA
ENDBRANCH  14  15
ENDBRANCH  13  14
ENDBRANCH  12  13
ENDBRANCH  11  12
ENDBRANCH  10  11
ENDBRANCH   9  10
ENDBRANCH   8   9
ENDBRANCH   7   8
ENDBRANCH   6   7
ENDBRANCH   5   6
ENDBRANCH   4   5
ENDBRANCH   3   4
ENDBRANCH   2   3
ENDBRANCH   1   2
BRANCH   1  18
ATOM     18  C   UNL     1      -5.143 -48.626  18.007  1.00  0.00     0.000 C 
BRANCH  18  19
ATOM     19  C   UNL     1      -3.861 -48.646  18.861  1.00  0.00     0.000 C 
BRANCH  19  20
ATOM     20  C   UNL     1      -2.608 -49.005  18.043  1.00  0.00     0.000 C 
BRANCH  20  21
ATOM     21  C   UNL     1      -1.598 -47.855  17.883  1.00  0.00     0.000 C 
BRANCH  21  22
ATOM     22  C   UNL     1      -1.980 -46.612  18.705  1.00  0.00     0.000 C 
BRANCH  22  23
ATOM     23  C   UNL     1      -2.045 -45.339  17.844  1.00  0.00     0.000 C 
BRANCH  23  24
ATOM     24  C   UNL     1      -2.031 -45.646  16.334  1.00  0.00    -0.000 C 
BRANCH  24  25
ATOM     25  C   UNL     1      -2.120 -44.364  15.476  1.00  0.00    -0.000 C 
BRANCH  25  26
ATOM     26  C   UNL     1      -3.434 -44.223  14.690  1.00  0.00    -0.000 C 
BRANCH  26  27
ATOM     27  C   UNL     1      -4.090 -45.571  14.360  1.00  0.00    -0.000 C 
BRANCH  27  28
ATOM     28  C   UNL     1      -4.766 -45.536  12.980  1.00  0.00    -0.000 C 
BRANCH  28  29
ATOM     29  C   UNL     1      -6.227 -45.055  13.044  1.00  0.00    -0.000 C 
BRANCH  29  30
ATOM     30  C   UNL     1      -6.894 -45.184  14.425  1.00  0.00    -0.000 C 
BRANCH  30  31
ATOM     31  C   UNL     1      -8.426 -45.169  14.356  1.00  0.00    -0.003 C 
ATOM     32  C   UNL     1      -8.929 -43.939  13.606  1.00  0.00     0.004 C 
ENDBRANCH  30  31
ENDBRANCH  29  30
ENDBRANCH  28  29
ENDBRANCH  27  28
ENDBRANCH  26  27
ENDBRANCH  25  26
ENDBRANCH  24  25
ENDBRANCH  23  24
ENDBRANCH  22  23
ENDBRANCH  21  22
ENDBRANCH  20  21
ENDBRANCH  19  20
ENDBRANCH  18  19
ENDBRANCH   1  18
TORSDOF 28
ENDMDL
MODEL 8
REMARK VINA RESULT:    -4.286      2.156      6.883
REMARK INTER + INTRA:         -16.358
REMARK INTER:                 -10.513
REMARK INTRA:                  -5.845
REMARK UNBOUND:                -5.057
REMARK SMILES CCCCCCCCCCCCCCCCCCCCCCCCCCCCCC(=O)[O-]
REMARK SMILES IDX 16 1 17 2 18 3 19 4 20 5 21 6 22 7 23 8 24 9 25 10 26 11
REMARK SMILES IDX 27 12 28 13 29 14 30 15 31 16 32 17 15 18 14 19 13 20 12 21
REMARK SMILES IDX 11 22 10 23 9 24 8 25 7 26 6 27 5 28 4 29 3 30 2 31 1 32
REMARK H PARENT
REMARK Flexibility Score: inf
ROOT
ATOM      1  C   UNL     1      -6.791 -43.972  15.968  1.00  0.00     0.000 C 
ENDROOT
BRANCH   1   2
ATOM      2  C   UNL     1      -7.552 -43.226  14.851  1.00  0.00     0.000 C 
BRANCH   2   3
ATOM      3  C   UNL     1      -8.574 -44.106  14.109  1.00  0.00     0.000 C 
BRANCH   3   4
ATOM      4  C   UNL     1      -8.092 -44.540  12.706  1.00  0.00     0.000 C 
BRANCH   4   5
ATOM      5  C   UNL     1      -8.302 -46.044  12.456  1.00  0.00     0.000 C 
BRANCH   5   6
ATOM      6  C   UNL     1      -8.050 -46.444  10.988  1.00  0.00     0.000 C 
BRANCH   6   7
ATOM      7  C   UNL     1      -7.627 -47.918  10.859  1.00  0.00     0.000 C 
BRANCH   7   8
ATOM      8  C   UNL     1      -6.101 -48.109  10.883  1.00  0.00     0.000 C 
BRANCH   8   9
ATOM      9  C   UNL     1      -5.314 -46.894  10.346  1.00  0.00     0.000 C 
BRANCH   9  10
ATOM     10  C   UNL     1      -4.111 -46.552  11.241  1.00  0.00     0.000 C 
BRANCH  10  11
ATOM     11  C   UNL     1      -4.306 -46.983  12.705  1.00  0.00     0.000 C 
BRANCH  11  12
ATOM     12  C   UNL     1      -4.759 -45.864  13.663  1.00  0.00     0.000 C 
BRANCH  12  13
ATOM     13  C   UNL     1      -3.790 -44.672  13.781  1.00  0.00     0.006 C 
BRANCH  13  14
ATOM     14  C   UNL     1      -4.314 -43.402  13.100  1.00  0.00     0.053 C 
BRANCH  14  15
ATOM     15  C   UNL     1      -3.712 -42.185  13.730  1.00  0.00     0.041 C 
ATOM     16  O   UNL     1      -4.452 -41.256  14.151  1.00  0.00    -0.550 OA
ATOM     17  O   UNL     1      -2.333 -42.071  13.845  1.00  0.00    -0.550 OA
ENDBRANCH  14  15
ENDBRANCH  13  14
ENDBRANCH  12  13
ENDBRANCH  11  12
ENDBRANCH  10  11
ENDBRANCH   9  10
ENDBRANCH   8   9
ENDBRANCH   7   8
ENDBRANCH   6   7
ENDBRANCH   5   6
ENDBRANCH   4   5
ENDBRANCH   3   4
ENDBRANCH   2   3
ENDBRANCH   1   2
BRANCH   1  18
ATOM     18  C   UNL     1      -5.845 -43.065  16.779  1.00  0.00     0.000 C 
BRANCH  18  19
ATOM     19  C   UNL     1      -6.274 -42.937  18.253  1.00  0.00     0.000 C 
BRANCH  19  20
ATOM     20  C   UNL     1      -6.759 -44.271  18.849  1.00  0.00     0.000 C 
BRANCH  20  21
ATOM     21  C   UNL     1      -5.784 -44.916  19.849  1.00  0.00     0.000 C 
BRANCH  21  22
ATOM     22  C   UNL     1      -5.546 -46.410  19.567  1.00  0.00     0.000 C 
BRANCH  22  23
ATOM     23  C   UNL     1      -5.760 -46.765  18.085  1.00  0.00     0.000 C 
BRANCH  23  24
ATOM     24  C   UNL     1      -5.214 -48.161  17.728  1.00  0.00    -0.000 C 
BRANCH  24  25
ATOM     25  C   UNL     1      -4.079 -48.606  18.677  1.00  0.00    -0.000 C 
BRANCH  25  26
ATOM     26  C   UNL     1      -2.738 -48.872  17.973  1.00  0.00    -0.000 C 
BRANCH  26  27
ATOM     27  C   UNL     1      -2.880 -49.073  16.458  1.00  0.00    -0.000 C 
BRANCH  27  28
ATOM     28  C   UNL     1      -2.049 -48.038  15.682  1.00  0.00    -0.000 C 
BRANCH  28  29
ATOM     29  C   UNL     1      -1.324 -47.041  16.604  1.00  0.00    -0.000 C 
BRANCH  29  30
ATOM     30  C   UNL     1      -1.658 -45.561  16.351  1.00  0.00    -0.000 C 
BRANCH  30  31
ATOM     31  C   UNL     1      -2.720 -45.011  17.313  1.00  0.00    -0.003 C 
ATOM     32  C   UNL     1      -2.294 -45.205  18.766  1.00  0.00     0.004 C 
ENDBRANCH  30  31
ENDBRANCH  29  30
ENDBRANCH  28  29
ENDBRANCH  27  28
ENDBRANCH  26  27
ENDBRANCH  25  26
ENDBRANCH  24  25
ENDBRANCH  23  24
ENDBRANCH  22  23
ENDBRANCH  21  22
ENDBRANCH  20  21
ENDBRANCH  19  20
ENDBRANCH  18  19
ENDBRANCH   1  18
TORSDOF 28
ENDMDL
MODEL 9
REMARK VINA RESULT:    -4.244      1.555      4.482
REMARK INTER + INTRA:         -16.249
REMARK INTER:                 -10.908
REMARK INTRA:                  -5.341
REMARK UNBOUND:                -5.057
REMARK SMILES CCCCCCCCCCCCCCCCCCCCCCCCCCCCCC(=O)[O-]
REMARK SMILES IDX 16 1 17 2 18 3 19 4 20 5 21 6 22 7 23 8 24 9 25 10 26 11
REMARK SMILES IDX 27 12 28 13 29 14 30 15 31 16 32 17 15 18 14 19 13 20 12 21
REMARK SMILES IDX 11 22 10 23 9 24 8 25 7 26 6 27 5 28 4 29 3 30 2 31 1 32
REMARK H PARENT
REMARK Flexibility Score: inf
ROOT
ATOM      1  C   UNL     1      -3.820 -48.149  12.310  1.00  0.00     0.000 C 
ENDROOT
BRANCH   1   2
ATOM      2  C   UNL     1      -3.422 -48.849  13.627  1.00  0.00     0.000 C 
BRANCH   2   3
ATOM      3  C   UNL     1      -2.988 -47.874  14.736  1.00  0.00     0.000 C 
BRANCH   3   4
ATOM      4  C   UNL     1      -1.925 -48.471  15.685  1.00  0.00     0.000 C 
BRANCH   4   5
ATOM      5  C   UNL     1      -1.346 -47.421  16.649  1.00  0.00     0.000 C 
BRANCH   5   6
ATOM      6  C   UNL     1      -1.867 -45.998  16.363  1.00  0.00     0.000 C 
BRANCH   6   7
ATOM      7  C   UNL     1      -2.320 -45.283  17.647  1.00  0.00     0.000 C 
BRANCH   7   8
ATOM      8  C   UNL     1      -2.322 -46.203  18.880  1.00  0.00     0.000 C 
BRANCH   8   9
ATOM      9  C   UNL     1      -3.735 -46.536  19.403  1.00  0.00     0.000 C 
BRANCH   9  10
ATOM     10  C   UNL     1      -4.160 -47.966  19.028  1.00  0.00     0.000 C 
BRANCH  10  11
ATOM     11  C   UNL     1      -5.050 -48.022  17.774  1.00  0.00     0.000 C 
BRANCH  11  12
ATOM     12  C   UNL     1      -5.954 -46.793  17.557  1.00  0.00     0.000 C 
BRANCH  12  13
ATOM     13  C   UNL     1      -5.697 -46.014  16.253  1.00  0.00     0.006 C 
BRANCH  13  14
ATOM     14  C   UNL     1      -6.787 -44.979  15.948  1.00  0.00     0.053 C 
BRANCH  14  15
ATOM     15  C   UNL     1      -6.624 -43.775  16.822  1.00  0.00     0.041 C 
ATOM     16  O   UNL     1      -7.637 -43.179  17.276  1.00  0.00    -0.550 OA
ATOM     17  O   UNL     1      -5.354 -43.305  17.129  1.00  0.00    -0.550 OA
ENDBRANCH  14  15
ENDBRANCH  13  14
ENDBRANCH  12  13
ENDBRANCH  11  12
ENDBRANCH  10  11
ENDBRANCH   9  10
ENDBRANCH   8   9
ENDBRANCH   7   8
ENDBRANCH   6   7
ENDBRANCH   5   6
ENDBRANCH   4   5
ENDBRANCH   3   4
ENDBRANCH   2   3
ENDBRANCH   1   2
BRANCH   1  18
ATOM     18  C   UNL     1      -3.284 -48.856  11.050  1.00  0.00     0.000 C 
BRANCH  18  19
ATOM     19  C   UNL     1      -4.405 -49.220  10.058  1.00  0.00     0.000 C 
BRANCH  19  20
ATOM     20  C   UNL     1      -5.481 -50.125  10.685  1.00  0.00     0.000 C 
BRANCH  20  21
ATOM     21  C   UNL     1      -6.881 -49.491  10.764  1.00  0.00     0.000 C 
BRANCH  21  22
ATOM     22  C   UNL     1      -7.107 -48.415   9.688  1.00  0.00     0.000 C 
BRANCH  22  23
ATOM     23  C   UNL     1      -8.382 -47.593   9.941  1.00  0.00     0.000 C 
BRANCH  23  24
ATOM     24  C   UNL     1      -8.077 -46.143  10.361  1.00  0.00    -0.000 C 
BRANCH  24  25
ATOM     25  C   UNL     1      -7.885 -46.003  11.887  1.00  0.00    -0.000 C 
BRANCH  25  26
ATOM     26  C   UNL     1      -6.434 -45.729  12.317  1.00  0.00    -0.000 C 
BRANCH  26  27
ATOM     27  C   UNL     1      -5.552 -45.208  11.174  1.00  0.00    -0.000 C 
BRANCH  27  28
ATOM     28  C   UNL     1      -4.284 -44.531  11.716  1.00  0.00    -0.000 C 
BRANCH  28  29
ATOM     29  C   UNL     1      -4.163 -44.630  13.248  1.00  0.00    -0.000 C 
BRANCH  29  30
ATOM     30  C   UNL     1      -3.489 -43.423  13.925  1.00  0.00    -0.000 C 
BRANCH  30  31
ATOM     31  C   UNL     1      -3.087 -42.325  12.933  1.00  0.00    -0.003 C 
ATOM     32  C   UNL     1      -2.247 -41.250  13.617  1.00  0.00     0.004 C 
ENDBRANCH  30  31
ENDBRANCH  29  30
ENDBRANCH  28  29
ENDBRANCH  27  28
ENDBRANCH  26  27
ENDBRANCH  25  26
ENDBRANCH  24  25
ENDBRANCH  23  24
ENDBRANCH  22  23
ENDBRANCH  21  22
ENDBRANCH  20  21
ENDBRANCH  19  20
ENDBRANCH  18  19
ENDBRANCH   1  18
TORSDOF 28
ENDMDL
