MODEL 1
REMARK VINA RESULT:    -3.511      0.000      0.000
REMARK INTER + INTRA:         -13.604
REMARK INTER:                  -8.847
REMARK INTRA:                  -4.757
REMARK UNBOUND:                -4.757
REMARK SMILES CCCCCCCCCCCCCCCCCCCCCCCCCCCC(=O)[O-]
REMARK SMILES IDX 15 1 16 2 17 3 18 4 19 5 20 6 21 7 22 8 23 9 24 10 25 11
REMARK SMILES IDX 26 12 27 13 28 14 29 15 30 16 14 17 13 18 12 19 11 20 10 21
REMARK SMILES IDX 9 22 8 23 7 24 6 25 5 26 4 27 3 28 2 29 1 30
REMARK H PARENT
REMARK Flexibility Score: inf
ROOT
ATOM      1  C   UNL     1    -105.480  33.029 -38.026  1.00  0.00     0.000 C 
ENDROOT
BRANCH   1   2
ATOM      2  C   UNL     1    -105.310  31.766 -38.885  1.00  0.00     0.000 C 
BRANCH   2   3
ATOM      3  C   UNL     1    -103.845  31.299 -38.943  1.00  0.00     0.000 C 
BRANCH   3   4
ATOM      4  C   UNL     1    -103.146  31.354 -37.573  1.00  0.00     0.000 C 
BRANCH   4   5
ATOM      5  C   UNL     1    -103.406  30.138 -36.661  1.00  0.00     0.000 C 
BRANCH   5   6
ATOM      6  C   UNL     1    -103.462  30.450 -35.153  1.00  0.00     0.000 C 
BRANCH   6   7
ATOM      7  C   UNL     1    -102.858  31.806 -34.740  1.00  0.00     0.000 C 
BRANCH   7   8
ATOM      8  C   UNL     1    -101.855  31.720 -33.568  1.00  0.00     0.000 C 
BRANCH   8   9
ATOM      9  C   UNL     1    -100.846  30.568 -33.730  1.00  0.00     0.000 C 
BRANCH   9  10
ATOM     10  C   UNL     1     -99.600  30.976 -34.529  1.00  0.00     0.000 C 
BRANCH  10  11
ATOM     11  C   UNL     1     -99.673  30.547 -36.006  1.00  0.00     0.000 C 
BRANCH  11  12
ATOM     12  C   UNL     1     -99.907  31.732 -36.956  1.00  0.00     0.006 C 
BRANCH  12  13
ATOM     13  C   UNL     1     -99.203  31.557 -38.309  1.00  0.00     0.053 C 
BRANCH  13  14
ATOM     14  C   UNL     1     -98.343  32.742 -38.624  1.00  0.00     0.041 C 
ATOM     15  O   UNL     1     -98.452  33.805 -37.957  1.00  0.00    -0.550 OA
ATOM     16  O   UNL     1     -97.395  32.661 -39.635  1.00  0.00    -0.550 OA
ENDBRANCH  13  14
ENDBRANCH  12  13
ENDBRANCH  11  12
ENDBRANCH  10  11
ENDBRANCH   9  10
ENDBRANCH   8   9
ENDBRANCH   7   8
ENDBRANCH   6   7
ENDBRANCH   5   6
ENDBRANCH   4   5
ENDBRANCH   3   4
ENDBRANCH   2   3
ENDBRANCH   1   2
BRANCH   1  17
ATOM     17  C   UNL     1    -106.760  32.994 -37.178  1.00  0.00     0.000 C 
BRANCH  17  18
ATOM     18  C   UNL     1    -106.461  32.495 -35.756  1.00  0.00     0.000 C 
BRANCH  18  19
ATOM     19  C   UNL     1    -106.882  31.031 -35.532  1.00  0.00     0.000 C 
BRANCH  19  20
ATOM     20  C   UNL     1    -106.912  30.575 -34.061  1.00  0.00     0.000 C 
BRANCH  20  21
ATOM     21  C   UNL     1    -107.826  31.397 -33.133  1.00  0.00     0.000 C 
BRANCH  21  22
ATOM     22  C   UNL     1    -107.111  31.886 -31.862  1.00  0.00    -0.000 C 
BRANCH  22  23
ATOM     23  C   UNL     1    -105.577  31.810 -31.975  1.00  0.00    -0.000 C 
BRANCH  23  24
ATOM     24  C   UNL     1    -104.846  33.169 -31.934  1.00  0.00    -0.000 C 
BRANCH  24  25
ATOM     25  C   UNL     1    -105.633  34.360 -32.519  1.00  0.00    -0.000 C 
BRANCH  25  26
ATOM     26  C   UNL     1    -105.800  35.551 -31.559  1.00  0.00    -0.000 C 
BRANCH  26  27
ATOM     27  C   UNL     1    -107.276  35.922 -31.334  1.00  0.00    -0.000 C 
BRANCH  27  28
ATOM     28  C   UNL     1    -108.048  36.085 -32.657  1.00  0.00    -0.000 C 
BRANCH  28  29
ATOM     29  C   UNL     1    -109.203  35.080 -32.834  1.00  0.00    -0.003 C 
ATOM     30  C   UNL     1    -109.207  34.423 -34.216  1.00  0.00     0.004 C 
ENDBRANCH  28  29
ENDBRANCH  27  28
ENDBRANCH  26  27
ENDBRANCH  25  26
ENDBRANCH  24  25
ENDBRANCH  23  24
ENDBRANCH  22  23
ENDBRANCH  21  22
ENDBRANCH  20  21
ENDBRANCH  19  20
ENDBRANCH  18  19
ENDBRANCH  17  18
ENDBRANCH   1  17
TORSDOF 26
ENDMDL
MODEL 2
REMARK VINA RESULT:    -3.357      3.437      8.370
REMARK INTER + INTRA:         -13.216
REMARK INTER:                  -9.515
REMARK INTRA:                  -3.700
REMARK UNBOUND:                -4.757
REMARK SMILES CCCCCCCCCCCCCCCCCCCCCCCCCCCC(=O)[O-]
REMARK SMILES IDX 15 1 16 2 17 3 18 4 19 5 20 6 21 7 22 8 23 9 24 10 25 11
REMARK SMILES IDX 26 12 27 13 28 14 29 15 30 16 14 17 13 18 12 19 11 20 10 21
REMARK SMILES IDX 9 22 8 23 7 24 6 25 5 26 4 27 3 28 2 29 1 30
REMARK H PARENT
REMARK Flexibility Score: inf
ROOT
ATOM      1  C   UNL     1    -107.318  32.856 -36.767  1.00  0.00     0.000 C 
ENDROOT
BRANCH   1   2
ATOM      2  C   UNL     1    -107.342  31.475 -36.091  1.00  0.00     0.000 C 
BRANCH   2   3
ATOM      3  C   UNL     1    -107.446  31.582 -34.560  1.00  0.00     0.000 C 
BRANCH   3   4
ATOM      4  C   UNL     1    -106.553  32.691 -33.977  1.00  0.00     0.000 C 
BRANCH   4   5
ATOM      5  C   UNL     1    -105.912  32.362 -32.613  1.00  0.00     0.000 C 
BRANCH   5   6
ATOM      6  C   UNL     1    -104.691  33.223 -32.238  1.00  0.00     0.000 C 
BRANCH   6   7
ATOM      7  C   UNL     1    -104.814  33.996 -30.911  1.00  0.00     0.000 C 
BRANCH   7   8
ATOM      8  C   UNL     1    -104.899  35.529 -31.079  1.00  0.00     0.000 C 
BRANCH   8   9
ATOM      9  C   UNL     1    -105.995  35.961 -32.070  1.00  0.00     0.000 C 
BRANCH   9  10
ATOM     10  C   UNL     1    -107.399  35.953 -31.448  1.00  0.00     0.000 C 
BRANCH  10  11
ATOM     11  C   UNL     1    -108.467  35.375 -32.395  1.00  0.00     0.000 C 
BRANCH  11  12
ATOM     12  C   UNL     1    -109.346  36.463 -33.031  1.00  0.00     0.006 C 
BRANCH  12  13
ATOM     13  C   UNL     1    -109.112  37.850 -32.416  1.00  0.00     0.053 C 
BRANCH  13  14
ATOM     14  C   UNL     1    -108.508  38.786 -33.416  1.00  0.00     0.041 C 
ATOM     15  O   UNL     1    -109.058  38.966 -34.535  1.00  0.00    -0.550 OA
ATOM     16  O   UNL     1    -107.354  39.490 -33.099  1.00  0.00    -0.550 OA
ENDBRANCH  13  14
ENDBRANCH  12  13
ENDBRANCH  11  12
ENDBRANCH  10  11
ENDBRANCH   9  10
ENDBRANCH   8   9
ENDBRANCH   7   8
ENDBRANCH   6   7
ENDBRANCH   5   6
ENDBRANCH   4   5
ENDBRANCH   3   4
ENDBRANCH   2   3
ENDBRANCH   1   2
BRANCH   1  17
ATOM     17  C   UNL     1    -106.505  32.856 -38.071  1.00  0.00     0.000 C 
BRANCH  17  18
ATOM     18  C   UNL     1    -105.027  33.169 -37.795  1.00  0.00     0.000 C 
BRANCH  18  19
ATOM     19  C   UNL     1    -104.092  31.991 -38.123  1.00  0.00     0.000 C 
BRANCH  19  20
ATOM     20  C   UNL     1    -103.549  31.225 -36.902  1.00  0.00     0.000 C 
BRANCH  20  21
ATOM     21  C   UNL     1    -103.338  32.072 -35.632  1.00  0.00     0.000 C 
BRANCH  21  22
ATOM     22  C   UNL     1    -102.814  31.251 -34.441  1.00  0.00    -0.000 C 
BRANCH  22  23
ATOM     23  C   UNL     1    -101.422  31.710 -33.968  1.00  0.00    -0.000 C 
BRANCH  23  24
ATOM     24  C   UNL     1    -100.283  30.692 -34.190  1.00  0.00    -0.000 C 
BRANCH  24  25
ATOM     25  C   UNL     1     -99.339  31.004 -35.370  1.00  0.00    -0.000 C 
BRANCH  25  26
ATOM     26  C   UNL     1     -99.843  30.516 -36.740  1.00  0.00    -0.000 C 
BRANCH  26  27
ATOM     27  C   UNL     1     -99.842  31.634 -37.798  1.00  0.00    -0.000 C 
BRANCH  27  28
ATOM     28  C   UNL     1     -98.923  32.807 -37.411  1.00  0.00    -0.000 C 
BRANCH  28  29
ATOM     29  C   UNL     1     -98.312  33.548 -38.616  1.00  0.00    -0.003 C 
ATOM     30  C   UNL     1     -97.187  32.757 -39.286  1.00  0.00     0.004 C 
ENDBRANCH  28  29
ENDBRANCH  27  28
ENDBRANCH  26  27
ENDBRANCH  25  26
ENDBRANCH  24  25
ENDBRANCH  23  24
ENDBRANCH  22  23
ENDBRANCH  21  22
ENDBRANCH  20  21
ENDBRANCH  19  20
ENDBRANCH  18  19
ENDBRANCH  17  18
ENDBRANCH   1  17
TORSDOF 26
ENDMDL
MODEL 3
REMARK VINA RESULT:    -3.251      1.439      2.517
REMARK INTER + INTRA:         -12.950
REMARK INTER:                  -8.741
REMARK INTRA:                  -4.209
REMARK UNBOUND:                -4.757
REMARK SMILES CCCCCCCCCCCCCCCCCCCCCCCCCCCC(=O)[O-]
REMARK SMILES IDX 15 1 16 2 17 3 18 4 19 5 20 6 21 7 22 8 23 9 24 10 25 11
REMARK SMILES IDX 26 12 27 13 28 14 29 15 30 16 14 17 13 18 12 19 11 20 10 21
REMARK SMILES IDX 9 22 8 23 7 24 6 25 5 26 4 27 3 28 2 29 1 30
REMARK H PARENT
REMARK Flexibility Score: inf
ROOT
ATOM      1  C   UNL     1    -105.225  32.952 -38.116  1.00  0.00     0.000 C 
ENDROOT
BRANCH   1   2
ATOM      2  C   UNL     1    -105.013  31.724 -39.016  1.00  0.00     0.000 C 
BRANCH   2   3
ATOM      3  C   UNL     1    -103.612  31.113 -38.841  1.00  0.00     0.000 C 
BRANCH   3   4
ATOM      4  C   UNL     1    -103.051  31.300 -37.421  1.00  0.00     0.000 C 
BRANCH   4   5
ATOM      5  C   UNL     1    -103.191  30.073 -36.498  1.00  0.00     0.000 C 
BRANCH   5   6
ATOM      6  C   UNL     1    -103.252  30.388 -34.992  1.00  0.00     0.000 C 
BRANCH   6   7
ATOM      7  C   UNL     1    -102.747  31.787 -34.592  1.00  0.00     0.000 C 
BRANCH   7   8
ATOM      8  C   UNL     1    -101.599  31.773 -33.558  1.00  0.00     0.000 C 
BRANCH   8   9
ATOM      9  C   UNL     1    -100.708  30.522 -33.673  1.00  0.00     0.000 C 
BRANCH   9  10
ATOM     10  C   UNL     1     -99.411  30.784 -34.452  1.00  0.00     0.000 C 
BRANCH  10  11
ATOM     11  C   UNL     1     -99.564  30.533 -35.964  1.00  0.00     0.000 C 
BRANCH  11  12
ATOM     12  C   UNL     1     -99.626  31.834 -36.777  1.00  0.00     0.006 C 
BRANCH  12  13
ATOM     13  C   UNL     1     -99.145  31.654 -38.224  1.00  0.00     0.053 C 
BRANCH  13  14
ATOM     14  C   UNL     1     -98.226  32.765 -38.627  1.00  0.00     0.041 C 
ATOM     15  O   UNL     1     -97.253  32.541 -39.395  1.00  0.00    -0.550 OA
ATOM     16  O   UNL     1     -98.464  34.058 -38.182  1.00  0.00    -0.550 OA
ENDBRANCH  13  14
ENDBRANCH  12  13
ENDBRANCH  11  12
ENDBRANCH  10  11
ENDBRANCH   9  10
ENDBRANCH   8   9
ENDBRANCH   7   8
ENDBRANCH   6   7
ENDBRANCH   5   6
ENDBRANCH   4   5
ENDBRANCH   3   4
ENDBRANCH   2   3
ENDBRANCH   1   2
BRANCH   1  17
ATOM     17  C   UNL     1    -106.707  33.190 -37.787  1.00  0.00     0.000 C 
BRANCH  17  18
ATOM     18  C   UNL     1    -107.472  31.860 -37.716  1.00  0.00     0.000 C 
BRANCH  18  19
ATOM     19  C   UNL     1    -107.981  31.535 -36.300  1.00  0.00     0.000 C 
BRANCH  19  20
ATOM     20  C   UNL     1    -107.017  30.702 -35.432  1.00  0.00     0.000 C 
BRANCH  20  21
ATOM     21  C   UNL     1    -106.560  31.375 -34.124  1.00  0.00     0.000 C 
BRANCH  21  22
ATOM     22  C   UNL     1    -106.436  32.904 -34.245  1.00  0.00    -0.000 C 
BRANCH  22  23
ATOM     23  C   UNL     1    -107.402  33.655 -33.308  1.00  0.00    -0.000 C 
BRANCH  23  24
ATOM     24  C   UNL     1    -108.511  32.789 -32.674  1.00  0.00    -0.000 C 
BRANCH  24  25
ATOM     25  C   UNL     1    -109.946  33.330 -32.839  1.00  0.00    -0.000 C 
BRANCH  25  26
ATOM     26  C   UNL     1    -110.070  34.540 -33.781  1.00  0.00    -0.000 C 
BRANCH  26  27
ATOM     27  C   UNL     1    -111.054  34.286 -34.937  1.00  0.00    -0.000 C 
BRANCH  27  28
ATOM     28  C   UNL     1    -110.778  35.192 -36.151  1.00  0.00    -0.000 C 
BRANCH  28  29
ATOM     29  C   UNL     1    -110.039  34.485 -37.304  1.00  0.00    -0.003 C 
ATOM     30  C   UNL     1    -110.935  34.244 -38.520  1.00  0.00     0.004 C 
ENDBRANCH  28  29
ENDBRANCH  27  28
ENDBRANCH  26  27
ENDBRANCH  25  26
ENDBRANCH  24  25
ENDBRANCH  23  24
ENDBRANCH  22  23
ENDBRANCH  21  22
ENDBRANCH  20  21
ENDBRANCH  19  20
ENDBRANCH  18  19
ENDBRANCH  17  18
ENDBRANCH   1  17
TORSDOF 26
ENDMDL
MODEL 4
REMARK VINA RESULT:    -3.119     11.428     14.299
REMARK INTER + INTRA:         -12.618
REMARK INTER:                  -7.945
REMARK INTRA:                  -4.672
REMARK UNBOUND:                -4.757
REMARK SMILES CCCCCCCCCCCCCCCCCCCCCCCCCCCC(=O)[O-]
REMARK SMILES IDX 15 1 16 2 17 3 18 4 19 5 20 6 21 7 22 8 23 9 24 10 25 11
REMARK SMILES IDX 26 12 27 13 28 14 29 15 30 16 14 17 13 18 12 19 11 20 10 21
REMARK SMILES IDX 9 22 8 23 7 24 6 25 5 26 4 27 3 28 2 29 1 30
REMARK H PARENT
REMARK Flexibility Score: inf
ROOT
ATOM      1  C   UNL     1    -108.005  45.564 -40.169  1.00  0.00     0.000 C 
ENDROOT
BRANCH   1   2
ATOM      2  C   UNL     1    -107.805  44.060 -39.921  1.00  0.00     0.000 C 
BRANCH   2   3
ATOM      3  C   UNL     1    -107.453  43.303 -41.214  1.00  0.00     0.000 C 
BRANCH   3   4
ATOM      4  C   UNL     1    -108.157  41.939 -41.317  1.00  0.00     0.000 C 
BRANCH   4   5
ATOM      5  C   UNL     1    -108.990  41.541 -40.082  1.00  0.00     0.000 C 
BRANCH   5   6
ATOM      6  C   UNL     1    -110.413  41.035 -40.386  1.00  0.00     0.000 C 
BRANCH   6   7
ATOM      7  C   UNL     1    -111.360  42.076 -41.013  1.00  0.00     0.000 C 
BRANCH   7   8
ATOM      8  C   UNL     1    -111.416  43.419 -40.252  1.00  0.00     0.000 C 
BRANCH   8   9
ATOM      9  C   UNL     1    -111.365  44.639 -41.190  1.00  0.00     0.000 C 
BRANCH   9  10
ATOM     10  C   UNL     1    -110.806  44.300 -42.579  1.00  0.00     0.000 C 
BRANCH  10  11
ATOM     11  C   UNL     1    -109.992  45.454 -43.192  1.00  0.00     0.000 C 
BRANCH  11  12
ATOM     12  C   UNL     1    -109.052  44.986 -44.313  1.00  0.00     0.006 C 
BRANCH  12  13
ATOM     13  C   UNL     1    -109.177  43.483 -44.604  1.00  0.00     0.053 C 
BRANCH  13  14
ATOM     14  C   UNL     1    -109.620  43.244 -46.014  1.00  0.00     0.041 C 
ATOM     15  O   UNL     1    -108.898  43.607 -46.980  1.00  0.00    -0.550 OA
ATOM     16  O   UNL     1    -110.818  42.588 -46.262  1.00  0.00    -0.550 OA
ENDBRANCH  13  14
ENDBRANCH  12  13
ENDBRANCH  11  12
ENDBRANCH  10  11
ENDBRANCH   9  10
ENDBRANCH   8   9
ENDBRANCH   7   8
ENDBRANCH   6   7
ENDBRANCH   5   6
ENDBRANCH   4   5
ENDBRANCH   3   4
ENDBRANCH   2   3
ENDBRANCH   1   2
BRANCH   1  17
ATOM     17  C   UNL     1    -108.520  46.300 -38.922  1.00  0.00     0.000 C 
BRANCH  17  18
ATOM     18  C   UNL     1    -108.409  45.409 -37.675  1.00  0.00     0.000 C 
BRANCH  18  19
ATOM     19  C   UNL     1    -109.657  45.476 -36.777  1.00  0.00     0.000 C 
BRANCH  19  20
ATOM     20  C   UNL     1    -109.456  46.192 -35.427  1.00  0.00     0.000 C 
BRANCH  20  21
ATOM     21  C   UNL     1    -108.043  46.752 -35.182  1.00  0.00     0.000 C 
BRANCH  21  22
ATOM     22  C   UNL     1    -107.761  47.045 -33.698  1.00  0.00    -0.000 C 
BRANCH  22  23
ATOM     23  C   UNL     1    -106.743  46.068 -33.080  1.00  0.00    -0.000 C 
BRANCH  23  24
ATOM     24  C   UNL     1    -106.071  45.101 -34.078  1.00  0.00    -0.000 C 
BRANCH  24  25
ATOM     25  C   UNL     1    -105.660  43.733 -33.496  1.00  0.00    -0.000 C 
BRANCH  25  26
ATOM     26  C   UNL     1    -106.386  42.528 -34.120  1.00  0.00    -0.000 C 
BRANCH  26  27
ATOM     27  C   UNL     1    -107.717  42.924 -34.784  1.00  0.00    -0.000 C 
BRANCH  27  28
ATOM     28  C   UNL     1    -108.898  42.888 -33.796  1.00  0.00    -0.000 C 
BRANCH  28  29
ATOM     29  C   UNL     1    -108.676  41.954 -32.590  1.00  0.00    -0.003 C 
ATOM     30  C   UNL     1    -108.729  42.695 -31.252  1.00  0.00     0.004 C 
ENDBRANCH  28  29
ENDBRANCH  27  28
ENDBRANCH  26  27
ENDBRANCH  25  26
ENDBRANCH  24  25
ENDBRANCH  23  24
ENDBRANCH  22  23
ENDBRANCH  21  22
ENDBRANCH  20  21
ENDBRANCH  19  20
ENDBRANCH  18  19
ENDBRANCH  17  18
ENDBRANCH   1  17
TORSDOF 26
ENDMDL
MODEL 5
REMARK VINA RESULT:    -3.094     13.517     16.603
REMARK INTER + INTRA:         -12.553
REMARK INTER:                  -7.698
REMARK INTRA:                  -4.855
REMARK UNBOUND:                -4.757
REMARK SMILES CCCCCCCCCCCCCCCCCCCCCCCCCCCC(=O)[O-]
REMARK SMILES IDX 15 1 16 2 17 3 18 4 19 5 20 6 21 7 22 8 23 9 24 10 25 11
REMARK SMILES IDX 26 12 27 13 28 14 29 15 30 16 14 17 13 18 12 19 11 20 10 21
REMARK SMILES IDX 9 22 8 23 7 24 6 25 5 26 4 27 3 28 2 29 1 30
REMARK H PARENT
REMARK Flexibility Score: inf
ROOT
ATOM      1  C   UNL     1    -109.998  43.407 -43.808  1.00  0.00     0.000 C 
ENDROOT
BRANCH   1   2
ATOM      2  C   UNL     1    -108.717  43.765 -43.036  1.00  0.00     0.000 C 
BRANCH   2   3
ATOM      3  C   UNL     1    -108.303  42.653 -42.056  1.00  0.00     0.000 C 
BRANCH   3   4
ATOM      4  C   UNL     1    -107.365  43.156 -40.945  1.00  0.00     0.000 C 
BRANCH   4   5
ATOM      5  C   UNL     1    -108.065  43.898 -39.788  1.00  0.00     0.000 C 
BRANCH   5   6
ATOM      6  C   UNL     1    -109.091  43.063 -38.999  1.00  0.00     0.000 C 
BRANCH   6   7
ATOM      7  C   UNL     1    -110.560  43.260 -39.419  1.00  0.00     0.000 C 
BRANCH   7   8
ATOM      8  C   UNL     1    -111.025  44.733 -39.419  1.00  0.00     0.000 C 
BRANCH   8   9
ATOM      9  C   UNL     1    -110.913  45.394 -38.033  1.00  0.00     0.000 C 
BRANCH   9  10
ATOM     10  C   UNL     1    -110.156  46.730 -38.068  1.00  0.00     0.000 C 
BRANCH  10  11
ATOM     11  C   UNL     1    -108.739  46.627 -37.475  1.00  0.00     0.000 C 
BRANCH  11  12
ATOM     12  C   UNL     1    -108.680  45.718 -36.238  1.00  0.00     0.006 C 
BRANCH  12  13
ATOM     13  C   UNL     1    -107.453  44.795 -36.237  1.00  0.00     0.053 C 
BRANCH  13  14
ATOM     14  C   UNL     1    -107.697  43.578 -35.399  1.00  0.00     0.041 C 
ATOM     15  O   UNL     1    -106.808  43.158 -34.611  1.00  0.00    -0.550 OA
ATOM     16  O   UNL     1    -108.921  42.927 -35.462  1.00  0.00    -0.550 OA
ENDBRANCH  13  14
ENDBRANCH  12  13
ENDBRANCH  11  12
ENDBRANCH  10  11
ENDBRANCH   9  10
ENDBRANCH   8   9
ENDBRANCH   7   8
ENDBRANCH   6   7
ENDBRANCH   5   6
ENDBRANCH   4   5
ENDBRANCH   3   4
ENDBRANCH   2   3
ENDBRANCH   1   2
BRANCH   1  17
ATOM     17  C   UNL     1    -110.005  43.986 -45.231  1.00  0.00     0.000 C 
BRANCH  17  18
ATOM     18  C   UNL     1    -108.873  45.008 -45.413  1.00  0.00     0.000 C 
BRANCH  18  19
ATOM     19  C   UNL     1    -108.918  45.717 -46.778  1.00  0.00     0.000 C 
BRANCH  19  20
ATOM     20  C   UNL     1    -108.601  47.225 -46.744  1.00  0.00     0.000 C 
BRANCH  20  21
ATOM     21  C   UNL     1    -108.035  47.750 -45.412  1.00  0.00     0.000 C 
BRANCH  21  22
ATOM     22  C   UNL     1    -106.812  48.666 -45.597  1.00  0.00    -0.000 C 
BRANCH  22  23
ATOM     23  C   UNL     1    -106.088  48.968 -44.272  1.00  0.00    -0.000 C 
BRANCH  23  24
ATOM     24  C   UNL     1    -107.010  49.268 -43.071  1.00  0.00    -0.000 C 
BRANCH  24  25
ATOM     25  C   UNL     1    -106.526  48.720 -41.713  1.00  0.00    -0.000 C 
BRANCH  25  26
ATOM     26  C   UNL     1    -107.583  47.921 -40.931  1.00  0.00    -0.000 C 
BRANCH  26  27
ATOM     27  C   UNL     1    -108.387  46.970 -41.835  1.00  0.00    -0.000 C 
BRANCH  27  28
ATOM     28  C   UNL     1    -109.908  47.160 -41.681  1.00  0.00    -0.000 C 
BRANCH  28  29
ATOM     29  C   UNL     1    -110.543  48.034 -42.780  1.00  0.00    -0.003 C 
ATOM     30  C   UNL     1    -111.332  47.215 -43.803  1.00  0.00     0.004 C 
ENDBRANCH  28  29
ENDBRANCH  27  28
ENDBRANCH  26  27
ENDBRANCH  25  26
ENDBRANCH  24  25
ENDBRANCH  23  24
ENDBRANCH  22  23
ENDBRANCH  21  22
ENDBRANCH  20  21
ENDBRANCH  19  20
ENDBRANCH  18  19
ENDBRANCH  17  18
ENDBRANCH   1  17
TORSDOF 26
ENDMDL
MODEL 6
REMARK VINA RESULT:    -3.093     12.721     15.782
REMARK INTER + INTRA:         -12.551
REMARK INTER:                  -7.135
REMARK INTRA:                  -5.416
REMARK UNBOUND:                -4.757
REMARK SMILES CCCCCCCCCCCCCCCCCCCCCCCCCCCC(=O)[O-]
REMARK SMILES IDX 15 1 16 2 17 3 18 4 19 5 20 6 21 7 22 8 23 9 24 10 25 11
REMARK SMILES IDX 26 12 27 13 28 14 29 15 30 16 14 17 13 18 12 19 11 20 10 21
REMARK SMILES IDX 9 22 8 23 7 24 6 25 5 26 4 27 3 28 2 29 1 30
REMARK H PARENT
REMARK Flexibility Score: inf
ROOT
ATOM      1  C   UNL     1    -110.836  43.415 -42.096  1.00  0.00     0.000 C 
ENDROOT
BRANCH   1   2
ATOM      2  C   UNL     1    -110.632  42.252 -41.112  1.00  0.00     0.000 C 
BRANCH   2   3
ATOM      3  C   UNL     1    -109.192  41.712 -41.145  1.00  0.00     0.000 C 
BRANCH   3   4
ATOM      4  C   UNL     1    -108.186  42.727 -41.716  1.00  0.00     0.000 C 
BRANCH   4   5
ATOM      5  C   UNL     1    -107.388  43.518 -40.660  1.00  0.00     0.000 C 
BRANCH   5   6
ATOM      6  C   UNL     1    -108.025  44.849 -40.218  1.00  0.00     0.000 C 
BRANCH   6   7
ATOM      7  C   UNL     1    -108.436  44.922 -38.735  1.00  0.00     0.000 C 
BRANCH   7   8
ATOM      8  C   UNL     1    -109.957  44.799 -38.495  1.00  0.00     0.000 C 
BRANCH   8   9
ATOM      9  C   UNL     1    -110.299  43.922 -37.275  1.00  0.00     0.000 C 
BRANCH   9  10
ATOM     10  C   UNL     1    -109.624  42.544 -37.323  1.00  0.00     0.000 C 
BRANCH  10  11
ATOM     11  C   UNL     1    -108.959  42.160 -35.989  1.00  0.00     0.000 C 
BRANCH  11  12
ATOM     12  C   UNL     1    -108.598  43.383 -35.133  1.00  0.00     0.006 C 
BRANCH  12  13
ATOM     13  C   UNL     1    -107.092  43.680 -35.125  1.00  0.00     0.053 C 
BRANCH  13  14
ATOM     14  C   UNL     1    -106.834  45.153 -35.057  1.00  0.00     0.041 C 
ATOM     15  O   UNL     1    -105.704  45.588 -34.711  1.00  0.00    -0.550 OA
ATOM     16  O   UNL     1    -107.835  46.049 -35.411  1.00  0.00    -0.550 OA
ENDBRANCH  13  14
ENDBRANCH  12  13
ENDBRANCH  11  12
ENDBRANCH  10  11
ENDBRANCH   9  10
ENDBRANCH   8   9
ENDBRANCH   7   8
ENDBRANCH   6   7
ENDBRANCH   5   6
ENDBRANCH   4   5
ENDBRANCH   3   4
ENDBRANCH   2   3
ENDBRANCH   1   2
BRANCH   1  17
ATOM     17  C   UNL     1    -111.622  42.994 -43.347  1.00  0.00     0.000 C 
BRANCH  17  18
ATOM     18  C   UNL     1    -111.161  43.789 -44.578  1.00  0.00     0.000 C 
BRANCH  18  19
ATOM     19  C   UNL     1    -109.639  43.724 -44.799  1.00  0.00     0.000 C 
BRANCH  19  20
ATOM     20  C   UNL     1    -108.954  45.082 -45.044  1.00  0.00     0.000 C 
BRANCH  20  21
ATOM     21  C   UNL     1    -108.898  46.023 -43.826  1.00  0.00     0.000 C 
BRANCH  21  22
ATOM     22  C   UNL     1    -109.315  47.466 -44.161  1.00  0.00    -0.000 C 
BRANCH  22  23
ATOM     23  C   UNL     1    -110.394  48.011 -43.205  1.00  0.00    -0.000 C 
BRANCH  23  24
ATOM     24  C   UNL     1    -111.003  46.972 -42.240  1.00  0.00    -0.000 C 
BRANCH  24  25
ATOM     25  C   UNL     1    -110.884  47.314 -40.740  1.00  0.00    -0.000 C 
BRANCH  25  26
ATOM     26  C   UNL     1    -110.205  48.663 -40.443  1.00  0.00    -0.000 C 
BRANCH  26  27
ATOM     27  C   UNL     1    -108.777  48.493 -39.895  1.00  0.00    -0.000 C 
BRANCH  27  28
ATOM     28  C   UNL     1    -107.721  49.168 -40.791  1.00  0.00    -0.000 C 
BRANCH  28  29
ATOM     29  C   UNL     1    -106.824  48.176 -41.556  1.00  0.00    -0.003 C 
ATOM     30  C   UNL     1    -105.520  48.813 -42.042  1.00  0.00     0.004 C 
ENDBRANCH  28  29
ENDBRANCH  27  28
ENDBRANCH  26  27
ENDBRANCH  25  26
ENDBRANCH  24  25
ENDBRANCH  23  24
ENDBRANCH  22  23
ENDBRANCH  21  22
ENDBRANCH  20  21
ENDBRANCH  19  20
ENDBRANCH  18  19
ENDBRANCH  17  18
ENDBRANCH   1  17
TORSDOF 26
ENDMDL
MODEL 7
REMARK VINA RESULT:    -3.068      2.253      4.091
REMARK INTER + INTRA:         -12.488
REMARK INTER:                  -8.141
REMARK INTRA:                  -4.347
REMARK UNBOUND:                -4.757
REMARK SMILES CCCCCCCCCCCCCCCCCCCCCCCCCCCC(=O)[O-]
REMARK SMILES IDX 15 1 16 2 17 3 18 4 19 5 20 6 21 7 22 8 23 9 24 10 25 11
REMARK SMILES IDX 26 12 27 13 28 14 29 15 30 16 14 17 13 18 12 19 11 20 10 21
REMARK SMILES IDX 9 22 8 23 7 24 6 25 5 26 4 27 3 28 2 29 1 30
REMARK H PARENT
REMARK Flexibility Score: inf
ROOT
ATOM      1  C   UNL     1    -105.455  32.956 -38.128  1.00  0.00     0.000 C 
ENDROOT
BRANCH   1   2
ATOM      2  C   UNL     1    -105.126  31.701 -38.953  1.00  0.00     0.000 C 
BRANCH   2   3
ATOM      3  C   UNL     1    -103.644  31.303 -38.836  1.00  0.00     0.000 C 
BRANCH   3   4
ATOM      4  C   UNL     1    -103.117  31.384 -37.393  1.00  0.00     0.000 C 
BRANCH   4   5
ATOM      5  C   UNL     1    -103.570  30.236 -36.468  1.00  0.00     0.000 C 
BRANCH   5   6
ATOM      6  C   UNL     1    -103.964  30.660 -35.041  1.00  0.00     0.000 C 
BRANCH   6   7
ATOM      7  C   UNL     1    -103.396  32.015 -34.577  1.00  0.00     0.000 C 
BRANCH   7   8
ATOM      8  C   UNL     1    -102.453  31.921 -33.357  1.00  0.00     0.000 C 
BRANCH   8   9
ATOM      9  C   UNL     1    -101.882  30.506 -33.152  1.00  0.00     0.000 C 
BRANCH   9  10
ATOM     10  C   UNL     1    -100.385  30.414 -33.480  1.00  0.00     0.000 C 
BRANCH  10  11
ATOM     11  C   UNL     1    -100.113  30.297 -34.991  1.00  0.00     0.000 C 
BRANCH  11  12
ATOM     12  C   UNL     1     -99.196  31.412 -35.516  1.00  0.00     0.006 C 
BRANCH  12  13
ATOM     13  C   UNL     1     -99.816  32.189 -36.686  1.00  0.00     0.053 C 
BRANCH  13  14
ATOM     14  C   UNL     1     -99.294  31.691 -37.998  1.00  0.00     0.041 C 
ATOM     15  O   UNL     1     -99.678  30.583 -38.458  1.00  0.00    -0.550 OA
ATOM     16  O   UNL     1     -98.409  32.469 -38.732  1.00  0.00    -0.550 OA
ENDBRANCH  13  14
ENDBRANCH  12  13
ENDBRANCH  11  12
ENDBRANCH  10  11
ENDBRANCH   9  10
ENDBRANCH   8   9
ENDBRANCH   7   8
ENDBRANCH   6   7
ENDBRANCH   5   6
ENDBRANCH   4   5
ENDBRANCH   3   4
ENDBRANCH   2   3
ENDBRANCH   1   2
BRANCH   1  17
ATOM     17  C   UNL     1    -106.853  32.892 -37.496  1.00  0.00     0.000 C 
BRANCH  17  18
ATOM     18  C   UNL     1    -106.760  32.832 -35.964  1.00  0.00     0.000 C 
BRANCH  18  19
ATOM     19  C   UNL     1    -107.630  31.721 -35.352  1.00  0.00     0.000 C 
BRANCH  19  20
ATOM     20  C   UNL     1    -108.515  32.158 -34.168  1.00  0.00     0.000 C 
BRANCH  20  21
ATOM     21  C   UNL     1    -108.362  33.629 -33.738  1.00  0.00     0.000 C 
BRANCH  21  22
ATOM     22  C   UNL     1    -109.382  34.562 -34.415  1.00  0.00    -0.000 C 
BRANCH  22  23
ATOM     23  C   UNL     1    -110.678  33.834 -34.820  1.00  0.00    -0.000 C 
BRANCH  23  24
ATOM     24  C   UNL     1    -111.256  34.236 -36.193  1.00  0.00    -0.000 C 
BRANCH  24  25
ATOM     25  C   UNL     1    -110.223  34.372 -37.331  1.00  0.00    -0.000 C 
BRANCH  25  26
ATOM     26  C   UNL     1    -110.825  34.366 -38.748  1.00  0.00    -0.000 C 
BRANCH  26  27
ATOM     27  C   UNL     1    -111.428  33.000 -39.123  1.00  0.00    -0.000 C 
BRANCH  27  28
ATOM     28  C   UNL     1    -110.555  31.824 -38.648  1.00  0.00    -0.000 C 
BRANCH  28  29
ATOM     29  C   UNL     1    -111.346  30.703 -37.945  1.00  0.00    -0.003 C 
ATOM     30  C   UNL     1    -110.761  30.335 -36.579  1.00  0.00     0.004 C 
ENDBRANCH  28  29
ENDBRANCH  27  28
ENDBRANCH  26  27
ENDBRANCH  25  26
ENDBRANCH  24  25
ENDBRANCH  23  24
ENDBRANCH  22  23
ENDBRANCH  21  22
ENDBRANCH  20  21
ENDBRANCH  19  20
ENDBRANCH  18  19
ENDBRANCH  17  18
ENDBRANCH   1  17
TORSDOF 26
ENDMDL
MODEL 8
REMARK VINA RESULT:    -3.049     13.015     15.836
REMARK INTER + INTRA:         -12.440
REMARK INTER:                  -7.143
REMARK INTRA:                  -5.298
REMARK UNBOUND:                -4.757
REMARK SMILES CCCCCCCCCCCCCCCCCCCCCCCCCCCC(=O)[O-]
REMARK SMILES IDX 15 1 16 2 17 3 18 4 19 5 20 6 21 7 22 8 23 9 24 10 25 11
REMARK SMILES IDX 26 12 27 13 28 14 29 15 30 16 14 17 13 18 12 19 11 20 10 21
REMARK SMILES IDX 9 22 8 23 7 24 6 25 5 26 4 27 3 28 2 29 1 30
REMARK H PARENT
REMARK Flexibility Score: inf
ROOT
ATOM      1  C   UNL     1    -110.695  45.845 -40.208  1.00  0.00     0.000 C 
ENDROOT
BRANCH   1   2
ATOM      2  C   UNL     1    -111.919  45.489 -41.067  1.00  0.00     0.000 C 
BRANCH   2   3
ATOM      3  C   UNL     1    -111.864  46.151 -42.455  1.00  0.00     0.000 C 
BRANCH   3   4
ATOM      4  C   UNL     1    -112.107  45.154 -43.602  1.00  0.00     0.000 C 
BRANCH   4   5
ATOM      5  C   UNL     1    -111.774  43.685 -43.270  1.00  0.00     0.000 C 
BRANCH   5   6
ATOM      6  C   UNL     1    -111.686  42.742 -44.485  1.00  0.00     0.000 C 
BRANCH   6   7
ATOM      7  C   UNL     1    -110.922  43.304 -45.699  1.00  0.00     0.000 C 
BRANCH   7   8
ATOM      8  C   UNL     1    -109.408  43.494 -45.461  1.00  0.00     0.000 C 
BRANCH   8   9
ATOM      9  C   UNL     1    -108.912  44.897 -45.856  1.00  0.00     0.000 C 
BRANCH   9  10
ATOM     10  C   UNL     1    -108.817  45.854 -44.659  1.00  0.00     0.000 C 
BRANCH  10  11
ATOM     11  C   UNL     1    -108.382  47.274 -45.066  1.00  0.00     0.000 C 
BRANCH  11  12
ATOM     12  C   UNL     1    -108.000  48.145 -43.859  1.00  0.00     0.006 C 
BRANCH  12  13
ATOM     13  C   UNL     1    -106.776  49.032 -44.131  1.00  0.00     0.053 C 
BRANCH  13  14
ATOM     14  C   UNL     1    -105.694  48.777 -43.127  1.00  0.00     0.041 C 
ATOM     15  O   UNL     1    -104.484  48.796 -43.475  1.00  0.00    -0.550 OA
ATOM     16  O   UNL     1    -106.022  48.554 -41.796  1.00  0.00    -0.550 OA
ENDBRANCH  13  14
ENDBRANCH  12  13
ENDBRANCH  11  12
ENDBRANCH  10  11
ENDBRANCH   9  10
ENDBRANCH   8   9
ENDBRANCH   7   8
ENDBRANCH   6   7
ENDBRANCH   5   6
ENDBRANCH   4   5
ENDBRANCH   3   4
ENDBRANCH   2   3
ENDBRANCH   1   2
BRANCH   1  17
ATOM     17  C   UNL     1    -109.568  46.487 -41.032  1.00  0.00     0.000 C 
BRANCH  17  18
ATOM     18  C   UNL     1    -108.192  46.013 -40.540  1.00  0.00     0.000 C 
BRANCH  18  19
ATOM     19  C   UNL     1    -108.069  44.479 -40.485  1.00  0.00     0.000 C 
BRANCH  19  20
ATOM     20  C   UNL     1    -107.975  43.779 -41.854  1.00  0.00     0.000 C 
BRANCH  20  21
ATOM     21  C   UNL     1    -108.705  42.427 -41.955  1.00  0.00     0.000 C 
BRANCH  21  22
ATOM     22  C   UNL     1    -108.568  41.573 -40.682  1.00  0.00    -0.000 C 
BRANCH  22  23
ATOM     23  C   UNL     1    -109.923  41.050 -40.168  1.00  0.00    -0.000 C 
BRANCH  23  24
ATOM     24  C   UNL     1    -111.003  42.129 -39.942  1.00  0.00    -0.000 C 
BRANCH  24  25
ATOM     25  C   UNL     1    -111.192  42.578 -38.478  1.00  0.00    -0.000 C 
BRANCH  25  26
ATOM     26  C   UNL     1    -110.195  41.957 -37.484  1.00  0.00    -0.000 C 
BRANCH  26  27
ATOM     27  C   UNL     1    -109.086  42.942 -37.074  1.00  0.00    -0.000 C 
BRANCH  27  28
ATOM     28  C   UNL     1    -109.571  44.403 -37.070  1.00  0.00    -0.000 C 
BRANCH  28  29
ATOM     29  C   UNL     1    -108.446  45.436 -36.860  1.00  0.00    -0.003 C 
ATOM     30  C   UNL     1    -107.274  44.875 -36.053  1.00  0.00     0.004 C 
ENDBRANCH  28  29
ENDBRANCH  27  28
ENDBRANCH  26  27
ENDBRANCH  25  26
ENDBRANCH  24  25
ENDBRANCH  23  24
ENDBRANCH  22  23
ENDBRANCH  21  22
ENDBRANCH  20  21
ENDBRANCH  19  20
ENDBRANCH  18  19
ENDBRANCH  17  18
ENDBRANCH   1  17
TORSDOF 26
ENDMDL
MODEL 9
REMARK VINA RESULT:    -2.999     10.680     14.009
REMARK INTER + INTRA:         -12.315
REMARK INTER:                  -5.933
REMARK INTRA:                  -6.382
REMARK UNBOUND:                -4.757
REMARK SMILES CCCCCCCCCCCCCCCCCCCCCCCCCCCC(=O)[O-]
REMARK SMILES IDX 15 1 16 2 17 3 18 4 19 5 20 6 21 7 22 8 23 9 24 10 25 11
REMARK SMILES IDX 26 12 27 13 28 14 29 15 30 16 14 17 13 18 12 19 11 20 10 21
REMARK SMILES IDX 9 22 8 23 7 24 6 25 5 26 4 27 3 28 2 29 1 30
REMARK H PARENT
REMARK Flexibility Score: inf
ROOT
ATOM      1  C   UNL     1    -108.239  44.544 -37.888  1.00  0.00     0.000 C 
ENDROOT
BRANCH   1   2
ATOM      2  C   UNL     1    -107.582  44.516 -36.499  1.00  0.00     0.000 C 
BRANCH   2   3
ATOM      3  C   UNL     1    -107.906  45.778 -35.680  1.00  0.00     0.000 C 
BRANCH   3   4
ATOM      4  C   UNL     1    -108.980  45.534 -34.606  1.00  0.00     0.000 C 
BRANCH   4   5
ATOM      5  C   UNL     1    -110.435  45.595 -35.114  1.00  0.00     0.000 C 
BRANCH   5   6
ATOM      6  C   UNL     1    -111.281  44.340 -34.829  1.00  0.00     0.000 C 
BRANCH   6   7
ATOM      7  C   UNL     1    -111.646  43.499 -36.067  1.00  0.00     0.000 C 
BRANCH   7   8
ATOM      8  C   UNL     1    -110.683  42.321 -36.336  1.00  0.00     0.000 C 
BRANCH   8   9
ATOM      9  C   UNL     1    -109.912  41.881 -35.078  1.00  0.00     0.000 C 
BRANCH   9  10
ATOM     10  C   UNL     1    -108.601  41.153 -35.407  1.00  0.00     0.000 C 
BRANCH  10  11
ATOM     11  C   UNL     1    -107.490  41.432 -34.378  1.00  0.00     0.000 C 
BRANCH  11  12
ATOM     12  C   UNL     1    -107.986  42.260 -33.182  1.00  0.00     0.006 C 
BRANCH  12  13
ATOM     13  C   UNL     1    -106.851  42.673 -32.234  1.00  0.00     0.053 C 
BRANCH  13  14
ATOM     14  C   UNL     1    -106.358  44.050 -32.554  1.00  0.00     0.041 C 
ATOM     15  O   UNL     1    -106.701  45.032 -31.844  1.00  0.00    -0.550 OA
ATOM     16  O   UNL     1    -105.489  44.246 -33.619  1.00  0.00    -0.550 OA
ENDBRANCH  13  14
ENDBRANCH  12  13
ENDBRANCH  11  12
ENDBRANCH  10  11
ENDBRANCH   9  10
ENDBRANCH   8   9
ENDBRANCH   7   8
ENDBRANCH   6   7
ENDBRANCH   5   6
ENDBRANCH   4   5
ENDBRANCH   3   4
ENDBRANCH   2   3
ENDBRANCH   1   2
BRANCH   1  17
ATOM     17  C   UNL     1    -108.534  45.973 -38.369  1.00  0.00     0.000 C 
BRANCH  17  18
ATOM     18  C   UNL     1    -109.959  46.078 -38.933  1.00  0.00     0.000 C 
BRANCH  18  19
ATOM     19  C   UNL     1    -110.556  44.712 -39.316  1.00  0.00     0.000 C 
BRANCH  19  20
ATOM     20  C   UNL     1    -111.310  44.679 -40.659  1.00  0.00     0.000 C 
BRANCH  20  21
ATOM     21  C   UNL     1    -112.309  43.519 -40.826  1.00  0.00     0.000 C 
BRANCH  21  22
ATOM     22  C   UNL     1    -112.648  42.821 -39.497  1.00  0.00    -0.000 C 
BRANCH  22  23
ATOM     23  C   UNL     1    -112.547  41.287 -39.588  1.00  0.00    -0.000 C 
BRANCH  23  24
ATOM     24  C   UNL     1    -111.283  40.752 -40.295  1.00  0.00    -0.000 C 
BRANCH  24  25
ATOM     25  C   UNL     1    -110.103  40.404 -39.364  1.00  0.00    -0.000 C 
BRANCH  25  26
ATOM     26  C   UNL     1    -108.842  41.259 -39.582  1.00  0.00    -0.000 C 
BRANCH  26  27
ATOM     27  C   UNL     1    -108.761  41.833 -41.008  1.00  0.00    -0.000 C 
BRANCH  27  28
ATOM     28  C   UNL     1    -107.814  43.043 -41.100  1.00  0.00    -0.000 C 
BRANCH  28  29
ATOM     29  C   UNL     1    -108.156  44.020 -42.242  1.00  0.00    -0.003 C 
ATOM     30  C   UNL     1    -109.096  43.405 -43.282  1.00  0.00     0.004 C 
ENDBRANCH  28  29
ENDBRANCH  27  28
ENDBRANCH  26  27
ENDBRANCH  25  26
ENDBRANCH  24  25
ENDBRANCH  23  24
ENDBRANCH  22  23
ENDBRANCH  21  22
ENDBRANCH  20  21
ENDBRANCH  19  20
ENDBRANCH  18  19
ENDBRANCH  17  18
ENDBRANCH   1  17
TORSDOF 26
ENDMDL
