MODEL 1
REMARK VINA RESULT:    -5.473      0.000      0.000
REMARK INTER + INTRA:          -6.831
REMARK INTER:                  -6.593
REMARK INTRA:                  -0.238
REMARK UNBOUND:                -0.238
REMARK SMILES O=c1c(O)c(-c2ccc(O)cc2O)oc2cc(O)cc(O)c12
REMARK SMILES IDX 5 1 3 2 2 3 1 4 22 5 20 6 19 7 17 8 16 9 15 10 14 11 6 12
REMARK SMILES IDX 8 13 7 14 9 15 11 16 12 17 10 18 13 20 4 22 21 24 18 26
REMARK H PARENT 10 19 13 21 4 23 21 25 18 27
REMARK Flexibility Score: inf
ROOT
ATOM      1  C   UNL     1      -5.324  -3.521   6.443  1.00  0.00     0.184 A 
ATOM      2  C   UNL     1      -4.050  -3.081   6.048  1.00  0.00     0.208 A 
ATOM      3  C   UNL     1      -3.494  -3.583   4.862  1.00  0.00     0.238 A 
ATOM      4  O   UNL     1      -2.330  -3.228   4.542  1.00  0.00    -0.285 OA
ATOM      5  C   UNL     1      -4.228  -4.507   4.077  1.00  0.00     0.111 A 
ATOM      6  C   UNL     1      -3.779  -5.050   2.836  1.00  0.00     0.134 A 
ATOM      7  C   UNL     1      -4.529  -6.053   2.209  1.00  0.00     0.093 A 
ATOM      8  C   UNL     1      -5.745  -6.485   2.748  1.00  0.00     0.123 A 
ATOM      9  C   UNL     1      -6.219  -5.919   3.928  1.00  0.00     0.094 A 
ATOM     10  C   UNL     1      -5.476  -4.942   4.594  1.00  0.00     0.146 A 
ATOM     11  O   UNL     1      -5.961  -4.436   5.722  1.00  0.00    -0.451 OA
ENDROOT
BRANCH   1  12
ATOM     12  C   UNL     1      -5.974  -3.018   7.672  1.00  0.00     0.063 A 
ATOM     13  C   UNL     1      -7.776  -1.751   8.700  1.00  0.00     0.047 A 
ATOM     14  C   UNL     1      -7.140  -2.247   7.558  1.00  0.00     0.020 A 
ATOM     15  C   UNL     1      -7.245  -2.010   9.969  1.00  0.00     0.119 A 
ATOM     16  C   UNL     1      -6.071  -2.758  10.090  1.00  0.00     0.093 A 
ATOM     17  C   UNL     1      -5.423  -3.255   8.948  1.00  0.00     0.130 A 
BRANCH  15  18
ATOM     18  O   UNL     1      -7.873  -1.526  11.113  1.00  0.00    -0.508 OA
ATOM     19  H   UNL     1      -7.664  -1.901  12.032  1.00  0.00     0.293 HD
ENDBRANCH  15  18
BRANCH  17  20
ATOM     20  O   UNL     1      -4.225  -3.959   9.081  1.00  0.00    -0.507 OA
ATOM     21  H   UNL     1      -4.210  -4.935   9.352  1.00  0.00     0.293 HD
ENDBRANCH  17  20
ENDBRANCH   1  12
BRANCH   2  22
ATOM     22  O   UNL     1      -3.341  -2.184   6.852  1.00  0.00    -0.502 OA
ATOM     23  H   UNL     1      -2.988  -2.436   7.767  1.00  0.00     0.293 HD
ENDBRANCH   2  22
BRANCH   6  24
ATOM     24  O   UNL     1      -2.627  -4.624   2.167  1.00  0.00    -0.507 OA
ATOM     25  H   UNL     1      -2.531  -3.737   1.696  1.00  0.00     0.293 HD
ENDBRANCH   6  24
BRANCH   8  26
ATOM     26  O   UNL     1      -6.492  -7.473   2.110  1.00  0.00    -0.508 OA
ATOM     27  H   UNL     1      -7.446  -7.677   2.384  1.00  0.00     0.293 HD
ENDBRANCH   8  26
TORSDOF 6
ENDMDL
MODEL 2
REMARK VINA RESULT:    -5.045      1.904      3.511
REMARK INTER + INTRA:          -6.316
REMARK INTER:                  -5.905
REMARK INTRA:                  -0.410
REMARK UNBOUND:                -0.238
REMARK SMILES O=c1c(O)c(-c2ccc(O)cc2O)oc2cc(O)cc(O)c12
REMARK SMILES IDX 5 1 3 2 2 3 1 4 22 5 20 6 19 7 17 8 16 9 15 10 14 11 6 12
REMARK SMILES IDX 8 13 7 14 9 15 11 16 12 17 10 18 13 20 4 22 21 24 18 26
REMARK H PARENT 10 19 13 21 4 23 21 25 18 27
REMARK Flexibility Score: inf
ROOT
ATOM      1  C   UNL     1      -6.733  -2.447   7.553  1.00  0.00     0.184 A 
ATOM      2  C   UNL     1      -7.823  -3.106   6.961  1.00  0.00     0.208 A 
ATOM      3  C   UNL     1      -7.584  -4.019   5.923  1.00  0.00     0.238 A 
ATOM      4  O   UNL     1      -8.567  -4.565   5.359  1.00  0.00    -0.285 OA
ATOM      5  C   UNL     1      -6.255  -4.273   5.502  1.00  0.00     0.111 A 
ATOM      6  C   UNL     1      -5.892  -5.208   4.487  1.00  0.00     0.134 A 
ATOM      7  C   UNL     1      -4.560  -5.285   4.062  1.00  0.00     0.093 A 
ATOM      8  C   UNL     1      -3.567  -4.504   4.661  1.00  0.00     0.123 A 
ATOM      9  C   UNL     1      -3.902  -3.632   5.693  1.00  0.00     0.094 A 
ATOM     10  C   UNL     1      -5.229  -3.508   6.115  1.00  0.00     0.146 A 
ATOM     11  O   UNL     1      -5.506  -2.656   7.095  1.00  0.00    -0.451 OA
ENDROOT
BRANCH   1  12
ATOM     12  C   UNL     1      -6.915  -1.487   8.662  1.00  0.00     0.063 A 
ATOM     13  C   UNL     1      -7.133   0.821   9.397  1.00  0.00     0.047 A 
ATOM     14  C   UNL     1      -6.968  -0.115   8.372  1.00  0.00     0.020 A 
ATOM     15  C   UNL     1      -7.234   0.395  10.727  1.00  0.00     0.119 A 
ATOM     16  C   UNL     1      -7.159  -0.968  11.027  1.00  0.00     0.093 A 
ATOM     17  C   UNL     1      -6.988  -1.913  10.004  1.00  0.00     0.130 A 
BRANCH  15  18
ATOM     18  O   UNL     1      -7.403   1.318  11.756  1.00  0.00    -0.508 OA
ATOM     19  H   UNL     1      -6.676   1.487  12.442  1.00  0.00     0.293 HD
ENDBRANCH  15  18
BRANCH  17  20
ATOM     20  O   UNL     1      -6.867  -3.266  10.323  1.00  0.00    -0.507 OA
ATOM     21  H   UNL     1      -6.028  -3.637  10.753  1.00  0.00     0.293 HD
ENDBRANCH  17  20
ENDBRANCH   1  12
BRANCH   2  22
ATOM     22  O   UNL     1      -9.125  -2.822   7.384  1.00  0.00    -0.502 OA
ATOM     23  H   UNL     1      -9.820  -3.544   7.525  1.00  0.00     0.293 HD
ENDBRANCH   2  22
BRANCH   6  24
ATOM     24  O   UNL     1      -6.790  -6.098   3.887  1.00  0.00    -0.507 OA
ATOM     25  H   UNL     1      -6.617  -7.082   3.748  1.00  0.00     0.293 HD
ENDBRANCH   6  24
BRANCH   8  26
ATOM     26  O   UNL     1      -2.242  -4.598   4.243  1.00  0.00    -0.508 OA
ATOM     27  H   UNL     1      -1.603  -5.272   4.649  1.00  0.00     0.293 HD
ENDBRANCH   8  26
TORSDOF 6
ENDMDL
MODEL 3
REMARK VINA RESULT:    -4.909      1.799      2.247
REMARK INTER + INTRA:          -6.152
REMARK INTER:                  -5.995
REMARK INTRA:                  -0.157
REMARK UNBOUND:                -0.238
REMARK SMILES O=c1c(O)c(-c2ccc(O)cc2O)oc2cc(O)cc(O)c12
REMARK SMILES IDX 5 1 3 2 2 3 1 4 22 5 20 6 19 7 17 8 16 9 15 10 14 11 6 12
REMARK SMILES IDX 8 13 7 14 9 15 11 16 12 17 10 18 13 20 4 22 21 24 18 26
REMARK H PARENT 10 19 13 21 4 23 21 25 18 27
REMARK Flexibility Score: inf
ROOT
ATOM      1  C   UNL     1      -6.721  -3.514   6.652  1.00  0.00     0.184 A 
ATOM      2  C   UNL     1      -5.381  -3.909   6.511  1.00  0.00     0.208 A 
ATOM      3  C   UNL     1      -5.008  -4.664   5.389  1.00  0.00     0.238 A 
ATOM      4  O   UNL     1      -3.817  -5.061   5.296  1.00  0.00    -0.285 OA
ATOM      5  C   UNL     1      -5.978  -4.999   4.413  1.00  0.00     0.111 A 
ATOM      6  C   UNL     1      -5.704  -5.725   3.215  1.00  0.00     0.134 A 
ATOM      7  C   UNL     1      -6.763  -6.113   2.385  1.00  0.00     0.093 A 
ATOM      8  C   UNL     1      -8.079  -5.744   2.677  1.00  0.00     0.123 A 
ATOM      9  C   UNL     1      -8.349  -4.984   3.812  1.00  0.00     0.094 A 
ATOM     10  C   UNL     1      -7.318  -4.613   4.678  1.00  0.00     0.146 A 
ATOM     11  O   UNL     1      -7.621  -3.898   5.756  1.00  0.00    -0.451 OA
ENDROOT
BRANCH   1  12
ATOM     12  C   UNL     1      -7.176  -2.703   7.802  1.00  0.00     0.063 A 
ATOM     13  C   UNL     1      -6.827  -0.792   9.263  1.00  0.00     0.047 A 
ATOM     14  C   UNL     1      -6.429  -1.577   8.177  1.00  0.00     0.020 A 
ATOM     15  C   UNL     1      -7.971  -1.133   9.995  1.00  0.00     0.119 A 
ATOM     16  C   UNL     1      -8.707  -2.268   9.642  1.00  0.00     0.093 A 
ATOM     17  C   UNL     1      -8.311  -3.064   8.557  1.00  0.00     0.130 A 
BRANCH  15  18
ATOM     18  O   UNL     1      -8.380  -0.356  11.075  1.00  0.00    -0.508 OA
ATOM     19  H   UNL     1      -8.074   0.604  11.183  1.00  0.00     0.293 HD
ENDBRANCH  15  18
BRANCH  17  20
ATOM     20  O   UNL     1      -9.027  -4.220   8.246  1.00  0.00    -0.507 OA
ATOM     21  H   UNL     1      -8.626  -4.958   7.679  1.00  0.00     0.293 HD
ENDBRANCH  17  20
ENDBRANCH   1  12
BRANCH   2  22
ATOM     22  O   UNL     1      -4.448  -3.580   7.500  1.00  0.00    -0.502 OA
ATOM     23  H   UNL     1      -4.436  -4.030   8.407  1.00  0.00     0.293 HD
ENDBRANCH   2  22
BRANCH   6  24
ATOM     24  O   UNL     1      -4.418  -6.065   2.784  1.00  0.00    -0.507 OA
ATOM     25  H   UNL     1      -3.791  -6.682   3.279  1.00  0.00     0.293 HD
ENDBRANCH   6  24
BRANCH   8  26
ATOM     26  O   UNL     1      -9.125  -6.120   1.837  1.00  0.00    -0.508 OA
ATOM     27  H   UNL     1      -9.465  -5.507   1.105  1.00  0.00     0.293 HD
ENDBRANCH   8  26
TORSDOF 6
ENDMDL
MODEL 4
REMARK VINA RESULT:    -4.838      1.217      2.819
REMARK INTER + INTRA:          -6.066
REMARK INTER:                  -5.889
REMARK INTRA:                  -0.177
REMARK UNBOUND:                -0.238
REMARK SMILES O=c1c(O)c(-c2ccc(O)cc2O)oc2cc(O)cc(O)c12
REMARK SMILES IDX 5 1 3 2 2 3 1 4 22 5 20 6 19 7 17 8 16 9 15 10 14 11 6 12
REMARK SMILES IDX 8 13 7 14 9 15 11 16 12 17 10 18 13 20 4 22 21 24 18 26
REMARK H PARENT 10 19 13 21 4 23 21 25 18 27
REMARK Flexibility Score: inf
ROOT
ATOM      1  C   UNL     1      -6.174  -3.644   6.358  1.00  0.00     0.184 A 
ATOM      2  C   UNL     1      -7.207  -4.328   5.698  1.00  0.00     0.208 A 
ATOM      3  C   UNL     1      -6.914  -5.025   4.516  1.00  0.00     0.238 A 
ATOM      4  O   UNL     1      -7.854  -5.591   3.899  1.00  0.00    -0.285 OA
ATOM      5  C   UNL     1      -5.588  -5.042   4.019  1.00  0.00     0.111 A 
ATOM      6  C   UNL     1      -5.169  -5.749   2.852  1.00  0.00     0.134 A 
ATOM      7  C   UNL     1      -3.860  -5.590   2.380  1.00  0.00     0.093 A 
ATOM      8  C   UNL     1      -2.937  -4.800   3.071  1.00  0.00     0.123 A 
ATOM      9  C   UNL     1      -3.320  -4.153   4.243  1.00  0.00     0.094 A 
ATOM     10  C   UNL     1      -4.629  -4.264   4.719  1.00  0.00     0.146 A 
ATOM     11  O   UNL     1      -4.954  -3.622   5.835  1.00  0.00    -0.451 OA
ENDROOT
BRANCH   1  12
ATOM     12  C   UNL     1      -6.411  -2.905   7.617  1.00  0.00     0.063 A 
ATOM     13  C   UNL     1      -7.720  -1.268   8.849  1.00  0.00     0.047 A 
ATOM     14  C   UNL     1      -7.472  -1.988   7.677  1.00  0.00     0.020 A 
ATOM     15  C   UNL     1      -6.902  -1.447   9.971  1.00  0.00     0.119 A 
ATOM     16  C   UNL     1      -5.829  -2.341   9.911  1.00  0.00     0.093 A 
ATOM     17  C   UNL     1      -5.570  -3.063   8.737  1.00  0.00     0.130 A 
BRANCH  15  18
ATOM     18  O   UNL     1      -7.144  -0.739  11.145  1.00  0.00    -0.508 OA
ATOM     19  H   UNL     1      -6.411  -0.209  11.605  1.00  0.00     0.293 HD
ENDBRANCH  15  18
BRANCH  17  20
ATOM     20  O   UNL     1      -4.467  -3.916   8.676  1.00  0.00    -0.507 OA
ATOM     21  H   UNL     1      -4.061  -4.320   9.512  1.00  0.00     0.293 HD
ENDBRANCH  17  20
ENDBRANCH   1  12
BRANCH   2  22
ATOM     22  O   UNL     1      -8.510  -4.279   6.201  1.00  0.00    -0.502 OA
ATOM     23  H   UNL     1      -9.325  -4.295   5.600  1.00  0.00     0.293 HD
ENDBRANCH   2  22
BRANCH   6  24
ATOM     24  O   UNL     1      -5.985  -6.634   2.140  1.00  0.00    -0.507 OA
ATOM     25  H   UNL     1      -6.910  -6.919   2.426  1.00  0.00     0.293 HD
ENDBRANCH   6  24
BRANCH   8  26
ATOM     26  O   UNL     1      -1.633  -4.660   2.603  1.00  0.00    -0.508 OA
ATOM     27  H   UNL     1      -1.431  -4.202   1.721  1.00  0.00     0.293 HD
ENDBRANCH   8  26
TORSDOF 6
ENDMDL
MODEL 5
REMARK VINA RESULT:    -4.776     12.738     14.442
REMARK INTER + INTRA:          -5.992
REMARK INTER:                  -5.576
REMARK INTRA:                  -0.416
REMARK UNBOUND:                -0.238
REMARK SMILES O=c1c(O)c(-c2ccc(O)cc2O)oc2cc(O)cc(O)c12
REMARK SMILES IDX 5 1 3 2 2 3 1 4 22 5 20 6 19 7 17 8 16 9 15 10 14 11 6 12
REMARK SMILES IDX 8 13 7 14 9 15 11 16 12 17 10 18 13 20 4 22 21 24 18 26
REMARK H PARENT 10 19 13 21 4 23 21 25 18 27
REMARK Flexibility Score: inf
ROOT
ATOM      1  C   UNL     1       2.747  -7.569  -4.880  1.00  0.00     0.184 A 
ATOM      2  C   UNL     1       2.784  -6.935  -6.132  1.00  0.00     0.208 A 
ATOM      3  C   UNL     1       1.594  -6.805  -6.864  1.00  0.00     0.238 A 
ATOM      4  O   UNL     1       1.643  -6.285  -8.009  1.00  0.00    -0.285 OA
ATOM      5  C   UNL     1       0.379  -7.296  -6.326  1.00  0.00     0.111 A 
ATOM      6  C   UNL     1      -0.893  -7.182  -6.962  1.00  0.00     0.134 A 
ATOM      7  C   UNL     1      -2.007  -7.818  -6.398  1.00  0.00     0.093 A 
ATOM      8  C   UNL     1      -1.905  -8.509  -5.188  1.00  0.00     0.123 A 
ATOM      9  C   UNL     1      -0.680  -8.575  -4.530  1.00  0.00     0.094 A 
ATOM     10  C   UNL     1       0.456  -7.981  -5.085  1.00  0.00     0.146 A 
ATOM     11  O   UNL     1       1.607  -8.078  -4.429  1.00  0.00    -0.451 OA
ENDROOT
BRANCH   1  12
ATOM     12  C   UNL     1       3.961  -7.724  -4.050  1.00  0.00     0.063 A 
ATOM     13  C   UNL     1       5.838  -9.102  -3.353  1.00  0.00     0.047 A 
ATOM     14  C   UNL     1       4.689  -8.921  -4.127  1.00  0.00     0.020 A 
ATOM     15  C   UNL     1       6.266  -8.093  -2.482  1.00  0.00     0.119 A 
ATOM     16  C   UNL     1       5.534  -6.907  -2.383  1.00  0.00     0.093 A 
ATOM     17  C   UNL     1       4.376  -6.719  -3.152  1.00  0.00     0.130 A 
BRANCH  15  18
ATOM     18  O   UNL     1       7.412  -8.261  -1.709  1.00  0.00    -0.508 OA
ATOM     19  H   UNL     1       8.209  -7.641  -1.802  1.00  0.00     0.293 HD
ENDBRANCH  15  18
BRANCH  17  20
ATOM     20  O   UNL     1       3.628  -5.550  -3.007  1.00  0.00    -0.507 OA
ATOM     21  H   UNL     1       2.725  -5.438  -3.452  1.00  0.00     0.293 HD
ENDBRANCH  17  20
ENDBRANCH   1  12
BRANCH   2  22
ATOM     22  O   UNL     1       4.000  -6.477  -6.647  1.00  0.00    -0.502 OA
ATOM     23  H   UNL     1       4.858  -7.010  -6.572  1.00  0.00     0.293 HD
ENDBRANCH   2  22
BRANCH   6  24
ATOM     24  O   UNL     1      -1.121  -6.439  -8.125  1.00  0.00    -0.507 OA
ATOM     25  H   UNL     1      -1.769  -6.698  -8.854  1.00  0.00     0.293 HD
ENDBRANCH   6  24
BRANCH   8  26
ATOM     26  O   UNL     1      -3.021  -9.125  -4.627  1.00  0.00    -0.508 OA
ATOM     27  H   UNL     1      -3.426  -9.961  -5.033  1.00  0.00     0.293 HD
ENDBRANCH   8  26
TORSDOF 6
ENDMDL
MODEL 6
REMARK VINA RESULT:    -4.587     13.454     14.251
REMARK INTER + INTRA:          -5.764
REMARK INTER:                  -5.421
REMARK INTRA:                  -0.343
REMARK UNBOUND:                -0.238
REMARK SMILES O=c1c(O)c(-c2ccc(O)cc2O)oc2cc(O)cc(O)c12
REMARK SMILES IDX 5 1 3 2 2 3 1 4 22 5 20 6 19 7 17 8 16 9 15 10 14 11 6 12
REMARK SMILES IDX 8 13 7 14 9 15 11 16 12 17 10 18 13 20 4 22 21 24 18 26
REMARK H PARENT 10 19 13 21 4 23 21 25 18 27
REMARK Flexibility Score: inf
ROOT
ATOM      1  C   UNL     1       8.692  -3.554   5.802  1.00  0.00     0.184 A 
ATOM      2  C   UNL     1       8.471  -4.502   6.815  1.00  0.00     0.208 A 
ATOM      3  C   UNL     1       8.177  -5.826   6.455  1.00  0.00     0.238 A 
ATOM      4  O   UNL     1       7.926  -6.658   7.365  1.00  0.00    -0.285 OA
ATOM      5  C   UNL     1       8.123  -6.188   5.086  1.00  0.00     0.111 A 
ATOM      6  C   UNL     1       7.873  -7.508   4.607  1.00  0.00     0.134 A 
ATOM      7  C   UNL     1       7.715  -7.727   3.233  1.00  0.00     0.093 A 
ATOM      8  C   UNL     1       7.861  -6.681   2.316  1.00  0.00     0.123 A 
ATOM      9  C   UNL     1       8.164  -5.400   2.771  1.00  0.00     0.094 A 
ATOM     10  C   UNL     1       8.293  -5.145   4.138  1.00  0.00     0.146 A 
ATOM     11  O   UNL     1       8.571  -3.906   4.528  1.00  0.00    -0.451 OA
ENDROOT
BRANCH   1  12
ATOM     12  C   UNL     1       9.024  -2.147   6.113  1.00  0.00     0.063 A 
ATOM     13  C   UNL     1      10.526  -0.551   7.165  1.00  0.00     0.047 A 
ATOM     14  C   UNL     1      10.186  -1.869   6.848  1.00  0.00     0.020 A 
ATOM     15  C   UNL     1       9.699   0.504   6.761  1.00  0.00     0.119 A 
ATOM     16  C   UNL     1       8.527   0.234   6.049  1.00  0.00     0.093 A 
ATOM     17  C   UNL     1       8.176  -1.087   5.732  1.00  0.00     0.130 A 
BRANCH  15  18
ATOM     18  O   UNL     1      10.030   1.822   7.067  1.00  0.00    -0.508 OA
ATOM     19  H   UNL     1      10.865   2.259   6.691  1.00  0.00     0.293 HD
ENDBRANCH  15  18
BRANCH  17  20
ATOM     20  O   UNL     1       6.979  -1.345   5.064  1.00  0.00    -0.507 OA
ATOM     21  H   UNL     1       6.097  -1.411   5.558  1.00  0.00     0.293 HD
ENDBRANCH  17  20
ENDBRANCH   1  12
BRANCH   2  22
ATOM     22  O   UNL     1       8.512  -4.113   8.157  1.00  0.00    -0.502 OA
ATOM     23  H   UNL     1       8.491  -4.782   8.917  1.00  0.00     0.293 HD
ENDBRANCH   2  22
BRANCH   6  24
ATOM     24  O   UNL     1       7.799  -8.637   5.430  1.00  0.00    -0.507 OA
ATOM     25  H   UNL     1       7.027  -8.851   6.044  1.00  0.00     0.293 HD
ENDBRANCH   6  24
BRANCH   8  26
ATOM     26  O   UNL     1       7.717  -6.910   0.950  1.00  0.00    -0.508 OA
ATOM     27  H   UNL     1       7.835  -7.835   0.551  1.00  0.00     0.293 HD
ENDBRANCH   8  26
TORSDOF 6
ENDMDL
MODEL 7
REMARK VINA RESULT:    -4.475      1.960      6.798
REMARK INTER + INTRA:          -5.629
REMARK INTER:                  -5.933
REMARK INTRA:                   0.305
REMARK UNBOUND:                -0.238
REMARK SMILES O=c1c(O)c(-c2ccc(O)cc2O)oc2cc(O)cc(O)c12
REMARK SMILES IDX 5 1 3 2 2 3 1 4 22 5 20 6 19 7 17 8 16 9 15 10 14 11 6 12
REMARK SMILES IDX 8 13 7 14 9 15 11 16 12 17 10 18 13 20 4 22 21 24 18 26
REMARK H PARENT 10 19 13 21 4 23 21 25 18 27
REMARK Flexibility Score: inf
ROOT
ATOM      1  C   UNL     1      -6.381  -4.607   5.334  1.00  0.00     0.184 A 
ATOM      2  C   UNL     1      -7.634  -4.236   5.849  1.00  0.00     0.208 A 
ATOM      3  C   UNL     1      -7.693  -3.261   6.857  1.00  0.00     0.238 A 
ATOM      4  O   UNL     1      -8.813  -2.972   7.352  1.00  0.00    -0.285 OA
ATOM      5  C   UNL     1      -6.499  -2.659   7.325  1.00  0.00     0.111 A 
ATOM      6  C   UNL     1      -6.444  -1.632   8.314  1.00  0.00     0.134 A 
ATOM      7  C   UNL     1      -5.201  -1.201   8.794  1.00  0.00     0.093 A 
ATOM      8  C   UNL     1      -4.011  -1.715   8.273  1.00  0.00     0.123 A 
ATOM      9  C   UNL     1      -4.054  -2.675   7.265  1.00  0.00     0.094 A 
ATOM     10  C   UNL     1      -5.279  -3.151   6.791  1.00  0.00     0.146 A 
ATOM     11  O   UNL     1      -5.275  -4.075   5.837  1.00  0.00    -0.451 OA
ENDROOT
BRANCH   1  12
ATOM     12  C   UNL     1      -6.250  -5.615   4.260  1.00  0.00     0.063 A 
ATOM     13  C   UNL     1      -7.254  -6.799   2.390  1.00  0.00     0.047 A 
ATOM     14  C   UNL     1      -7.342  -5.850   3.411  1.00  0.00     0.020 A 
ATOM     15  C   UNL     1      -6.077  -7.535   2.213  1.00  0.00     0.119 A 
ATOM     16  C   UNL     1      -4.992  -7.324   3.069  1.00  0.00     0.093 A 
ATOM     17  C   UNL     1      -5.074  -6.377   4.101  1.00  0.00     0.130 A 
BRANCH  15  18
ATOM     18  O   UNL     1      -5.976  -8.480   1.196  1.00  0.00    -0.508 OA
ATOM     19  H   UNL     1      -5.099  -8.652   0.717  1.00  0.00     0.293 HD
ENDBRANCH  15  18
BRANCH  17  20
ATOM     20  O   UNL     1      -4.002  -6.211   4.978  1.00  0.00    -0.507 OA
ATOM     21  H   UNL     1      -3.116  -5.829   4.667  1.00  0.00     0.293 HD
ENDBRANCH  17  20
ENDBRANCH   1  12
BRANCH   2  22
ATOM     22  O   UNL     1      -8.794  -4.860   5.382  1.00  0.00    -0.502 OA
ATOM     23  H   UNL     1      -9.433  -5.350   5.996  1.00  0.00     0.293 HD
ENDBRANCH   2  22
BRANCH   6  24
ATOM     24  O   UNL     1      -7.571  -0.988   8.835  1.00  0.00    -0.507 OA
ATOM     25  H   UNL     1      -8.313  -0.589   8.279  1.00  0.00     0.293 HD
ENDBRANCH   6  24
BRANCH   8  26
ATOM     26  O   UNL     1      -2.778  -1.270   8.745  1.00  0.00    -0.508 OA
ATOM     27  H   UNL     1      -2.691  -0.404   9.265  1.00  0.00     0.293 HD
ENDBRANCH   8  26
TORSDOF 6
ENDMDL
MODEL 8
REMARK VINA RESULT:    -4.458     12.778     14.756
REMARK INTER + INTRA:          -5.609
REMARK INTER:                  -5.265
REMARK INTRA:                  -0.344
REMARK UNBOUND:                -0.238
REMARK SMILES O=c1c(O)c(-c2ccc(O)cc2O)oc2cc(O)cc(O)c12
REMARK SMILES IDX 5 1 3 2 2 3 1 4 22 5 20 6 19 7 17 8 16 9 15 10 14 11 6 12
REMARK SMILES IDX 8 13 7 14 9 15 11 16 12 17 10 18 13 20 4 22 21 24 18 26
REMARK H PARENT 10 19 13 21 4 23 21 25 18 27
REMARK Flexibility Score: inf
ROOT
ATOM      1  C   UNL     1       0.952  -7.738  -5.983  1.00  0.00     0.184 A 
ATOM      2  C   UNL     1       1.777  -8.441  -6.875  1.00  0.00     0.208 A 
ATOM      3  C   UNL     1       3.149  -8.540  -6.598  1.00  0.00     0.238 A 
ATOM      4  O   UNL     1       3.893  -9.125  -7.428  1.00  0.00    -0.285 OA
ATOM      5  C   UNL     1       3.675  -7.948  -5.423  1.00  0.00     0.111 A 
ATOM      6  C   UNL     1       5.042  -8.020  -5.022  1.00  0.00     0.134 A 
ATOM      7  C   UNL     1       5.475  -7.288  -3.909  1.00  0.00     0.093 A 
ATOM      8  C   UNL     1       4.576  -6.539  -3.146  1.00  0.00     0.123 A 
ATOM      9  C   UNL     1       3.228  -6.510  -3.496  1.00  0.00     0.094 A 
ATOM     10  C   UNL     1       2.773  -7.201  -4.622  1.00  0.00     0.146 A 
ATOM     11  O   UNL     1       1.481  -7.137  -4.925  1.00  0.00    -0.451 OA
ENDROOT
BRANCH   1  12
ATOM     12  C   UNL     1      -0.504  -7.611  -6.208  1.00  0.00     0.063 A 
ATOM     13  C   UNL     1      -2.329  -6.783  -7.584  1.00  0.00     0.047 A 
ATOM     14  C   UNL     1      -0.959  -6.927  -7.345  1.00  0.00     0.020 A 
ATOM     15  C   UNL     1      -3.260  -7.311  -6.681  1.00  0.00     0.119 A 
ATOM     16  C   UNL     1      -2.814  -7.974  -5.534  1.00  0.00     0.093 A 
ATOM     17  C   UNL     1      -1.441  -8.117  -5.283  1.00  0.00     0.130 A 
BRANCH  15  18
ATOM     18  O   UNL     1      -4.626  -7.178  -6.912  1.00  0.00    -0.508 OA
ATOM     19  H   UNL     1      -5.057  -7.531  -7.759  1.00  0.00     0.293 HD
ENDBRANCH  15  18
BRANCH  17  20
ATOM     20  O   UNL     1      -1.011  -8.738  -4.111  1.00  0.00    -0.507 OA
ATOM     21  H   UNL     1      -1.243  -8.367  -3.197  1.00  0.00     0.293 HD
ENDBRANCH  17  20
ENDBRANCH   1  12
BRANCH   2  22
ATOM     22  O   UNL     1       1.235  -9.000  -8.036  1.00  0.00    -0.502 OA
ATOM     23  H   UNL     1       0.460  -8.577  -8.532  1.00  0.00     0.293 HD
ENDBRANCH   2  22
BRANCH   6  24
ATOM     24  O   UNL     1       6.003  -8.811  -5.660  1.00  0.00    -0.507 OA
ATOM     25  H   UNL     1       5.795  -9.570  -6.292  1.00  0.00     0.293 HD
ENDBRANCH   6  24
BRANCH   8  26
ATOM     26  O   UNL     1       5.012  -5.826  -2.032  1.00  0.00    -0.508 OA
ATOM     27  H   UNL     1       5.911  -6.013  -1.601  1.00  0.00     0.293 HD
ENDBRANCH   8  26
TORSDOF 6
ENDMDL
