MODEL 1
REMARK VINA RESULT:    -7.150      0.000      0.000
REMARK INTER + INTRA:          -9.205
REMARK INTER:                  -8.822
REMARK INTRA:                  -0.382
REMARK UNBOUND:                -0.382
REMARK SMILES Oc1cc(O)c2cc(O)c(-c3cc(O)c(O)c(O)c3)[o+]c2c1
REMARK SMILES IDX 10 1 20 2 21 3 22 4 2 5 3 6 4 7 6 8 7 9 8 10 11 11 12 12
REMARK SMILES IDX 13 13 19 14 15 15 17 16 14 17 16 19 18 21 9 23 1 25 5 27
REMARK H PARENT 14 18 16 20 18 22 9 24 1 26 5 28
REMARK Flexibility Score: inf
ROOT
ATOM      1  C   UNL     1      -4.007  22.037  48.836  1.00  0.00     0.402 A 
ATOM      2  O   UNL     1      -3.539  22.729  49.872  1.00  0.00    -0.202 OA
ATOM      3  C   UNL     1      -4.109  23.842  50.323  1.00  0.00     0.368 A 
ATOM      4  C   UNL     1      -3.540  24.501  51.417  1.00  0.00     0.162 A 
ATOM      5  C   UNL     1      -4.116  25.672  51.911  1.00  0.00     0.128 A 
ATOM      6  C   UNL     1      -5.267  26.192  51.308  1.00  0.00     0.093 A 
ATOM      7  C   UNL     1      -5.856  25.549  50.211  1.00  0.00     0.136 A 
ATOM      8  C   UNL     1      -5.275  24.356  49.707  1.00  0.00     0.125 A 
ATOM      9  C   UNL     1      -5.804  23.639  48.621  1.00  0.00     0.078 A 
ATOM     10  C   UNL     1      -5.178  22.468  48.185  1.00  0.00     0.223 A 
ENDROOT
BRANCH   1  11
ATOM     11  C   UNL     1      -3.276  20.817  48.421  1.00  0.00     0.091 A 
ATOM     12  C   UNL     1      -2.225  20.876  47.491  1.00  0.00     0.068 A 
ATOM     13  C   UNL     1      -1.530  19.713  47.127  1.00  0.00     0.162 A 
ATOM     14  C   UNL     1      -3.600  19.585  49.009  1.00  0.00     0.068 A 
ATOM     15  C   UNL     1      -1.877  18.482  47.705  1.00  0.00     0.200 A 
ATOM     16  C   UNL     1      -2.911  18.420  48.649  1.00  0.00     0.162 A 
BRANCH  13  17
ATOM     17  O   UNL     1      -0.492  19.781  46.198  1.00  0.00    -0.504 OA
ATOM     18  H   UNL     1       0.365  20.284  46.395  1.00  0.00     0.293 HD
ENDBRANCH  13  17
BRANCH  15  19
ATOM     19  O   UNL     1      -1.203  17.311  47.356  1.00  0.00    -0.502 OA
ATOM     20  H   UNL     1      -0.235  17.313  47.060  1.00  0.00     0.293 HD
ENDBRANCH  15  19
BRANCH  16  21
ATOM     21  O   UNL     1      -3.246  17.196  49.225  1.00  0.00    -0.504 OA
ATOM     22  H   UNL     1      -3.407  17.106  50.221  1.00  0.00     0.293 HD
ENDBRANCH  16  21
ENDBRANCH   1  11
BRANCH  10  23
ATOM     23  O   UNL     1      -5.730  21.727  47.139  1.00  0.00    -0.500 OA
ATOM     24  H   UNL     1      -6.727  21.724  46.957  1.00  0.00     0.294 HD
ENDBRANCH  10  23
BRANCH   5  25
ATOM     25  O   UNL     1      -3.534  26.315  53.001  1.00  0.00    -0.507 OA
ATOM     26  H   UNL     1      -4.097  26.772  53.709  1.00  0.00     0.293 HD
ENDBRANCH   5  25
BRANCH   7  27
ATOM     27  O   UNL     1      -7.002  26.132  49.664  1.00  0.00    -0.507 OA
ATOM     28  H   UNL     1      -7.672  26.676  50.189  1.00  0.00     0.293 HD
ENDBRANCH   7  27
TORSDOF 7
ENDMDL
MODEL 2
REMARK VINA RESULT:    -7.050      0.123      1.792
REMARK INTER + INTRA:          -9.081
REMARK INTER:                  -8.701
REMARK INTRA:                  -0.379
REMARK UNBOUND:                -0.382
REMARK SMILES Oc1cc(O)c2cc(O)c(-c3cc(O)c(O)c(O)c3)[o+]c2c1
REMARK SMILES IDX 10 1 20 2 21 3 22 4 2 5 3 6 4 7 6 8 7 9 8 10 11 11 12 12
REMARK SMILES IDX 13 13 19 14 15 15 17 16 14 17 16 19 18 21 9 23 1 25 5 27
REMARK H PARENT 14 18 16 20 18 22 9 24 1 26 5 28
REMARK Flexibility Score: inf
ROOT
ATOM      1  C   UNL     1      -4.018  22.004  48.849  1.00  0.00     0.402 A 
ATOM      2  O   UNL     1      -3.563  22.712  49.880  1.00  0.00    -0.202 OA
ATOM      3  C   UNL     1      -4.114  23.853  50.282  1.00  0.00     0.368 A 
ATOM      4  C   UNL     1      -3.562  24.527  51.374  1.00  0.00     0.162 A 
ATOM      5  C   UNL     1      -4.118  25.728  51.816  1.00  0.00     0.128 A 
ATOM      6  C   UNL     1      -5.233  26.262  51.162  1.00  0.00     0.093 A 
ATOM      7  C   UNL     1      -5.806  25.605  50.065  1.00  0.00     0.136 A 
ATOM      8  C   UNL     1      -5.244  24.383  49.614  1.00  0.00     0.125 A 
ATOM      9  C   UNL     1      -5.759  23.650  48.532  1.00  0.00     0.078 A 
ATOM     10  C   UNL     1      -5.155  22.449  48.149  1.00  0.00     0.223 A 
ENDROOT
BRANCH   1  11
ATOM     11  C   UNL     1      -3.311  20.753  48.493  1.00  0.00     0.091 A 
ATOM     12  C   UNL     1      -3.664  19.523  49.073  1.00  0.00     0.068 A 
ATOM     13  C   UNL     1      -2.998  18.344  48.706  1.00  0.00     0.162 A 
ATOM     14  C   UNL     1      -2.305  20.782  47.515  1.00  0.00     0.068 A 
ATOM     15  C   UNL     1      -1.978  18.389  47.743  1.00  0.00     0.200 A 
ATOM     16  C   UNL     1      -1.635  19.609  47.145  1.00  0.00     0.162 A 
BRANCH  13  17
ATOM     17  O   UNL     1      -3.353  17.130  49.293  1.00  0.00    -0.504 OA
ATOM     18  H   UNL     1      -3.911  16.444  48.799  1.00  0.00     0.293 HD
ENDBRANCH  13  17
BRANCH  15  19
ATOM     19  O   UNL     1      -1.298  17.231  47.365  1.00  0.00    -0.502 OA
ATOM     20  H   UNL     1      -0.289  17.156  47.416  1.00  0.00     0.293 HD
ENDBRANCH  15  19
BRANCH  16  21
ATOM     21  O   UNL     1      -0.626  19.646  46.184  1.00  0.00    -0.504 OA
ATOM     22  H   UNL     1       0.328  19.389  46.408  1.00  0.00     0.293 HD
ENDBRANCH  16  21
ENDBRANCH   1  11
BRANCH  10  23
ATOM     23  O   UNL     1      -5.695  21.695  47.106  1.00  0.00    -0.500 OA
ATOM     24  H   UNL     1      -5.879  20.703  47.206  1.00  0.00     0.294 HD
ENDBRANCH  10  23
BRANCH   5  25
ATOM     25  O   UNL     1      -3.552  26.385  52.907  1.00  0.00    -0.507 OA
ATOM     26  H   UNL     1      -2.637  26.815  52.849  1.00  0.00     0.293 HD
ENDBRANCH   5  25
BRANCH   7  27
ATOM     27  O   UNL     1      -6.916  26.205  49.465  1.00  0.00    -0.507 OA
ATOM     28  H   UNL     1      -6.890  27.081  48.963  1.00  0.00     0.293 HD
ENDBRANCH   7  27
TORSDOF 7
ENDMDL
MODEL 3
REMARK VINA RESULT:    -6.887      1.447      6.982
REMARK INTER + INTRA:          -8.879
REMARK INTER:                  -8.645
REMARK INTRA:                  -0.234
REMARK UNBOUND:                -0.382
REMARK SMILES Oc1cc(O)c2cc(O)c(-c3cc(O)c(O)c(O)c3)[o+]c2c1
REMARK SMILES IDX 10 1 20 2 21 3 22 4 2 5 3 6 4 7 6 8 7 9 8 10 11 11 12 12
REMARK SMILES IDX 13 13 19 14 15 15 17 16 14 17 16 19 18 21 9 23 1 25 5 27
REMARK H PARENT 14 18 16 20 18 22 9 24 1 26 5 28
REMARK Flexibility Score: inf
ROOT
ATOM      1  C   UNL     1      -4.225  22.428  48.433  1.00  0.00     0.402 A 
ATOM      2  O   UNL     1      -3.859  21.366  49.147  1.00  0.00    -0.202 OA
ATOM      3  C   UNL     1      -3.503  20.207  48.602  1.00  0.00     0.368 A 
ATOM      4  C   UNL     1      -3.137  19.148  49.437  1.00  0.00     0.162 A 
ATOM      5  C   UNL     1      -2.761  17.919  48.892  1.00  0.00     0.128 A 
ATOM      6  C   UNL     1      -2.752  17.745  47.504  1.00  0.00     0.093 A 
ATOM      7  C   UNL     1      -3.114  18.792  46.646  1.00  0.00     0.136 A 
ATOM      8  C   UNL     1      -3.495  20.044  47.196  1.00  0.00     0.125 A 
ATOM      9  C   UNL     1      -3.861  21.151  46.413  1.00  0.00     0.078 A 
ATOM     10  C   UNL     1      -4.219  22.355  47.028  1.00  0.00     0.223 A 
ENDROOT
BRANCH   1  11
ATOM     11  C   UNL     1      -4.610  23.661  49.158  1.00  0.00     0.091 A 
ATOM     12  C   UNL     1      -3.670  24.394  49.902  1.00  0.00     0.068 A 
ATOM     13  C   UNL     1      -4.048  25.572  50.563  1.00  0.00     0.162 A 
ATOM     14  C   UNL     1      -5.925  24.140  49.056  1.00  0.00     0.068 A 
ATOM     15  C   UNL     1      -5.372  26.030  50.474  1.00  0.00     0.200 A 
ATOM     16  C   UNL     1      -6.308  25.315  49.716  1.00  0.00     0.162 A 
BRANCH  13  17
ATOM     17  O   UNL     1      -3.109  26.289  51.304  1.00  0.00    -0.504 OA
ATOM     18  H   UNL     1      -2.539  27.012  50.882  1.00  0.00     0.293 HD
ENDBRANCH  13  17
BRANCH  15  19
ATOM     19  O   UNL     1      -5.772  27.197  51.127  1.00  0.00    -0.502 OA
ATOM     20  H   UNL     1      -5.255  27.583  51.907  1.00  0.00     0.293 HD
ENDBRANCH  15  19
BRANCH  16  21
ATOM     21  O   UNL     1      -7.619  25.778  49.624  1.00  0.00    -0.504 OA
ATOM     22  H   UNL     1      -7.897  26.444  48.912  1.00  0.00     0.293 HD
ENDBRANCH  16  21
ENDBRANCH   1  11
BRANCH  10  23
ATOM     23  O   UNL     1      -4.534  23.471  46.251  1.00  0.00    -0.500 OA
ATOM     24  H   UNL     1      -3.834  24.159  46.000  1.00  0.00     0.294 HD
ENDBRANCH  10  23
BRANCH   5  25
ATOM     25  O   UNL     1      -2.400  16.875  49.741  1.00  0.00    -0.507 OA
ATOM     26  H   UNL     1      -2.863  15.975  49.700  1.00  0.00     0.293 HD
ENDBRANCH   5  25
BRANCH   7  27
ATOM     27  O   UNL     1      -3.083  18.538  45.273  1.00  0.00    -0.507 OA
ATOM     28  H   UNL     1      -3.786  18.849  44.618  1.00  0.00     0.293 HD
ENDBRANCH   7  27
TORSDOF 7
ENDMDL
MODEL 4
REMARK VINA RESULT:    -6.865      1.405      7.086
REMARK INTER + INTRA:          -8.853
REMARK INTER:                  -8.500
REMARK INTRA:                  -0.353
REMARK UNBOUND:                -0.382
REMARK SMILES Oc1cc(O)c2cc(O)c(-c3cc(O)c(O)c(O)c3)[o+]c2c1
REMARK SMILES IDX 10 1 20 2 21 3 22 4 2 5 3 6 4 7 6 8 7 9 8 10 11 11 12 12
REMARK SMILES IDX 13 13 19 14 15 15 17 16 14 17 16 19 18 21 9 23 1 25 5 27
REMARK H PARENT 14 18 16 20 18 22 9 24 1 26 5 28
REMARK Flexibility Score: inf
ROOT
ATOM      1  C   UNL     1      -4.046  22.523  48.360  1.00  0.00     0.402 A 
ATOM      2  O   UNL     1      -3.842  21.429  49.090  1.00  0.00    -0.202 OA
ATOM      3  C   UNL     1      -3.430  20.276  48.575  1.00  0.00     0.368 A 
ATOM      4  C   UNL     1      -3.247  19.180  49.423  1.00  0.00     0.162 A 
ATOM      5  C   UNL     1      -2.816  17.955  48.910  1.00  0.00     0.128 A 
ATOM      6  C   UNL     1      -2.569  17.822  47.540  1.00  0.00     0.093 A 
ATOM      7  C   UNL     1      -2.744  18.906  46.669  1.00  0.00     0.136 A 
ATOM      8  C   UNL     1      -3.179  20.153  47.187  1.00  0.00     0.125 A 
ATOM      9  C   UNL     1      -3.369  21.295  46.392  1.00  0.00     0.078 A 
ATOM     10  C   UNL     1      -3.794  22.492  46.976  1.00  0.00     0.223 A 
ENDROOT
BRANCH   1  11
ATOM     11  C   UNL     1      -4.516  23.747  49.049  1.00  0.00     0.091 A 
ATOM     12  C   UNL     1      -5.858  24.158  48.976  1.00  0.00     0.068 A 
ATOM     13  C   UNL     1      -6.289  25.307  49.653  1.00  0.00     0.162 A 
ATOM     14  C   UNL     1      -3.619  24.483  49.839  1.00  0.00     0.068 A 
ATOM     15  C   UNL     1      -5.378  26.049  50.422  1.00  0.00     0.200 A 
ATOM     16  C   UNL     1      -4.044  25.633  50.517  1.00  0.00     0.162 A 
BRANCH  13  17
ATOM     17  O   UNL     1      -7.622  25.709  49.569  1.00  0.00    -0.504 OA
ATOM     18  H   UNL     1      -8.268  25.276  48.920  1.00  0.00     0.293 HD
ENDBRANCH  13  17
BRANCH  15  19
ATOM     19  O   UNL     1      -5.783  27.198  51.102  1.00  0.00    -0.502 OA
ATOM     20  H   UNL     1      -6.395  27.161  51.908  1.00  0.00     0.293 HD
ENDBRANCH  15  19
BRANCH  16  21
ATOM     21  O   UNL     1      -3.146  26.368  51.288  1.00  0.00    -0.504 OA
ATOM     22  H   UNL     1      -2.150  26.182  51.263  1.00  0.00     0.293 HD
ENDBRANCH  16  21
ENDBRANCH   1  11
BRANCH  10  23
ATOM     23  O   UNL     1      -3.935  23.641  46.195  1.00  0.00    -0.500 OA
ATOM     24  H   UNL     1      -4.774  23.817  45.654  1.00  0.00     0.294 HD
ENDBRANCH  10  23
BRANCH   5  25
ATOM     25  O   UNL     1      -2.641  16.875  49.772  1.00  0.00    -0.507 OA
ATOM     26  H   UNL     1      -1.743  16.678  50.198  1.00  0.00     0.293 HD
ENDBRANCH   5  25
BRANCH   7  27
ATOM     27  O   UNL     1      -2.479  18.691  45.314  1.00  0.00    -0.507 OA
ATOM     28  H   UNL     1      -1.932  17.921  44.954  1.00  0.00     0.293 HD
ENDBRANCH   7  27
TORSDOF 7
ENDMDL
MODEL 5
REMARK VINA RESULT:    -6.632      4.614      7.827
REMARK INTER + INTRA:          -8.565
REMARK INTER:                  -8.188
REMARK INTRA:                  -0.377
REMARK UNBOUND:                -0.382
REMARK SMILES Oc1cc(O)c2cc(O)c(-c3cc(O)c(O)c(O)c3)[o+]c2c1
REMARK SMILES IDX 10 1 20 2 21 3 22 4 2 5 3 6 4 7 6 8 7 9 8 10 11 11 12 12
REMARK SMILES IDX 13 13 19 14 15 15 17 16 14 17 16 19 18 21 9 23 1 25 5 27
REMARK H PARENT 14 18 16 20 18 22 9 24 1 26 5 28
REMARK Flexibility Score: inf
ROOT
ATOM      1  C   UNL     1      -6.237  26.549  49.526  1.00  0.00     0.402 A 
ATOM      2  O   UNL     1      -5.634  27.309  50.437  1.00  0.00    -0.202 OA
ATOM      3  C   UNL     1      -4.783  26.831  51.339  1.00  0.00     0.368 A 
ATOM      4  C   UNL     1      -4.202  27.709  52.258  1.00  0.00     0.162 A 
ATOM      5  C   UNL     1      -3.307  27.234  53.217  1.00  0.00     0.128 A 
ATOM      6  C   UNL     1      -2.991  25.872  53.262  1.00  0.00     0.093 A 
ATOM      7  C   UNL     1      -3.559  24.972  52.352  1.00  0.00     0.136 A 
ATOM      8  C   UNL     1      -4.469  25.451  51.373  1.00  0.00     0.125 A 
ATOM      9  C   UNL     1      -5.076  24.625  50.413  1.00  0.00     0.078 A 
ATOM     10  C   UNL     1      -5.957  25.171  49.476  1.00  0.00     0.223 A 
ENDROOT
BRANCH   1  11
ATOM     11  C   UNL     1      -7.173  27.200  48.580  1.00  0.00     0.091 A 
ATOM     12  C   UNL     1      -8.562  27.180  48.796  1.00  0.00     0.068 A 
ATOM     13  C   UNL     1      -9.431  27.820  47.901  1.00  0.00     0.162 A 
ATOM     14  C   UNL     1      -6.664  27.899  47.475  1.00  0.00     0.068 A 
ATOM     15  C   UNL     1      -8.912  28.498  46.786  1.00  0.00     0.200 A 
ATOM     16  C   UNL     1      -7.527  28.539  46.577  1.00  0.00     0.162 A 
BRANCH  13  17
ATOM     17  O   UNL     1     -10.808  27.789  48.121  1.00  0.00    -0.504 OA
ATOM     18  H   UNL     1     -11.458  28.228  47.481  1.00  0.00     0.293 HD
ENDBRANCH  13  17
BRANCH  15  19
ATOM     19  O   UNL     1      -9.757  29.139  45.880  1.00  0.00    -0.502 OA
ATOM     20  H   UNL     1     -10.244  28.636  45.148  1.00  0.00     0.293 HD
ENDBRANCH  15  19
BRANCH  16  21
ATOM     21  O   UNL     1      -7.017  29.220  45.473  1.00  0.00    -0.504 OA
ATOM     22  H   UNL     1      -7.611  29.789  44.881  1.00  0.00     0.293 HD
ENDBRANCH  16  21
ENDBRANCH   1  11
BRANCH  10  23
ATOM     23  O   UNL     1      -6.523  24.360  48.491  1.00  0.00    -0.500 OA
ATOM     24  H   UNL     1      -6.310  23.371  48.429  1.00  0.00     0.294 HD
ENDBRANCH  10  23
BRANCH   5  25
ATOM     25  O   UNL     1      -2.739  28.125  54.125  1.00  0.00    -0.507 OA
ATOM     26  H   UNL     1      -1.804  28.491  53.993  1.00  0.00     0.293 HD
ENDBRANCH   5  25
BRANCH   7  27
ATOM     27  O   UNL     1      -3.195  23.627  52.464  1.00  0.00    -0.507 OA
ATOM     28  H   UNL     1      -2.334  23.303  52.880  1.00  0.00     0.293 HD
ENDBRANCH   7  27
TORSDOF 7
ENDMDL
MODEL 6
REMARK VINA RESULT:    -6.477      1.874      7.094
REMARK INTER + INTRA:          -8.374
REMARK INTER:                  -8.640
REMARK INTRA:                   0.266
REMARK UNBOUND:                -0.382
REMARK SMILES Oc1cc(O)c2cc(O)c(-c3cc(O)c(O)c(O)c3)[o+]c2c1
REMARK SMILES IDX 10 1 20 2 21 3 22 4 2 5 3 6 4 7 6 8 7 9 8 10 11 11 12 12
REMARK SMILES IDX 13 13 19 14 15 15 17 16 14 17 16 19 18 21 9 23 1 25 5 27
REMARK H PARENT 14 18 16 20 18 22 9 24 1 26 5 28
REMARK Flexibility Score: inf
ROOT
ATOM      1  C   UNL     1      -3.933  22.538  47.384  1.00  0.00     0.402 A 
ATOM      2  O   UNL     1      -4.124  21.480  48.169  1.00  0.00    -0.202 OA
ATOM      3  C   UNL     1      -3.465  20.336  48.025  1.00  0.00     0.368 A 
ATOM      4  C   UNL     1      -3.739  19.279  48.897  1.00  0.00     0.162 A 
ATOM      5  C   UNL     1      -3.063  18.065  48.769  1.00  0.00     0.128 A 
ATOM      6  C   UNL     1      -2.107  17.903  47.759  1.00  0.00     0.093 A 
ATOM      7  C   UNL     1      -1.815  18.947  46.872  1.00  0.00     0.136 A 
ATOM      8  C   UNL     1      -2.498  20.184  47.002  1.00  0.00     0.125 A 
ATOM      9  C   UNL     1      -2.260  21.288  46.167  1.00  0.00     0.078 A 
ATOM     10  C   UNL     1      -2.970  22.477  46.360  1.00  0.00     0.223 A 
ENDROOT
BRANCH   1  11
ATOM     11  C   UNL     1      -4.738  23.755  47.639  1.00  0.00     0.091 A 
ATOM     12  C   UNL     1      -4.921  24.732  46.646  1.00  0.00     0.068 A 
ATOM     13  C   UNL     1      -5.705  25.866  46.899  1.00  0.00     0.162 A 
ATOM     14  C   UNL     1      -5.378  23.911  48.878  1.00  0.00     0.068 A 
ATOM     15  C   UNL     1      -6.323  26.024  48.150  1.00  0.00     0.200 A 
ATOM     16  C   UNL     1      -6.162  25.043  49.137  1.00  0.00     0.162 A 
BRANCH  13  17
ATOM     17  O   UNL     1      -5.875  26.833  45.909  1.00  0.00    -0.504 OA
ATOM     18  H   UNL     1      -6.207  27.765  46.127  1.00  0.00     0.293 HD
ENDBRANCH  13  17
BRANCH  15  19
ATOM     19  O   UNL     1      -7.105  27.147  48.427  1.00  0.00    -0.502 OA
ATOM     20  H   UNL     1      -6.850  28.074  48.107  1.00  0.00     0.293 HD
ENDBRANCH  15  19
BRANCH  16  21
ATOM     21  O   UNL     1      -6.784  25.202  50.374  1.00  0.00    -0.504 OA
ATOM     22  H   UNL     1      -7.540  24.594  50.669  1.00  0.00     0.293 HD
ENDBRANCH  16  21
ENDBRANCH   1  11
BRANCH  10  23
ATOM     23  O   UNL     1      -2.699  23.591  45.563  1.00  0.00    -0.500 OA
ATOM     24  H   UNL     1      -3.356  23.918  44.864  1.00  0.00     0.294 HD
ENDBRANCH  10  23
BRANCH   5  25
ATOM     25  O   UNL     1      -3.350  17.024  49.648  1.00  0.00    -0.507 OA
ATOM     26  H   UNL     1      -2.728  16.231  49.752  1.00  0.00     0.293 HD
ENDBRANCH   5  25
BRANCH   7  27
ATOM     27  O   UNL     1      -0.851  18.705  45.890  1.00  0.00    -0.507 OA
ATOM     28  H   UNL     1      -0.606  19.356  45.158  1.00  0.00     0.293 HD
ENDBRANCH   7  27
TORSDOF 7
ENDMDL
MODEL 7
REMARK VINA RESULT:    -6.465      2.183      3.329
REMARK INTER + INTRA:          -8.359
REMARK INTER:                  -8.059
REMARK INTRA:                  -0.299
REMARK UNBOUND:                -0.382
REMARK SMILES Oc1cc(O)c2cc(O)c(-c3cc(O)c(O)c(O)c3)[o+]c2c1
REMARK SMILES IDX 10 1 20 2 21 3 22 4 2 5 3 6 4 7 6 8 7 9 8 10 11 11 12 12
REMARK SMILES IDX 13 13 19 14 15 15 17 16 14 17 16 19 18 21 9 23 1 25 5 27
REMARK H PARENT 14 18 16 20 18 22 9 24 1 26 5 28
REMARK Flexibility Score: inf
ROOT
ATOM      1  C   UNL     1      -4.143  23.226  47.752  1.00  0.00     0.402 A 
ATOM      2  O   UNL     1      -4.582  24.134  46.884  1.00  0.00    -0.202 OA
ATOM      3  C   UNL     1      -5.325  25.179  47.234  1.00  0.00     0.368 A 
ATOM      4  C   UNL     1      -5.741  26.078  46.248  1.00  0.00     0.162 A 
ATOM      5  C   UNL     1      -6.524  27.182  46.586  1.00  0.00     0.128 A 
ATOM      6  C   UNL     1      -6.897  27.391  47.918  1.00  0.00     0.093 A 
ATOM      7  C   UNL     1      -6.492  26.504  48.925  1.00  0.00     0.136 A 
ATOM      8  C   UNL     1      -5.694  25.381  48.585  1.00  0.00     0.125 A 
ATOM      9  C   UNL     1      -5.232  24.449  49.529  1.00  0.00     0.078 A 
ATOM     10  C   UNL     1      -4.444  23.370  49.119  1.00  0.00     0.223 A 
ENDROOT
BRANCH   1  11
ATOM     11  C   UNL     1      -3.330  22.100  47.237  1.00  0.00     0.091 A 
ATOM     12  C   UNL     1      -2.000  22.288  46.825  1.00  0.00     0.068 A 
ATOM     13  C   UNL     1      -1.238  21.205  46.362  1.00  0.00     0.162 A 
ATOM     14  C   UNL     1      -3.878  20.809  47.210  1.00  0.00     0.068 A 
ATOM     15  C   UNL     1      -1.803  19.921  46.317  1.00  0.00     0.200 A 
ATOM     16  C   UNL     1      -3.123  19.723  46.746  1.00  0.00     0.162 A 
BRANCH  13  17
ATOM     17  O   UNL     1       0.079  21.403  45.950  1.00  0.00    -0.504 OA
ATOM     18  H   UNL     1       0.353  22.220  45.418  1.00  0.00     0.293 HD
ENDBRANCH  13  17
BRANCH  15  19
ATOM     19  O   UNL     1      -1.067  18.829  45.855  1.00  0.00    -0.502 OA
ATOM     20  H   UNL     1      -0.226  18.941  45.303  1.00  0.00     0.293 HD
ENDBRANCH  15  19
BRANCH  16  21
ATOM     21  O   UNL     1      -3.676  18.445  46.707  1.00  0.00    -0.504 OA
ATOM     22  H   UNL     1      -3.094  17.616  46.696  1.00  0.00     0.293 HD
ENDBRANCH  16  21
ENDBRANCH   1  11
BRANCH  10  23
ATOM     23  O   UNL     1      -3.943  22.471  50.062  1.00  0.00    -0.500 OA
ATOM     24  H   UNL     1      -3.137  21.888  49.866  1.00  0.00     0.294 HD
ENDBRANCH  10  23
BRANCH   5  25
ATOM     25  O   UNL     1      -6.930  28.066  45.589  1.00  0.00    -0.507 OA
ATOM     26  H   UNL     1      -7.633  27.809  44.907  1.00  0.00     0.293 HD
ENDBRANCH   5  25
BRANCH   7  27
ATOM     27  O   UNL     1      -6.908  26.781  50.230  1.00  0.00    -0.507 OA
ATOM     28  H   UNL     1      -6.949  26.097  50.973  1.00  0.00     0.293 HD
ENDBRANCH   7  27
TORSDOF 7
ENDMDL
MODEL 8
REMARK VINA RESULT:    -6.446      2.266      3.741
REMARK INTER + INTRA:          -8.336
REMARK INTER:                  -8.008
REMARK INTRA:                  -0.328
REMARK UNBOUND:                -0.382
REMARK SMILES Oc1cc(O)c2cc(O)c(-c3cc(O)c(O)c(O)c3)[o+]c2c1
REMARK SMILES IDX 10 1 20 2 21 3 22 4 2 5 3 6 4 7 6 8 7 9 8 10 11 11 12 12
REMARK SMILES IDX 13 13 19 14 15 15 17 16 14 17 16 19 18 21 9 23 1 25 5 27
REMARK H PARENT 14 18 16 20 18 22 9 24 1 26 5 28
REMARK Flexibility Score: inf
ROOT
ATOM      1  C   UNL     1      -4.198  23.572  48.001  1.00  0.00     0.402 A 
ATOM      2  O   UNL     1      -4.635  24.460  47.112  1.00  0.00    -0.202 OA
ATOM      3  C   UNL     1      -5.457  25.457  47.420  1.00  0.00     0.368 A 
ATOM      4  C   UNL     1      -5.863  26.339  46.415  1.00  0.00     0.162 A 
ATOM      5  C   UNL     1      -6.728  27.394  46.709  1.00  0.00     0.128 A 
ATOM      6  C   UNL     1      -7.194  27.569  48.016  1.00  0.00     0.093 A 
ATOM      7  C   UNL     1      -6.802  26.700  49.042  1.00  0.00     0.136 A 
ATOM      8  C   UNL     1      -5.920  25.627  48.747  1.00  0.00     0.125 A 
ATOM      9  C   UNL     1      -5.464  24.715  49.713  1.00  0.00     0.078 A 
ATOM     10  C   UNL     1      -4.591  23.686  49.348  1.00  0.00     0.223 A 
ENDROOT
BRANCH   1  11
ATOM     11  C   UNL     1      -3.291  22.499  47.532  1.00  0.00     0.091 A 
ATOM     12  C   UNL     1      -3.774  21.402  46.799  1.00  0.00     0.068 A 
ATOM     13  C   UNL     1      -2.896  20.408  46.344  1.00  0.00     0.162 A 
ATOM     14  C   UNL     1      -1.913  22.605  47.775  1.00  0.00     0.068 A 
ATOM     15  C   UNL     1      -1.522  20.512  46.612  1.00  0.00     0.200 A 
ATOM     16  C   UNL     1      -1.031  21.614  47.324  1.00  0.00     0.162 A 
BRANCH  13  17
ATOM     17  O   UNL     1      -3.387  19.320  45.622  1.00  0.00    -0.504 OA
ATOM     18  H   UNL     1      -3.328  19.283  44.611  1.00  0.00     0.293 HD
ENDBRANCH  13  17
BRANCH  15  19
ATOM     19  O   UNL     1      -0.630  19.533  46.173  1.00  0.00    -0.502 OA
ATOM     20  H   UNL     1      -0.805  18.544  46.307  1.00  0.00     0.293 HD
ENDBRANCH  15  19
BRANCH  16  21
ATOM     21  O   UNL     1       0.334  21.716  47.581  1.00  0.00    -0.504 OA
ATOM     22  H   UNL     1       0.975  22.099  46.895  1.00  0.00     0.293 HD
ENDBRANCH  16  21
ENDBRANCH   1  11
BRANCH  10  23
ATOM     23  O   UNL     1      -4.098  22.810  50.316  1.00  0.00    -0.500 OA
ATOM     24  H   UNL     1      -3.407  22.103  50.092  1.00  0.00     0.294 HD
ENDBRANCH  10  23
BRANCH   5  25
ATOM     25  O   UNL     1      -7.122  28.262  45.692  1.00  0.00    -0.507 OA
ATOM     26  H   UNL     1      -7.609  29.126  45.894  1.00  0.00     0.293 HD
ENDBRANCH   5  25
BRANCH   7  27
ATOM     27  O   UNL     1      -7.313  26.940  50.320  1.00  0.00    -0.507 OA
ATOM     28  H   UNL     1      -8.223  26.636  50.637  1.00  0.00     0.293 HD
ENDBRANCH   7  27
TORSDOF 7
ENDMDL
MODEL 9
REMARK VINA RESULT:    -6.414      1.908      3.581
REMARK INTER + INTRA:          -8.296
REMARK INTER:                  -7.944
REMARK INTRA:                  -0.352
REMARK UNBOUND:                -0.382
REMARK SMILES Oc1cc(O)c2cc(O)c(-c3cc(O)c(O)c(O)c3)[o+]c2c1
REMARK SMILES IDX 10 1 20 2 21 3 22 4 2 5 3 6 4 7 6 8 7 9 8 10 11 11 12 12
REMARK SMILES IDX 13 13 19 14 15 15 17 16 14 17 16 19 18 21 9 23 1 25 5 27
REMARK H PARENT 14 18 16 20 18 22 9 24 1 26 5 28
REMARK Flexibility Score: inf
ROOT
ATOM      1  C   UNL     1      -3.173  22.445  48.387  1.00  0.00     0.402 A 
ATOM      2  O   UNL     1      -3.885  23.025  47.424  1.00  0.00    -0.202 OA
ATOM      3  C   UNL     1      -4.333  24.274  47.499  1.00  0.00     0.368 A 
ATOM      4  C   UNL     1      -5.075  24.795  46.436  1.00  0.00     0.162 A 
ATOM      5  C   UNL     1      -5.560  26.103  46.488  1.00  0.00     0.128 A 
ATOM      6  C   UNL     1      -5.303  26.897  47.611  1.00  0.00     0.093 A 
ATOM      7  C   UNL     1      -4.560  26.398  48.689  1.00  0.00     0.136 A 
ATOM      8  C   UNL     1      -4.064  25.069  48.639  1.00  0.00     0.125 A 
ATOM      9  C   UNL     1      -3.301  24.491  49.666  1.00  0.00     0.078 A 
ATOM     10  C   UNL     1      -2.841  23.176  49.542  1.00  0.00     0.223 A 
ENDROOT
BRANCH   1  11
ATOM     11  C   UNL     1      -2.740  21.042  48.189  1.00  0.00     0.091 A 
ATOM     12  C   UNL     1      -3.387  19.979  48.842  1.00  0.00     0.068 A 
ATOM     13  C   UNL     1      -2.977  18.655  48.625  1.00  0.00     0.162 A 
ATOM     14  C   UNL     1      -1.700  20.761  47.290  1.00  0.00     0.068 A 
ATOM     15  C   UNL     1      -1.920  18.387  47.740  1.00  0.00     0.200 A 
ATOM     16  C   UNL     1      -1.285  19.441  47.070  1.00  0.00     0.162 A 
BRANCH  13  17
ATOM     17  O   UNL     1      -3.621  17.607  49.282  1.00  0.00    -0.504 OA
ATOM     18  H   UNL     1      -4.263  16.991  48.798  1.00  0.00     0.293 HD
ENDBRANCH  13  17
BRANCH  15  19
ATOM     19  O   UNL     1      -1.491  17.078  47.511  1.00  0.00    -0.502 OA
ATOM     20  H   UNL     1      -1.327  16.425  48.267  1.00  0.00     0.293 HD
ENDBRANCH  15  19
BRANCH  16  21
ATOM     21  O   UNL     1      -0.242  19.168  46.188  1.00  0.00    -0.504 OA
ATOM     22  H   UNL     1       0.165  19.893  45.608  1.00  0.00     0.293 HD
ENDBRANCH  16  21
ENDBRANCH   1  11
BRANCH  10  23
ATOM     23  O   UNL     1      -2.040  22.618  50.539  1.00  0.00    -0.500 OA
ATOM     24  H   UNL     1      -2.168  22.851  51.517  1.00  0.00     0.294 HD
ENDBRANCH  10  23
BRANCH   5  25
ATOM     25  O   UNL     1      -6.299  26.603  45.419  1.00  0.00    -0.507 OA
ATOM     26  H   UNL     1      -6.827  25.992  44.808  1.00  0.00     0.293 HD
ENDBRANCH   5  25
BRANCH   7  27
ATOM     27  O   UNL     1      -4.350  27.252  49.775  1.00  0.00    -0.507 OA
ATOM     28  H   UNL     1      -4.687  28.203  49.827  1.00  0.00     0.293 HD
ENDBRANCH   7  27
TORSDOF 7
ENDMDL
