MODEL 1
REMARK VINA RESULT:    -6.143      0.000      0.000
REMARK INTER + INTRA:         -13.477
REMARK INTER:                 -11.529
REMARK INTRA:                  -1.948
REMARK UNBOUND:                -1.948
REMARK SMILES CCCCCCCCC=CCCCCCCCC(=O)[O-]
REMARK SMILES IDX 10 1 9 2 11 3 12 4 13 5 14 6 15 7 16 8 17 9 18 10 19 11
REMARK SMILES IDX 20 12 8 13 7 14 6 15 5 16 4 17 3 18 2 19 1 20
REMARK H PARENT
REMARK Flexibility Score: inf
ROOT
ATOM      1  C   UNL     1       6.427 -56.207 -29.961  1.00  0.00    -0.031 C 
ATOM      2  C   UNL     1       7.133 -55.860 -28.876  1.00  0.00    -0.031 C 
ENDROOT
BRANCH   1   3
ATOM      3  C   UNL     1       5.073 -55.603 -30.220  1.00  0.00     0.027 C 
BRANCH   3   4
ATOM      4  C   UNL     1       3.950 -56.370 -29.508  1.00  0.00     0.004 C 
BRANCH   4   5
ATOM      5  C   UNL     1       3.269 -55.520 -28.421  1.00  0.00     0.000 C 
BRANCH   5   6
ATOM      6  C   UNL     1       3.835 -55.794 -27.019  1.00  0.00     0.000 C 
BRANCH   6   7
ATOM      7  C   UNL     1       4.331 -57.241 -26.853  1.00  0.00     0.000 C 
BRANCH   7   8
ATOM      8  C   UNL     1       5.633 -57.342 -26.039  1.00  0.00     0.006 C 
BRANCH   8   9
ATOM      9  C   UNL     1       5.474 -58.077 -24.697  1.00  0.00     0.053 C 
BRANCH   9  10
ATOM     10  C   UNL     1       6.788 -58.333 -24.023  1.00  0.00     0.041 C 
ATOM     11  O   UNL     1       7.840 -58.436 -24.705  1.00  0.00    -0.550 OA
ATOM     12  O   UNL     1       6.846 -58.494 -22.643  1.00  0.00    -0.550 OA
ENDBRANCH   9  10
ENDBRANCH   8   9
ENDBRANCH   7   8
ENDBRANCH   6   7
ENDBRANCH   5   6
ENDBRANCH   4   5
ENDBRANCH   3   4
ENDBRANCH   1   3
BRANCH   2  13
ATOM     13  C   UNL     1       8.485 -56.458 -28.589  1.00  0.00     0.027 C 
BRANCH  13  14
ATOM     14  C   UNL     1       9.591 -55.395 -28.464  1.00  0.00     0.004 C 
BRANCH  14  15
ATOM     15  C   UNL     1      10.239 -54.991 -29.802  1.00  0.00     0.000 C 
BRANCH  15  16
ATOM     16  C   UNL     1       9.462 -53.879 -30.526  1.00  0.00     0.000 C 
BRANCH  16  17
ATOM     17  C   UNL     1       8.875 -54.348 -31.868  1.00  0.00    -0.000 C 
BRANCH  17  18
ATOM     18  C   UNL     1       9.324 -55.771 -32.244  1.00  0.00    -0.000 C 
BRANCH  18  19
ATOM     19  C   UNL     1      10.005 -55.829 -33.620  1.00  0.00    -0.003 C 
ATOM     20  C   UNL     1      11.474 -55.405 -33.574  1.00  0.00     0.004 C 
ENDBRANCH  18  19
ENDBRANCH  17  18
ENDBRANCH  16  17
ENDBRANCH  15  16
ENDBRANCH  14  15
ENDBRANCH  13  14
ENDBRANCH   2  13
TORSDOF 15
ENDMDL
MODEL 2
REMARK VINA RESULT:    -5.922      1.172      3.092
REMARK INTER + INTRA:         -13.063
REMARK INTER:                 -11.754
REMARK INTRA:                  -1.309
REMARK UNBOUND:                -1.948
REMARK SMILES CCCCCCCCC=CCCCCCCCC(=O)[O-]
REMARK SMILES IDX 10 1 9 2 11 3 12 4 13 5 14 6 15 7 16 8 17 9 18 10 19 11
REMARK SMILES IDX 20 12 8 13 7 14 6 15 5 16 4 17 3 18 2 19 1 20
REMARK H PARENT
REMARK Flexibility Score: inf
ROOT
ATOM      1  C   UNL     1       3.563 -55.399 -28.593  1.00  0.00    -0.031 C 
ATOM      2  C   UNL     1       3.698 -56.375 -29.501  1.00  0.00    -0.031 C 
ENDROOT
BRANCH   1   3
ATOM      3  C   UNL     1       2.710 -55.603 -27.369  1.00  0.00     0.027 C 
BRANCH   3   4
ATOM      4  C   UNL     1       3.549 -55.933 -26.126  1.00  0.00     0.004 C 
BRANCH   4   5
ATOM      5  C   UNL     1       4.973 -56.387 -26.494  1.00  0.00     0.000 C 
BRANCH   5   6
ATOM      6  C   UNL     1       5.200 -57.883 -26.230  1.00  0.00     0.000 C 
BRANCH   6   7
ATOM      7  C   UNL     1       5.368 -58.201 -24.734  1.00  0.00     0.000 C 
BRANCH   7   8
ATOM      8  C   UNL     1       6.840 -58.297 -24.299  1.00  0.00     0.006 C 
BRANCH   8   9
ATOM      9  C   UNL     1       7.031 -58.673 -22.819  1.00  0.00     0.053 C 
BRANCH   9  10
ATOM     10  C   UNL     1       7.600 -57.548 -22.009  1.00  0.00     0.041 C 
ATOM     11  O   UNL     1       7.068 -57.223 -20.915  1.00  0.00    -0.550 OA
ATOM     12  O   UNL     1       8.696 -56.833 -22.478  1.00  0.00    -0.550 OA
ENDBRANCH   9  10
ENDBRANCH   8   9
ENDBRANCH   7   8
ENDBRANCH   6   7
ENDBRANCH   5   6
ENDBRANCH   4   5
ENDBRANCH   3   4
ENDBRANCH   1   3
BRANCH   2  13
ATOM     13  C   UNL     1       4.536 -56.191 -30.739  1.00  0.00     0.027 C 
BRANCH  13  14
ATOM     14  C   UNL     1       5.866 -55.470 -30.456  1.00  0.00     0.004 C 
BRANCH  14  15
ATOM     15  C   UNL     1       6.975 -56.379 -29.893  1.00  0.00     0.000 C 
BRANCH  15  16
ATOM     16  C   UNL     1       7.916 -55.639 -28.928  1.00  0.00     0.000 C 
BRANCH  16  17
ATOM     17  C   UNL     1       9.302 -55.378 -29.540  1.00  0.00    -0.000 C 
BRANCH  17  18
ATOM     18  C   UNL     1       9.380 -54.026 -30.269  1.00  0.00    -0.000 C 
BRANCH  18  19
ATOM     19  C   UNL     1       9.251 -54.170 -31.794  1.00  0.00    -0.003 C 
ATOM     20  C   UNL     1      10.214 -55.207 -32.375  1.00  0.00     0.004 C 
ENDBRANCH  18  19
ENDBRANCH  17  18
ENDBRANCH  16  17
ENDBRANCH  15  16
ENDBRANCH  14  15
ENDBRANCH  13  14
ENDBRANCH   2  13
TORSDOF 15
ENDMDL
MODEL 3
REMARK VINA RESULT:    -5.749      1.544      3.273
REMARK INTER + INTRA:         -12.737
REMARK INTER:                 -11.273
REMARK INTRA:                  -1.465
REMARK UNBOUND:                -1.948
REMARK SMILES CCCCCCCCC=CCCCCCCCC(=O)[O-]
REMARK SMILES IDX 10 1 9 2 11 3 12 4 13 5 14 6 15 7 16 8 17 9 18 10 19 11
REMARK SMILES IDX 20 12 8 13 7 14 6 15 5 16 4 17 3 18 2 19 1 20
REMARK H PARENT
REMARK Flexibility Score: inf
ROOT
ATOM      1  C   UNL     1       3.202 -55.660 -28.160  1.00  0.00    -0.031 C 
ATOM      2  C   UNL     1       3.737 -55.021 -29.209  1.00  0.00    -0.031 C 
ENDROOT
BRANCH   1   3
ATOM      3  C   UNL     1       2.304 -54.932 -27.196  1.00  0.00     0.027 C 
BRANCH   3   4
ATOM      4  C   UNL     1       2.214 -55.641 -25.837  1.00  0.00     0.004 C 
BRANCH   4   5
ATOM      5  C   UNL     1       3.595 -55.791 -25.173  1.00  0.00     0.000 C 
BRANCH   5   6
ATOM      6  C   UNL     1       3.908 -57.245 -24.786  1.00  0.00     0.000 C 
BRANCH   6   7
ATOM      7  C   UNL     1       4.944 -57.895 -25.720  1.00  0.00     0.000 C 
BRANCH   7   8
ATOM      8  C   UNL     1       6.360 -57.928 -25.118  1.00  0.00     0.006 C 
BRANCH   8   9
ATOM      9  C   UNL     1       6.462 -58.726 -23.807  1.00  0.00     0.053 C 
BRANCH   9  10
ATOM     10  C   UNL     1       7.365 -58.073 -22.805  1.00  0.00     0.041 C 
ATOM     11  O   UNL     1       6.997 -57.945 -21.608  1.00  0.00    -0.550 OA
ATOM     12  O   UNL     1       8.600 -57.571 -23.200  1.00  0.00    -0.550 OA
ENDBRANCH   9  10
ENDBRANCH   8   9
ENDBRANCH   7   8
ENDBRANCH   6   7
ENDBRANCH   5   6
ENDBRANCH   4   5
ENDBRANCH   3   4
ENDBRANCH   1   3
BRANCH   2  13
ATOM     13  C   UNL     1       4.648 -55.724 -30.181  1.00  0.00     0.027 C 
BRANCH  13  14
ATOM     14  C   UNL     1       5.539 -56.781 -29.504  1.00  0.00     0.004 C 
BRANCH  14  15
ATOM     15  C   UNL     1       6.945 -56.280 -29.127  1.00  0.00     0.000 C 
BRANCH  15  16
ATOM     16  C   UNL     1       7.858 -56.095 -30.350  1.00  0.00     0.000 C 
BRANCH  16  17
ATOM     17  C   UNL     1       8.187 -54.618 -30.623  1.00  0.00    -0.000 C 
BRANCH  17  18
ATOM     18  C   UNL     1       9.698 -54.364 -30.756  1.00  0.00    -0.000 C 
BRANCH  18  19
ATOM     19  C   UNL     1      10.495 -54.914 -29.562  1.00  0.00    -0.003 C 
ATOM     20  C   UNL     1      10.162 -54.205 -28.248  1.00  0.00     0.004 C 
ENDBRANCH  18  19
ENDBRANCH  17  18
ENDBRANCH  16  17
ENDBRANCH  15  16
ENDBRANCH  14  15
ENDBRANCH  13  14
ENDBRANCH   2  13
TORSDOF 15
ENDMDL
MODEL 4
REMARK VINA RESULT:    -5.691      1.382      2.896
REMARK INTER + INTRA:         -12.628
REMARK INTER:                 -11.244
REMARK INTRA:                  -1.384
REMARK UNBOUND:                -1.948
REMARK SMILES CCCCCCCCC=CCCCCCCCC(=O)[O-]
REMARK SMILES IDX 10 1 9 2 11 3 12 4 13 5 14 6 15 7 16 8 17 9 18 10 19 11
REMARK SMILES IDX 20 12 8 13 7 14 6 15 5 16 4 17 3 18 2 19 1 20
REMARK H PARENT
REMARK Flexibility Score: inf
ROOT
ATOM      1  C   UNL     1       4.459 -56.540 -30.702  1.00  0.00    -0.031 C 
ATOM      2  C   UNL     1       5.051 -55.355 -30.902  1.00  0.00    -0.031 C 
ENDROOT
BRANCH   1   3
ATOM      3  C   UNL     1       3.763 -56.840 -29.401  1.00  0.00     0.027 C 
BRANCH   3   4
ATOM      4  C   UNL     1       3.400 -55.563 -28.629  1.00  0.00     0.004 C 
BRANCH   4   5
ATOM      5  C   UNL     1       4.183 -55.445 -27.309  1.00  0.00     0.000 C 
BRANCH   5   6
ATOM      6  C   UNL     1       5.235 -56.554 -27.147  1.00  0.00     0.000 C 
BRANCH   6   7
ATOM      7  C   UNL     1       4.702 -57.765 -26.362  1.00  0.00     0.000 C 
BRANCH   7   8
ATOM      8  C   UNL     1       5.419 -57.974 -25.017  1.00  0.00     0.006 C 
BRANCH   8   9
ATOM      9  C   UNL     1       6.952 -58.044 -25.131  1.00  0.00     0.053 C 
BRANCH   9  10
ATOM     10  C   UNL     1       7.612 -58.370 -23.826  1.00  0.00     0.041 C 
ATOM     11  O   UNL     1       8.637 -57.739 -23.459  1.00  0.00    -0.550 OA
ATOM     12  O   UNL     1       7.116 -59.396 -23.030  1.00  0.00    -0.550 OA
ENDBRANCH   9  10
ENDBRANCH   8   9
ENDBRANCH   7   8
ENDBRANCH   6   7
ENDBRANCH   5   6
ENDBRANCH   4   5
ENDBRANCH   3   4
ENDBRANCH   1   3
BRANCH   2  13
ATOM     13  C   UNL     1       5.763 -55.035 -32.189  1.00  0.00     0.027 C 
BRANCH  13  14
ATOM     14  C   UNL     1       7.162 -54.433 -31.962  1.00  0.00     0.004 C 
BRANCH  14  15
ATOM     15  C   UNL     1       8.322 -55.312 -32.465  1.00  0.00     0.000 C 
BRANCH  15  16
ATOM     16  C   UNL     1       9.152 -55.914 -31.319  1.00  0.00     0.000 C 
BRANCH  16  17
ATOM     17  C   UNL     1       8.275 -56.509 -30.205  1.00  0.00    -0.000 C 
BRANCH  17  18
ATOM     18  C   UNL     1       8.422 -55.755 -28.872  1.00  0.00    -0.000 C 
BRANCH  18  19
ATOM     19  C   UNL     1       9.892 -55.564 -28.463  1.00  0.00    -0.003 C 
ATOM     20  C   UNL     1      10.265 -54.095 -28.257  1.00  0.00     0.004 C 
ENDBRANCH  18  19
ENDBRANCH  17  18
ENDBRANCH  16  17
ENDBRANCH  15  16
ENDBRANCH  14  15
ENDBRANCH  13  14
ENDBRANCH   2  13
TORSDOF 15
ENDMDL
MODEL 5
REMARK VINA RESULT:    -5.662      2.261      7.044
REMARK INTER + INTRA:         -12.575
REMARK INTER:                 -11.087
REMARK INTRA:                  -1.488
REMARK UNBOUND:                -1.948
REMARK SMILES CCCCCCCCC=CCCCCCCCC(=O)[O-]
REMARK SMILES IDX 10 1 9 2 11 3 12 4 13 5 14 6 15 7 16 8 17 9 18 10 19 11
REMARK SMILES IDX 20 12 8 13 7 14 6 15 5 16 4 17 3 18 2 19 1 20
REMARK H PARENT
REMARK Flexibility Score: inf
ROOT
ATOM      1  C   UNL     1       3.945 -56.148 -28.712  1.00  0.00    -0.031 C 
ATOM      2  C   UNL     1       3.050 -55.280 -28.223  1.00  0.00    -0.031 C 
ENDROOT
BRANCH   1   3
ATOM      3  C   UNL     1       4.383 -56.071 -30.151  1.00  0.00     0.027 C 
BRANCH   3   4
ATOM      4  C   UNL     1       5.823 -55.558 -30.292  1.00  0.00     0.004 C 
BRANCH   4   5
ATOM      5  C   UNL     1       6.166 -55.196 -31.748  1.00  0.00     0.000 C 
BRANCH   5   6
ATOM      6  C   UNL     1       7.470 -54.392 -31.864  1.00  0.00     0.000 C 
BRANCH   6   7
ATOM      7  C   UNL     1       8.691 -55.282 -32.154  1.00  0.00     0.000 C 
BRANCH   7   8
ATOM      8  C   UNL     1       9.901 -54.956 -31.260  1.00  0.00     0.006 C 
BRANCH   8   9
ATOM      9  C   UNL     1       9.575 -54.012 -30.090  1.00  0.00     0.053 C 
BRANCH   9  10
ATOM     10  C   UNL     1       9.605 -54.709 -28.764  1.00  0.00     0.041 C 
ATOM     11  O   UNL     1      10.257 -54.219 -27.805  1.00  0.00    -0.550 OA
ATOM     12  O   UNL     1       8.942 -55.919 -28.595  1.00  0.00    -0.550 OA
ENDBRANCH   9  10
ENDBRANCH   8   9
ENDBRANCH   7   8
ENDBRANCH   6   7
ENDBRANCH   5   6
ENDBRANCH   4   5
ENDBRANCH   3   4
ENDBRANCH   1   3
BRANCH   2  13
ATOM     13  C   UNL     1       2.588 -55.344 -26.791  1.00  0.00     0.027 C 
BRANCH  13  14
ATOM     14  C   UNL     1       3.750 -55.528 -25.799  1.00  0.00     0.004 C 
BRANCH  14  15
ATOM     15  C   UNL     1       3.547 -56.668 -24.785  1.00  0.00     0.000 C 
BRANCH  15  16
ATOM     16  C   UNL     1       4.332 -57.938 -25.152  1.00  0.00     0.000 C 
BRANCH  16  17
ATOM     17  C   UNL     1       5.671 -57.625 -25.840  1.00  0.00    -0.000 C 
BRANCH  17  18
ATOM     18  C   UNL     1       6.883 -57.993 -24.967  1.00  0.00    -0.000 C 
BRANCH  18  19
ATOM     19  C   UNL     1       6.479 -58.714 -23.672  1.00  0.00    -0.003 C 
ATOM     20  C   UNL     1       7.185 -58.155 -22.435  1.00  0.00     0.004 C 
ENDBRANCH  18  19
ENDBRANCH  17  18
ENDBRANCH  16  17
ENDBRANCH  15  16
ENDBRANCH  14  15
ENDBRANCH  13  14
ENDBRANCH   2  13
TORSDOF 15
ENDMDL
MODEL 6
REMARK VINA RESULT:    -5.532      2.947      3.606
REMARK INTER + INTRA:         -12.330
REMARK INTER:                 -10.665
REMARK INTRA:                  -1.666
REMARK UNBOUND:                -1.948
REMARK SMILES CCCCCCCCC=CCCCCCCCC(=O)[O-]
REMARK SMILES IDX 10 1 9 2 11 3 12 4 13 5 14 6 15 7 16 8 17 9 18 10 19 11
REMARK SMILES IDX 20 12 8 13 7 14 6 15 5 16 4 17 3 18 2 19 1 20
REMARK H PARENT
REMARK Flexibility Score: inf
ROOT
ATOM      1  C   UNL     1       6.241 -56.224 -30.006  1.00  0.00    -0.031 C 
ATOM      2  C   UNL     1       6.774 -56.032 -28.791  1.00  0.00    -0.031 C 
ENDROOT
BRANCH   1   3
ATOM      3  C   UNL     1       4.806 -55.861 -30.280  1.00  0.00     0.027 C 
BRANCH   3   4
ATOM      4  C   UNL     1       4.157 -55.124 -29.100  1.00  0.00     0.004 C 
BRANCH   4   5
ATOM      5  C   UNL     1       3.080 -55.979 -28.408  1.00  0.00     0.000 C 
BRANCH   5   6
ATOM      6  C   UNL     1       3.117 -55.847 -26.878  1.00  0.00     0.000 C 
BRANCH   6   7
ATOM      7  C   UNL     1       3.197 -54.383 -26.412  1.00  0.00     0.000 C 
BRANCH   7   8
ATOM      8  C   UNL     1       1.877 -53.616 -26.605  1.00  0.00     0.006 C 
BRANCH   8   9
ATOM      9  C   UNL     1       0.758 -54.046 -25.641  1.00  0.00     0.053 C 
BRANCH   9  10
ATOM     10  C   UNL     1       1.070 -53.716 -24.213  1.00  0.00     0.041 C 
ATOM     11  O   UNL     1       1.571 -52.599 -23.917  1.00  0.00    -0.550 OA
ATOM     12  O   UNL     1       0.843 -54.653 -23.213  1.00  0.00    -0.550 OA
ENDBRANCH   9  10
ENDBRANCH   8   9
ENDBRANCH   7   8
ENDBRANCH   6   7
ENDBRANCH   5   6
ENDBRANCH   4   5
ENDBRANCH   3   4
ENDBRANCH   1   3
BRANCH   2  13
ATOM     13  C   UNL     1       8.202 -56.397 -28.488  1.00  0.00     0.027 C 
BRANCH  13  14
ATOM     14  C   UNL     1       9.147 -55.183 -28.521  1.00  0.00     0.004 C 
BRANCH  14  15
ATOM     15  C   UNL     1       9.954 -55.038 -29.824  1.00  0.00     0.000 C 
BRANCH  15  16
ATOM     16  C   UNL     1       9.448 -53.889 -30.712  1.00  0.00     0.000 C 
BRANCH  16  17
ATOM     17  C   UNL     1       8.807 -54.389 -32.017  1.00  0.00    -0.000 C 
BRANCH  17  18
ATOM     18  C   UNL     1       9.100 -55.876 -32.286  1.00  0.00    -0.000 C 
BRANCH  18  19
ATOM     19  C   UNL     1       9.937 -56.091 -33.556  1.00  0.00    -0.003 C 
ATOM     20  C   UNL     1      11.308 -55.417 -33.486  1.00  0.00     0.004 C 
ENDBRANCH  18  19
ENDBRANCH  17  18
ENDBRANCH  16  17
ENDBRANCH  15  16
ENDBRANCH  14  15
ENDBRANCH  13  14
ENDBRANCH   2  13
TORSDOF 15
ENDMDL
MODEL 7
REMARK VINA RESULT:    -5.528      1.503      3.137
REMARK INTER + INTRA:         -12.323
REMARK INTER:                 -10.591
REMARK INTRA:                  -1.732
REMARK UNBOUND:                -1.948
REMARK SMILES CCCCCCCCC=CCCCCCCCC(=O)[O-]
REMARK SMILES IDX 10 1 9 2 11 3 12 4 13 5 14 6 15 7 16 8 17 9 18 10 19 11
REMARK SMILES IDX 20 12 8 13 7 14 6 15 5 16 4 17 3 18 2 19 1 20
REMARK H PARENT
REMARK Flexibility Score: inf
ROOT
ATOM      1  C   UNL     1       3.063 -54.694 -28.124  1.00  0.00    -0.031 C 
ATOM      2  C   UNL     1       3.393 -55.983 -28.283  1.00  0.00    -0.031 C 
ENDROOT
BRANCH   1   3
ATOM      3  C   UNL     1       2.350 -54.232 -26.881  1.00  0.00     0.027 C 
BRANCH   3   4
ATOM      4  C   UNL     1       1.370 -55.287 -26.349  1.00  0.00     0.004 C 
BRANCH   4   5
ATOM      5  C   UNL     1       1.644 -55.639 -24.875  1.00  0.00     0.000 C 
BRANCH   5   6
ATOM      6  C   UNL     1       3.141 -55.821 -24.582  1.00  0.00     0.000 C 
BRANCH   6   7
ATOM      7  C   UNL     1       3.608 -57.275 -24.770  1.00  0.00     0.000 C 
BRANCH   7   8
ATOM      8  C   UNL     1       5.053 -57.382 -25.287  1.00  0.00     0.006 C 
BRANCH   8   9
ATOM      9  C   UNL     1       5.849 -58.550 -24.677  1.00  0.00     0.053 C 
BRANCH   9  10
ATOM     10  C   UNL     1       7.311 -58.245 -24.552  1.00  0.00     0.041 C 
ATOM     11  O   UNL     1       8.070 -58.365 -25.549  1.00  0.00    -0.550 OA
ATOM     12  O   UNL     1       7.843 -57.863 -23.327  1.00  0.00    -0.550 OA
ENDBRANCH   9  10
ENDBRANCH   8   9
ENDBRANCH   7   8
ENDBRANCH   6   7
ENDBRANCH   5   6
ENDBRANCH   4   5
ENDBRANCH   3   4
ENDBRANCH   1   3
BRANCH   2  13
ATOM     13  C   UNL     1       4.096 -56.471 -29.522  1.00  0.00     0.027 C 
BRANCH  13  14
ATOM     14  C   UNL     1       5.502 -55.866 -29.685  1.00  0.00     0.004 C 
BRANCH  14  15
ATOM     15  C   UNL     1       6.460 -56.156 -28.515  1.00  0.00     0.000 C 
BRANCH  15  16
ATOM     16  C   UNL     1       7.931 -55.882 -28.870  1.00  0.00     0.000 C 
BRANCH  16  17
ATOM     17  C   UNL     1       8.273 -56.279 -30.315  1.00  0.00    -0.000 C 
BRANCH  17  18
ATOM     18  C   UNL     1       9.550 -55.591 -30.829  1.00  0.00    -0.000 C 
BRANCH  18  19
ATOM     19  C   UNL     1       9.247 -54.340 -31.671  1.00  0.00    -0.003 C 
ATOM     20  C   UNL     1       7.830 -54.342 -32.247  1.00  0.00     0.004 C 
ENDBRANCH  18  19
ENDBRANCH  17  18
ENDBRANCH  16  17
ENDBRANCH  15  16
ENDBRANCH  14  15
ENDBRANCH  13  14
ENDBRANCH   2  13
TORSDOF 15
ENDMDL
MODEL 8
REMARK VINA RESULT:    -5.519      1.562      3.309
REMARK INTER + INTRA:         -12.306
REMARK INTER:                 -10.691
REMARK INTRA:                  -1.616
REMARK UNBOUND:                -1.948
REMARK SMILES CCCCCCCCC=CCCCCCCCC(=O)[O-]
REMARK SMILES IDX 10 1 9 2 11 3 12 4 13 5 14 6 15 7 16 8 17 9 18 10 19 11
REMARK SMILES IDX 20 12 8 13 7 14 6 15 5 16 4 17 3 18 2 19 1 20
REMARK H PARENT
REMARK Flexibility Score: inf
ROOT
ATOM      1  C   UNL     1       3.261 -55.192 -28.528  1.00  0.00    -0.031 C 
ATOM      2  C   UNL     1       3.757 -56.434 -28.615  1.00  0.00    -0.031 C 
ENDROOT
BRANCH   1   3
ATOM      3  C   UNL     1       2.300 -54.825 -27.429  1.00  0.00     0.027 C 
BRANCH   3   4
ATOM      4  C   UNL     1       3.018 -54.259 -26.195  1.00  0.00     0.004 C 
BRANCH   4   5
ATOM      5  C   UNL     1       2.416 -54.790 -24.882  1.00  0.00     0.000 C 
BRANCH   5   6
ATOM      6  C   UNL     1       2.668 -56.293 -24.685  1.00  0.00     0.000 C 
BRANCH   6   7
ATOM      7  C   UNL     1       4.158 -56.623 -24.494  1.00  0.00     0.000 C 
BRANCH   7   8
ATOM      8  C   UNL     1       4.568 -57.957 -25.142  1.00  0.00     0.006 C 
BRANCH   8   9
ATOM      9  C   UNL     1       5.838 -57.868 -26.006  1.00  0.00     0.053 C 
BRANCH   9  10
ATOM     10  C   UNL     1       7.076 -58.243 -25.249  1.00  0.00     0.041 C 
ATOM     11  O   UNL     1       7.017 -58.470 -24.012  1.00  0.00    -0.550 OA
ATOM     12  O   UNL     1       8.301 -58.306 -25.900  1.00  0.00    -0.550 OA
ENDBRANCH   9  10
ENDBRANCH   8   9
ENDBRANCH   7   8
ENDBRANCH   6   7
ENDBRANCH   5   6
ENDBRANCH   4   5
ENDBRANCH   3   4
ENDBRANCH   1   3
BRANCH   2  13
ATOM     13  C   UNL     1       4.710 -56.828 -29.712  1.00  0.00     0.027 C 
BRANCH  13  14
ATOM     14  C   UNL     1       5.380 -55.616 -30.383  1.00  0.00     0.004 C 
BRANCH  14  15
ATOM     15  C   UNL     1       6.918 -55.673 -30.412  1.00  0.00     0.000 C 
BRANCH  15  16
ATOM     16  C   UNL     1       7.521 -54.887 -31.588  1.00  0.00     0.000 C 
BRANCH  16  17
ATOM     17  C   UNL     1       8.887 -54.270 -31.247  1.00  0.00    -0.000 C 
BRANCH  17  18
ATOM     18  C   UNL     1       9.127 -54.168 -29.730  1.00  0.00    -0.000 C 
BRANCH  18  19
ATOM     19  C   UNL     1      10.447 -54.825 -29.297  1.00  0.00    -0.003 C 
ATOM     20  C   UNL     1      10.266 -55.817 -28.146  1.00  0.00     0.004 C 
ENDBRANCH  18  19
ENDBRANCH  17  18
ENDBRANCH  16  17
ENDBRANCH  15  16
ENDBRANCH  14  15
ENDBRANCH  13  14
ENDBRANCH   2  13
TORSDOF 15
ENDMDL
MODEL 9
REMARK VINA RESULT:    -5.447      3.874      8.543
REMARK INTER + INTRA:         -12.171
REMARK INTER:                 -10.727
REMARK INTRA:                  -1.444
REMARK UNBOUND:                -1.948
REMARK SMILES CCCCCCCCC=CCCCCCCCC(=O)[O-]
REMARK SMILES IDX 10 1 9 2 11 3 12 4 13 5 14 6 15 7 16 8 17 9 18 10 19 11
REMARK SMILES IDX 20 12 8 13 7 14 6 15 5 16 4 17 3 18 2 19 1 20
REMARK H PARENT
REMARK Flexibility Score: inf
ROOT
ATOM      1  C   UNL     1       3.941 -56.521 -29.063  1.00  0.00    -0.031 C 
ATOM      2  C   UNL     1       3.780 -55.486 -28.228  1.00  0.00    -0.031 C 
ENDROOT
BRANCH   1   3
ATOM      3  C   UNL     1       4.425 -56.304 -30.472  1.00  0.00     0.027 C 
BRANCH   3   4
ATOM      4  C   UNL     1       5.749 -55.528 -30.518  1.00  0.00     0.004 C 
BRANCH   4   5
ATOM      5  C   UNL     1       6.940 -56.393 -30.067  1.00  0.00     0.000 C 
BRANCH   5   6
ATOM      6  C   UNL     1       7.758 -55.730 -28.948  1.00  0.00     0.000 C 
BRANCH   6   7
ATOM      7  C   UNL     1       8.801 -54.736 -29.487  1.00  0.00     0.000 C 
BRANCH   7   8
ATOM      8  C   UNL     1       9.728 -55.351 -30.550  1.00  0.00     0.006 C 
BRANCH   8   9
ATOM      9  C   UNL     1       9.707 -54.612 -31.899  1.00  0.00     0.053 C 
BRANCH   9  10
ATOM     10  C   UNL     1       9.031 -55.403 -32.978  1.00  0.00     0.041 C 
ATOM     11  O   UNL     1       7.866 -55.103 -33.347  1.00  0.00    -0.550 OA
ATOM     12  O   UNL     1       9.673 -56.494 -33.550  1.00  0.00    -0.550 OA
ENDBRANCH   9  10
ENDBRANCH   8   9
ENDBRANCH   7   8
ENDBRANCH   6   7
ENDBRANCH   5   6
ENDBRANCH   4   5
ENDBRANCH   3   4
ENDBRANCH   1   3
BRANCH   2  13
ATOM     13  C   UNL     1       3.287 -55.676 -26.819  1.00  0.00     0.027 C 
BRANCH  13  14
ATOM     14  C   UNL     1       2.012 -54.869 -26.520  1.00  0.00     0.004 C 
BRANCH  14  15
ATOM     15  C   UNL     1       1.081 -55.512 -25.476  1.00  0.00     0.000 C 
BRANCH  15  16
ATOM     16  C   UNL     1       1.844 -56.080 -24.268  1.00  0.00     0.000 C 
BRANCH  16  17
ATOM     17  C   UNL     1       1.559 -55.302 -22.973  1.00  0.00    -0.000 C 
BRANCH  17  18
ATOM     18  C   UNL     1       2.808 -54.590 -22.425  1.00  0.00    -0.000 C 
BRANCH  18  19
ATOM     19  C   UNL     1       3.232 -53.394 -23.292  1.00  0.00    -0.003 C 
ATOM     20  C   UNL     1       2.259 -52.217 -23.196  1.00  0.00     0.004 C 
ENDBRANCH  18  19
ENDBRANCH  17  18
ENDBRANCH  16  17
ENDBRANCH  15  16
ENDBRANCH  14  15
ENDBRANCH  13  14
ENDBRANCH   2  13
TORSDOF 15
ENDMDL
