MODEL 1
REMARK VINA RESULT:    -3.696      0.000      0.000
REMARK INTER + INTRA:          -7.838
REMARK INTER:                  -6.289
REMARK INTRA:                  -1.550
REMARK UNBOUND:                -1.550
REMARK SMILES CCCCCCCCCCCCCC(=O)[O-]
REMARK SMILES IDX 8 1 9 2 10 3 11 4 12 5 13 6 14 7 15 8 16 9 7 10 6 11 5 12
REMARK SMILES IDX 4 13 3 14 2 15 1 16
REMARK H PARENT
REMARK Flexibility Score: inf
ROOT
ATOM      1  C   UNL     1      60.383  22.354  21.037  1.00  0.00     0.000 C 
ENDROOT
BRANCH   1   2
ATOM      2  C   UNL     1      60.218  21.203  22.044  1.00  0.00     0.000 C 
BRANCH   2   3
ATOM      3  C   UNL     1      60.133  21.694  23.497  1.00  0.00     0.000 C 
BRANCH   3   4
ATOM      4  C   UNL     1      59.315  22.990  23.590  1.00  0.00     0.000 C 
BRANCH   4   5
ATOM      5  C   UNL     1      57.942  22.785  24.256  1.00  0.00     0.006 C 
BRANCH   5   6
ATOM      6  C   UNL     1      57.088  21.677  23.618  1.00  0.00     0.053 C 
BRANCH   6   7
ATOM      7  C   UNL     1      55.812  22.211  23.043  1.00  0.00     0.041 C 
ATOM      8  O   UNL     1      55.841  23.012  22.073  1.00  0.00    -0.550 OA
ATOM      9  O   UNL     1      54.594  21.851  23.603  1.00  0.00    -0.550 OA
ENDBRANCH   6   7
ENDBRANCH   5   6
ENDBRANCH   4   5
ENDBRANCH   3   4
ENDBRANCH   2   3
ENDBRANCH   1   2
BRANCH   1  10
ATOM     10  C   UNL     1      60.902  21.874  19.671  1.00  0.00     0.000 C 
BRANCH  10  11
ATOM     11  C   UNL     1      62.396  22.176  19.469  1.00  0.00    -0.000 C 
BRANCH  11  12
ATOM     12  C   UNL     1      63.308  21.100  20.086  1.00  0.00    -0.000 C 
BRANCH  12  13
ATOM     13  C   UNL     1      63.938  21.552  21.412  1.00  0.00    -0.000 C 
BRANCH  13  14
ATOM     14  C   UNL     1      64.124  23.074  21.491  1.00  0.00    -0.000 C 
BRANCH  14  15
ATOM     15  C   UNL     1      63.501  23.638  22.773  1.00  0.00    -0.003 C 
ATOM     16  C   UNL     1      62.615  24.843  22.472  1.00  0.00     0.004 C 
ENDBRANCH  14  15
ENDBRANCH  13  14
ENDBRANCH  12  13
ENDBRANCH  11  12
ENDBRANCH  10  11
ENDBRANCH   1  10
TORSDOF 12
ENDMDL
MODEL 2
REMARK VINA RESULT:    -3.643      1.035      2.912
REMARK INTER + INTRA:          -7.749
REMARK INTER:                  -6.377
REMARK INTRA:                  -1.373
REMARK UNBOUND:                -1.550
REMARK SMILES CCCCCCCCCCCCCC(=O)[O-]
REMARK SMILES IDX 8 1 9 2 10 3 11 4 12 5 13 6 14 7 15 8 16 9 7 10 6 11 5 12
REMARK SMILES IDX 4 13 3 14 2 15 1 16
REMARK H PARENT
REMARK Flexibility Score: inf
ROOT
ATOM      1  C   UNL     1      61.929  24.605  22.597  1.00  0.00     0.000 C 
ENDROOT
BRANCH   1   2
ATOM      2  C   UNL     1      61.295  25.030  23.932  1.00  0.00     0.000 C 
BRANCH   2   3
ATOM      3  C   UNL     1      60.093  24.156  24.323  1.00  0.00     0.000 C 
BRANCH   3   4
ATOM      4  C   UNL     1      59.694  23.226  23.167  1.00  0.00     0.000 C 
BRANCH   4   5
ATOM      5  C   UNL     1      58.701  22.131  23.595  1.00  0.00     0.006 C 
BRANCH   5   6
ATOM      6  C   UNL     1      57.339  22.664  24.071  1.00  0.00     0.053 C 
BRANCH   6   7
ATOM      7  C   UNL     1      56.216  22.197  23.197  1.00  0.00     0.041 C 
ATOM      8  O   UNL     1      55.590  21.142  23.480  1.00  0.00    -0.550 OA
ATOM      9  O   UNL     1      55.885  22.908  22.051  1.00  0.00    -0.550 OA
ENDBRANCH   6   7
ENDBRANCH   5   6
ENDBRANCH   4   5
ENDBRANCH   3   4
ENDBRANCH   2   3
ENDBRANCH   1   2
BRANCH   1  10
ATOM     10  C   UNL     1      63.466  24.678  22.623  1.00  0.00     0.000 C 
BRANCH  10  11
ATOM     11  C   UNL     1      64.120  23.699  21.635  1.00  0.00    -0.000 C 
BRANCH  11  12
ATOM     12  C   UNL     1      63.914  22.227  22.034  1.00  0.00    -0.000 C 
BRANCH  12  13
ATOM     13  C   UNL     1      63.319  21.385  20.895  1.00  0.00    -0.000 C 
BRANCH  13  14
ATOM     14  C   UNL     1      61.800  21.200  21.027  1.00  0.00    -0.000 C 
BRANCH  14  15
ATOM     15  C   UNL     1      61.056  21.955  19.919  1.00  0.00    -0.003 C 
ATOM     16  C   UNL     1      61.997  22.325  18.776  1.00  0.00     0.004 C 
ENDBRANCH  14  15
ENDBRANCH  13  14
ENDBRANCH  12  13
ENDBRANCH  11  12
ENDBRANCH  10  11
ENDBRANCH   1  10
TORSDOF 12
ENDMDL
MODEL 3
REMARK VINA RESULT:    -3.538      3.312      5.299
REMARK INTER + INTRA:          -7.570
REMARK INTER:                  -5.603
REMARK INTRA:                  -1.967
REMARK UNBOUND:                -1.550
REMARK SMILES CCCCCCCCCCCCCC(=O)[O-]
REMARK SMILES IDX 8 1 9 2 10 3 11 4 12 5 13 6 14 7 15 8 16 9 7 10 6 11 5 12
REMARK SMILES IDX 4 13 3 14 2 15 1 16
REMARK H PARENT
REMARK Flexibility Score: inf
ROOT
ATOM      1  C   UNL     1      58.144  23.155  24.418  1.00  0.00     0.000 C 
ENDROOT
BRANCH   1   2
ATOM      2  C   UNL     1      57.612  21.822  23.865  1.00  0.00     0.000 C 
BRANCH   2   3
ATOM      3  C   UNL     1      58.153  21.503  22.463  1.00  0.00     0.000 C 
BRANCH   3   4
ATOM      4  C   UNL     1      59.272  22.481  22.073  1.00  0.00     0.000 C 
BRANCH   4   5
ATOM      5  C   UNL     1      60.449  21.789  21.361  1.00  0.00     0.006 C 
BRANCH   5   6
ATOM      6  C   UNL     1      61.344  22.739  20.549  1.00  0.00     0.053 C 
BRANCH   6   7
ATOM      7  C   UNL     1      62.621  22.082  20.123  1.00  0.00     0.041 C 
ATOM      8  O   UNL     1      63.487  21.767  20.980  1.00  0.00    -0.550 OA
ATOM      9  O   UNL     1      62.868  21.851  18.776  1.00  0.00    -0.550 OA
ENDBRANCH   6   7
ENDBRANCH   5   6
ENDBRANCH   4   5
ENDBRANCH   3   4
ENDBRANCH   2   3
ENDBRANCH   1   2
BRANCH   1  10
ATOM     10  C   UNL     1      58.957  22.977  25.712  1.00  0.00     0.000 C 
BRANCH  10  11
ATOM     11  C   UNL     1      59.676  21.620  25.774  1.00  0.00    -0.000 C 
BRANCH  11  12
ATOM     12  C   UNL     1      61.100  21.676  25.190  1.00  0.00    -0.000 C 
BRANCH  12  13
ATOM     13  C   UNL     1      61.772  23.041  25.405  1.00  0.00    -0.000 C 
BRANCH  13  14
ATOM     14  C   UNL     1      62.237  23.684  24.090  1.00  0.00    -0.000 C 
BRANCH  14  15
ATOM     15  C   UNL     1      61.470  24.982  23.812  1.00  0.00    -0.003 C 
ATOM     16  C   UNL     1      62.104  25.763  22.665  1.00  0.00     0.004 C 
ENDBRANCH  14  15
ENDBRANCH  13  14
ENDBRANCH  12  13
ENDBRANCH  11  12
ENDBRANCH  10  11
ENDBRANCH   1  10
TORSDOF 12
ENDMDL
MODEL 4
REMARK VINA RESULT:    -3.510      2.895      6.458
REMARK INTER + INTRA:          -7.523
REMARK INTER:                  -6.646
REMARK INTRA:                  -0.877
REMARK UNBOUND:                -1.550
REMARK SMILES CCCCCCCCCCCCCC(=O)[O-]
REMARK SMILES IDX 8 1 9 2 10 3 11 4 12 5 13 6 14 7 15 8 16 9 7 10 6 11 5 12
REMARK SMILES IDX 4 13 3 14 2 15 1 16
REMARK H PARENT
REMARK Flexibility Score: inf
ROOT
ATOM      1  C   UNL     1      60.681  22.000  20.129  1.00  0.00     0.000 C 
ENDROOT
BRANCH   1   2
ATOM      2  C   UNL     1      62.119  22.250  19.647  1.00  0.00     0.000 C 
BRANCH   2   3
ATOM      3  C   UNL     1      63.166  21.500  20.486  1.00  0.00     0.000 C 
BRANCH   3   4
ATOM      4  C   UNL     1      64.125  22.486  21.170  1.00  0.00     0.000 C 
BRANCH   4   5
ATOM      5  C   UNL     1      63.420  23.393  22.195  1.00  0.00     0.006 C 
BRANCH   5   6
ATOM      6  C   UNL     1      63.952  24.835  22.237  1.00  0.00     0.053 C 
BRANCH   6   7
ATOM      7  C   UNL     1      63.060  25.742  23.027  1.00  0.00     0.041 C 
ATOM      8  O   UNL     1      61.848  25.871  22.711  1.00  0.00    -0.550 OA
ATOM      9  O   UNL     1      63.576  26.470  24.091  1.00  0.00    -0.550 OA
ENDBRANCH   6   7
ENDBRANCH   5   6
ENDBRANCH   4   5
ENDBRANCH   3   4
ENDBRANCH   2   3
ENDBRANCH   1   2
BRANCH   1  10
ATOM     10  C   UNL     1      60.612  20.980  21.280  1.00  0.00     0.000 C 
BRANCH  10  11
ATOM     11  C   UNL     1      60.091  21.600  22.586  1.00  0.00    -0.000 C 
BRANCH  11  12
ATOM     12  C   UNL     1      58.915  22.567  22.357  1.00  0.00    -0.000 C 
BRANCH  12  13
ATOM     13  C   UNL     1      57.797  22.392  23.397  1.00  0.00    -0.000 C 
BRANCH  13  14
ATOM     14  C   UNL     1      56.395  22.463  22.774  1.00  0.00    -0.000 C 
BRANCH  14  15
ATOM     15  C   UNL     1      55.441  21.474  23.456  1.00  0.00    -0.003 C 
ATOM     16  C   UNL     1      54.010  22.002  23.458  1.00  0.00     0.004 C 
ENDBRANCH  14  15
ENDBRANCH  13  14
ENDBRANCH  12  13
ENDBRANCH  11  12
ENDBRANCH  10  11
ENDBRANCH   1  10
TORSDOF 12
ENDMDL
MODEL 5
REMARK VINA RESULT:    -3.471      2.945      6.049
REMARK INTER + INTRA:          -7.456
REMARK INTER:                  -5.867
REMARK INTRA:                  -1.589
REMARK UNBOUND:                -1.550
REMARK SMILES CCCCCCCCCCCCCC(=O)[O-]
REMARK SMILES IDX 8 1 9 2 10 3 11 4 12 5 13 6 14 7 15 8 16 9 7 10 6 11 5 12
REMARK SMILES IDX 4 13 3 14 2 15 1 16
REMARK H PARENT
REMARK Flexibility Score: inf
ROOT
ATOM      1  C   UNL     1      61.524  25.720  23.164  1.00  0.00     0.000 C 
ENDROOT
BRANCH   1   2
ATOM      2  C   UNL     1      63.047  25.766  22.959  1.00  0.00     0.000 C 
BRANCH   2   3
ATOM      3  C   UNL     1      63.744  24.468  23.395  1.00  0.00     0.000 C 
BRANCH   3   4
ATOM      4  C   UNL     1      63.946  23.527  22.198  1.00  0.00     0.000 C 
BRANCH   4   5
ATOM      5  C   UNL     1      62.854  22.446  22.097  1.00  0.00     0.006 C 
BRANCH   5   6
ATOM      6  C   UNL     1      61.827  22.685  20.978  1.00  0.00     0.053 C 
BRANCH   6   7
ATOM      7  C   UNL     1      62.190  21.963  19.717  1.00  0.00     0.041 C 
ATOM      8  O   UNL     1      61.584  22.219  18.644  1.00  0.00    -0.550 OA
ATOM      9  O   UNL     1      63.174  20.983  19.736  1.00  0.00    -0.550 OA
ENDBRANCH   6   7
ENDBRANCH   5   6
ENDBRANCH   4   5
ENDBRANCH   3   4
ENDBRANCH   2   3
ENDBRANCH   1   2
BRANCH   1  10
ATOM     10  C   UNL     1      61.113  24.819  24.341  1.00  0.00     0.000 C 
BRANCH  10  11
ATOM     11  C   UNL     1      59.922  23.910  24.000  1.00  0.00    -0.000 C 
BRANCH  11  12
ATOM     12  C   UNL     1      60.024  22.524  24.662  1.00  0.00    -0.000 C 
BRANCH  12  13
ATOM     13  C   UNL     1      59.525  21.395  23.747  1.00  0.00    -0.000 C 
BRANCH  13  14
ATOM     14  C   UNL     1      58.457  21.869  22.751  1.00  0.00    -0.000 C 
BRANCH  14  15
ATOM     15  C   UNL     1      57.048  21.685  23.328  1.00  0.00    -0.003 C 
ATOM     16  C   UNL     1      56.033  22.554  22.593  1.00  0.00     0.004 C 
ENDBRANCH  14  15
ENDBRANCH  13  14
ENDBRANCH  12  13
ENDBRANCH  11  12
ENDBRANCH  10  11
ENDBRANCH   1  10
TORSDOF 12
ENDMDL
MODEL 6
REMARK VINA RESULT:    -3.447      2.424      6.181
REMARK INTER + INTRA:          -7.415
REMARK INTER:                  -6.449
REMARK INTRA:                  -0.966
REMARK UNBOUND:                -1.550
REMARK SMILES CCCCCCCCCCCCCC(=O)[O-]
REMARK SMILES IDX 8 1 9 2 10 3 11 4 12 5 13 6 14 7 15 8 16 9 7 10 6 11 5 12
REMARK SMILES IDX 4 13 3 14 2 15 1 16
REMARK H PARENT
REMARK Flexibility Score: inf
ROOT
ATOM      1  C   UNL     1      61.900  25.622  22.745  1.00  0.00     0.000 C 
ENDROOT
BRANCH   1   2
ATOM      2  C   UNL     1      63.433  25.730  22.751  1.00  0.00     0.000 C 
BRANCH   2   3
ATOM      3  C   UNL     1      64.124  24.363  22.872  1.00  0.00     0.000 C 
BRANCH   3   4
ATOM      4  C   UNL     1      63.916  23.531  21.597  1.00  0.00     0.000 C 
BRANCH   4   5
ATOM      5  C   UNL     1      63.229  22.180  21.870  1.00  0.00     0.006 C 
BRANCH   5   6
ATOM      6  C   UNL     1      62.865  21.388  20.603  1.00  0.00     0.053 C 
BRANCH   6   7
ATOM      7  C   UNL     1      61.725  22.011  19.859  1.00  0.00     0.041 C 
ATOM      8  O   UNL     1      61.875  22.384  18.666  1.00  0.00    -0.550 OA
ATOM      9  O   UNL     1      60.506  22.211  20.495  1.00  0.00    -0.550 OA
ENDBRANCH   6   7
ENDBRANCH   5   6
ENDBRANCH   4   5
ENDBRANCH   3   4
ENDBRANCH   2   3
ENDBRANCH   1   2
BRANCH   1  10
ATOM     10  C   UNL     1      61.344  25.023  24.048  1.00  0.00     0.000 C 
BRANCH  10  11
ATOM     11  C   UNL     1      60.220  24.004  23.797  1.00  0.00    -0.000 C 
BRANCH  11  12
ATOM     12  C   UNL     1      59.146  24.020  24.900  1.00  0.00    -0.000 C 
BRANCH  12  13
ATOM     13  C   UNL     1      58.024  23.002  24.645  1.00  0.00    -0.000 C 
BRANCH  13  14
ATOM     14  C   UNL     1      57.999  22.501  23.194  1.00  0.00    -0.000 C 
BRANCH  14  15
ATOM     15  C   UNL     1      56.932  21.415  23.007  1.00  0.00    -0.003 C 
ATOM     16  C   UNL     1      55.527  21.996  23.129  1.00  0.00     0.004 C 
ENDBRANCH  14  15
ENDBRANCH  13  14
ENDBRANCH  12  13
ENDBRANCH  11  12
ENDBRANCH  10  11
ENDBRANCH   1  10
TORSDOF 12
ENDMDL
MODEL 7
REMARK VINA RESULT:    -3.379      3.363      5.109
REMARK INTER + INTRA:          -7.300
REMARK INTER:                  -5.920
REMARK INTRA:                  -1.380
REMARK UNBOUND:                -1.550
REMARK SMILES CCCCCCCCCCCCCC(=O)[O-]
REMARK SMILES IDX 8 1 9 2 10 3 11 4 12 5 13 6 14 7 15 8 16 9 7 10 6 11 5 12
REMARK SMILES IDX 4 13 3 14 2 15 1 16
REMARK H PARENT
REMARK Flexibility Score: inf
ROOT
ATOM      1  C   UNL     1      58.039  22.552  23.248  1.00  0.00     0.000 C 
ENDROOT
BRANCH   1   2
ATOM      2  C   UNL     1      58.119  23.056  24.699  1.00  0.00     0.000 C 
BRANCH   2   3
ATOM      3  C   UNL     1      59.154  24.178  24.881  1.00  0.00     0.000 C 
BRANCH   3   4
ATOM      4  C   UNL     1      60.465  23.623  25.459  1.00  0.00     0.000 C 
BRANCH   4   5
ATOM      5  C   UNL     1      61.668  24.550  25.207  1.00  0.00     0.006 C 
BRANCH   5   6
ATOM      6  C   UNL     1      61.611  25.313  23.873  1.00  0.00     0.053 C 
BRANCH   6   7
ATOM      7  C   UNL     1      62.962  25.797  23.444  1.00  0.00     0.041 C 
ATOM      8  O   UNL     1      63.446  25.429  22.342  1.00  0.00    -0.550 OA
ATOM      9  O   UNL     1      63.702  26.625  24.278  1.00  0.00    -0.550 OA
ENDBRANCH   6   7
ENDBRANCH   5   6
ENDBRANCH   4   5
ENDBRANCH   3   4
ENDBRANCH   2   3
ENDBRANCH   1   2
BRANCH   1  10
ATOM     10  C   UNL     1      58.484  21.086  23.107  1.00  0.00     0.000 C 
BRANCH  10  11
ATOM     11  C   UNL     1      59.603  20.907  22.068  1.00  0.00    -0.000 C 
BRANCH  11  12
ATOM     12  C   UNL     1      60.841  21.770  22.374  1.00  0.00    -0.000 C 
BRANCH  12  13
ATOM     13  C   UNL     1      61.185  22.734  21.229  1.00  0.00    -0.000 C 
BRANCH  13  14
ATOM     14  C   UNL     1      61.381  22.014  19.887  1.00  0.00    -0.000 C 
BRANCH  14  15
ATOM     15  C   UNL     1      62.805  21.458  19.765  1.00  0.00    -0.003 C 
ATOM     16  C   UNL     1      63.818  22.387  20.427  1.00  0.00     0.004 C 
ENDBRANCH  14  15
ENDBRANCH  13  14
ENDBRANCH  12  13
ENDBRANCH  11  12
ENDBRANCH  10  11
ENDBRANCH   1  10
TORSDOF 12
ENDMDL
MODEL 8
REMARK VINA RESULT:    -2.871      2.968      5.906
REMARK INTER + INTRA:          -6.435
REMARK INTER:                  -5.219
REMARK INTRA:                  -1.216
REMARK UNBOUND:                -1.550
REMARK SMILES CCCCCCCCCCCCCC(=O)[O-]
REMARK SMILES IDX 8 1 9 2 10 3 11 4 12 5 13 6 14 7 15 8 16 9 7 10 6 11 5 12
REMARK SMILES IDX 4 13 3 14 2 15 1 16
REMARK H PARENT
REMARK Flexibility Score: inf
ROOT
ATOM      1  C   UNL     1      59.808  20.919  21.826  1.00  0.00     0.000 C 
ENDROOT
BRANCH   1   2
ATOM      2  C   UNL     1      60.785  21.293  20.699  1.00  0.00     0.000 C 
BRANCH   2   3
ATOM      3  C   UNL     1      62.251  21.023  21.070  1.00  0.00     0.000 C 
BRANCH   3   4
ATOM      4  C   UNL     1      63.202  21.720  20.085  1.00  0.00     0.000 C 
BRANCH   4   5
ATOM      5  C   UNL     1      64.125  22.745  20.769  1.00  0.00     0.006 C 
BRANCH   5   6
ATOM      6  C   UNL     1      63.780  23.025  22.241  1.00  0.00     0.053 C 
BRANCH   6   7
ATOM      7  C   UNL     1      63.155  24.374  22.425  1.00  0.00     0.041 C 
ATOM      8  O   UNL     1      61.923  24.533  22.228  1.00  0.00    -0.550 OA
ATOM      9  O   UNL     1      63.943  25.461  22.780  1.00  0.00    -0.550 OA
ENDBRANCH   6   7
ENDBRANCH   5   6
ENDBRANCH   4   5
ENDBRANCH   3   4
ENDBRANCH   2   3
ENDBRANCH   1   2
BRANCH   1  10
ATOM     10  C   UNL     1      58.957  22.113  22.292  1.00  0.00     0.000 C 
BRANCH  10  11
ATOM     11  C   UNL     1      57.904  21.715  23.338  1.00  0.00    -0.000 C 
BRANCH  11  12
ATOM     12  C   UNL     1      57.475  22.895  24.229  1.00  0.00    -0.000 C 
BRANCH  12  13
ATOM     13  C   UNL     1      58.463  23.156  25.377  1.00  0.00    -0.000 C 
BRANCH  13  14
ATOM     14  C   UNL     1      59.469  24.269  25.051  1.00  0.00    -0.000 C 
BRANCH  14  15
ATOM     15  C   UNL     1      60.789  24.054  25.801  1.00  0.00    -0.003 C 
ATOM     16  C   UNL     1      61.495  22.790  25.322  1.00  0.00     0.004 C 
ENDBRANCH  14  15
ENDBRANCH  13  14
ENDBRANCH  12  13
ENDBRANCH  11  12
ENDBRANCH  10  11
ENDBRANCH   1  10
TORSDOF 12
ENDMDL
MODEL 9
REMARK VINA RESULT:    -2.867      3.373      5.933
REMARK INTER + INTRA:          -6.429
REMARK INTER:                  -5.338
REMARK INTRA:                  -1.091
REMARK UNBOUND:                -1.550
REMARK SMILES CCCCCCCCCCCCCC(=O)[O-]
REMARK SMILES IDX 8 1 9 2 10 3 11 4 12 5 13 6 14 7 15 8 16 9 7 10 6 11 5 12
REMARK SMILES IDX 4 13 3 14 2 15 1 16
REMARK H PARENT
REMARK Flexibility Score: inf
ROOT
ATOM      1  C   UNL     1      59.058  21.382  22.763  1.00  0.00     0.000 C 
ENDROOT
BRANCH   1   2
ATOM      2  C   UNL     1      59.487  21.377  21.286  1.00  0.00     0.000 C 
BRANCH   2   3
ATOM      3  C   UNL     1      61.011  21.291  21.111  1.00  0.00     0.000 C 
BRANCH   3   4
ATOM      4  C   UNL     1      61.460  22.049  19.853  1.00  0.00     0.000 C 
BRANCH   4   5
ATOM      5  C   UNL     1      62.985  22.012  19.645  1.00  0.00     0.006 C 
BRANCH   5   6
ATOM      6  C   UNL     1      63.770  21.415  20.825  1.00  0.00     0.053 C 
BRANCH   6   7
ATOM      7  C   UNL     1      64.004  22.420  21.911  1.00  0.00     0.041 C 
ATOM      8  O   UNL     1      64.124  23.641  21.628  1.00  0.00    -0.550 OA
ATOM      9  O   UNL     1      64.124  22.003  23.230  1.00  0.00    -0.550 OA
ENDBRANCH   6   7
ENDBRANCH   5   6
ENDBRANCH   4   5
ENDBRANCH   3   4
ENDBRANCH   2   3
ENDBRANCH   1   2
BRANCH   1  10
ATOM     10  C   UNL     1      58.113  22.549  23.101  1.00  0.00     0.000 C 
BRANCH  10  11
ATOM     11  C   UNL     1      57.690  22.556  24.578  1.00  0.00    -0.000 C 
BRANCH  11  12
ATOM     12  C   UNL     1      58.443  23.613  25.407  1.00  0.00    -0.000 C 
BRANCH  12  13
ATOM     13  C   UNL     1      59.862  23.163  25.786  1.00  0.00    -0.000 C 
BRANCH  13  14
ATOM     14  C   UNL     1      60.913  24.258  25.548  1.00  0.00    -0.000 C 
BRANCH  14  15
ATOM     15  C   UNL     1      61.568  24.099  24.171  1.00  0.00    -0.003 C 
ATOM     16  C   UNL     1      61.223  25.272  23.258  1.00  0.00     0.004 C 
ENDBRANCH  14  15
ENDBRANCH  13  14
ENDBRANCH  12  13
ENDBRANCH  11  12
ENDBRANCH  10  11
ENDBRANCH   1  10
TORSDOF 12
ENDMDL
