MODEL 1
REMARK VINA RESULT:    -7.127      0.000      0.000
REMARK INTER + INTRA:         -13.649
REMARK INTER:                 -11.710
REMARK INTRA:                  -1.939
REMARK UNBOUND:                -1.939
REMARK SMILES C[C@@H]1O[C@H](OC[C@H]2O[C@H](Oc3c(-c4ccc(O)c(O)c4)oc4cc(O)cc(O)c4c3=O)[C@@H](O)[C@@H](O)[C@@H]2O)[C@H](O)[C@H](O)[C@@H]1O
REMARK SMILES IDX 7 1 36 2 34 3 32 4 9 5 8 6 6 7 5 8 4 9 1 10 2 11 42 12 3 13
REMARK SMILES IDX 40 14 38 15 43 16 41 18 39 20 37 22 35 24 10 26 11 27 12 28
REMARK SMILES IDX 30 29 21 30 29 31 31 32 22 33 27 34 23 35 26 36 24 37 13 38
REMARK SMILES IDX 20 39 14 40 18 41 15 42 16 43 19 44 17 46 28 48 25 50 33 52
REMARK H PARENT 43 17 41 19 39 21 37 23 35 25 19 45 17 47 28 49 25 51 33 53
REMARK Flexibility Score: inf
ROOT
ATOM      1  C   UNL     1     -17.818 -25.443   6.134  1.00  0.00     0.180 C 
ATOM      2  C   UNL     1     -17.205 -24.872   4.788  1.00  0.00     0.177 C 
ATOM      3  C   UNL     1     -16.149 -23.811   5.178  1.00  0.00     0.180 C 
ATOM      4  C   UNL     1     -15.120 -24.388   6.167  1.00  0.00     0.214 C 
ATOM      5  C   UNL     1     -15.543 -25.789   6.685  1.00  0.00     0.339 C 
ATOM      6  O   UNL     1     -16.853 -25.597   7.225  1.00  0.00    -0.332 OA
ENDROOT
BRANCH   1   7
ATOM      7  C   UNL     1     -18.396 -26.896   5.785  1.00  0.00     0.198 C 
BRANCH   7   8
ATOM      8  O   UNL     1     -19.694 -26.819   5.186  1.00  0.00    -0.347 OA
BRANCH   8   9
ATOM      9  C   UNL     1     -20.690 -26.575   6.203  1.00  0.00     0.281 C 
ATOM     10  C   UNL     1     -22.137 -24.573   4.268  1.00  0.00     0.041 C 
ATOM     11  C   UNL     1     -22.089 -24.653   5.824  1.00  0.00     0.150 C 
ATOM     12  C   UNL     1     -23.331 -25.228   6.490  1.00  0.00     0.174 C 
ATOM     13  O   UNL     1     -20.863 -25.172   6.342  1.00  0.00    -0.344 OA
ATOM     14  C   UNL     1     -23.331 -26.817   6.525  1.00  0.00     0.179 C 
ATOM     15  C   UNL     1     -21.995 -27.419   5.915  1.00  0.00     0.202 C 
BRANCH  12  16
ATOM     16  O   UNL     1     -24.506 -24.619   5.936  1.00  0.00    -0.388 OA
ATOM     17  H   UNL     1     -24.524 -23.673   6.264  1.00  0.00     0.211 HD
ENDBRANCH  12  16
BRANCH  14  18
ATOM     18  O   UNL     1     -24.483 -27.441   6.007  1.00  0.00    -0.387 OA
ATOM     19  H   UNL     1     -24.930 -26.822   5.370  1.00  0.00     0.211 HD
ENDBRANCH  14  18
BRANCH  15  20
ATOM     20  O   UNL     1     -22.175 -27.624   4.519  1.00  0.00    -0.385 OA
ATOM     21  H   UNL     1     -21.299 -27.953   4.203  1.00  0.00     0.211 HD
ENDBRANCH  15  20
ENDBRANCH   8   9
ENDBRANCH   7   8
ENDBRANCH   1   7
BRANCH   2  22
ATOM     22  O   UNL     1     -18.250 -24.302   3.989  1.00  0.00    -0.387 OA
ATOM     23  H   UNL     1     -18.875 -25.001   3.685  1.00  0.00     0.211 HD
ENDBRANCH   2  22
BRANCH   3  24
ATOM     24  O   UNL     1     -15.488 -23.332   3.998  1.00  0.00    -0.387 OA
ATOM     25  H   UNL     1     -15.006 -22.538   4.278  1.00  0.00     0.211 HD
ENDBRANCH   3  24
BRANCH   5  26
ATOM     26  O   UNL     1     -14.538 -26.252   7.624  1.00  0.00    -0.454 OA
BRANCH  26  27
ATOM     27  C   UNL     1     -13.915 -27.525   7.437  1.00  0.00     0.214 A 
ATOM     28  C   UNL     1     -14.173 -28.600   8.269  1.00  0.00     0.180 A 
ATOM     29  C   UNL     1     -13.156 -27.856   6.260  1.00  0.00     0.239 A 
ATOM     30  O   UNL     1     -14.472 -29.741   7.672  1.00  0.00    -0.452 OA
ATOM     31  C   UNL     1     -13.254 -29.172   5.748  1.00  0.00     0.111 A 
ATOM     32  O   UNL     1     -12.369 -27.027   5.746  1.00  0.00    -0.285 OA
ATOM     33  C   UNL     1     -14.097 -30.043   6.440  1.00  0.00     0.146 A 
ATOM     34  C   UNL     1     -12.533 -29.591   4.638  1.00  0.00     0.134 A 
ATOM     35  C   UNL     1     -14.387 -31.298   5.874  1.00  0.00     0.094 A 
ATOM     36  C   UNL     1     -12.837 -30.836   4.058  1.00  0.00     0.093 A 
ATOM     37  C   UNL     1     -13.788 -31.660   4.657  1.00  0.00     0.123 A 
BRANCH  28  38
ATOM     38  C   UNL     1     -13.579 -28.682   9.647  1.00  0.00     0.025 A 
ATOM     39  C   UNL     1     -13.895 -29.643  10.638  1.00  0.00     0.062 A 
ATOM     40  C   UNL     1     -12.540 -27.783   9.952  1.00  0.00     0.016 A 
ATOM     41  C   UNL     1     -13.045 -29.829  11.803  1.00  0.00     0.158 A 
ATOM     42  C   UNL     1     -11.752 -27.858  11.092  1.00  0.00     0.051 A 
ATOM     43  C   UNL     1     -12.001 -28.895  12.020  1.00  0.00     0.157 A 
BRANCH  41  44
ATOM     44  O   UNL     1     -13.284 -30.906  12.704  1.00  0.00    -0.504 OA
ATOM     45  H   UNL     1     -13.478 -31.834  12.368  1.00  0.00     0.293 HD
ENDBRANCH  41  44
BRANCH  43  46
ATOM     46  O   UNL     1     -11.243 -28.986  13.177  1.00  0.00    -0.504 OA
ATOM     47  H   UNL     1     -10.862 -28.180  13.649  1.00  0.00     0.293 HD
ENDBRANCH  43  46
ENDBRANCH  28  38
BRANCH  34  48
ATOM     48  O   UNL     1     -11.500 -28.809   4.115  1.00  0.00    -0.507 OA
ATOM     49  H   UNL     1     -11.361 -28.713   3.089  1.00  0.00     0.293 HD
ENDBRANCH  34  48
BRANCH  37  50
ATOM     50  O   UNL     1     -14.134 -32.847   4.018  1.00  0.00    -0.508 OA
ATOM     51  H   UNL     1     -13.555 -33.670   4.122  1.00  0.00     0.293 HD
ENDBRANCH  37  50
ENDBRANCH  26  27
ENDBRANCH   5  26
BRANCH   4  52
ATOM     52  O   UNL     1     -13.820 -24.372   5.637  1.00  0.00    -0.384 OA
ATOM     53  H   UNL     1     -13.293 -24.996   6.193  1.00  0.00     0.211 HD
ENDBRANCH   4  52
TORSDOF 16
ENDMDL
MODEL 2
REMARK VINA RESULT:    -7.066      2.374      8.190
REMARK INTER + INTRA:         -13.550
REMARK INTER:                 -10.732
REMARK INTRA:                  -2.818
REMARK UNBOUND:                -1.939
REMARK SMILES C[C@@H]1O[C@H](OC[C@H]2O[C@H](Oc3c(-c4ccc(O)c(O)c4)oc4cc(O)cc(O)c4c3=O)[C@@H](O)[C@@H](O)[C@@H]2O)[C@H](O)[C@H](O)[C@@H]1O
REMARK SMILES IDX 7 1 36 2 34 3 32 4 9 5 8 6 6 7 5 8 4 9 1 10 2 11 42 12 3 13
REMARK SMILES IDX 40 14 38 15 43 16 41 18 39 20 37 22 35 24 10 26 11 27 12 28
REMARK SMILES IDX 30 29 21 30 29 31 31 32 22 33 27 34 23 35 26 36 24 37 13 38
REMARK SMILES IDX 20 39 14 40 18 41 15 42 16 43 19 44 17 46 28 48 25 50 33 52
REMARK H PARENT 43 17 41 19 39 21 37 23 35 25 19 45 17 47 28 49 25 51 33 53
REMARK Flexibility Score: inf
ROOT
ATOM      1  C   UNL     1     -16.505 -24.700   4.624  1.00  0.00     0.180 C 
ATOM      2  C   UNL     1     -15.974 -23.511   5.528  1.00  0.00     0.177 C 
ATOM      3  C   UNL     1     -17.098 -22.450   5.597  1.00  0.00     0.180 C 
ATOM      4  C   UNL     1     -18.426 -23.076   6.060  1.00  0.00     0.214 C 
ATOM      5  C   UNL     1     -18.346 -24.626   6.107  1.00  0.00     0.339 C 
ATOM      6  O   UNL     1     -17.926 -25.009   4.796  1.00  0.00    -0.332 OA
ENDROOT
BRANCH   1   7
ATOM      7  C   UNL     1     -15.668 -25.998   5.050  1.00  0.00     0.198 C 
BRANCH   7   8
ATOM      8  O   UNL     1     -14.686 -25.691   6.044  1.00  0.00    -0.347 OA
BRANCH   8   9
ATOM      9  C   UNL     1     -13.779 -26.805   6.199  1.00  0.00     0.281 C 
ATOM     10  C   UNL     1     -13.185 -25.878   9.138  1.00  0.00     0.041 C 
ATOM     11  C   UNL     1     -12.326 -26.682   8.115  1.00  0.00     0.150 C 
ATOM     12  C   UNL     1     -12.254 -28.183   8.355  1.00  0.00     0.174 C 
ATOM     13  O   UNL     1     -12.561 -26.326   6.751  1.00  0.00    -0.344 OA
ATOM     14  C   UNL     1     -13.498 -28.964   7.748  1.00  0.00     0.179 C 
ATOM     15  C   UNL     1     -14.483 -27.990   6.973  1.00  0.00     0.202 C 
BRANCH  12  16
ATOM     16  O   UNL     1     -11.974 -28.441   9.739  1.00  0.00    -0.388 OA
ATOM     17  H   UNL     1     -12.400 -29.320   9.961  1.00  0.00     0.211 HD
ENDBRANCH  12  16
BRANCH  14  18
ATOM     18  O   UNL     1     -14.181 -29.817   8.637  1.00  0.00    -0.387 OA
ATOM     19  H   UNL     1     -13.525 -30.227   9.263  1.00  0.00     0.211 HD
ENDBRANCH  14  18
BRANCH  15  20
ATOM     20  O   UNL     1     -15.459 -27.499   7.884  1.00  0.00    -0.385 OA
ATOM     21  H   UNL     1     -15.828 -28.309   8.310  1.00  0.00     0.211 HD
ENDBRANCH  15  20
ENDBRANCH   8   9
ENDBRANCH   7   8
ENDBRANCH   1   7
BRANCH   2  22
ATOM     22  O   UNL     1     -14.777 -22.970   4.954  1.00  0.00    -0.387 OA
ATOM     23  H   UNL     1     -14.065 -23.650   4.932  1.00  0.00     0.211 HD
ENDBRANCH   2  22
BRANCH   3  24
ATOM     24  O   UNL     1     -16.710 -21.395   6.488  1.00  0.00    -0.387 OA
ATOM     25  H   UNL     1     -15.874 -21.053   6.133  1.00  0.00     0.211 HD
ENDBRANCH   3  24
BRANCH   5  26
ATOM     26  O   UNL     1     -19.637 -25.138   6.529  1.00  0.00    -0.454 OA
BRANCH  26  27
ATOM     27  C   UNL     1     -19.872 -26.547   6.563  1.00  0.00     0.214 A 
ATOM     28  C   UNL     1     -20.987 -27.121   5.979  1.00  0.00     0.180 A 
ATOM     29  C   UNL     1     -18.880 -27.493   7.002  1.00  0.00     0.239 A 
ATOM     30  O   UNL     1     -20.764 -28.156   5.187  1.00  0.00    -0.452 OA
ATOM     31  C   UNL     1     -18.797 -28.737   6.331  1.00  0.00     0.111 A 
ATOM     32  O   UNL     1     -18.161 -27.256   8.001  1.00  0.00    -0.285 OA
ATOM     33  C   UNL     1     -19.698 -28.934   5.283  1.00  0.00     0.146 A 
ATOM     34  C   UNL     1     -17.895 -29.722   6.706  1.00  0.00     0.134 A 
ATOM     35  C   UNL     1     -19.539 -30.060   4.456  1.00  0.00     0.094 A 
ATOM     36  C   UNL     1     -17.720 -30.839   5.869  1.00  0.00     0.093 A 
ATOM     37  C   UNL     1     -18.513 -30.979   4.732  1.00  0.00     0.123 A 
BRANCH  28  38
ATOM     38  C   UNL     1     -22.341 -27.032   6.625  1.00  0.00     0.025 A 
ATOM     39  C   UNL     1     -23.575 -26.833   5.958  1.00  0.00     0.062 A 
ATOM     40  C   UNL     1     -22.408 -27.267   8.011  1.00  0.00     0.016 A 
ATOM     41  C   UNL     1     -24.841 -27.081   6.629  1.00  0.00     0.158 A 
ATOM     42  C   UNL     1     -23.589 -27.425   8.722  1.00  0.00     0.051 A 
ATOM     43  C   UNL     1     -24.815 -27.340   8.022  1.00  0.00     0.157 A 
BRANCH  41  44
ATOM     44  O   UNL     1     -26.063 -27.035   5.898  1.00  0.00    -0.504 OA
ATOM     45  H   UNL     1     -26.728 -27.787   5.945  1.00  0.00     0.293 HD
ENDBRANCH  41  44
BRANCH  43  46
ATOM     46  O   UNL     1     -26.014 -27.475   8.706  1.00  0.00    -0.504 OA
ATOM     47  H   UNL     1     -26.071 -27.512   9.712  1.00  0.00     0.293 HD
ENDBRANCH  43  46
ENDBRANCH  28  38
BRANCH  34  48
ATOM     48  O   UNL     1     -17.190 -29.631   7.908  1.00  0.00    -0.507 OA
ATOM     49  H   UNL     1     -17.652 -29.312   8.784  1.00  0.00     0.293 HD
ENDBRANCH  34  48
BRANCH  37  50
ATOM     50  O   UNL     1     -18.262 -32.046   3.875  1.00  0.00    -0.508 OA
ATOM     51  H   UNL     1     -18.023 -32.956   4.248  1.00  0.00     0.293 HD
ENDBRANCH  37  50
ENDBRANCH  26  27
ENDBRANCH   5  26
BRANCH   4  52
ATOM     52  O   UNL     1     -18.876 -22.516   7.265  1.00  0.00    -0.384 OA
ATOM     53  H   UNL     1     -18.329 -21.705   7.408  1.00  0.00     0.211 HD
ENDBRANCH   4  52
TORSDOF 16
ENDMDL
MODEL 3
REMARK VINA RESULT:    -6.927      4.200      6.789
REMARK INTER + INTRA:         -13.321
REMARK INTER:                 -10.870
REMARK INTRA:                  -2.451
REMARK UNBOUND:                -1.939
REMARK SMILES C[C@@H]1O[C@H](OC[C@H]2O[C@H](Oc3c(-c4ccc(O)c(O)c4)oc4cc(O)cc(O)c4c3=O)[C@@H](O)[C@@H](O)[C@@H]2O)[C@H](O)[C@H](O)[C@@H]1O
REMARK SMILES IDX 7 1 36 2 34 3 32 4 9 5 8 6 6 7 5 8 4 9 1 10 2 11 42 12 3 13
REMARK SMILES IDX 40 14 38 15 43 16 41 18 39 20 37 22 35 24 10 26 11 27 12 28
REMARK SMILES IDX 30 29 21 30 29 31 31 32 22 33 27 34 23 35 26 36 24 37 13 38
REMARK SMILES IDX 20 39 14 40 18 41 15 42 16 43 19 44 17 46 28 48 25 50 33 52
REMARK H PARENT 43 17 41 19 39 21 37 23 35 25 19 45 17 47 28 49 25 51 33 53
REMARK Flexibility Score: inf
ROOT
ATOM      1  C   UNL     1     -22.005 -21.785   6.552  1.00  0.00     0.180 C 
ATOM      2  C   UNL     1     -21.853 -20.364   5.866  1.00  0.00     0.177 C 
ATOM      3  C   UNL     1     -20.404 -19.885   6.118  1.00  0.00     0.180 C 
ATOM      4  C   UNL     1     -19.381 -20.941   5.660  1.00  0.00     0.214 C 
ATOM      5  C   UNL     1     -20.068 -22.284   5.290  1.00  0.00     0.339 C 
ATOM      6  O   UNL     1     -20.821 -22.640   6.451  1.00  0.00    -0.332 OA
ENDROOT
BRANCH   1   7
ATOM      7  C   UNL     1     -23.208 -22.525   5.796  1.00  0.00     0.198 C 
BRANCH   7   8
ATOM      8  O   UNL     1     -24.113 -23.141   6.718  1.00  0.00    -0.347 OA
BRANCH   8   9
ATOM      9  C   UNL     1     -23.863 -24.562   6.775  1.00  0.00     0.281 C 
ATOM     10  C   UNL     1     -26.016 -24.822   9.043  1.00  0.00     0.041 C 
ATOM     11  C   UNL     1     -24.758 -25.681   8.710  1.00  0.00     0.150 C 
ATOM     12  C   UNL     1     -25.033 -27.006   8.013  1.00  0.00     0.174 C 
ATOM     13  O   UNL     1     -23.683 -24.937   8.133  1.00  0.00    -0.344 OA
ATOM     14  C   UNL     1     -25.201 -26.851   6.440  1.00  0.00     0.179 C 
ATOM     15  C   UNL     1     -24.969 -25.353   5.969  1.00  0.00     0.202 C 
BRANCH  12  16
ATOM     16  O   UNL     1     -26.097 -27.697   8.685  1.00  0.00    -0.388 OA
ATOM     17  H   UNL     1     -26.486 -27.054   9.347  1.00  0.00     0.211 HD
ENDBRANCH  12  16
BRANCH  14  18
ATOM     18  O   UNL     1     -26.372 -27.408   5.890  1.00  0.00    -0.387 OA
ATOM     19  H   UNL     1     -26.315 -27.371   4.898  1.00  0.00     0.211 HD
ENDBRANCH  14  18
BRANCH  15  20
ATOM     20  O   UNL     1     -26.212 -24.663   5.992  1.00  0.00    -0.385 OA
ATOM     21  H   UNL     1     -26.034 -23.818   5.513  1.00  0.00     0.211 HD
ENDBRANCH  15  20
ENDBRANCH   8   9
ENDBRANCH   7   8
ENDBRANCH   1   7
BRANCH   2  22
ATOM     22  O   UNL     1     -22.810 -19.455   6.426  1.00  0.00    -0.387 OA
ATOM     23  H   UNL     1     -23.574 -19.337   5.815  1.00  0.00     0.211 HD
ENDBRANCH   2  22
BRANCH   3  24
ATOM     24  O   UNL     1     -20.179 -18.647   5.429  1.00  0.00    -0.387 OA
ATOM     25  H   UNL     1     -19.227 -18.627   5.240  1.00  0.00     0.211 HD
ENDBRANCH   3  24
BRANCH   5  26
ATOM     26  O   UNL     1     -19.040 -23.228   4.892  1.00  0.00    -0.454 OA
BRANCH  26  27
ATOM     27  C   UNL     1     -19.001 -24.532   5.475  1.00  0.00     0.214 A 
ATOM     28  C   UNL     1     -18.037 -24.897   6.398  1.00  0.00     0.180 A 
ATOM     29  C   UNL     1     -20.069 -25.486   5.326  1.00  0.00     0.239 A 
ATOM     30  O   UNL     1     -18.476 -25.472   7.504  1.00  0.00    -0.452 OA
ATOM     31  C   UNL     1     -20.387 -26.313   6.430  1.00  0.00     0.111 A 
ATOM     32  O   UNL     1     -20.650 -25.635   4.226  1.00  0.00    -0.285 OA
ATOM     33  C   UNL     1     -19.626 -26.122   7.584  1.00  0.00     0.146 A 
ATOM     34  C   UNL     1     -21.378 -27.283   6.367  1.00  0.00     0.134 A 
ATOM     35  C   UNL     1     -20.018 -26.771   8.769  1.00  0.00     0.094 A 
ATOM     36  C   UNL     1     -21.786 -27.917   7.555  1.00  0.00     0.093 A 
ATOM     37  C   UNL     1     -21.131 -27.627   8.750  1.00  0.00     0.123 A 
BRANCH  28  38
ATOM     38  C   UNL     1     -16.629 -25.209   5.976  1.00  0.00     0.025 A 
ATOM     39  C   UNL     1     -16.192 -26.392   5.329  1.00  0.00     0.062 A 
ATOM     40  C   UNL     1     -15.668 -24.196   6.147  1.00  0.00     0.016 A 
ATOM     41  C   UNL     1     -14.891 -26.458   4.682  1.00  0.00     0.158 A 
ATOM     42  C   UNL     1     -14.382 -24.241   5.628  1.00  0.00     0.051 A 
ATOM     43  C   UNL     1     -13.994 -25.379   4.883  1.00  0.00     0.157 A 
BRANCH  41  44
ATOM     44  O   UNL     1     -14.534 -27.592   3.899  1.00  0.00    -0.504 OA
ATOM     45  H   UNL     1     -14.835 -27.682   2.943  1.00  0.00     0.293 HD
ENDBRANCH  41  44
BRANCH  43  46
ATOM     46  O   UNL     1     -12.710 -25.464   4.367  1.00  0.00    -0.504 OA
ATOM     47  H   UNL     1     -12.515 -25.767   3.425  1.00  0.00     0.293 HD
ENDBRANCH  43  46
ENDBRANCH  28  38
BRANCH  34  48
ATOM     48  O   UNL     1     -21.947 -27.651   5.146  1.00  0.00    -0.507 OA
ATOM     49  H   UNL     1     -21.938 -27.008   4.329  1.00  0.00     0.293 HD
ENDBRANCH  34  48
BRANCH  37  50
ATOM     50  O   UNL     1     -21.608 -28.202   9.924  1.00  0.00    -0.508 OA
ATOM     51  H   UNL     1     -22.589 -28.134  10.165  1.00  0.00     0.293 HD
ENDBRANCH  37  50
ENDBRANCH  26  27
ENDBRANCH   5  26
BRANCH   4  52
ATOM     52  O   UNL     1     -18.548 -20.455   4.640  1.00  0.00    -0.384 OA
ATOM     53  H   UNL     1     -17.802 -19.995   5.096  1.00  0.00     0.211 HD
ENDBRANCH   4  52
TORSDOF 16
ENDMDL
MODEL 4
REMARK VINA RESULT:    -6.812      2.927      7.912
REMARK INTER + INTRA:         -13.132
REMARK INTER:                 -11.315
REMARK INTRA:                  -1.816
REMARK UNBOUND:                -1.939
REMARK SMILES C[C@@H]1O[C@H](OC[C@H]2O[C@H](Oc3c(-c4ccc(O)c(O)c4)oc4cc(O)cc(O)c4c3=O)[C@@H](O)[C@@H](O)[C@@H]2O)[C@H](O)[C@H](O)[C@@H]1O
REMARK SMILES IDX 7 1 36 2 34 3 32 4 9 5 8 6 6 7 5 8 4 9 1 10 2 11 42 12 3 13
REMARK SMILES IDX 40 14 38 15 43 16 41 18 39 20 37 22 35 24 10 26 11 27 12 28
REMARK SMILES IDX 30 29 21 30 29 31 31 32 22 33 27 34 23 35 26 36 24 37 13 38
REMARK SMILES IDX 20 39 14 40 18 41 15 42 16 43 19 44 17 46 28 48 25 50 33 52
REMARK H PARENT 43 17 41 19 39 21 37 23 35 25 19 45 17 47 28 49 25 51 33 53
REMARK Flexibility Score: inf
ROOT
ATOM      1  C   UNL     1     -14.303 -27.799   5.515  1.00  0.00     0.180 C 
ATOM      2  C   UNL     1     -13.358 -26.891   6.406  1.00  0.00     0.177 C 
ATOM      3  C   UNL     1     -12.826 -25.753   5.503  1.00  0.00     0.180 C 
ATOM      4  C   UNL     1     -13.982 -25.006   4.812  1.00  0.00     0.214 C 
ATOM      5  C   UNL     1     -15.340 -25.732   5.018  1.00  0.00     0.339 C 
ATOM      6  O   UNL     1     -15.118 -27.062   4.546  1.00  0.00    -0.332 OA
ENDROOT
BRANCH   1   7
ATOM      7  C   UNL     1     -15.298 -28.542   6.526  1.00  0.00     0.198 C 
BRANCH   7   8
ATOM      8  O   UNL     1     -15.388 -29.943   6.245  1.00  0.00    -0.347 OA
BRANCH   8   9
ATOM      9  C   UNL     1     -16.130 -30.152   5.023  1.00  0.00     0.281 C 
ATOM     10  C   UNL     1     -17.348 -32.774   6.245  1.00  0.00     0.041 C 
ATOM     11  C   UNL     1     -17.080 -32.349   4.769  1.00  0.00     0.150 C 
ATOM     12  C   UNL     1     -18.304 -31.901   3.982  1.00  0.00     0.174 C 
ATOM     13  O   UNL     1     -15.945 -31.497   4.605  1.00  0.00    -0.344 OA
ATOM     14  C   UNL     1     -18.672 -30.375   4.232  1.00  0.00     0.179 C 
ATOM     15  C   UNL     1     -17.625 -29.668   5.192  1.00  0.00     0.202 C 
BRANCH  12  16
ATOM     16  O   UNL     1     -19.375 -32.838   4.174  1.00  0.00    -0.388 OA
ATOM     17  H   UNL     1     -19.825 -32.589   5.034  1.00  0.00     0.211 HD
ENDBRANCH  12  16
BRANCH  14  18
ATOM     18  O   UNL     1     -20.004 -30.120   4.613  1.00  0.00    -0.387 OA
ATOM     19  H   UNL     1     -20.492 -29.721   3.844  1.00  0.00     0.211 HD
ENDBRANCH  14  18
BRANCH  15  20
ATOM     20  O   UNL     1     -18.061 -29.811   6.538  1.00  0.00    -0.385 OA
ATOM     21  H   UNL     1     -17.480 -30.516   6.913  1.00  0.00     0.211 HD
ENDBRANCH  15  20
ENDBRANCH   8   9
ENDBRANCH   7   8
ENDBRANCH   1   7
BRANCH   2  22
ATOM     22  O   UNL     1     -12.286 -27.685   6.932  1.00  0.00    -0.387 OA
ATOM     23  H   UNL     1     -12.205 -28.532   6.433  1.00  0.00     0.211 HD
ENDBRANCH   2  22
BRANCH   3  24
ATOM     24  O   UNL     1     -12.045 -24.840   6.286  1.00  0.00    -0.387 OA
ATOM     25  H   UNL     1     -12.232 -23.962   5.919  1.00  0.00     0.211 HD
ENDBRANCH   3  24
BRANCH   5  26
ATOM     26  O   UNL     1     -16.369 -24.981   4.323  1.00  0.00    -0.454 OA
BRANCH  26  27
ATOM     27  C   UNL     1     -17.641 -24.768   4.939  1.00  0.00     0.214 A 
ATOM     28  C   UNL     1     -18.256 -23.529   4.948  1.00  0.00     0.180 A 
ATOM     29  C   UNL     1     -18.476 -25.847   5.398  1.00  0.00     0.239 A 
ATOM     30  O   UNL     1     -19.521 -23.503   4.565  1.00  0.00    -0.452 OA
ATOM     31  C   UNL     1     -19.877 -25.723   5.238  1.00  0.00     0.111 A 
ATOM     32  O   UNL     1     -17.985 -26.834   5.992  1.00  0.00    -0.285 OA
ATOM     33  C   UNL     1     -20.329 -24.548   4.636  1.00  0.00     0.146 A 
ATOM     34  C   UNL     1     -20.762 -26.698   5.680  1.00  0.00     0.134 A 
ATOM     35  C   UNL     1     -21.685 -24.450   4.274  1.00  0.00     0.094 A 
ATOM     36  C   UNL     1     -22.114 -26.612   5.301  1.00  0.00     0.093 A 
ATOM     37  C   UNL     1     -22.555 -25.512   4.568  1.00  0.00     0.123 A 
BRANCH  28  38
ATOM     38  C   UNL     1     -17.796 -22.434   5.869  1.00  0.00     0.025 A 
ATOM     39  C   UNL     1     -16.510 -21.840   5.886  1.00  0.00     0.062 A 
ATOM     40  C   UNL     1     -18.757 -21.874   6.730  1.00  0.00     0.016 A 
ATOM     41  C   UNL     1     -16.269 -20.588   6.585  1.00  0.00     0.158 A 
ATOM     42  C   UNL     1     -18.555 -20.730   7.490  1.00  0.00     0.051 A 
ATOM     43  C   UNL     1     -17.303 -20.078   7.409  1.00  0.00     0.157 A 
BRANCH  41  44
ATOM     44  O   UNL     1     -15.016 -19.923   6.457  1.00  0.00    -0.504 OA
ATOM     45  H   UNL     1     -14.754 -19.463   5.602  1.00  0.00     0.293 HD
ENDBRANCH  41  44
BRANCH  43  46
ATOM     46  O   UNL     1     -17.062 -18.944   8.169  1.00  0.00    -0.504 OA
ATOM     47  H   UNL     1     -17.793 -18.432   8.638  1.00  0.00     0.293 HD
ENDBRANCH  43  46
ENDBRANCH  28  38
BRANCH  34  48
ATOM     48  O   UNL     1     -20.332 -27.734   6.512  1.00  0.00    -0.507 OA
ATOM     49  H   UNL     1     -19.407 -27.700   6.985  1.00  0.00     0.293 HD
ENDBRANCH  34  48
BRANCH  37  50
ATOM     50  O   UNL     1     -23.877 -25.493   4.132  1.00  0.00    -0.508 OA
ATOM     51  H   UNL     1     -24.168 -24.842   3.414  1.00  0.00     0.293 HD
ENDBRANCH  37  50
ENDBRANCH  26  27
ENDBRANCH   5  26
BRANCH   4  52
ATOM     52  O   UNL     1     -14.025 -23.653   5.182  1.00  0.00    -0.384 OA
ATOM     53  H   UNL     1     -13.409 -23.184   4.568  1.00  0.00     0.211 HD
ENDBRANCH   4  52
TORSDOF 16
ENDMDL
MODEL 5
REMARK VINA RESULT:    -6.805      4.237      9.547
REMARK INTER + INTRA:         -13.120
REMARK INTER:                 -11.167
REMARK INTRA:                  -1.953
REMARK UNBOUND:                -1.939
REMARK SMILES C[C@@H]1O[C@H](OC[C@H]2O[C@H](Oc3c(-c4ccc(O)c(O)c4)oc4cc(O)cc(O)c4c3=O)[C@@H](O)[C@@H](O)[C@@H]2O)[C@H](O)[C@H](O)[C@@H]1O
REMARK SMILES IDX 7 1 36 2 34 3 32 4 9 5 8 6 6 7 5 8 4 9 1 10 2 11 42 12 3 13
REMARK SMILES IDX 40 14 38 15 43 16 41 18 39 20 37 22 35 24 10 26 11 27 12 28
REMARK SMILES IDX 30 29 21 30 29 31 31 32 22 33 27 34 23 35 26 36 24 37 13 38
REMARK SMILES IDX 20 39 14 40 18 41 15 42 16 43 19 44 17 46 28 48 25 50 33 52
REMARK H PARENT 43 17 41 19 39 21 37 23 35 25 19 45 17 47 28 49 25 51 33 53
REMARK Flexibility Score: inf
ROOT
ATOM      1  C   UNL     1     -18.704 -28.265   6.688  1.00  0.00     0.180 C 
ATOM      2  C   UNL     1     -19.115 -27.780   5.236  1.00  0.00     0.177 C 
ATOM      3  C   UNL     1     -20.656 -27.884   5.137  1.00  0.00     0.180 C 
ATOM      4  C   UNL     1     -21.340 -27.129   6.292  1.00  0.00     0.214 C 
ATOM      5  C   UNL     1     -20.315 -26.670   7.365  1.00  0.00     0.339 C 
ATOM      6  O   UNL     1     -19.630 -27.865   7.749  1.00  0.00    -0.332 OA
ENDROOT
BRANCH   1   7
ATOM      7  C   UNL     1     -17.284 -27.593   7.002  1.00  0.00     0.198 C 
BRANCH   7   8
ATOM      8  O   UNL     1     -16.908 -26.653   5.989  1.00  0.00    -0.347 OA
BRANCH   8   9
ATOM      9  C   UNL     1     -16.919 -25.315   6.533  1.00  0.00     0.281 C 
ATOM     10  C   UNL     1     -14.792 -24.457   4.392  1.00  0.00     0.041 C 
ATOM     11  C   UNL     1     -15.104 -23.906   5.817  1.00  0.00     0.150 C 
ATOM     12  C   UNL     1     -15.889 -22.603   5.859  1.00  0.00     0.174 C 
ATOM     13  O   UNL     1     -15.577 -24.895   6.732  1.00  0.00    -0.344 OA
ATOM     14  C   UNL     1     -17.457 -22.825   5.729  1.00  0.00     0.179 C 
ATOM     15  C   UNL     1     -17.829 -24.366   5.656  1.00  0.00     0.202 C 
BRANCH  12  16
ATOM     16  O   UNL     1     -15.317 -21.660   4.941  1.00  0.00    -0.388 OA
ATOM     17  H   UNL     1     -16.056 -21.046   4.659  1.00  0.00     0.211 HD
ENDBRANCH  12  16
BRANCH  14  18
ATOM     18  O   UNL     1     -18.102 -22.072   4.727  1.00  0.00    -0.387 OA
ATOM     19  H   UNL     1     -18.638 -21.352   5.156  1.00  0.00     0.211 HD
ENDBRANCH  14  18
BRANCH  15  20
ATOM     20  O   UNL     1     -17.834 -24.777   4.295  1.00  0.00    -0.385 OA
ATOM     21  H   UNL     1     -18.740 -24.552   3.972  1.00  0.00     0.211 HD
ENDBRANCH  15  20
ENDBRANCH   8   9
ENDBRANCH   7   8
ENDBRANCH   1   7
BRANCH   2  22
ATOM     22  O   UNL     1     -18.471 -28.604   4.255  1.00  0.00    -0.387 OA
ATOM     23  H   UNL     1     -18.555 -29.557   4.493  1.00  0.00     0.211 HD
ENDBRANCH   2  22
BRANCH   3  24
ATOM     24  O   UNL     1     -21.094 -27.360   3.875  1.00  0.00    -0.387 OA
ATOM     25  H   UNL     1     -21.992 -27.706   3.751  1.00  0.00     0.211 HD
ENDBRANCH   3  24
BRANCH   5  26
ATOM     26  O   UNL     1     -21.037 -25.990   8.424  1.00  0.00    -0.454 OA
BRANCH  26  27
ATOM     27  C   UNL     1     -21.866 -26.734   9.319  1.00  0.00     0.214 A 
ATOM     28  C   UNL     1     -22.976 -27.435   8.884  1.00  0.00     0.180 A 
ATOM     29  C   UNL     1     -21.498 -26.998  10.686  1.00  0.00     0.239 A 
ATOM     30  O   UNL     1     -23.071 -28.689   9.292  1.00  0.00    -0.452 OA
ATOM     31  C   UNL     1     -21.833 -28.257  11.239  1.00  0.00     0.111 A 
ATOM     32  O   UNL     1     -20.966 -26.110  11.393  1.00  0.00    -0.285 OA
ATOM     33  C   UNL     1     -22.496 -29.147  10.392  1.00  0.00     0.146 A 
ATOM     34  C   UNL     1     -21.548 -28.587  12.557  1.00  0.00     0.134 A 
ATOM     35  C   UNL     1     -22.682 -30.475  10.816  1.00  0.00     0.094 A 
ATOM     36  C   UNL     1     -21.713 -29.919  12.976  1.00  0.00     0.093 A 
ATOM     37  C   UNL     1     -22.239 -30.859  12.092  1.00  0.00     0.123 A 
BRANCH  28  38
ATOM     38  C   UNL     1     -24.254 -26.731   8.527  1.00  0.00     0.025 A 
ATOM     39  C   UNL     1     -24.741 -25.534   9.108  1.00  0.00     0.062 A 
ATOM     40  C   UNL     1     -24.993 -27.250   7.447  1.00  0.00     0.016 A 
ATOM     41  C   UNL     1     -25.808 -24.772   8.479  1.00  0.00     0.158 A 
ATOM     42  C   UNL     1     -26.076 -26.609   6.861  1.00  0.00     0.051 A 
ATOM     43  C   UNL     1     -26.480 -25.356   7.376  1.00  0.00     0.157 A 
BRANCH  41  44
ATOM     44  O   UNL     1     -26.172 -23.491   8.985  1.00  0.00    -0.504 OA
ATOM     45  H   UNL     1     -25.818 -22.646   8.571  1.00  0.00     0.293 HD
ENDBRANCH  41  44
BRANCH  43  46
ATOM     46  O   UNL     1     -27.569 -24.700   6.825  1.00  0.00    -0.504 OA
ATOM     47  H   UNL     1     -28.311 -24.303   7.381  1.00  0.00     0.293 HD
ENDBRANCH  43  46
ENDBRANCH  28  38
BRANCH  34  48
ATOM     48  O   UNL     1     -21.133 -27.613  13.468  1.00  0.00    -0.507 OA
ATOM     49  H   UNL     1     -20.994 -27.837  14.474  1.00  0.00     0.293 HD
ENDBRANCH  34  48
BRANCH  37  50
ATOM     50  O   UNL     1     -22.313 -32.187  12.502  1.00  0.00    -0.508 OA
ATOM     51  H   UNL     1     -22.451 -32.414  13.478  1.00  0.00     0.293 HD
ENDBRANCH  37  50
ENDBRANCH  26  27
ENDBRANCH   5  26
BRANCH   4  52
ATOM     52  O   UNL     1     -22.148 -26.081   5.826  1.00  0.00    -0.384 OA
ATOM     53  H   UNL     1     -23.027 -26.201   6.261  1.00  0.00     0.211 HD
ENDBRANCH   4  52
TORSDOF 16
ENDMDL
MODEL 6
REMARK VINA RESULT:    -6.802      2.914      8.795
REMARK INTER + INTRA:         -13.116
REMARK INTER:                 -10.389
REMARK INTRA:                  -2.727
REMARK UNBOUND:                -1.939
REMARK SMILES C[C@@H]1O[C@H](OC[C@H]2O[C@H](Oc3c(-c4ccc(O)c(O)c4)oc4cc(O)cc(O)c4c3=O)[C@@H](O)[C@@H](O)[C@@H]2O)[C@H](O)[C@H](O)[C@@H]1O
REMARK SMILES IDX 7 1 36 2 34 3 32 4 9 5 8 6 6 7 5 8 4 9 1 10 2 11 42 12 3 13
REMARK SMILES IDX 40 14 38 15 43 16 41 18 39 20 37 22 35 24 10 26 11 27 12 28
REMARK SMILES IDX 30 29 21 30 29 31 31 32 22 33 27 34 23 35 26 36 24 37 13 38
REMARK SMILES IDX 20 39 14 40 18 41 15 42 16 43 19 44 17 46 28 48 25 50 33 52
REMARK H PARENT 43 17 41 19 39 21 37 23 35 25 19 45 17 47 28 49 25 51 33 53
REMARK Flexibility Score: inf
ROOT
ATOM      1  C   UNL     1     -17.078 -24.342   4.701  1.00  0.00     0.180 C 
ATOM      2  C   UNL     1     -16.160 -23.173   5.250  1.00  0.00     0.177 C 
ATOM      3  C   UNL     1     -17.079 -21.961   5.533  1.00  0.00     0.180 C 
ATOM      4  C   UNL     1     -18.250 -22.354   6.452  1.00  0.00     0.214 C 
ATOM      5  C   UNL     1     -18.329 -23.891   6.657  1.00  0.00     0.339 C 
ATOM      6  O   UNL     1     -18.394 -24.433   5.336  1.00  0.00    -0.332 OA
ENDROOT
BRANCH   1   7
ATOM      7  C   UNL     1     -16.296 -25.708   5.002  1.00  0.00     0.198 C 
BRANCH   7   8
ATOM      8  O   UNL     1     -14.883 -25.558   4.828  1.00  0.00    -0.347 OA
BRANCH   8   9
ATOM      9  C   UNL     1     -14.189 -26.074   5.984  1.00  0.00     0.281 C 
ATOM     10  C   UNL     1     -13.044 -28.404   4.222  1.00  0.00     0.041 C 
ATOM     11  C   UNL     1     -13.339 -28.314   5.750  1.00  0.00     0.150 C 
ATOM     12  C   UNL     1     -12.123 -28.115   6.644  1.00  0.00     0.174 C 
ATOM     13  O   UNL     1     -14.442 -27.468   6.081  1.00  0.00    -0.344 OA
ATOM     14  C   UNL     1     -11.684 -26.592   6.757  1.00  0.00     0.179 C 
ATOM     15  C   UNL     1     -12.671 -25.636   5.962  1.00  0.00     0.202 C 
BRANCH  12  16
ATOM     16  O   UNL     1     -11.086 -29.034   6.265  1.00  0.00    -0.388 OA
ATOM     17  H   UNL     1     -10.262 -28.761   6.764  1.00  0.00     0.211 HD
ENDBRANCH  12  16
BRANCH  14  18
ATOM     18  O   UNL     1     -10.332 -26.320   6.471  1.00  0.00    -0.387 OA
ATOM     19  H   UNL     1     -10.139 -26.579   5.530  1.00  0.00     0.211 HD
ENDBRANCH  14  18
BRANCH  15  20
ATOM     20  O   UNL     1     -12.199 -25.490   4.628  1.00  0.00    -0.385 OA
ATOM     21  H   UNL     1     -12.188 -24.515   4.475  1.00  0.00     0.211 HD
ENDBRANCH  15  20
ENDBRANCH   8   9
ENDBRANCH   7   8
ENDBRANCH   1   7
BRANCH   2  22
ATOM     22  O   UNL     1     -15.157 -22.853   4.276  1.00  0.00    -0.387 OA
ATOM     23  H   UNL     1     -14.285 -22.706   4.712  1.00  0.00     0.211 HD
ENDBRANCH   2  22
BRANCH   3  24
ATOM     24  O   UNL     1     -16.314 -20.904   6.129  1.00  0.00    -0.387 OA
ATOM     25  H   UNL     1     -16.071 -20.317   5.396  1.00  0.00     0.211 HD
ENDBRANCH   3  24
BRANCH   5  26
ATOM     26  O   UNL     1     -19.465 -24.180   7.513  1.00  0.00    -0.454 OA
BRANCH  26  27
ATOM     27  C   UNL     1     -20.421 -25.168   7.125  1.00  0.00     0.214 A 
ATOM     28  C   UNL     1     -20.248 -26.512   7.406  1.00  0.00     0.180 A 
ATOM     29  C   UNL     1     -21.726 -24.833   6.618  1.00  0.00     0.239 A 
ATOM     30  O   UNL     1     -21.276 -27.129   7.962  1.00  0.00    -0.452 OA
ATOM     31  C   UNL     1     -22.820 -25.651   6.991  1.00  0.00     0.111 A 
ATOM     32  O   UNL     1     -21.880 -23.891   5.807  1.00  0.00    -0.285 OA
ATOM     33  C   UNL     1     -22.529 -26.724   7.835  1.00  0.00     0.146 A 
ATOM     34  C   UNL     1     -24.107 -25.425   6.524  1.00  0.00     0.134 A 
ATOM     35  C   UNL     1     -23.593 -27.454   8.394  1.00  0.00     0.094 A 
ATOM     36  C   UNL     1     -25.175 -26.139   7.098  1.00  0.00     0.093 A 
ATOM     37  C   UNL     1     -24.914 -27.116   8.056  1.00  0.00     0.123 A 
BRANCH  28  38
ATOM     38  C   UNL     1     -19.283 -27.356   6.621  1.00  0.00     0.025 A 
ATOM     39  C   UNL     1     -18.118 -27.983   7.126  1.00  0.00     0.062 A 
ATOM     40  C   UNL     1     -19.616 -27.635   5.283  1.00  0.00     0.016 A 
ATOM     41  C   UNL     1     -17.439 -29.026   6.374  1.00  0.00     0.158 A 
ATOM     42  C   UNL     1     -18.950 -28.556   4.487  1.00  0.00     0.051 A 
ATOM     43  C   UNL     1     -17.858 -29.263   5.041  1.00  0.00     0.157 A 
BRANCH  41  44
ATOM     44  O   UNL     1     -16.369 -29.758   6.964  1.00  0.00    -0.504 OA
ATOM     45  H   UNL     1     -15.697 -29.310   7.562  1.00  0.00     0.293 HD
ENDBRANCH  41  44
BRANCH  43  46
ATOM     46  O   UNL     1     -17.160 -30.176   4.266  1.00  0.00    -0.504 OA
ATOM     47  H   UNL     1     -16.169 -30.335   4.363  1.00  0.00     0.293 HD
ENDBRANCH  43  46
ENDBRANCH  28  38
BRANCH  34  48
ATOM     48  O   UNL     1     -24.346 -24.527   5.482  1.00  0.00    -0.507 OA
ATOM     49  H   UNL     1     -24.318 -24.832   4.488  1.00  0.00     0.293 HD
ENDBRANCH  34  48
BRANCH  37  50
ATOM     50  O   UNL     1     -25.991 -27.748   8.671  1.00  0.00    -0.508 OA
ATOM     51  H   UNL     1     -26.190 -27.581   9.648  1.00  0.00     0.293 HD
ENDBRANCH  37  50
ENDBRANCH  26  27
ENDBRANCH   5  26
BRANCH   4  52
ATOM     52  O   UNL     1     -18.226 -21.643   7.661  1.00  0.00    -0.384 OA
ATOM     53  H   UNL     1     -19.097 -21.816   8.095  1.00  0.00     0.211 HD
ENDBRANCH   4  52
TORSDOF 16
ENDMDL
MODEL 7
REMARK VINA RESULT:    -6.792      3.229      8.255
REMARK INTER + INTRA:         -13.099
REMARK INTER:                 -10.738
REMARK INTRA:                  -2.361
REMARK UNBOUND:                -1.939
REMARK SMILES C[C@@H]1O[C@H](OC[C@H]2O[C@H](Oc3c(-c4ccc(O)c(O)c4)oc4cc(O)cc(O)c4c3=O)[C@@H](O)[C@@H](O)[C@@H]2O)[C@H](O)[C@H](O)[C@@H]1O
REMARK SMILES IDX 7 1 36 2 34 3 32 4 9 5 8 6 6 7 5 8 4 9 1 10 2 11 42 12 3 13
REMARK SMILES IDX 40 14 38 15 43 16 41 18 39 20 37 22 35 24 10 26 11 27 12 28
REMARK SMILES IDX 30 29 21 30 29 31 31 32 22 33 27 34 23 35 26 36 24 37 13 38
REMARK SMILES IDX 20 39 14 40 18 41 15 42 16 43 19 44 17 46 28 48 25 50 33 52
REMARK H PARENT 43 17 41 19 39 21 37 23 35 25 19 45 17 47 28 49 25 51 33 53
REMARK Flexibility Score: inf
ROOT
ATOM      1  C   UNL     1     -18.018 -22.445   5.536  1.00  0.00     0.180 C 
ATOM      2  C   UNL     1     -18.775 -22.079   6.879  1.00  0.00     0.177 C 
ATOM      3  C   UNL     1     -20.268 -21.882   6.526  1.00  0.00     0.180 C 
ATOM      4  C   UNL     1     -20.828 -23.106   5.777  1.00  0.00     0.214 C 
ATOM      5  C   UNL     1     -19.703 -24.097   5.373  1.00  0.00     0.339 C 
ATOM      6  O   UNL     1     -18.773 -23.309   4.626  1.00  0.00    -0.332 OA
ENDROOT
BRANCH   1   7
ATOM      7  C   UNL     1     -16.691 -23.232   5.967  1.00  0.00     0.198 C 
BRANCH   7   8
ATOM      8  O   UNL     1     -16.375 -24.281   5.044  1.00  0.00    -0.347 OA
BRANCH   8   9
ATOM      9  C   UNL     1     -14.946 -24.338   4.838  1.00  0.00     0.281 C 
ATOM     10  C   UNL     1     -14.652 -25.952   7.513  1.00  0.00     0.041 C 
ATOM     11  C   UNL     1     -13.662 -25.013   6.759  1.00  0.00     0.150 C 
ATOM     12  C   UNL     1     -12.561 -25.712   5.975  1.00  0.00     0.174 C 
ATOM     13  O   UNL     1     -14.298 -23.953   6.042  1.00  0.00    -0.344 OA
ATOM     14  C   UNL     1     -13.034 -26.179   4.532  1.00  0.00     0.179 C 
ATOM     15  C   UNL     1     -14.528 -25.736   4.231  1.00  0.00     0.202 C 
BRANCH  12  16
ATOM     16  O   UNL     1     -11.955 -26.728   6.789  1.00  0.00    -0.388 OA
ATOM     17  H   UNL     1     -12.336 -26.626   7.710  1.00  0.00     0.211 HD
ENDBRANCH  12  16
BRANCH  14  18
ATOM     18  O   UNL     1     -12.806 -27.534   4.220  1.00  0.00    -0.387 OA
ATOM     19  H   UNL     1     -12.121 -27.900   4.842  1.00  0.00     0.211 HD
ENDBRANCH  14  18
BRANCH  15  20
ATOM     20  O   UNL     1     -15.411 -26.765   4.661  1.00  0.00    -0.385 OA
ATOM     21  H   UNL     1     -15.372 -27.441   3.942  1.00  0.00     0.211 HD
ENDBRANCH  15  20
ENDBRANCH   8   9
ENDBRANCH   7   8
ENDBRANCH   1   7
BRANCH   2  22
ATOM     22  O   UNL     1     -18.209 -20.887   7.440  1.00  0.00    -0.387 OA
ATOM     23  H   UNL     1     -18.223 -20.153   6.781  1.00  0.00     0.211 HD
ENDBRANCH   2  22
BRANCH   3  24
ATOM     24  O   UNL     1     -21.021 -21.649   7.725  1.00  0.00    -0.387 OA
ATOM     25  H   UNL     1     -21.656 -22.381   7.776  1.00  0.00     0.211 HD
ENDBRANCH   3  24
BRANCH   5  26
ATOM     26  O   UNL     1     -20.306 -25.206   4.657  1.00  0.00    -0.454 OA
BRANCH  26  27
ATOM     27  C   UNL     1     -20.273 -26.521   5.214  1.00  0.00     0.214 A 
ATOM     28  C   UNL     1     -21.380 -27.351   5.208  1.00  0.00     0.180 A 
ATOM     29  C   UNL     1     -19.052 -27.167   5.618  1.00  0.00     0.239 A 
ATOM     30  O   UNL     1     -21.186 -28.581   4.764  1.00  0.00    -0.452 OA
ATOM     31  C   UNL     1     -18.923 -28.559   5.392  1.00  0.00     0.111 A 
ATOM     32  O   UNL     1     -18.157 -26.532   6.223  1.00  0.00    -0.285 OA
ATOM     33  C   UNL     1     -20.010 -29.189   4.783  1.00  0.00     0.146 A 
ATOM     34  C   UNL     1     -17.796 -29.271   5.779  1.00  0.00     0.134 A 
ATOM     35  C   UNL     1     -19.869 -30.522   4.358  1.00  0.00     0.094 A 
ATOM     36  C   UNL     1     -17.644 -30.598   5.336  1.00  0.00     0.093 A 
ATOM     37  C   UNL     1     -18.662 -31.197   4.597  1.00  0.00     0.123 A 
BRANCH  28  38
ATOM     38  C   UNL     1     -22.521 -27.139   6.163  1.00  0.00     0.025 A 
ATOM     39  C   UNL     1     -23.862 -26.844   5.813  1.00  0.00     0.062 A 
ATOM     40  C   UNL     1     -22.260 -27.349   7.530  1.00  0.00     0.016 A 
ATOM     41  C   UNL     1     -24.938 -26.976   6.783  1.00  0.00     0.158 A 
ATOM     42  C   UNL     1     -23.238 -27.397   8.514  1.00  0.00     0.051 A 
ATOM     43  C   UNL     1     -24.588 -27.218   8.135  1.00  0.00     0.157 A 
BRANCH  41  44
ATOM     44  O   UNL     1     -26.295 -26.835   6.374  1.00  0.00    -0.504 OA
ATOM     45  H   UNL     1     -26.874 -27.638   6.200  1.00  0.00     0.293 HD
ENDBRANCH  41  44
BRANCH  43  46
ATOM     46  O   UNL     1     -25.586 -27.241   9.096  1.00  0.00    -0.504 OA
ATOM     47  H   UNL     1     -26.185 -28.038   9.247  1.00  0.00     0.293 HD
ENDBRANCH  43  46
ENDBRANCH  28  38
BRANCH  34  48
ATOM     48  O   UNL     1     -16.838 -28.699   6.618  1.00  0.00    -0.507 OA
ATOM     49  H   UNL     1     -17.027 -28.544   7.629  1.00  0.00     0.293 HD
ENDBRANCH  34  48
BRANCH  37  50
ATOM     50  O   UNL     1     -18.452 -32.480   4.097  1.00  0.00    -0.508 OA
ATOM     51  H   UNL     1     -18.174 -32.613   3.134  1.00  0.00     0.293 HD
ENDBRANCH  37  50
ENDBRANCH  26  27
ENDBRANCH   5  26
BRANCH   4  52
ATOM     52  O   UNL     1     -21.869 -23.722   6.487  1.00  0.00    -0.384 OA
ATOM     53  H   UNL     1     -21.775 -24.692   6.320  1.00  0.00     0.211 HD
ENDBRANCH   4  52
TORSDOF 16
ENDMDL
MODEL 8
REMARK VINA RESULT:    -6.683      2.209      8.936
REMARK INTER + INTRA:         -12.920
REMARK INTER:                 -11.119
REMARK INTRA:                  -1.801
REMARK UNBOUND:                -1.939
REMARK SMILES C[C@@H]1O[C@H](OC[C@H]2O[C@H](Oc3c(-c4ccc(O)c(O)c4)oc4cc(O)cc(O)c4c3=O)[C@@H](O)[C@@H](O)[C@@H]2O)[C@H](O)[C@H](O)[C@@H]1O
REMARK SMILES IDX 7 1 36 2 34 3 32 4 9 5 8 6 6 7 5 8 4 9 1 10 2 11 42 12 3 13
REMARK SMILES IDX 40 14 38 15 43 16 41 18 39 20 37 22 35 24 10 26 11 27 12 28
REMARK SMILES IDX 30 29 21 30 29 31 31 32 22 33 27 34 23 35 26 36 24 37 13 38
REMARK SMILES IDX 20 39 14 40 18 41 15 42 16 43 19 44 17 46 28 48 25 50 33 52
REMARK H PARENT 43 17 41 19 39 21 37 23 35 25 19 45 17 47 28 49 25 51 33 53
REMARK Flexibility Score: inf
ROOT
ATOM      1  C   UNL     1     -14.017 -27.863   6.178  1.00  0.00     0.180 C 
ATOM      2  C   UNL     1     -13.070 -26.751   6.795  1.00  0.00     0.177 C 
ATOM      3  C   UNL     1     -12.649 -25.813   5.640  1.00  0.00     0.180 C 
ATOM      4  C   UNL     1     -13.879 -25.274   4.885  1.00  0.00     0.214 C 
ATOM      5  C   UNL     1     -15.184 -25.989   5.328  1.00  0.00     0.339 C 
ATOM      6  O   UNL     1     -14.921 -27.381   5.132  1.00  0.00    -0.332 OA
ENDROOT
BRANCH   1   7
ATOM      7  C   UNL     1     -14.915 -28.411   7.386  1.00  0.00     0.198 C 
BRANCH   7   8
ATOM      8  O   UNL     1     -14.241 -29.438   8.122  1.00  0.00    -0.347 OA
BRANCH   8   9
ATOM      9  C   UNL     1     -14.376 -29.194   9.539  1.00  0.00     0.281 C 
ATOM     10  C   UNL     1     -13.356 -32.107  10.109  1.00  0.00     0.041 C 
ATOM     11  C   UNL     1     -14.285 -31.159  10.927  1.00  0.00     0.150 C 
ATOM     12  C   UNL     1     -13.636 -30.477  12.124  1.00  0.00     0.174 C 
ATOM     13  O   UNL     1     -15.076 -30.283  10.123  1.00  0.00    -0.344 OA
ATOM     14  C   UNL     1     -12.839 -29.161  11.725  1.00  0.00     0.179 C 
ATOM     15  C   UNL     1     -12.974 -28.839  10.177  1.00  0.00     0.202 C 
BRANCH  12  16
ATOM     16  O   UNL     1     -12.900 -31.441  12.892  1.00  0.00    -0.388 OA
ATOM     17  H   UNL     1     -13.364 -32.320  12.774  1.00  0.00     0.211 HD
ENDBRANCH  12  16
BRANCH  14  18
ATOM     18  O   UNL     1     -11.504 -29.095  12.170  1.00  0.00    -0.387 OA
ATOM     19  H   UNL     1     -10.900 -29.049  11.381  1.00  0.00     0.211 HD
ENDBRANCH  14  18
BRANCH  15  20
ATOM     20  O   UNL     1     -11.915 -29.481   9.477  1.00  0.00    -0.385 OA
ATOM     21  H   UNL     1     -11.137 -29.402  10.078  1.00  0.00     0.211 HD
ENDBRANCH  15  20
ENDBRANCH   8   9
ENDBRANCH   7   8
ENDBRANCH   1   7
BRANCH   2  22
ATOM     22  O   UNL     1     -11.931 -27.374   7.404  1.00  0.00    -0.387 OA
ATOM     23  H   UNL     1     -11.533 -26.781   8.083  1.00  0.00     0.211 HD
ENDBRANCH   2  22
BRANCH   3  24
ATOM     24  O   UNL     1     -11.872 -24.725   6.160  1.00  0.00    -0.387 OA
ATOM     25  H   UNL     1     -12.518 -24.102   6.530  1.00  0.00     0.211 HD
ENDBRANCH   3  24
BRANCH   5  26
ATOM     26  O   UNL     1     -16.288 -25.444   4.560  1.00  0.00    -0.454 OA
BRANCH  26  27
ATOM     27  C   UNL     1     -17.555 -25.223   5.183  1.00  0.00     0.214 A 
ATOM     28  C   UNL     1     -18.208 -24.006   5.112  1.00  0.00     0.180 A 
ATOM     29  C   UNL     1     -18.349 -26.290   5.734  1.00  0.00     0.239 A 
ATOM     30  O   UNL     1     -19.479 -24.045   4.752  1.00  0.00    -0.452 OA
ATOM     31  C   UNL     1     -19.756 -26.220   5.592  1.00  0.00     0.111 A 
ATOM     32  O   UNL     1     -17.817 -27.216   6.389  1.00  0.00    -0.285 OA
ATOM     33  C   UNL     1     -20.253 -25.106   4.914  1.00  0.00     0.146 A 
ATOM     34  C   UNL     1     -20.602 -27.185   6.120  1.00  0.00     0.134 A 
ATOM     35  C   UNL     1     -21.617 -25.075   4.572  1.00  0.00     0.094 A 
ATOM     36  C   UNL     1     -21.962 -27.168   5.761  1.00  0.00     0.093 A 
ATOM     37  C   UNL     1     -22.449 -26.138   4.959  1.00  0.00     0.123 A 
BRANCH  28  38
ATOM     38  C   UNL     1     -17.767 -22.833   5.942  1.00  0.00     0.025 A 
ATOM     39  C   UNL     1     -16.510 -22.183   5.871  1.00  0.00     0.062 A 
ATOM     40  C   UNL     1     -18.721 -22.260   6.802  1.00  0.00     0.016 A 
ATOM     41  C   UNL     1     -16.302 -20.878   6.478  1.00  0.00     0.158 A 
ATOM     42  C   UNL     1     -18.546 -21.061   7.478  1.00  0.00     0.051 A 
ATOM     43  C   UNL     1     -17.329 -20.361   7.307  1.00  0.00     0.157 A 
BRANCH  41  44
ATOM     44  O   UNL     1     -15.087 -20.168   6.258  1.00  0.00    -0.504 OA
ATOM     45  H   UNL     1     -14.528 -19.840   7.027  1.00  0.00     0.293 HD
ENDBRANCH  41  44
BRANCH  43  46
ATOM     46  O   UNL     1     -17.114 -19.169   7.982  1.00  0.00    -0.504 OA
ATOM     47  H   UNL     1     -16.377 -19.046   8.659  1.00  0.00     0.293 HD
ENDBRANCH  43  46
ENDBRANCH  28  38
BRANCH  34  48
ATOM     48  O   UNL     1     -20.127 -28.144   7.017  1.00  0.00    -0.507 OA
ATOM     49  H   UNL     1     -19.130 -28.162   7.313  1.00  0.00     0.293 HD
ENDBRANCH  34  48
BRANCH  37  50
ATOM     50  O   UNL     1     -23.778 -26.190   4.547  1.00  0.00    -0.508 OA
ATOM     51  H   UNL     1     -24.318 -25.339   4.456  1.00  0.00     0.293 HD
ENDBRANCH  37  50
ENDBRANCH  26  27
ENDBRANCH   5  26
BRANCH   4  52
ATOM     52  O   UNL     1     -13.969 -23.876   4.964  1.00  0.00    -0.384 OA
ATOM     53  H   UNL     1     -14.827 -23.685   5.416  1.00  0.00     0.211 HD
ENDBRANCH   4  52
TORSDOF 16
ENDMDL
MODEL 9
REMARK VINA RESULT:    -6.571      3.200     10.120
REMARK INTER + INTRA:         -12.735
REMARK INTER:                 -10.391
REMARK INTRA:                  -2.344
REMARK UNBOUND:                -1.939
REMARK SMILES C[C@@H]1O[C@H](OC[C@H]2O[C@H](Oc3c(-c4ccc(O)c(O)c4)oc4cc(O)cc(O)c4c3=O)[C@@H](O)[C@@H](O)[C@@H]2O)[C@H](O)[C@H](O)[C@@H]1O
REMARK SMILES IDX 7 1 36 2 34 3 32 4 9 5 8 6 6 7 5 8 4 9 1 10 2 11 42 12 3 13
REMARK SMILES IDX 40 14 38 15 43 16 41 18 39 20 37 22 35 24 10 26 11 27 12 28
REMARK SMILES IDX 30 29 21 30 29 31 31 32 22 33 27 34 23 35 26 36 24 37 13 38
REMARK SMILES IDX 20 39 14 40 18 41 15 42 16 43 19 44 17 46 28 48 25 50 33 52
REMARK H PARENT 43 17 41 19 39 21 37 23 35 25 19 45 17 47 28 49 25 51 33 53
REMARK Flexibility Score: inf
ROOT
ATOM      1  C   UNL     1     -18.258 -26.613   5.797  1.00  0.00     0.180 C 
ATOM      2  C   UNL     1     -18.366 -27.920   4.908  1.00  0.00     0.177 C 
ATOM      3  C   UNL     1     -19.599 -28.713   5.403  1.00  0.00     0.180 C 
ATOM      4  C   UNL     1     -20.860 -27.829   5.417  1.00  0.00     0.214 C 
ATOM      5  C   UNL     1     -20.518 -26.336   5.157  1.00  0.00     0.339 C 
ATOM      6  O   UNL     1     -19.544 -26.008   6.150  1.00  0.00    -0.332 OA
ENDROOT
BRANCH   1   7
ATOM      7  C   UNL     1     -17.437 -25.544   4.931  1.00  0.00     0.198 C 
BRANCH   7   8
ATOM      8  O   UNL     1     -16.086 -25.965   4.715  1.00  0.00    -0.347 OA
BRANCH   8   9
ATOM      9  C   UNL     1     -15.375 -25.994   5.972  1.00  0.00     0.281 C 
ATOM     10  C   UNL     1     -12.853 -27.128   4.489  1.00  0.00     0.041 C 
ATOM     11  C   UNL     1     -13.336 -27.274   5.964  1.00  0.00     0.150 C 
ATOM     12  C   UNL     1     -12.604 -26.411   6.982  1.00  0.00     0.174 C 
ATOM     13  O   UNL     1     -14.757 -27.265   6.115  1.00  0.00    -0.344 OA
ATOM     14  C   UNL     1     -13.179 -24.932   7.063  1.00  0.00     0.179 C 
ATOM     15  C   UNL     1     -14.430 -24.734   6.106  1.00  0.00     0.202 C 
BRANCH  12  16
ATOM     16  O   UNL     1     -11.187 -26.516   6.779  1.00  0.00    -0.388 OA
ATOM     17  H   UNL     1     -11.053 -26.845   5.843  1.00  0.00     0.211 HD
ENDBRANCH  12  16
BRANCH  14  18
ATOM     18  O   UNL     1     -12.232 -23.897   6.924  1.00  0.00    -0.387 OA
ATOM     19  H   UNL     1     -12.451 -23.362   6.115  1.00  0.00     0.211 HD
ENDBRANCH  14  18
BRANCH  15  20
ATOM     20  O   UNL     1     -13.973 -24.300   4.831  1.00  0.00    -0.385 OA
ATOM     21  H   UNL     1     -13.944 -23.315   4.901  1.00  0.00     0.211 HD
ENDBRANCH  15  20
ENDBRANCH   8   9
ENDBRANCH   7   8
ENDBRANCH   1   7
BRANCH   2  22
ATOM     22  O   UNL     1     -17.163 -28.689   5.036  1.00  0.00    -0.387 OA
ATOM     23  H   UNL     1     -16.371 -28.118   4.902  1.00  0.00     0.211 HD
ENDBRANCH   2  22
BRANCH   3  24
ATOM     24  O   UNL     1     -19.805 -29.858   4.564  1.00  0.00    -0.387 OA
ATOM     25  H   UNL     1     -19.310 -29.672   3.750  1.00  0.00     0.211 HD
ENDBRANCH   3  24
BRANCH   5  26
ATOM     26  O   UNL     1     -21.750 -25.570   5.207  1.00  0.00    -0.454 OA
BRANCH  26  27
ATOM     27  C   UNL     1     -21.876 -24.474   6.115  1.00  0.00     0.214 A 
ATOM     28  C   UNL     1     -22.208 -24.655   7.446  1.00  0.00     0.180 A 
ATOM     29  C   UNL     1     -21.459 -23.136   5.786  1.00  0.00     0.239 A 
ATOM     30  O   UNL     1     -21.438 -24.040   8.328  1.00  0.00    -0.452 OA
ATOM     31  C   UNL     1     -20.865 -22.351   6.802  1.00  0.00     0.111 A 
ATOM     32  O   UNL     1     -21.685 -22.652   4.652  1.00  0.00    -0.285 OA
ATOM     33  C   UNL     1     -20.731 -22.957   8.052  1.00  0.00     0.146 A 
ATOM     34  C   UNL     1     -20.463 -21.040   6.585  1.00  0.00     0.134 A 
ATOM     35  C   UNL     1     -19.978 -22.303   9.045  1.00  0.00     0.094 A 
ATOM     36  C   UNL     1     -19.691 -20.393   7.568  1.00  0.00     0.093 A 
ATOM     37  C   UNL     1     -19.421 -21.044   8.770  1.00  0.00     0.123 A 
BRANCH  28  38
ATOM     38  C   UNL     1     -23.617 -24.967   7.865  1.00  0.00     0.025 A 
ATOM     39  C   UNL     1     -24.227 -26.246   7.861  1.00  0.00     0.062 A 
ATOM     40  C   UNL     1     -24.374 -23.912   8.407  1.00  0.00     0.016 A 
ATOM     41  C   UNL     1     -25.468 -26.489   8.578  1.00  0.00     0.158 A 
ATOM     42  C   UNL     1     -25.606 -24.072   9.026  1.00  0.00     0.051 A 
ATOM     43  C   UNL     1     -26.152 -25.372   9.119  1.00  0.00     0.157 A 
BRANCH  41  44
ATOM     44  O   UNL     1     -25.981 -27.813   8.700  1.00  0.00    -0.504 OA
ATOM     45  H   UNL     1     -26.424 -28.274   7.924  1.00  0.00     0.293 HD
ENDBRANCH  41  44
BRANCH  43  46
ATOM     46  O   UNL     1     -27.390 -25.562   9.715  1.00  0.00    -0.504 OA
ATOM     47  H   UNL     1     -28.147 -26.052   9.264  1.00  0.00     0.293 HD
ENDBRANCH  43  46
ENDBRANCH  28  38
BRANCH  34  48
ATOM     48  O   UNL     1     -20.838 -20.355   5.427  1.00  0.00    -0.507 OA
ATOM     49  H   UNL     1     -21.700 -19.774   5.398  1.00  0.00     0.293 HD
ENDBRANCH  34  48
BRANCH  37  50
ATOM     50  O   UNL     1     -18.585 -20.418   9.690  1.00  0.00    -0.508 OA
ATOM     51  H   UNL     1     -18.940 -20.136  10.594  1.00  0.00     0.293 HD
ENDBRANCH  37  50
ENDBRANCH  26  27
ENDBRANCH   5  26
BRANCH   4  52
ATOM     52  O   UNL     1     -21.851 -28.319   4.553  1.00  0.00    -0.384 OA
ATOM     53  H   UNL     1     -21.459 -29.113   4.114  1.00  0.00     0.211 HD
ENDBRANCH   4  52
TORSDOF 16
ENDMDL
