MODEL 1
REMARK VINA RESULT:    -5.936      0.000      0.000
REMARK INTER + INTRA:          -7.709
REMARK INTER:                  -7.324
REMARK INTRA:                  -0.385
REMARK UNBOUND:                -0.385
REMARK SMILES Oc1cc(O)c2cc(O)c(-c3cc(O)c(O)c(O)c3)[o+]c2c1
REMARK SMILES IDX 10 1 20 2 21 3 22 4 2 5 3 6 4 7 6 8 7 9 8 10 11 11 12 12
REMARK SMILES IDX 13 13 19 14 15 15 17 16 14 17 16 19 18 21 9 23 1 25 5 27
REMARK H PARENT 14 18 16 20 18 22 9 24 1 26 5 28
REMARK Flexibility Score: inf
ROOT
ATOM      1  C   UNL     1     124.177 132.953 110.939  1.00  0.00     0.402 A 
ATOM      2  O   UNL     1     124.396 134.229 110.631  1.00  0.00    -0.202 OA
ATOM      3  C   UNL     1     125.589 134.808 110.721  1.00  0.00     0.368 A 
ATOM      4  C   UNL     1     125.719 136.155 110.377  1.00  0.00     0.162 A 
ATOM      5  C   UNL     1     126.961 136.791 110.467  1.00  0.00     0.128 A 
ATOM      6  C   UNL     1     128.079 136.074 110.902  1.00  0.00     0.093 A 
ATOM      7  C   UNL     1     127.974 134.722 111.253  1.00  0.00     0.136 A 
ATOM      8  C   UNL     1     126.716 134.072 111.162  1.00  0.00     0.125 A 
ATOM      9  C   UNL     1     126.521 132.718 111.480  1.00  0.00     0.078 A 
ATOM     10  C   UNL     1     125.251 132.146 111.361  1.00  0.00     0.223 A 
ENDROOT
BRANCH   1  11
ATOM     11  C   UNL     1     122.800 132.427 110.807  1.00  0.00     0.091 A 
ATOM     12  C   UNL     1     122.361 131.951 109.563  1.00  0.00     0.068 A 
ATOM     13  C   UNL     1     121.059 131.465 109.403  1.00  0.00     0.162 A 
ATOM     14  C   UNL     1     121.903 132.444 111.887  1.00  0.00     0.068 A 
ATOM     15  C   UNL     1     120.171 131.465 110.491  1.00  0.00     0.200 A 
ATOM     16  C   UNL     1     120.596 131.961 111.736  1.00  0.00     0.162 A 
BRANCH  13  17
ATOM     17  O   UNL     1     120.665 130.986 108.152  1.00  0.00    -0.504 OA
ATOM     18  H   UNL     1     120.052 131.513 107.542  1.00  0.00     0.293 HD
ENDBRANCH  13  17
BRANCH  15  19
ATOM     19  O   UNL     1     118.875 130.976 110.325  1.00  0.00    -0.502 OA
ATOM     20  H   UNL     1     118.569 130.104 110.740  1.00  0.00     0.293 HD
ENDBRANCH  15  19
BRANCH  16  21
ATOM     21  O   UNL     1     119.716 131.978 112.818  1.00  0.00    -0.504 OA
ATOM     22  H   UNL     1     119.669 131.210 113.476  1.00  0.00     0.293 HD
ENDBRANCH  16  21
ENDBRANCH   1  11
BRANCH  10  23
ATOM     23  O   UNL     1     125.067 130.790 111.629  1.00  0.00    -0.500 OA
ATOM     24  H   UNL     1     125.650 130.079 111.203  1.00  0.00     0.294 HD
ENDBRANCH  10  23
BRANCH   5  25
ATOM     25  O   UNL     1     127.098 138.134 110.124  1.00  0.00    -0.507 OA
ATOM     26  H   UNL     1     127.473 138.416 109.226  1.00  0.00     0.293 HD
ENDBRANCH   5  25
BRANCH   7  27
ATOM     27  O   UNL     1     129.139 134.077 111.682  1.00  0.00    -0.507 OA
ATOM     28  H   UNL     1     130.033 134.532 111.796  1.00  0.00     0.293 HD
ENDBRANCH   7  27
TORSDOF 7
ENDMDL
MODEL 2
REMARK VINA RESULT:    -5.525      2.113      6.826
REMARK INTER + INTRA:          -7.201
REMARK INTER:                  -6.885
REMARK INTRA:                  -0.316
REMARK UNBOUND:                -0.385
REMARK SMILES Oc1cc(O)c2cc(O)c(-c3cc(O)c(O)c(O)c3)[o+]c2c1
REMARK SMILES IDX 10 1 20 2 21 3 22 4 2 5 3 6 4 7 6 8 7 9 8 10 11 11 12 12
REMARK SMILES IDX 13 13 19 14 15 15 17 16 14 17 16 19 18 21 9 23 1 25 5 27
REMARK H PARENT 14 18 16 20 18 22 9 24 1 26 5 28
REMARK Flexibility Score: inf
ROOT
ATOM      1  C   UNL     1     123.856 132.366 111.653  1.00  0.00     0.402 A 
ATOM      2  O   UNL     1     123.119 133.075 110.803  1.00  0.00    -0.202 OA
ATOM      3  C   UNL     1     121.792 133.114 110.844  1.00  0.00     0.368 A 
ATOM      4  C   UNL     1     121.104 133.887 109.905  1.00  0.00     0.162 A 
ATOM      5  C   UNL     1     119.707 133.943 109.923  1.00  0.00     0.128 A 
ATOM      6  C   UNL     1     118.995 133.223 110.886  1.00  0.00     0.093 A 
ATOM      7  C   UNL     1     119.661 132.441 111.838  1.00  0.00     0.136 A 
ATOM      8  C   UNL     1     121.079 132.383 111.825  1.00  0.00     0.125 A 
ATOM      9  C   UNL     1     121.829 131.637 112.748  1.00  0.00     0.078 A 
ATOM     10  C   UNL     1     123.225 131.631 112.674  1.00  0.00     0.223 A 
ENDROOT
BRANCH   1  11
ATOM     11  C   UNL     1     125.329 132.395 111.497  1.00  0.00     0.091 A 
ATOM     12  C   UNL     1     126.027 133.580 111.770  1.00  0.00     0.068 A 
ATOM     13  C   UNL     1     127.415 133.643 111.614  1.00  0.00     0.162 A 
ATOM     14  C   UNL     1     126.037 131.277 111.027  1.00  0.00     0.068 A 
ATOM     15  C   UNL     1     128.123 132.516 111.163  1.00  0.00     0.200 A 
ATOM     16  C   UNL     1     127.428 131.331 110.865  1.00  0.00     0.162 A 
BRANCH  13  17
ATOM     17  O   UNL     1     128.075 134.836 111.910  1.00  0.00    -0.504 OA
ATOM     18  H   UNL     1     128.405 135.052 112.843  1.00  0.00     0.293 HD
ENDBRANCH  13  17
BRANCH  15  19
ATOM     19  O   UNL     1     129.508 132.585 111.012  1.00  0.00    -0.502 OA
ATOM     20  H   UNL     1     130.011 131.993 110.363  1.00  0.00     0.293 HD
ENDBRANCH  15  19
BRANCH  16  21
ATOM     21  O   UNL     1     128.122 130.212 110.404  1.00  0.00    -0.504 OA
ATOM     22  H   UNL     1     128.766 129.705 110.998  1.00  0.00     0.293 HD
ENDBRANCH  16  21
ENDBRANCH   1  11
BRANCH  10  23
ATOM     23  O   UNL     1     123.973 130.931 113.621  1.00  0.00    -0.500 OA
ATOM     24  H   UNL     1     124.736 131.367 114.126  1.00  0.00     0.294 HD
ENDBRANCH  10  23
BRANCH   5  25
ATOM     25  O   UNL     1     119.015 134.712 108.990  1.00  0.00    -0.507 OA
ATOM     26  H   UNL     1     119.027 134.484 108.003  1.00  0.00     0.293 HD
ENDBRANCH   5  25
BRANCH   7  27
ATOM     27  O   UNL     1     118.875 131.749 112.765  1.00  0.00    -0.507 OA
ATOM     28  H   UNL     1     118.419 132.176 113.558  1.00  0.00     0.293 HD
ENDBRANCH   7  27
TORSDOF 7
ENDMDL
MODEL 3
REMARK VINA RESULT:    -5.517      3.133      4.579
REMARK INTER + INTRA:          -7.192
REMARK INTER:                  -6.812
REMARK INTRA:                  -0.380
REMARK UNBOUND:                -0.385
REMARK SMILES Oc1cc(O)c2cc(O)c(-c3cc(O)c(O)c(O)c3)[o+]c2c1
REMARK SMILES IDX 10 1 20 2 21 3 22 4 2 5 3 6 4 7 6 8 7 9 8 10 11 11 12 12
REMARK SMILES IDX 13 13 19 14 15 15 17 16 14 17 16 19 18 21 9 23 1 25 5 27
REMARK H PARENT 14 18 16 20 18 22 9 24 1 26 5 28
REMARK Flexibility Score: inf
ROOT
ATOM      1  C   UNL     1     126.942 134.466 111.099  1.00  0.00     0.402 A 
ATOM      2  O   UNL     1     127.854 135.137 111.797  1.00  0.00    -0.202 OA
ATOM      3  C   UNL     1     128.610 136.097 111.277  1.00  0.00     0.368 A 
ATOM      4  C   UNL     1     129.544 136.744 112.090  1.00  0.00     0.162 A 
ATOM      5  C   UNL     1     130.356 137.756 111.567  1.00  0.00     0.128 A 
ATOM      6  C   UNL     1     130.231 138.123 110.225  1.00  0.00     0.093 A 
ATOM      7  C   UNL     1     129.303 137.490 109.389  1.00  0.00     0.136 A 
ATOM      8  C   UNL     1     128.476 136.464 109.915  1.00  0.00     0.125 A 
ATOM      9  C   UNL     1     127.510 135.785 109.155  1.00  0.00     0.078 A 
ATOM     10  C   UNL     1     126.728 134.787 109.745  1.00  0.00     0.223 A 
ENDROOT
BRANCH   1  11
ATOM     11  C   UNL     1     126.168 133.409 111.790  1.00  0.00     0.091 A 
ATOM     12  C   UNL     1     124.965 133.742 112.428  1.00  0.00     0.068 A 
ATOM     13  C   UNL     1     124.223 132.769 113.105  1.00  0.00     0.162 A 
ATOM     14  C   UNL     1     126.642 132.089 111.868  1.00  0.00     0.068 A 
ATOM     15  C   UNL     1     124.689 131.445 113.163  1.00  0.00     0.200 A 
ATOM     16  C   UNL     1     125.906 131.107 112.546  1.00  0.00     0.162 A 
BRANCH  13  17
ATOM     17  O   UNL     1     123.023 133.137 113.715  1.00  0.00    -0.504 OA
ATOM     18  H   UNL     1     122.642 134.072 113.635  1.00  0.00     0.293 HD
ENDBRANCH  13  17
BRANCH  15  19
ATOM     19  O   UNL     1     123.941 130.479 113.838  1.00  0.00    -0.502 OA
ATOM     20  H   UNL     1     124.268 129.527 113.954  1.00  0.00     0.293 HD
ENDBRANCH  15  19
BRANCH  16  21
ATOM     21  O   UNL     1     126.382 129.798 112.611  1.00  0.00    -0.504 OA
ATOM     22  H   UNL     1     125.968 129.113 113.232  1.00  0.00     0.293 HD
ENDBRANCH  16  21
ENDBRANCH   1  11
BRANCH  10  23
ATOM     23  O   UNL     1     125.735 134.147 109.004  1.00  0.00    -0.500 OA
ATOM     24  H   UNL     1     125.929 133.315 108.459  1.00  0.00     0.294 HD
ENDBRANCH  10  23
BRANCH   5  25
ATOM     25  O   UNL     1     131.289 138.405 112.373  1.00  0.00    -0.507 OA
ATOM     26  H   UNL     1     131.857 139.165 112.018  1.00  0.00     0.293 HD
ENDBRANCH   5  25
BRANCH   7  27
ATOM     27  O   UNL     1     129.244 137.913 108.057  1.00  0.00    -0.507 OA
ATOM     28  H   UNL     1     129.220 137.292 107.262  1.00  0.00     0.293 HD
ENDBRANCH   7  27
TORSDOF 7
ENDMDL
MODEL 4
REMARK VINA RESULT:    -5.516      1.994      7.637
REMARK INTER + INTRA:          -7.190
REMARK INTER:                  -6.816
REMARK INTRA:                  -0.374
REMARK UNBOUND:                -0.385
REMARK SMILES Oc1cc(O)c2cc(O)c(-c3cc(O)c(O)c(O)c3)[o+]c2c1
REMARK SMILES IDX 10 1 20 2 21 3 22 4 2 5 3 6 4 7 6 8 7 9 8 10 11 11 12 12
REMARK SMILES IDX 13 13 19 14 15 15 17 16 14 17 16 19 18 21 9 23 1 25 5 27
REMARK H PARENT 14 18 16 20 18 22 9 24 1 26 5 28
REMARK Flexibility Score: inf
ROOT
ATOM      1  C   UNL     1     126.167 134.895 110.332  1.00  0.00     0.402 A 
ATOM      2  O   UNL     1     125.956 134.036 111.326  1.00  0.00    -0.202 OA
ATOM      3  C   UNL     1     124.845 133.318 111.448  1.00  0.00     0.368 A 
ATOM      4  C   UNL     1     124.714 132.444 112.529  1.00  0.00     0.162 A 
ATOM      5  C   UNL     1     123.554 131.678 112.683  1.00  0.00     0.128 A 
ATOM      6  C   UNL     1     122.521 131.787 111.750  1.00  0.00     0.093 A 
ATOM      7  C   UNL     1     122.627 132.657 110.657  1.00  0.00     0.136 A 
ATOM      8  C   UNL     1     123.803 133.434 110.495  1.00  0.00     0.125 A 
ATOM      9  C   UNL     1     124.002 134.320 109.424  1.00  0.00     0.078 A 
ATOM     10  C   UNL     1     125.191 135.050 109.330  1.00  0.00     0.223 A 
ENDROOT
BRANCH   1  11
ATOM     11  C   UNL     1     127.443 135.645 110.313  1.00  0.00     0.091 A 
ATOM     12  C   UNL     1     128.610 135.010 109.865  1.00  0.00     0.068 A 
ATOM     13  C   UNL     1     129.833 135.688 109.853  1.00  0.00     0.162 A 
ATOM     14  C   UNL     1     127.523 136.965 110.788  1.00  0.00     0.068 A 
ATOM     15  C   UNL     1     129.905 137.014 110.309  1.00  0.00     0.200 A 
ATOM     16  C   UNL     1     128.744 137.652 110.782  1.00  0.00     0.162 A 
BRANCH  13  17
ATOM     17  O   UNL     1     130.969 135.025 109.385  1.00  0.00    -0.504 OA
ATOM     18  H   UNL     1     131.392 134.258 109.893  1.00  0.00     0.293 HD
ENDBRANCH  13  17
BRANCH  15  19
ATOM     19  O   UNL     1     131.128 137.685 110.292  1.00  0.00    -0.502 OA
ATOM     20  H   UNL     1     131.705 137.735 109.461  1.00  0.00     0.293 HD
ENDBRANCH  15  19
BRANCH  16  21
ATOM     21  O   UNL     1     128.810 138.964 111.249  1.00  0.00    -0.504 OA
ATOM     22  H   UNL     1     129.300 139.199 112.104  1.00  0.00     0.293 HD
ENDBRANCH  16  21
ENDBRANCH   1  11
BRANCH  10  23
ATOM     23  O   UNL     1     125.410 135.892 108.240  1.00  0.00    -0.500 OA
ATOM     24  H   UNL     1     126.342 136.190 107.976  1.00  0.00     0.294 HD
ENDBRANCH  10  23
BRANCH   5  25
ATOM     25  O   UNL     1     123.418 130.804 113.759  1.00  0.00    -0.507 OA
ATOM     26  H   UNL     1     124.223 130.362 114.187  1.00  0.00     0.293 HD
ENDBRANCH   5  25
BRANCH   7  27
ATOM     27  O   UNL     1     121.547 132.710 109.770  1.00  0.00    -0.507 OA
ATOM     28  H   UNL     1     121.365 132.026 109.051  1.00  0.00     0.293 HD
ENDBRANCH   7  27
TORSDOF 7
ENDMDL
MODEL 5
REMARK VINA RESULT:    -5.500      1.424      7.008
REMARK INTER + INTRA:          -7.170
REMARK INTER:                  -7.095
REMARK INTRA:                  -0.075
REMARK UNBOUND:                -0.385
REMARK SMILES Oc1cc(O)c2cc(O)c(-c3cc(O)c(O)c(O)c3)[o+]c2c1
REMARK SMILES IDX 10 1 20 2 21 3 22 4 2 5 3 6 4 7 6 8 7 9 8 10 11 11 12 12
REMARK SMILES IDX 13 13 19 14 15 15 17 16 14 17 16 19 18 21 9 23 1 25 5 27
REMARK H PARENT 14 18 16 20 18 22 9 24 1 26 5 28
REMARK Flexibility Score: inf
ROOT
ATOM      1  C   UNL     1     123.936 133.667 111.243  1.00  0.00     0.402 A 
ATOM      2  O   UNL     1     123.069 133.835 110.247  1.00  0.00    -0.202 OA
ATOM      3  C   UNL     1     121.845 133.318 110.250  1.00  0.00     0.368 A 
ATOM      4  C   UNL     1     121.008 133.547 109.156  1.00  0.00     0.162 A 
ATOM      5  C   UNL     1     119.716 133.012 109.131  1.00  0.00     0.128 A 
ATOM      6  C   UNL     1     119.260 132.246 110.206  1.00  0.00     0.093 A 
ATOM      7  C   UNL     1     120.080 132.002 111.315  1.00  0.00     0.136 A 
ATOM      8  C   UNL     1     121.391 132.544 111.346  1.00  0.00     0.125 A 
ATOM      9  C   UNL     1     122.277 132.363 112.421  1.00  0.00     0.078 A 
ATOM     10  C   UNL     1     123.553 132.932 112.381  1.00  0.00     0.223 A 
ENDROOT
BRANCH   1  11
ATOM     11  C   UNL     1     125.276 134.285 111.117  1.00  0.00     0.091 A 
ATOM     12  C   UNL     1     125.385 135.611 110.674  1.00  0.00     0.068 A 
ATOM     13  C   UNL     1     126.637 136.214 110.528  1.00  0.00     0.162 A 
ATOM     14  C   UNL     1     126.446 133.553 111.378  1.00  0.00     0.068 A 
ATOM     15  C   UNL     1     127.805 135.486 110.810  1.00  0.00     0.200 A 
ATOM     16  C   UNL     1     127.706 134.149 111.232  1.00  0.00     0.162 A 
BRANCH  13  17
ATOM     17  O   UNL     1     126.703 137.541 110.099  1.00  0.00    -0.504 OA
ATOM     18  H   UNL     1     127.034 138.286 110.699  1.00  0.00     0.293 HD
ENDBRANCH  13  17
BRANCH  15  19
ATOM     19  O   UNL     1     129.051 136.096 110.664  1.00  0.00    -0.502 OA
ATOM     20  H   UNL     1     129.175 137.098 110.741  1.00  0.00     0.293 HD
ENDBRANCH  15  19
BRANCH  16  21
ATOM     21  O   UNL     1     128.861 133.415 111.501  1.00  0.00    -0.504 OA
ATOM     22  H   UNL     1     129.782 133.773 111.278  1.00  0.00     0.293 HD
ENDBRANCH  16  21
ENDBRANCH   1  11
BRANCH  10  23
ATOM     23  O   UNL     1     124.415 132.794 113.469  1.00  0.00    -0.500 OA
ATOM     24  H   UNL     1     125.258 132.236 113.413  1.00  0.00     0.294 HD
ENDBRANCH  10  23
BRANCH   5  25
ATOM     25  O   UNL     1     118.875 133.237 108.043  1.00  0.00    -0.507 OA
ATOM     26  H   UNL     1     118.044 132.678 107.892  1.00  0.00     0.293 HD
ENDBRANCH   5  25
BRANCH   7  27
ATOM     27  O   UNL     1     119.550 131.223 112.348  1.00  0.00    -0.507 OA
ATOM     28  H   UNL     1     118.594 131.272 112.666  1.00  0.00     0.293 HD
ENDBRANCH   7  27
TORSDOF 7
ENDMDL
MODEL 6
REMARK VINA RESULT:    -5.485      2.136      6.711
REMARK INTER + INTRA:          -7.153
REMARK INTER:                  -6.888
REMARK INTRA:                  -0.264
REMARK UNBOUND:                -0.385
REMARK SMILES Oc1cc(O)c2cc(O)c(-c3cc(O)c(O)c(O)c3)[o+]c2c1
REMARK SMILES IDX 10 1 20 2 21 3 22 4 2 5 3 6 4 7 6 8 7 9 8 10 11 11 12 12
REMARK SMILES IDX 13 13 19 14 15 15 17 16 14 17 16 19 18 21 9 23 1 25 5 27
REMARK H PARENT 14 18 16 20 18 22 9 24 1 26 5 28
REMARK Flexibility Score: inf
ROOT
ATOM      1  C   UNL     1     123.851 132.360 111.635  1.00  0.00     0.402 A 
ATOM      2  O   UNL     1     123.110 133.065 110.784  1.00  0.00    -0.202 OA
ATOM      3  C   UNL     1     121.783 133.110 110.835  1.00  0.00     0.368 A 
ATOM      4  C   UNL     1     121.092 133.877 109.894  1.00  0.00     0.162 A 
ATOM      5  C   UNL     1     119.695 133.939 109.923  1.00  0.00     0.128 A 
ATOM      6  C   UNL     1     118.987 133.232 110.898  1.00  0.00     0.093 A 
ATOM      7  C   UNL     1     119.657 132.456 111.852  1.00  0.00     0.136 A 
ATOM      8  C   UNL     1     121.075 132.390 111.828  1.00  0.00     0.125 A 
ATOM      9  C   UNL     1     121.830 131.650 112.752  1.00  0.00     0.078 A 
ATOM     10  C   UNL     1     123.225 131.637 112.667  1.00  0.00     0.223 A 
ENDROOT
BRANCH   1  11
ATOM     11  C   UNL     1     125.322 132.382 111.467  1.00  0.00     0.091 A 
ATOM     12  C   UNL     1     125.990 131.208 111.088  1.00  0.00     0.068 A 
ATOM     13  C   UNL     1     127.380 131.193 110.941  1.00  0.00     0.162 A 
ATOM     14  C   UNL     1     126.072 133.539 111.733  1.00  0.00     0.068 A 
ATOM     15  C   UNL     1     128.125 132.358 111.188  1.00  0.00     0.200 A 
ATOM     16  C   UNL     1     127.466 133.533 111.590  1.00  0.00     0.162 A 
BRANCH  13  17
ATOM     17  O   UNL     1     128.006 130.008 110.548  1.00  0.00    -0.504 OA
ATOM     18  H   UNL     1     127.481 129.201 110.235  1.00  0.00     0.293 HD
ENDBRANCH  13  17
BRANCH  15  19
ATOM     19  O   UNL     1     129.512 132.336 111.035  1.00  0.00    -0.502 OA
ATOM     20  H   UNL     1     130.100 131.680 111.535  1.00  0.00     0.293 HD
ENDBRANCH  15  19
BRANCH  16  21
ATOM     21  O   UNL     1     128.200 134.690 111.850  1.00  0.00    -0.504 OA
ATOM     22  H   UNL     1     129.207 134.667 111.959  1.00  0.00     0.293 HD
ENDBRANCH  16  21
ENDBRANCH   1  11
BRANCH  10  23
ATOM     23  O   UNL     1     123.977 130.943 113.614  1.00  0.00    -0.500 OA
ATOM     24  H   UNL     1     124.804 131.347 114.039  1.00  0.00     0.294 HD
ENDBRANCH  10  23
BRANCH   5  25
ATOM     25  O   UNL     1     118.999 134.703 108.988  1.00  0.00    -0.507 OA
ATOM     26  H   UNL     1     118.137 135.177 109.229  1.00  0.00     0.293 HD
ENDBRANCH   5  25
BRANCH   7  27
ATOM     27  O   UNL     1     118.876 131.775 112.791  1.00  0.00    -0.507 OA
ATOM     28  H   UNL     1     117.884 131.614 112.697  1.00  0.00     0.293 HD
ENDBRANCH   7  27
TORSDOF 7
ENDMDL
MODEL 7
REMARK VINA RESULT:    -5.457      1.178      7.160
REMARK INTER + INTRA:          -7.118
REMARK INTER:                  -6.756
REMARK INTRA:                  -0.362
REMARK UNBOUND:                -0.385
REMARK SMILES Oc1cc(O)c2cc(O)c(-c3cc(O)c(O)c(O)c3)[o+]c2c1
REMARK SMILES IDX 10 1 20 2 21 3 22 4 2 5 3 6 4 7 6 8 7 9 8 10 11 11 12 12
REMARK SMILES IDX 13 13 19 14 15 15 17 16 14 17 16 19 18 21 9 23 1 25 5 27
REMARK H PARENT 14 18 16 20 18 22 9 24 1 26 5 28
REMARK Flexibility Score: inf
ROOT
ATOM      1  C   UNL     1     124.169 133.290 110.213  1.00  0.00     0.402 A 
ATOM      2  O   UNL     1     123.237 133.256 111.162  1.00  0.00    -0.202 OA
ATOM      3  C   UNL     1     122.066 132.646 111.012  1.00  0.00     0.368 A 
ATOM      4  C   UNL     1     121.149 132.667 112.065  1.00  0.00     0.162 A 
ATOM      5  C   UNL     1     119.907 132.036 111.934  1.00  0.00     0.128 A 
ATOM      6  C   UNL     1     119.584 131.380 110.744  1.00  0.00     0.093 A 
ATOM      7  C   UNL     1     120.486 131.345 109.673  1.00  0.00     0.136 A 
ATOM      8  C   UNL     1     121.747 131.982 109.802  1.00  0.00     0.125 A 
ATOM      9  C   UNL     1     122.718 131.986 108.788  1.00  0.00     0.078 A 
ATOM     10  C   UNL     1     123.941 132.633 108.990  1.00  0.00     0.223 A 
ENDROOT
BRANCH   1  11
ATOM     11  C   UNL     1     125.430 134.013 110.497  1.00  0.00     0.091 A 
ATOM     12  C   UNL     1     125.496 135.397 110.278  1.00  0.00     0.068 A 
ATOM     13  C   UNL     1     126.679 136.103 110.518  1.00  0.00     0.162 A 
ATOM     14  C   UNL     1     126.582 133.334 110.928  1.00  0.00     0.068 A 
ATOM     15  C   UNL     1     127.823 135.423 110.969  1.00  0.00     0.200 A 
ATOM     16  C   UNL     1     127.772 134.033 111.169  1.00  0.00     0.162 A 
BRANCH  13  17
ATOM     17  O   UNL     1     126.699 137.481 110.302  1.00  0.00    -0.504 OA
ATOM     18  H   UNL     1     126.005 137.947 109.730  1.00  0.00     0.293 HD
ENDBRANCH  13  17
BRANCH  15  19
ATOM     19  O   UNL     1     128.998 136.135 111.210  1.00  0.00    -0.502 OA
ATOM     20  H   UNL     1     129.072 136.821 111.951  1.00  0.00     0.293 HD
ENDBRANCH  15  19
BRANCH  16  21
ATOM     21  O   UNL     1     128.908 133.349 111.603  1.00  0.00    -0.504 OA
ATOM     22  H   UNL     1     128.851 132.411 111.981  1.00  0.00     0.293 HD
ENDBRANCH  16  21
ENDBRANCH   1  11
BRANCH  10  23
ATOM     23  O   UNL     1     124.925 132.594 108.002  1.00  0.00    -0.500 OA
ATOM     24  H   UNL     1     125.911 132.607 108.232  1.00  0.00     0.294 HD
ENDBRANCH  10  23
BRANCH   5  25
ATOM     25  O   UNL     1     118.988 132.053 112.981  1.00  0.00    -0.507 OA
ATOM     26  H   UNL     1     117.991 132.005 112.810  1.00  0.00     0.293 HD
ENDBRANCH   5  25
BRANCH   7  27
ATOM     27  O   UNL     1     120.084 130.671 108.516  1.00  0.00    -0.507 OA
ATOM     28  H   UNL     1     119.123 130.522 108.248  1.00  0.00     0.293 HD
ENDBRANCH   7  27
TORSDOF 7
ENDMDL
MODEL 8
REMARK VINA RESULT:    -5.335     10.977     14.656
REMARK INTER + INTRA:          -6.967
REMARK INTER:                  -6.636
REMARK INTRA:                  -0.331
REMARK UNBOUND:                -0.385
REMARK SMILES Oc1cc(O)c2cc(O)c(-c3cc(O)c(O)c(O)c3)[o+]c2c1
REMARK SMILES IDX 10 1 20 2 21 3 22 4 2 5 3 6 4 7 6 8 7 9 8 10 11 11 12 12
REMARK SMILES IDX 13 13 19 14 15 15 17 16 14 17 16 19 18 21 9 23 1 25 5 27
REMARK H PARENT 14 18 16 20 18 22 9 24 1 26 5 28
REMARK Flexibility Score: inf
ROOT
ATOM      1  C   UNL     1     133.911 125.606 111.263  1.00  0.00     0.402 A 
ATOM      2  O   UNL     1     133.717 124.361 110.833  1.00  0.00    -0.202 OA
ATOM      3  C   UNL     1     132.543 123.741 110.898  1.00  0.00     0.368 A 
ATOM      4  C   UNL     1     132.439 122.432 110.423  1.00  0.00     0.162 A 
ATOM      5  C   UNL     1     131.217 121.754 110.482  1.00  0.00     0.128 A 
ATOM      6  C   UNL     1     130.094 122.391 111.017  1.00  0.00     0.093 A 
ATOM      7  C   UNL     1     130.173 123.703 111.500  1.00  0.00     0.136 A 
ATOM      8  C   UNL     1     131.410 124.395 111.441  1.00  0.00     0.125 A 
ATOM      9  C   UNL     1     131.579 125.716 111.888  1.00  0.00     0.078 A 
ATOM     10  C   UNL     1     132.829 126.334 111.793  1.00  0.00     0.223 A 
ENDROOT
BRANCH   1  11
ATOM     11  C   UNL     1     135.269 126.183 111.147  1.00  0.00     0.091 A 
ATOM     12  C   UNL     1     135.552 127.076 110.102  1.00  0.00     0.068 A 
ATOM     13  C   UNL     1     136.830 127.622 109.956  1.00  0.00     0.162 A 
ATOM     14  C   UNL     1     136.299 125.814 112.028  1.00  0.00     0.068 A 
ATOM     15  C   UNL     1     137.852 127.267 110.852  1.00  0.00     0.200 A 
ATOM     16  C   UNL     1     137.584 126.355 111.888  1.00  0.00     0.162 A 
BRANCH  13  17
ATOM     17  O   UNL     1     137.067 128.518 108.912  1.00  0.00    -0.504 OA
ATOM     18  H   UNL     1     137.617 128.266 108.100  1.00  0.00     0.293 HD
ENDBRANCH  13  17
BRANCH  15  19
ATOM     19  O   UNL     1     139.125 127.819 110.701  1.00  0.00    -0.502 OA
ATOM     20  H   UNL     1     139.938 127.437 111.170  1.00  0.00     0.293 HD
ENDBRANCH  15  19
BRANCH  16  21
ATOM     21  O   UNL     1     138.597 125.987 112.772  1.00  0.00    -0.504 OA
ATOM     22  H   UNL     1     138.393 125.680 113.716  1.00  0.00     0.293 HD
ENDBRANCH  16  21
ENDBRANCH   1  11
BRANCH  10  23
ATOM     23  O   UNL     1     132.985 127.662 112.191  1.00  0.00    -0.500 OA
ATOM     24  H   UNL     1     132.190 128.276 112.321  1.00  0.00     0.294 HD
ENDBRANCH  10  23
BRANCH   5  25
ATOM     25  O   UNL     1     131.106 120.448 110.009  1.00  0.00    -0.507 OA
ATOM     26  H   UNL     1     131.205 120.232 109.025  1.00  0.00     0.293 HD
ENDBRANCH   5  25
BRANCH   7  27
ATOM     27  O   UNL     1     129.005 124.267 112.024  1.00  0.00    -0.507 OA
ATOM     28  H   UNL     1     128.462 124.982 111.563  1.00  0.00     0.293 HD
ENDBRANCH   7  27
TORSDOF 7
ENDMDL
MODEL 9
REMARK VINA RESULT:    -5.304     11.147     12.757
REMARK INTER + INTRA:          -6.929
REMARK INTER:                  -6.584
REMARK INTRA:                  -0.345
REMARK UNBOUND:                -0.385
REMARK SMILES Oc1cc(O)c2cc(O)c(-c3cc(O)c(O)c(O)c3)[o+]c2c1
REMARK SMILES IDX 10 1 20 2 21 3 22 4 2 5 3 6 4 7 6 8 7 9 8 10 11 11 12 12
REMARK SMILES IDX 13 13 19 14 15 15 17 16 14 17 16 19 18 21 9 23 1 25 5 27
REMARK H PARENT 14 18 16 20 18 22 9 24 1 26 5 28
REMARK Flexibility Score: inf
ROOT
ATOM      1  C   UNL     1     131.739 123.871 110.908  1.00  0.00     0.402 A 
ATOM      2  O   UNL     1     132.692 124.095 111.809  1.00  0.00    -0.202 OA
ATOM      3  C   UNL     1     133.389 125.224 111.869  1.00  0.00     0.368 A 
ATOM      4  C   UNL     1     134.373 125.365 112.851  1.00  0.00     0.162 A 
ATOM      5  C   UNL     1     135.124 126.542 112.935  1.00  0.00     0.128 A 
ATOM      6  C   UNL     1     134.889 127.582 112.032  1.00  0.00     0.093 A 
ATOM      7  C   UNL     1     133.909 127.465 111.038  1.00  0.00     0.136 A 
ATOM      8  C   UNL     1     133.143 126.274 110.950  1.00  0.00     0.125 A 
ATOM      9  C   UNL     1     132.132 126.074 109.996  1.00  0.00     0.078 A 
ATOM     10  C   UNL     1     131.416 124.874 109.974  1.00  0.00     0.223 A 
ENDROOT
BRANCH   1  11
ATOM     11  C   UNL     1     131.040 122.566 110.937  1.00  0.00     0.091 A 
ATOM     12  C   UNL     1     129.790 122.468 111.566  1.00  0.00     0.068 A 
ATOM     13  C   UNL     1     129.115 121.245 111.625  1.00  0.00     0.162 A 
ATOM     14  C   UNL     1     131.626 121.409 110.396  1.00  0.00     0.068 A 
ATOM     15  C   UNL     1     129.695 120.094 111.065  1.00  0.00     0.200 A 
ATOM     16  C   UNL     1     130.958 120.179 110.453  1.00  0.00     0.162 A 
BRANCH  13  17
ATOM     17  O   UNL     1     127.867 121.192 112.247  1.00  0.00    -0.504 OA
ATOM     18  H   UNL     1     127.082 120.699 111.838  1.00  0.00     0.293 HD
ENDBRANCH  13  17
BRANCH  15  19
ATOM     19  O   UNL     1     129.014 118.878 111.126  1.00  0.00    -0.502 OA
ATOM     20  H   UNL     1     129.475 118.013 111.383  1.00  0.00     0.293 HD
ENDBRANCH  15  19
BRANCH  16  21
ATOM     21  O   UNL     1     131.547 119.039 109.908  1.00  0.00    -0.504 OA
ATOM     22  H   UNL     1     131.924 118.304 110.493  1.00  0.00     0.293 HD
ENDBRANCH  16  21
ENDBRANCH   1  11
BRANCH  10  23
ATOM     23  O   UNL     1     130.378 124.695 109.060  1.00  0.00    -0.500 OA
ATOM     24  H   UNL     1     129.893 123.810 108.972  1.00  0.00     0.294 HD
ENDBRANCH  10  23
BRANCH   5  25
ATOM     25  O   UNL     1     136.106 126.690 113.912  1.00  0.00    -0.507 OA
ATOM     26  H   UNL     1     136.551 125.886 114.340  1.00  0.00     0.293 HD
ENDBRANCH   5  25
BRANCH   7  27
ATOM     27  O   UNL     1     133.739 128.550 110.172  1.00  0.00    -0.507 OA
ATOM     28  H   UNL     1     132.860 129.017 110.010  1.00  0.00     0.293 HD
ENDBRANCH   7  27
TORSDOF 7
ENDMDL
