MODEL 1
REMARK VINA RESULT:    -7.051      0.000      0.000
REMARK INTER + INTRA:          -8.556
REMARK INTER:                  -8.288
REMARK INTRA:                  -0.268
REMARK UNBOUND:                -0.268
REMARK SMILES O=c1cc(-c2ccc(O)c(O)c2)oc2cc(O)cc(O)c12
REMARK SMILES IDX 4 1 3 2 2 3 1 4 21 5 19 6 18 7 16 8 15 9 14 10 13 11 5 12
REMARK SMILES IDX 6 13 7 14 8 15 12 16 10 17 9 18 11 20 20 22 17 24
REMARK H PARENT 9 19 11 21 20 23 17 25
REMARK Flexibility Score: inf
ROOT
ATOM      1  C   UNL     1      31.218 -92.192  37.209  1.00  0.00     0.138 A 
ATOM      2  C   UNL     1      29.986 -92.791  36.913  1.00  0.00     0.100 A 
ATOM      3  C   UNL     1      29.833 -94.169  37.072  1.00  0.00     0.197 A 
ATOM      4  O   UNL     1      28.733 -94.685  36.745  1.00  0.00    -0.289 OA
ATOM      5  C   UNL     1      30.909 -94.945  37.566  1.00  0.00     0.107 A 
ATOM      6  C   UNL     1      30.857 -96.352  37.802  1.00  0.00     0.134 A 
ATOM      7  C   UNL     1      32.018 -97.028  38.199  1.00  0.00     0.093 A 
ATOM      8  C   UNL     1      33.212 -96.338  38.425  1.00  0.00     0.123 A 
ATOM      9  C   UNL     1      33.259 -94.958  38.246  1.00  0.00     0.094 A 
ATOM     10  C   UNL     1      32.128 -94.261  37.817  1.00  0.00     0.146 A 
ATOM     11  O   UNL     1      32.222 -92.947  37.641  1.00  0.00    -0.456 OA
ENDROOT
BRANCH   1  12
ATOM     12  C   UNL     1      31.436 -90.730  37.060  1.00  0.00     0.021 A 
ATOM     13  C   UNL     1      32.430 -90.267  36.185  1.00  0.00     0.016 A 
ATOM     14  C   UNL     1      32.651 -88.899  36.022  1.00  0.00     0.051 A 
ATOM     15  C   UNL     1      31.879 -87.963  36.720  1.00  0.00     0.157 A 
ATOM     16  C   UNL     1      30.650 -89.790  37.751  1.00  0.00     0.062 A 
ATOM     17  C   UNL     1      30.861 -88.415  37.591  1.00  0.00     0.158 A 
BRANCH  15  18
ATOM     18  O   UNL     1      32.154 -86.609  36.516  1.00  0.00    -0.504 OA
ATOM     19  H   UNL     1      33.081 -86.237  36.371  1.00  0.00     0.293 HD
ENDBRANCH  15  18
BRANCH  17  20
ATOM     20  O   UNL     1      30.041 -87.541  38.308  1.00  0.00    -0.504 OA
ATOM     21  H   UNL     1      29.450 -87.824  39.075  1.00  0.00     0.293 HD
ENDBRANCH  17  20
ENDBRANCH   1  12
BRANCH   6  22
ATOM     22  O   UNL     1      29.698 -97.125  37.684  1.00  0.00    -0.507 OA
ATOM     23  H   UNL     1      29.323 -97.479  36.818  1.00  0.00     0.293 HD
ENDBRANCH   6  22
BRANCH   8  24
ATOM     24  O   UNL     1      34.358 -97.018  38.835  1.00  0.00    -0.508 OA
ATOM     25  H   UNL     1      34.895 -96.714  39.639  1.00  0.00     0.293 HD
ENDBRANCH   8  24
TORSDOF 5
ENDMDL
MODEL 2
REMARK VINA RESULT:    -6.319      1.268      2.790
REMARK INTER + INTRA:          -7.695
REMARK INTER:                  -7.404
REMARK INTRA:                  -0.291
REMARK UNBOUND:                -0.268
REMARK SMILES O=c1cc(-c2ccc(O)c(O)c2)oc2cc(O)cc(O)c12
REMARK SMILES IDX 4 1 3 2 2 3 1 4 21 5 19 6 18 7 16 8 15 9 14 10 13 11 5 12
REMARK SMILES IDX 6 13 7 14 8 15 12 16 10 17 9 18 11 20 20 22 17 24
REMARK H PARENT 9 19 11 21 20 23 17 25
REMARK Flexibility Score: inf
ROOT
ATOM      1  C   UNL     1      31.324 -92.002  37.237  1.00  0.00     0.138 A 
ATOM      2  C   UNL     1      32.415 -92.773  37.661  1.00  0.00     0.100 A 
ATOM      3  C   UNL     1      32.265 -94.150  37.823  1.00  0.00     0.197 A 
ATOM      4  O   UNL     1      33.247 -94.807  38.259  1.00  0.00    -0.289 OA
ATOM      5  C   UNL     1      31.025 -94.764  37.524  1.00  0.00     0.107 A 
ATOM      6  C   UNL     1      30.766 -96.165  37.618  1.00  0.00     0.134 A 
ATOM      7  C   UNL     1      29.469 -96.643  37.389  1.00  0.00     0.093 A 
ATOM      8  C   UNL     1      28.438 -95.779  37.012  1.00  0.00     0.123 A 
ATOM      9  C   UNL     1      28.693 -94.418  36.868  1.00  0.00     0.094 A 
ATOM     10  C   UNL     1      29.967 -93.905  37.124  1.00  0.00     0.146 A 
ATOM     11  O   UNL     1      30.163 -92.597  36.991  1.00  0.00    -0.456 OA
ENDROOT
BRANCH   1  12
ATOM     12  C   UNL     1      31.429 -90.533  37.045  1.00  0.00     0.021 A 
ATOM     13  C   UNL     1      32.514 -90.007  36.328  1.00  0.00     0.016 A 
ATOM     14  C   UNL     1      32.633 -88.630  36.128  1.00  0.00     0.051 A 
ATOM     15  C   UNL     1      31.668 -87.750  36.629  1.00  0.00     0.157 A 
ATOM     16  C   UNL     1      30.450 -89.649  37.536  1.00  0.00     0.062 A 
ATOM     17  C   UNL     1      30.559 -88.267  37.337  1.00  0.00     0.158 A 
BRANCH  15  18
ATOM     18  O   UNL     1      31.849 -86.385  36.399  1.00  0.00    -0.504 OA
ATOM     19  H   UNL     1      31.433 -85.658  36.962  1.00  0.00     0.293 HD
ENDBRANCH  15  18
BRANCH  17  20
ATOM     20  O   UNL     1      29.548 -87.453  37.852  1.00  0.00    -0.504 OA
ATOM     21  H   UNL     1      29.479 -86.461  37.677  1.00  0.00     0.293 HD
ENDBRANCH  17  20
ENDBRANCH   1  12
BRANCH   6  22
ATOM     22  O   UNL     1      31.740 -97.125  37.909  1.00  0.00    -0.507 OA
ATOM     23  H   UNL     1      32.653 -97.170  37.486  1.00  0.00     0.293 HD
ENDBRANCH   6  22
BRANCH   8  24
ATOM     24  O   UNL     1      27.155 -96.267  36.771  1.00  0.00    -0.508 OA
ATOM     25  H   UNL     1      26.626 -95.985  35.954  1.00  0.00     0.293 HD
ENDBRANCH   8  24
TORSDOF 5
ENDMDL
MODEL 3
REMARK VINA RESULT:    -5.722     15.719     17.250
REMARK INTER + INTRA:          -6.994
REMARK INTER:                  -6.676
REMARK INTRA:                  -0.318
REMARK UNBOUND:                -0.268
REMARK SMILES O=c1cc(-c2ccc(O)c(O)c2)oc2cc(O)cc(O)c12
REMARK SMILES IDX 4 1 3 2 2 3 1 4 21 5 19 6 18 7 16 8 15 9 14 10 13 11 5 12
REMARK SMILES IDX 6 13 7 14 8 15 12 16 10 17 9 18 11 20 20 22 17 24
REMARK H PARENT 9 19 11 21 20 23 17 25
REMARK Flexibility Score: inf
ROOT
ATOM      1  C   UNL     1      38.875 -77.900  38.293  1.00  0.00     0.138 A 
ATOM      2  C   UNL     1      39.228 -77.414  39.559  1.00  0.00     0.100 A 
ATOM      3  C   UNL     1      40.541 -77.556  40.011  1.00  0.00     0.197 A 
ATOM      4  O   UNL     1      40.814 -77.160  41.174  1.00  0.00    -0.289 OA
ATOM      5  C   UNL     1      41.513 -78.154  39.174  1.00  0.00     0.107 A 
ATOM      6  C   UNL     1      42.890 -78.320  39.514  1.00  0.00     0.134 A 
ATOM      7  C   UNL     1      43.737 -79.017  38.643  1.00  0.00     0.093 A 
ATOM      8  C   UNL     1      43.270 -79.502  37.418  1.00  0.00     0.123 A 
ATOM      9  C   UNL     1      41.941 -79.300  37.055  1.00  0.00     0.094 A 
ATOM     10  C   UNL     1      41.063 -78.640  37.917  1.00  0.00     0.146 A 
ATOM     11  O   UNL     1      39.799 -78.485  37.539  1.00  0.00    -0.456 OA
ENDROOT
BRANCH   1  12
ATOM     12  C   UNL     1      37.494 -77.774  37.761  1.00  0.00     0.021 A 
ATOM     13  C   UNL     1      36.483 -77.258  38.586  1.00  0.00     0.016 A 
ATOM     14  C   UNL     1      35.177 -77.123  38.109  1.00  0.00     0.051 A 
ATOM     15  C   UNL     1      34.855 -77.489  36.798  1.00  0.00     0.157 A 
ATOM     16  C   UNL     1      37.174 -78.128  36.438  1.00  0.00     0.062 A 
ATOM     17  C   UNL     1      35.868 -77.992  35.949  1.00  0.00     0.158 A 
BRANCH  15  18
ATOM     18  O   UNL     1      33.530 -77.334  36.384  1.00  0.00    -0.504 OA
ATOM     19  H   UNL     1      33.074 -76.441  36.274  1.00  0.00     0.293 HD
ENDBRANCH  15  18
BRANCH  17  20
ATOM     20  O   UNL     1      35.625 -78.364  34.625  1.00  0.00    -0.504 OA
ATOM     21  H   UNL     1      35.620 -79.319  34.299  1.00  0.00     0.293 HD
ENDBRANCH  17  20
ENDBRANCH   1  12
BRANCH   6  22
ATOM     22  O   UNL     1      43.478 -77.807  40.674  1.00  0.00    -0.507 OA
ATOM     23  H   UNL     1      43.339 -78.171  41.604  1.00  0.00     0.293 HD
ENDBRANCH   6  22
BRANCH   8  24
ATOM     24  O   UNL     1      44.124 -80.180  36.551  1.00  0.00    -0.508 OA
ATOM     25  H   UNL     1      43.996 -80.146  35.546  1.00  0.00     0.293 HD
ENDBRANCH   8  24
TORSDOF 5
ENDMDL
MODEL 4
REMARK VINA RESULT:    -5.675      8.871     11.036
REMARK INTER + INTRA:          -6.938
REMARK INTER:                  -6.621
REMARK INTRA:                  -0.317
REMARK UNBOUND:                -0.268
REMARK SMILES O=c1cc(-c2ccc(O)c(O)c2)oc2cc(O)cc(O)c12
REMARK SMILES IDX 4 1 3 2 2 3 1 4 21 5 19 6 18 7 16 8 15 9 14 10 13 11 5 12
REMARK SMILES IDX 6 13 7 14 8 15 12 16 10 17 9 18 11 20 20 22 17 24
REMARK H PARENT 9 19 11 21 20 23 17 25
REMARK Flexibility Score: inf
ROOT
ATOM      1  C   UNL     1      40.780 -95.271  35.408  1.00  0.00     0.138 A 
ATOM      2  C   UNL     1      41.909 -95.489  34.608  1.00  0.00     0.100 A 
ATOM      3  C   UNL     1      41.771 -95.544  33.220  1.00  0.00     0.197 A 
ATOM      4  O   UNL     1      42.794 -95.797  32.532  1.00  0.00    -0.289 OA
ATOM      5  C   UNL     1      40.500 -95.343  32.630  1.00  0.00     0.107 A 
ATOM      6  C   UNL     1      40.244 -95.342  31.226  1.00  0.00     0.134 A 
ATOM      7  C   UNL     1      38.926 -95.231  30.764  1.00  0.00     0.093 A 
ATOM      8  C   UNL     1      37.863 -95.061  31.654  1.00  0.00     0.123 A 
ATOM      9  C   UNL     1      38.108 -95.009  33.024  1.00  0.00     0.094 A 
ATOM     10  C   UNL     1      39.407 -95.153  33.517  1.00  0.00     0.146 A 
ATOM     11  O   UNL     1      39.593 -95.116  34.832  1.00  0.00    -0.456 OA
ENDROOT
BRANCH   1  12
ATOM     12  C   UNL     1      40.870 -95.201  36.889  1.00  0.00     0.021 A 
ATOM     13  C   UNL     1      42.086 -95.502  37.521  1.00  0.00     0.016 A 
ATOM     14  C   UNL     1      42.200 -95.438  38.911  1.00  0.00     0.051 A 
ATOM     15  C   UNL     1      41.108 -95.061  39.699  1.00  0.00     0.157 A 
ATOM     16  C   UNL     1      39.775 -94.808  37.681  1.00  0.00     0.062 A 
ATOM     17  C   UNL     1      39.881 -94.736  39.076  1.00  0.00     0.158 A 
BRANCH  15  18
ATOM     18  O   UNL     1      41.285 -95.021  41.084  1.00  0.00    -0.504 OA
ATOM     19  H   UNL     1      40.698 -95.511  41.743  1.00  0.00     0.293 HD
ENDBRANCH  15  18
BRANCH  17  20
ATOM     20  O   UNL     1      38.753 -94.337  39.795  1.00  0.00    -0.504 OA
ATOM     21  H   UNL     1      38.263 -94.929  40.451  1.00  0.00     0.293 HD
ENDBRANCH  17  20
ENDBRANCH   1  12
BRANCH   6  22
ATOM     22  O   UNL     1      41.240 -95.426  30.248  1.00  0.00    -0.507 OA
ATOM     23  H   UNL     1      41.091 -95.310  29.258  1.00  0.00     0.293 HD
ENDBRANCH   6  22
BRANCH   8  24
ATOM     24  O   UNL     1      36.557 -94.935  31.185  1.00  0.00    -0.508 OA
ATOM     25  H   UNL     1      36.127 -94.027  31.052  1.00  0.00     0.293 HD
ENDBRANCH   8  24
TORSDOF 5
ENDMDL
MODEL 5
REMARK VINA RESULT:    -5.646     15.284     17.523
REMARK INTER + INTRA:          -6.905
REMARK INTER:                  -6.587
REMARK INTRA:                  -0.318
REMARK UNBOUND:                -0.268
REMARK SMILES O=c1cc(-c2ccc(O)c(O)c2)oc2cc(O)cc(O)c12
REMARK SMILES IDX 4 1 3 2 2 3 1 4 21 5 19 6 18 7 16 8 15 9 14 10 13 11 5 12
REMARK SMILES IDX 6 13 7 14 8 15 12 16 10 17 9 18 11 20 20 22 17 24
REMARK H PARENT 9 19 11 21 20 23 17 25
REMARK Flexibility Score: inf
ROOT
ATOM      1  C   UNL     1      36.829 -77.502  33.412  1.00  0.00     0.138 A 
ATOM      2  C   UNL     1      36.401 -77.261  32.100  1.00  0.00     0.100 A 
ATOM      3  C   UNL     1      37.344 -77.148  31.077  1.00  0.00     0.197 A 
ATOM      4  O   UNL     1      36.933 -76.876  29.919  1.00  0.00    -0.289 OA
ATOM      5  C   UNL     1      38.720 -77.313  31.365  1.00  0.00     0.107 A 
ATOM      6  C   UNL     1      39.768 -77.254  30.398  1.00  0.00     0.134 A 
ATOM      7  C   UNL     1      41.101 -77.335  30.819  1.00  0.00     0.093 A 
ATOM      8  C   UNL     1      41.421 -77.532  32.165  1.00  0.00     0.123 A 
ATOM      9  C   UNL     1      40.404 -77.642  33.110  1.00  0.00     0.094 A 
ATOM     10  C   UNL     1      39.066 -77.530  32.726  1.00  0.00     0.146 A 
ATOM     11  O   UNL     1      38.128 -77.623  33.662  1.00  0.00    -0.456 OA
ENDROOT
BRANCH   1  12
ATOM     12  C   UNL     1      35.869 -77.635  34.538  1.00  0.00     0.021 A 
ATOM     13  C   UNL     1      34.502 -77.421  34.307  1.00  0.00     0.016 A 
ATOM     14  C   UNL     1      33.578 -77.545  35.346  1.00  0.00     0.051 A 
ATOM     15  C   UNL     1      33.996 -77.895  36.634  1.00  0.00     0.157 A 
ATOM     16  C   UNL     1      36.288 -78.002  35.830  1.00  0.00     0.062 A 
ATOM     17  C   UNL     1      35.368 -78.133  36.878  1.00  0.00     0.158 A 
BRANCH  15  18
ATOM     18  O   UNL     1      33.022 -77.998  37.631  1.00  0.00    -0.504 OA
ATOM     19  H   UNL     1      32.058 -77.728  37.507  1.00  0.00     0.293 HD
ENDBRANCH  15  18
BRANCH  17  20
ATOM     20  O   UNL     1      35.858 -78.501  38.133  1.00  0.00    -0.504 OA
ATOM     21  H   UNL     1      36.587 -79.185  38.276  1.00  0.00     0.293 HD
ENDBRANCH  17  20
ENDBRANCH   1  12
BRANCH   6  22
ATOM     22  O   UNL     1      39.558 -77.139  29.020  1.00  0.00    -0.507 OA
ATOM     23  H   UNL     1      39.442 -76.270  28.523  1.00  0.00     0.293 HD
ENDBRANCH   6  22
BRANCH   8  24
ATOM     24  O   UNL     1      42.751 -77.628  32.572  1.00  0.00    -0.508 OA
ATOM     25  H   UNL     1      43.050 -77.305  33.485  1.00  0.00     0.293 HD
ENDBRANCH   8  24
TORSDOF 5
ENDMDL
MODEL 6
REMARK VINA RESULT:    -5.553     15.831     17.143
REMARK INTER + INTRA:          -6.795
REMARK INTER:                  -6.476
REMARK INTRA:                  -0.318
REMARK UNBOUND:                -0.268
REMARK SMILES O=c1cc(-c2ccc(O)c(O)c2)oc2cc(O)cc(O)c12
REMARK SMILES IDX 4 1 3 2 2 3 1 4 21 5 19 6 18 7 16 8 15 9 14 10 13 11 5 12
REMARK SMILES IDX 6 13 7 14 8 15 12 16 10 17 9 18 11 20 20 22 17 24
REMARK H PARENT 9 19 11 21 20 23 17 25
REMARK Flexibility Score: inf
ROOT
ATOM      1  C   UNL     1      37.983 -77.603  34.219  1.00  0.00     0.138 A 
ATOM      2  C   UNL     1      36.627 -77.250  34.252  1.00  0.00     0.100 A 
ATOM      3  C   UNL     1      35.928 -77.305  35.458  1.00  0.00     0.197 A 
ATOM      4  O   UNL     1      34.699 -77.035  35.444  1.00  0.00    -0.289 OA
ATOM      5  C   UNL     1      36.601 -77.681  36.645  1.00  0.00     0.107 A 
ATOM      6  C   UNL     1      36.000 -77.739  37.939  1.00  0.00     0.134 A 
ATOM      7  C   UNL     1      36.743 -78.221  39.024  1.00  0.00     0.093 A 
ATOM      8  C   UNL     1      38.082 -78.591  38.873  1.00  0.00     0.123 A 
ATOM      9  C   UNL     1      38.692 -78.490  37.626  1.00  0.00     0.094 A 
ATOM     10  C   UNL     1      37.968 -78.046  36.517  1.00  0.00     0.146 A 
ATOM     11  O   UNL     1      38.584 -77.982  35.341  1.00  0.00    -0.456 OA
ENDROOT
BRANCH   1  12
ATOM     12  C   UNL     1      38.775 -77.560  32.964  1.00  0.00     0.021 A 
ATOM     13  C   UNL     1      38.167 -77.116  31.780  1.00  0.00     0.016 A 
ATOM     14  C   UNL     1      38.891 -77.060  30.587  1.00  0.00     0.051 A 
ATOM     15  C   UNL     1      40.238 -77.435  30.552  1.00  0.00     0.157 A 
ATOM     16  C   UNL     1      40.134 -77.924  32.932  1.00  0.00     0.062 A 
ATOM     17  C   UNL     1      40.870 -77.867  31.741  1.00  0.00     0.158 A 
BRANCH  15  18
ATOM     18  O   UNL     1      40.904 -77.361  29.327  1.00  0.00    -0.504 OA
ATOM     19  H   UNL     1      40.790 -76.605  28.667  1.00  0.00     0.293 HD
ENDBRANCH  15  18
BRANCH  17  20
ATOM     20  O   UNL     1      42.214 -78.242  31.787  1.00  0.00    -0.504 OA
ATOM     21  H   UNL     1      42.842 -78.187  30.998  1.00  0.00     0.293 HD
ENDBRANCH  17  20
ENDBRANCH   1  12
BRANCH   6  22
ATOM     22  O   UNL     1      34.695 -77.319  38.217  1.00  0.00    -0.507 OA
ATOM     23  H   UNL     1      34.038 -76.980  37.533  1.00  0.00     0.293 HD
ENDBRANCH   6  22
BRANCH   8  24
ATOM     24  O   UNL     1      38.818 -79.054  39.963  1.00  0.00    -0.508 OA
ATOM     25  H   UNL     1      38.366 -79.465  40.771  1.00  0.00     0.293 HD
ENDBRANCH   8  24
TORSDOF 5
ENDMDL
MODEL 7
REMARK VINA RESULT:    -5.531     15.501     17.328
REMARK INTER + INTRA:          -6.769
REMARK INTER:                  -6.478
REMARK INTRA:                  -0.292
REMARK UNBOUND:                -0.268
REMARK SMILES O=c1cc(-c2ccc(O)c(O)c2)oc2cc(O)cc(O)c12
REMARK SMILES IDX 4 1 3 2 2 3 1 4 21 5 19 6 18 7 16 8 15 9 14 10 13 11 5 12
REMARK SMILES IDX 6 13 7 14 8 15 12 16 10 17 9 18 11 20 20 22 17 24
REMARK H PARENT 9 19 11 21 20 23 17 25
REMARK Flexibility Score: inf
ROOT
ATOM      1  C   UNL     1      37.847 -77.567  33.925  1.00  0.00     0.138 A 
ATOM      2  C   UNL     1      38.400 -77.445  35.206  1.00  0.00     0.100 A 
ATOM      3  C   UNL     1      37.563 -77.432  36.322  1.00  0.00     0.197 A 
ATOM      4  O   UNL     1      38.085 -77.265  37.454  1.00  0.00    -0.289 OA
ATOM      5  C   UNL     1      36.165 -77.578  36.154  1.00  0.00     0.107 A 
ATOM      6  C   UNL     1      35.216 -77.615  37.220  1.00  0.00     0.134 A 
ATOM      7  C   UNL     1      33.847 -77.664  36.925  1.00  0.00     0.093 A 
ATOM      8  C   UNL     1      33.398 -77.739  35.605  1.00  0.00     0.123 A 
ATOM      9  C   UNL     1      34.317 -77.756  34.559  1.00  0.00     0.094 A 
ATOM     10  C   UNL     1      35.687 -77.671  34.820  1.00  0.00     0.146 A 
ATOM     11  O   UNL     1      36.529 -77.672  33.792  1.00  0.00    -0.456 OA
ENDROOT
BRANCH   1  12
ATOM     12  C   UNL     1      38.692 -77.589  32.703  1.00  0.00     0.021 A 
ATOM     13  C   UNL     1      38.132 -77.217  31.472  1.00  0.00     0.016 A 
ATOM     14  C   UNL     1      38.906 -77.223  30.309  1.00  0.00     0.051 A 
ATOM     15  C   UNL     1      40.255 -77.590  30.352  1.00  0.00     0.157 A 
ATOM     16  C   UNL     1      40.052 -77.944  32.750  1.00  0.00     0.062 A 
ATOM     17  C   UNL     1      40.837 -77.950  31.590  1.00  0.00     0.158 A 
BRANCH  15  18
ATOM     18  O   UNL     1      40.972 -77.581  29.154  1.00  0.00    -0.504 OA
ATOM     19  H   UNL     1      40.632 -77.976  28.290  1.00  0.00     0.293 HD
ENDBRANCH  15  18
BRANCH  17  20
ATOM     20  O   UNL     1      42.180 -78.312  31.713  1.00  0.00    -0.504 OA
ATOM     21  H   UNL     1      42.500 -79.133  32.207  1.00  0.00     0.293 HD
ENDBRANCH  17  20
ENDBRANCH   1  12
BRANCH   6  22
ATOM     22  O   UNL     1      35.559 -77.626  38.576  1.00  0.00    -0.507 OA
ATOM     23  H   UNL     1      36.082 -78.355  39.035  1.00  0.00     0.293 HD
ENDBRANCH   6  22
BRANCH   8  24
ATOM     24  O   UNL     1      32.034 -77.805  35.321  1.00  0.00    -0.508 OA
ATOM     25  H   UNL     1      31.348 -77.950  36.052  1.00  0.00     0.293 HD
ENDBRANCH   8  24
TORSDOF 5
ENDMDL
MODEL 8
REMARK VINA RESULT:    -5.516     15.381     17.862
REMARK INTER + INTRA:          -6.752
REMARK INTER:                  -6.456
REMARK INTRA:                  -0.296
REMARK UNBOUND:                -0.268
REMARK SMILES O=c1cc(-c2ccc(O)c(O)c2)oc2cc(O)cc(O)c12
REMARK SMILES IDX 4 1 3 2 2 3 1 4 21 5 19 6 18 7 16 8 15 9 14 10 13 11 5 12
REMARK SMILES IDX 6 13 7 14 8 15 12 16 10 17 9 18 11 20 20 22 17 24
REMARK H PARENT 9 19 11 21 20 23 17 25
REMARK Flexibility Score: inf
ROOT
ATOM      1  C   UNL     1      38.259 -77.601  34.672  1.00  0.00     0.138 A 
ATOM      2  C   UNL     1      39.504 -77.555  35.313  1.00  0.00     0.100 A 
ATOM      3  C   UNL     1      40.669 -77.458  34.552  1.00  0.00     0.197 A 
ATOM      4  O   UNL     1      41.774 -77.475  35.153  1.00  0.00    -0.289 OA
ATOM      5  C   UNL     1      40.584 -77.370  33.141  1.00  0.00     0.107 A 
ATOM      6  C   UNL     1      41.701 -77.233  32.264  1.00  0.00     0.134 A 
ATOM      7  C   UNL     1      41.498 -77.256  30.878  1.00  0.00     0.093 A 
ATOM      8  C   UNL     1      40.213 -77.351  30.340  1.00  0.00     0.123 A 
ATOM      9  C   UNL     1      39.111 -77.433  31.188  1.00  0.00     0.094 A 
ATOM     10  C   UNL     1      39.284 -77.449  32.574  1.00  0.00     0.146 A 
ATOM     11  O   UNL     1      38.207 -77.548  33.346  1.00  0.00    -0.456 OA
ENDROOT
BRANCH   1  12
ATOM     12  C   UNL     1      36.987 -77.701  35.433  1.00  0.00     0.021 A 
ATOM     13  C   UNL     1      35.766 -77.566  34.756  1.00  0.00     0.016 A 
ATOM     14  C   UNL     1      34.556 -77.662  35.446  1.00  0.00     0.051 A 
ATOM     15  C   UNL     1      34.538 -77.904  36.824  1.00  0.00     0.157 A 
ATOM     16  C   UNL     1      36.969 -77.959  36.816  1.00  0.00     0.062 A 
ATOM     17  C   UNL     1      35.761 -78.061  37.517  1.00  0.00     0.158 A 
BRANCH  15  18
ATOM     18  O   UNL     1      33.295 -77.984  37.456  1.00  0.00    -0.504 OA
ATOM     19  H   UNL     1      32.418 -78.070  36.966  1.00  0.00     0.293 HD
ENDBRANCH  15  18
BRANCH  17  20
ATOM     20  O   UNL     1      35.822 -78.320  38.888  1.00  0.00    -0.504 OA
ATOM     21  H   UNL     1      35.013 -78.501  39.464  1.00  0.00     0.293 HD
ENDBRANCH  17  20
ENDBRANCH   1  12
BRANCH   6  22
ATOM     22  O   UNL     1      43.019 -77.052  32.696  1.00  0.00    -0.507 OA
ATOM     23  H   UNL     1      43.444 -77.529  33.475  1.00  0.00     0.293 HD
ENDBRANCH   6  22
BRANCH   8  24
ATOM     24  O   UNL     1      40.019 -77.356  28.960  1.00  0.00    -0.508 OA
ATOM     25  H   UNL     1      40.738 -77.684  28.325  1.00  0.00     0.293 HD
ENDBRANCH   8  24
TORSDOF 5
ENDMDL
MODEL 9
REMARK VINA RESULT:    -5.404     10.055     11.415
REMARK INTER + INTRA:          -6.620
REMARK INTER:                  -6.311
REMARK INTRA:                  -0.309
REMARK UNBOUND:                -0.268
REMARK SMILES O=c1cc(-c2ccc(O)c(O)c2)oc2cc(O)cc(O)c12
REMARK SMILES IDX 4 1 3 2 2 3 1 4 21 5 19 6 18 7 16 8 15 9 14 10 13 11 5 12
REMARK SMILES IDX 6 13 7 14 8 15 12 16 10 17 9 18 11 20 20 22 17 24
REMARK H PARENT 9 19 11 21 20 23 17 25
REMARK Flexibility Score: inf
ROOT
ATOM      1  C   UNL     1      37.184 -95.609  28.954  1.00  0.00     0.138 A 
ATOM      2  C   UNL     1      38.408 -95.916  28.343  1.00  0.00     0.100 A 
ATOM      3  C   UNL     1      39.581 -95.888  29.097  1.00  0.00     0.197 A 
ATOM      4  O   UNL     1      40.670 -96.113  28.509  1.00  0.00    -0.289 OA
ATOM      5  C   UNL     1      39.524 -95.586  30.479  1.00  0.00     0.107 A 
ATOM      6  C   UNL     1      40.650 -95.562  31.356  1.00  0.00     0.134 A 
ATOM      7  C   UNL     1      40.482 -95.152  32.685  1.00  0.00     0.093 A 
ATOM      8  C   UNL     1      39.219 -94.823  33.183  1.00  0.00     0.123 A 
ATOM      9  C   UNL     1      38.106 -94.893  32.350  1.00  0.00     0.094 A 
ATOM     10  C   UNL     1      38.246 -95.263  31.010  1.00  0.00     0.146 A 
ATOM     11  O   UNL     1      37.160 -95.299  30.245  1.00  0.00    -0.456 OA
ENDROOT
BRANCH   1  12
ATOM     12  C   UNL     1      35.905 -95.627  28.199  1.00  0.00     0.021 A 
ATOM     13  C   UNL     1      35.780 -96.456  27.074  1.00  0.00     0.016 A 
ATOM     14  C   UNL     1      34.586 -96.496  26.351  1.00  0.00     0.051 A 
ATOM     15  C   UNL     1      33.490 -95.719  26.740  1.00  0.00     0.157 A 
ATOM     16  C   UNL     1      34.798 -94.856  28.599  1.00  0.00     0.062 A 
ATOM     17  C   UNL     1      33.595 -94.893  27.883  1.00  0.00     0.158 A 
BRANCH  15  18
ATOM     18  O   UNL     1      32.326 -95.801  25.971  1.00  0.00    -0.504 OA
ATOM     19  H   UNL     1      31.607 -95.094  25.959  1.00  0.00     0.293 HD
ENDBRANCH  15  18
BRANCH  17  20
ATOM     20  O   UNL     1      32.539 -94.102  28.340  1.00  0.00    -0.504 OA
ATOM     21  H   UNL     1      32.249 -93.240  27.902  1.00  0.00     0.293 HD
ENDBRANCH  17  20
ENDBRANCH   1  12
BRANCH   6  22
ATOM     22  O   UNL     1      41.942 -95.947  30.983  1.00  0.00    -0.507 OA
ATOM     23  H   UNL     1      42.373 -95.745  30.095  1.00  0.00     0.293 HD
ENDBRANCH   6  22
BRANCH   8  24
ATOM     24  O   UNL     1      39.059 -94.432  34.511  1.00  0.00    -0.508 OA
ATOM     25  H   UNL     1      38.852 -95.105  35.240  1.00  0.00     0.293 HD
ENDBRANCH   8  24
TORSDOF 5
ENDMDL
