MODEL 1
REMARK VINA RESULT:    -5.596      0.000      0.000
REMARK INTER + INTRA:         -14.672
REMARK INTER:                 -12.140
REMARK INTRA:                  -2.532
REMARK UNBOUND:                -2.532
REMARK SMILES CCCCCCCCCCCCCCCCCCCCCC(=O)[O-]
REMARK SMILES IDX 12 1 11 2 10 3 9 4 8 5 7 6 6 7 5 8 4 9 3 10 2 11 1 12 13 13
REMARK SMILES IDX 14 14 15 15 16 16 17 17 18 18 19 19 20 20 21 21 22 22 23 23
REMARK SMILES IDX 24 24
REMARK H PARENT
REMARK Flexibility Score: inf
ROOT
ATOM      1  C   UNL     1     -11.044 -15.731  26.614  1.00  0.00     0.000 C 
ENDROOT
BRANCH   1   2
ATOM      2  C   UNL     1     -10.882 -16.293  28.034  1.00  0.00     0.000 C 
BRANCH   2   3
ATOM      3  C   UNL     1     -12.138 -17.032  28.531  1.00  0.00     0.000 C 
BRANCH   3   4
ATOM      4  C   UNL     1     -11.886 -18.459  29.059  1.00  0.00    -0.000 C 
BRANCH   4   5
ATOM      5  C   UNL     1     -10.449 -18.737  29.546  1.00  0.00    -0.000 C 
BRANCH   5   6
ATOM      6  C   UNL     1     -10.310 -19.004  31.056  1.00  0.00    -0.000 C 
BRANCH   6   7
ATOM      7  C   UNL     1     -11.515 -18.496  31.865  1.00  0.00    -0.000 C 
BRANCH   7   8
ATOM      8  C   UNL     1     -11.190 -17.236  32.685  1.00  0.00    -0.000 C 
BRANCH   8   9
ATOM      9  C   UNL     1     -11.263 -15.946  31.854  1.00  0.00    -0.000 C 
BRANCH   9  10
ATOM     10  C   UNL     1      -9.938 -15.174  31.922  1.00  0.00    -0.000 C 
BRANCH  10  11
ATOM     11  C   UNL     1      -8.820 -15.842  31.106  1.00  0.00    -0.003 C 
ATOM     12  C   UNL     1      -7.652 -16.309  31.975  1.00  0.00     0.004 C 
ENDBRANCH  10  11
ENDBRANCH   9  10
ENDBRANCH   8   9
ENDBRANCH   7   8
ENDBRANCH   6   7
ENDBRANCH   5   6
ENDBRANCH   4   5
ENDBRANCH   3   4
ENDBRANCH   2   3
ENDBRANCH   1   2
BRANCH   1  13
ATOM     13  C   UNL     1      -9.822 -14.896  26.213  1.00  0.00     0.000 C 
BRANCH  13  14
ATOM     14  C   UNL     1      -8.608 -15.237  27.091  1.00  0.00     0.000 C 
BRANCH  14  15
ATOM     15  C   UNL     1      -7.270 -14.832  26.433  1.00  0.00     0.000 C 
BRANCH  15  16
ATOM     16  C   UNL     1      -6.161 -14.485  27.444  1.00  0.00     0.000 C 
BRANCH  16  17
ATOM     17  C   UNL     1      -6.620 -14.408  28.912  1.00  0.00     0.000 C 
BRANCH  17  18
ATOM     18  C   UNL     1      -5.613 -13.754  29.882  1.00  0.00     0.000 C 
BRANCH  18  19
ATOM     19  C   UNL     1      -4.218 -13.489  29.291  1.00  0.00     0.000 C 
BRANCH  19  20
ATOM     20  C   UNL     1      -3.839 -11.998  29.299  1.00  0.00     0.006 C 
BRANCH  20  21
ATOM     21  C   UNL     1      -4.533 -11.231  30.432  1.00  0.00     0.053 C 
BRANCH  21  22
ATOM     22  C   UNL     1      -3.903 -11.517  31.761  1.00  0.00     0.041 C 
ATOM     23  O   UNL     1      -2.660 -11.388  31.915  1.00  0.00    -0.550 OA
ATOM     24  O   UNL     1      -4.694 -11.894  32.838  1.00  0.00    -0.550 OA
ENDBRANCH  21  22
ENDBRANCH  20  21
ENDBRANCH  19  20
ENDBRANCH  18  19
ENDBRANCH  17  18
ENDBRANCH  16  17
ENDBRANCH  15  16
ENDBRANCH  14  15
ENDBRANCH  13  14
ENDBRANCH   1  13
TORSDOF 20
ENDMDL
MODEL 2
REMARK VINA RESULT:    -5.562      1.369      2.167
REMARK INTER + INTRA:         -14.597
REMARK INTER:                 -12.579
REMARK INTRA:                  -2.018
REMARK UNBOUND:                -2.532
REMARK SMILES CCCCCCCCCCCCCCCCCCCCCC(=O)[O-]
REMARK SMILES IDX 12 1 11 2 10 3 9 4 8 5 7 6 6 7 5 8 4 9 3 10 2 11 1 12 13 13
REMARK SMILES IDX 14 14 15 15 16 16 17 17 18 18 19 19 20 20 21 21 22 22 23 23
REMARK SMILES IDX 24 24
REMARK H PARENT
REMARK Flexibility Score: inf
ROOT
ATOM      1  C   UNL     1      -9.299 -14.619  25.757  1.00  0.00     0.000 C 
ENDROOT
BRANCH   1   2
ATOM      2  C   UNL     1     -10.016 -15.288  26.939  1.00  0.00     0.000 C 
BRANCH   2   3
ATOM      3  C   UNL     1     -11.448 -15.732  26.595  1.00  0.00     0.000 C 
BRANCH   3   4
ATOM      4  C   UNL     1     -12.134 -16.605  27.666  1.00  0.00    -0.000 C 
BRANCH   4   5
ATOM      5  C   UNL     1     -11.176 -17.354  28.615  1.00  0.00    -0.000 C 
BRANCH   5   6
ATOM      6  C   UNL     1     -11.777 -18.592  29.306  1.00  0.00    -0.000 C 
BRANCH   6   7
ATOM      7  C   UNL     1     -13.130 -18.303  29.979  1.00  0.00    -0.000 C 
BRANCH   7   8
ATOM      8  C   UNL     1     -13.043 -17.180  31.026  1.00  0.00    -0.000 C 
BRANCH   8   9
ATOM      9  C   UNL     1     -12.035 -17.481  32.145  1.00  0.00    -0.000 C 
BRANCH   9  10
ATOM     10  C   UNL     1     -11.188 -16.242  32.469  1.00  0.00    -0.000 C 
BRANCH  10  11
ATOM     11  C   UNL     1      -9.770 -16.322  31.882  1.00  0.00    -0.003 C 
ATOM     12  C   UNL     1      -9.204 -17.742  31.898  1.00  0.00     0.004 C 
ENDBRANCH  10  11
ENDBRANCH   9  10
ENDBRANCH   8   9
ENDBRANCH   7   8
ENDBRANCH   6   7
ENDBRANCH   5   6
ENDBRANCH   4   5
ENDBRANCH   3   4
ENDBRANCH   2   3
ENDBRANCH   1   2
BRANCH   1  13
ATOM     13  C   UNL     1      -7.981 -13.977  26.209  1.00  0.00     0.000 C 
BRANCH  13  14
ATOM     14  C   UNL     1      -6.964 -15.045  26.636  1.00  0.00     0.000 C 
BRANCH  14  15
ATOM     15  C   UNL     1      -5.972 -14.526  27.701  1.00  0.00     0.000 C 
BRANCH  15  16
ATOM     16  C   UNL     1      -6.648 -13.792  28.875  1.00  0.00     0.000 C 
BRANCH  16  17
ATOM     17  C   UNL     1      -6.930 -14.665  30.111  1.00  0.00     0.000 C 
BRANCH  17  18
ATOM     18  C   UNL     1      -7.530 -13.918  31.320  1.00  0.00     0.000 C 
BRANCH  18  19
ATOM     19  C   UNL     1      -6.500 -13.319  32.292  1.00  0.00     0.000 C 
BRANCH  19  20
ATOM     20  C   UNL     1      -6.153 -11.855  31.969  1.00  0.00     0.006 C 
BRANCH  20  21
ATOM     21  C   UNL     1      -4.781 -11.450  32.525  1.00  0.00     0.053 C 
BRANCH  21  22
ATOM     22  C   UNL     1      -3.752 -11.355  31.440  1.00  0.00     0.041 C 
ATOM     23  O   UNL     1      -2.792 -10.548  31.545  1.00  0.00    -0.550 OA
ATOM     24  O   UNL     1      -3.835 -12.184  30.328  1.00  0.00    -0.550 OA
ENDBRANCH  21  22
ENDBRANCH  20  21
ENDBRANCH  19  20
ENDBRANCH  18  19
ENDBRANCH  17  18
ENDBRANCH  16  17
ENDBRANCH  15  16
ENDBRANCH  14  15
ENDBRANCH  13  14
ENDBRANCH   1  13
TORSDOF 20
ENDMDL
MODEL 3
REMARK VINA RESULT:    -5.508      1.221      2.018
REMARK INTER + INTRA:         -14.479
REMARK INTER:                 -12.237
REMARK INTRA:                  -2.243
REMARK UNBOUND:                -2.532
REMARK SMILES CCCCCCCCCCCCCCCCCCCCCC(=O)[O-]
REMARK SMILES IDX 12 1 11 2 10 3 9 4 8 5 7 6 6 7 5 8 4 9 3 10 2 11 1 12 13 13
REMARK SMILES IDX 14 14 15 15 16 16 17 17 18 18 19 19 20 20 21 21 22 22 23 23
REMARK SMILES IDX 24 24
REMARK H PARENT
REMARK Flexibility Score: inf
ROOT
ATOM      1  C   UNL     1     -10.801 -15.612  26.940  1.00  0.00     0.000 C 
ENDROOT
BRANCH   1   2
ATOM      2  C   UNL     1     -12.248 -15.670  26.430  1.00  0.00     0.000 C 
BRANCH   2   3
ATOM      3  C   UNL     1     -13.258 -16.025  27.536  1.00  0.00     0.000 C 
BRANCH   3   4
ATOM      4  C   UNL     1     -12.674 -16.059  28.963  1.00  0.00    -0.000 C 
BRANCH   4   5
ATOM      5  C   UNL     1     -13.348 -17.058  29.926  1.00  0.00    -0.000 C 
BRANCH   5   6
ATOM      6  C   UNL     1     -12.772 -18.485  29.897  1.00  0.00    -0.000 C 
BRANCH   6   7
ATOM      7  C   UNL     1     -11.809 -18.763  31.064  1.00  0.00    -0.000 C 
BRANCH   7   8
ATOM      8  C   UNL     1     -10.345 -18.450  30.712  1.00  0.00    -0.000 C 
BRANCH   8   9
ATOM      9  C   UNL     1      -9.469 -18.213  31.952  1.00  0.00    -0.000 C 
BRANCH   9  10
ATOM     10  C   UNL     1      -8.790 -16.837  31.889  1.00  0.00    -0.000 C 
BRANCH  10  11
ATOM     11  C   UNL     1      -9.609 -15.808  31.093  1.00  0.00    -0.003 C 
ATOM     12  C   UNL     1     -10.557 -14.996  31.977  1.00  0.00     0.004 C 
ENDBRANCH  10  11
ENDBRANCH   9  10
ENDBRANCH   8   9
ENDBRANCH   7   8
ENDBRANCH   6   7
ENDBRANCH   5   6
ENDBRANCH   4   5
ENDBRANCH   3   4
ENDBRANCH   2   3
ENDBRANCH   1   2
BRANCH   1  13
ATOM     13  C   UNL     1      -9.848 -15.147  25.832  1.00  0.00     0.000 C 
BRANCH  13  14
ATOM     14  C   UNL     1      -8.752 -14.229  26.396  1.00  0.00     0.000 C 
BRANCH  14  15
ATOM     15  C   UNL     1      -7.346 -14.861  26.303  1.00  0.00     0.000 C 
BRANCH  15  16
ATOM     16  C   UNL     1      -6.392 -14.422  27.431  1.00  0.00     0.000 C 
BRANCH  16  17
ATOM     17  C   UNL     1      -6.992 -14.474  28.847  1.00  0.00     0.000 C 
BRANCH  17  18
ATOM     18  C   UNL     1      -6.288 -13.583  29.892  1.00  0.00     0.000 C 
BRANCH  18  19
ATOM     19  C   UNL     1      -7.088 -13.338  31.183  1.00  0.00     0.000 C 
BRANCH  19  20
ATOM     20  C   UNL     1      -6.428 -12.301  32.107  1.00  0.00     0.006 C 
BRANCH  20  21
ATOM     21  C   UNL     1      -5.563 -11.300  31.329  1.00  0.00     0.053 C 
BRANCH  21  22
ATOM     22  C   UNL     1      -4.132 -11.348  31.767  1.00  0.00     0.041 C 
ATOM     23  O   UNL     1      -3.228 -11.664  30.950  1.00  0.00    -0.550 OA
ATOM     24  O   UNL     1      -3.792 -11.010  33.071  1.00  0.00    -0.550 OA
ENDBRANCH  21  22
ENDBRANCH  20  21
ENDBRANCH  19  20
ENDBRANCH  18  19
ENDBRANCH  17  18
ENDBRANCH  16  17
ENDBRANCH  15  16
ENDBRANCH  14  15
ENDBRANCH  13  14
ENDBRANCH   1  13
TORSDOF 20
ENDMDL
MODEL 4
REMARK VINA RESULT:    -5.456      3.086      8.024
REMARK INTER + INTRA:         -14.367
REMARK INTER:                 -11.846
REMARK INTRA:                  -2.521
REMARK UNBOUND:                -2.532
REMARK SMILES CCCCCCCCCCCCCCCCCCCCCC(=O)[O-]
REMARK SMILES IDX 12 1 11 2 10 3 9 4 8 5 7 6 6 7 5 8 4 9 3 10 2 11 1 12 13 13
REMARK SMILES IDX 14 14 15 15 16 16 17 17 18 18 19 19 20 20 21 21 22 22 23 23
REMARK SMILES IDX 24 24
REMARK H PARENT
REMARK Flexibility Score: inf
ROOT
ATOM      1  C   UNL     1      -7.339 -13.467  31.959  1.00  0.00     0.000 C 
ENDROOT
BRANCH   1   2
ATOM      2  C   UNL     1      -6.351 -12.303  32.124  1.00  0.00     0.000 C 
BRANCH   2   3
ATOM      3  C   UNL     1      -6.023 -11.604  30.793  1.00  0.00     0.000 C 
BRANCH   3   4
ATOM      4  C   UNL     1      -4.525 -11.573  30.426  1.00  0.00    -0.000 C 
BRANCH   4   5
ATOM      5  C   UNL     1      -4.149 -12.325  29.133  1.00  0.00    -0.000 C 
BRANCH   5   6
ATOM      6  C   UNL     1      -3.998 -13.850  29.283  1.00  0.00    -0.000 C 
BRANCH   6   7
ATOM      7  C   UNL     1      -5.311 -14.608  29.023  1.00  0.00    -0.000 C 
BRANCH   7   8
ATOM      8  C   UNL     1      -5.904 -14.309  27.636  1.00  0.00    -0.000 C 
BRANCH   8   9
ATOM      9  C   UNL     1      -7.429 -14.492  27.585  1.00  0.00    -0.000 C 
BRANCH   9  10
ATOM     10  C   UNL     1      -7.861 -15.114  26.249  1.00  0.00    -0.000 C 
BRANCH  10  11
ATOM     11  C   UNL     1      -9.188 -14.539  25.730  1.00  0.00    -0.003 C 
ATOM     12  C   UNL     1      -9.042 -13.124  25.171  1.00  0.00     0.004 C 
ENDBRANCH  10  11
ENDBRANCH   9  10
ENDBRANCH   8   9
ENDBRANCH   7   8
ENDBRANCH   6   7
ENDBRANCH   5   6
ENDBRANCH   4   5
ENDBRANCH   3   4
ENDBRANCH   2   3
ENDBRANCH   1   2
BRANCH   1  13
ATOM     13  C   UNL     1      -6.737 -14.776  32.486  1.00  0.00     0.000 C 
BRANCH  13  14
ATOM     14  C   UNL     1      -7.423 -15.994  31.850  1.00  0.00     0.000 C 
BRANCH  14  15
ATOM     15  C   UNL     1      -8.720 -15.619  31.099  1.00  0.00     0.000 C 
BRANCH  15  16
ATOM     16  C   UNL     1     -10.007 -15.995  31.858  1.00  0.00     0.000 C 
BRANCH  16  17
ATOM     17  C   UNL     1     -10.158 -17.492  32.180  1.00  0.00     0.000 C 
BRANCH  17  18
ATOM     18  C   UNL     1     -10.916 -18.319  31.121  1.00  0.00     0.000 C 
BRANCH  18  19
ATOM     19  C   UNL     1     -12.448 -18.198  31.173  1.00  0.00     0.000 C 
BRANCH  19  20
ATOM     20  C   UNL     1     -13.058 -17.734  29.840  1.00  0.00     0.006 C 
BRANCH  20  21
ATOM     21  C   UNL     1     -12.627 -16.308  29.473  1.00  0.00     0.053 C 
BRANCH  21  22
ATOM     22  C   UNL     1     -11.834 -16.279  28.202  1.00  0.00     0.041 C 
ATOM     23  O   UNL     1     -10.579 -16.376  28.235  1.00  0.00    -0.550 OA
ATOM     24  O   UNL     1     -12.484 -16.181  26.979  1.00  0.00    -0.550 OA
ENDBRANCH  21  22
ENDBRANCH  20  21
ENDBRANCH  19  20
ENDBRANCH  18  19
ENDBRANCH  17  18
ENDBRANCH  16  17
ENDBRANCH  15  16
ENDBRANCH  14  15
ENDBRANCH  13  14
ENDBRANCH   1  13
TORSDOF 20
ENDMDL
MODEL 5
REMARK VINA RESULT:    -5.400      2.639      7.077
REMARK INTER + INTRA:         -14.246
REMARK INTER:                 -12.339
REMARK INTRA:                  -1.907
REMARK UNBOUND:                -2.532
REMARK SMILES CCCCCCCCCCCCCCCCCCCCCC(=O)[O-]
REMARK SMILES IDX 12 1 11 2 10 3 9 4 8 5 7 6 6 7 5 8 4 9 3 10 2 11 1 12 13 13
REMARK SMILES IDX 14 14 15 15 16 16 17 17 18 18 19 19 20 20 21 21 22 22 23 23
REMARK SMILES IDX 24 24
REMARK H PARENT
REMARK Flexibility Score: inf
ROOT
ATOM      1  C   UNL     1      -7.871 -15.163  26.614  1.00  0.00     0.000 C 
ENDROOT
BRANCH   1   2
ATOM      2  C   UNL     1      -6.586 -14.322  26.577  1.00  0.00     0.000 C 
BRANCH   2   3
ATOM      3  C   UNL     1      -5.475 -14.888  27.479  1.00  0.00     0.000 C 
BRANCH   3   4
ATOM      4  C   UNL     1      -5.324 -14.186  28.843  1.00  0.00    -0.000 C 
BRANCH   4   5
ATOM      5  C   UNL     1      -6.622 -13.586  29.422  1.00  0.00    -0.000 C 
BRANCH   5   6
ATOM      6  C   UNL     1      -7.143 -14.266  30.700  1.00  0.00    -0.000 C 
BRANCH   6   7
ATOM      7  C   UNL     1      -7.087 -13.346  31.931  1.00  0.00    -0.000 C 
BRANCH   7   8
ATOM      8  C   UNL     1      -6.233 -12.089  31.694  1.00  0.00    -0.000 C 
BRANCH   8   9
ATOM      9  C   UNL     1      -5.079 -11.951  32.699  1.00  0.00    -0.000 C 
BRANCH   9  10
ATOM     10  C   UNL     1      -3.869 -11.260  32.053  1.00  0.00    -0.000 C 
BRANCH  10  11
ATOM     11  C   UNL     1      -3.984 -11.174  30.523  1.00  0.00    -0.003 C 
ATOM     12  C   UNL     1      -2.764 -10.519  29.874  1.00  0.00     0.004 C 
ENDBRANCH  10  11
ENDBRANCH   9  10
ENDBRANCH   8   9
ENDBRANCH   7   8
ENDBRANCH   6   7
ENDBRANCH   5   6
ENDBRANCH   4   5
ENDBRANCH   3   4
ENDBRANCH   2   3
ENDBRANCH   1   2
BRANCH   1  13
ATOM     13  C   UNL     1      -9.056 -14.377  26.041  1.00  0.00     0.000 C 
BRANCH  13  14
ATOM     14  C   UNL     1     -10.374 -15.139  26.243  1.00  0.00     0.000 C 
BRANCH  14  15
ATOM     15  C   UNL     1     -10.373 -15.991  27.532  1.00  0.00     0.000 C 
BRANCH  15  16
ATOM     16  C   UNL     1     -11.666 -16.803  27.741  1.00  0.00     0.000 C 
BRANCH  16  17
ATOM     17  C   UNL     1     -12.577 -16.294  28.872  1.00  0.00     0.000 C 
BRANCH  17  18
ATOM     18  C   UNL     1     -13.304 -17.393  29.676  1.00  0.00     0.000 C 
BRANCH  18  19
ATOM     19  C   UNL     1     -13.223 -17.243  31.204  1.00  0.00     0.000 C 
BRANCH  19  20
ATOM     20  C   UNL     1     -11.906 -16.603  31.674  1.00  0.00     0.006 C 
BRANCH  20  21
ATOM     21  C   UNL     1     -10.989 -17.614  32.375  1.00  0.00     0.053 C 
BRANCH  21  22
ATOM     22  C   UNL     1      -9.775 -17.923  31.553  1.00  0.00     0.041 C 
ATOM     23  O   UNL     1      -8.641 -17.516  31.918  1.00  0.00    -0.550 OA
ATOM     24  O   UNL     1      -9.893 -18.692  30.403  1.00  0.00    -0.550 OA
ENDBRANCH  21  22
ENDBRANCH  20  21
ENDBRANCH  19  20
ENDBRANCH  18  19
ENDBRANCH  17  18
ENDBRANCH  16  17
ENDBRANCH  15  16
ENDBRANCH  14  15
ENDBRANCH  13  14
ENDBRANCH   1  13
TORSDOF 20
ENDMDL
MODEL 6
REMARK VINA RESULT:    -5.400      1.520      4.483
REMARK INTER + INTRA:         -14.246
REMARK INTER:                 -12.250
REMARK INTRA:                  -1.997
REMARK UNBOUND:                -2.532
REMARK SMILES CCCCCCCCCCCCCCCCCCCCCC(=O)[O-]
REMARK SMILES IDX 12 1 11 2 10 3 9 4 8 5 7 6 6 7 5 8 4 9 3 10 2 11 1 12 13 13
REMARK SMILES IDX 14 14 15 15 16 16 17 17 18 18 19 19 20 20 21 21 22 22 23 23
REMARK SMILES IDX 24 24
REMARK H PARENT
REMARK Flexibility Score: inf
ROOT
ATOM      1  C   UNL     1     -10.886 -18.419  29.419  1.00  0.00     0.000 C 
ENDROOT
BRANCH   1   2
ATOM      2  C   UNL     1     -12.397 -18.593  29.636  1.00  0.00     0.000 C 
BRANCH   2   3
ATOM      3  C   UNL     1     -13.104 -17.274  29.997  1.00  0.00     0.000 C 
BRANCH   3   4
ATOM      4  C   UNL     1     -12.676 -16.055  29.154  1.00  0.00    -0.000 C 
BRANCH   4   5
ATOM      5  C   UNL     1     -13.315 -15.967  27.753  1.00  0.00    -0.000 C 
BRANCH   5   6
ATOM      6  C   UNL     1     -12.329 -16.081  26.576  1.00  0.00    -0.000 C 
BRANCH   6   7
ATOM      7  C   UNL     1     -10.886 -15.725  26.971  1.00  0.00    -0.000 C 
BRANCH   7   8
ATOM      8  C   UNL     1     -10.255 -14.682  26.033  1.00  0.00    -0.000 C 
BRANCH   8   9
ATOM      9  C   UNL     1      -8.751 -14.905  25.814  1.00  0.00    -0.000 C 
BRANCH   9  10
ATOM     10  C   UNL     1      -8.013 -15.024  27.155  1.00  0.00    -0.000 C 
BRANCH  10  11
ATOM     11  C   UNL     1      -6.797 -14.089  27.247  1.00  0.00    -0.003 C 
ATOM     12  C   UNL     1      -5.494 -14.838  27.526  1.00  0.00     0.004 C 
ENDBRANCH  10  11
ENDBRANCH   9  10
ENDBRANCH   8   9
ENDBRANCH   7   8
ENDBRANCH   6   7
ENDBRANCH   5   6
ENDBRANCH   4   5
ENDBRANCH   3   4
ENDBRANCH   2   3
ENDBRANCH   1   2
BRANCH   1  13
ATOM     13  C   UNL     1     -10.124 -18.552  30.743  1.00  0.00     0.000 C 
BRANCH  13  14
ATOM     14  C   UNL     1      -9.410 -17.241  31.104  1.00  0.00     0.000 C 
BRANCH  14  15
ATOM     15  C   UNL     1      -8.360 -17.427  32.222  1.00  0.00     0.000 C 
BRANCH  15  16
ATOM     16  C   UNL     1      -7.193 -16.424  32.151  1.00  0.00     0.000 C 
BRANCH  16  17
ATOM     17  C   UNL     1      -7.335 -15.336  31.071  1.00  0.00     0.000 C 
BRANCH  17  18
ATOM     18  C   UNL     1      -7.979 -14.017  31.547  1.00  0.00     0.000 C 
BRANCH  18  19
ATOM     19  C   UNL     1      -7.137 -13.206  32.546  1.00  0.00     0.000 C 
BRANCH  19  20
ATOM     20  C   UNL     1      -6.299 -12.108  31.870  1.00  0.00     0.006 C 
BRANCH  20  21
ATOM     21  C   UNL     1      -5.776 -12.545  30.495  1.00  0.00     0.053 C 
BRANCH  21  22
ATOM     22  C   UNL     1      -4.409 -11.997  30.223  1.00  0.00     0.041 C 
ATOM     23  O   UNL     1      -3.624 -11.748  31.175  1.00  0.00    -0.550 OA
ATOM     24  O   UNL     1      -3.989 -11.794  28.915  1.00  0.00    -0.550 OA
ENDBRANCH  21  22
ENDBRANCH  20  21
ENDBRANCH  19  20
ENDBRANCH  18  19
ENDBRANCH  17  18
ENDBRANCH  16  17
ENDBRANCH  15  16
ENDBRANCH  14  15
ENDBRANCH  13  14
ENDBRANCH   1  13
TORSDOF 20
ENDMDL
MODEL 7
REMARK VINA RESULT:    -5.390      2.649      6.846
REMARK INTER + INTRA:         -14.224
REMARK INTER:                 -11.889
REMARK INTRA:                  -2.334
REMARK UNBOUND:                -2.532
REMARK SMILES CCCCCCCCCCCCCCCCCCCCCC(=O)[O-]
REMARK SMILES IDX 12 1 11 2 10 3 9 4 8 5 7 6 6 7 5 8 4 9 3 10 2 11 1 12 13 13
REMARK SMILES IDX 14 14 15 15 16 16 17 17 18 18 19 19 20 20 21 21 22 22 23 23
REMARK SMILES IDX 24 24
REMARK H PARENT
REMARK Flexibility Score: inf
ROOT
ATOM      1  C   UNL     1     -10.971 -16.332  32.571  1.00  0.00     0.000 C 
ENDROOT
BRANCH   1   2
ATOM      2  C   UNL     1     -10.411 -15.279  31.604  1.00  0.00     0.000 C 
BRANCH   2   3
ATOM      3  C   UNL     1      -9.950 -13.996  32.319  1.00  0.00     0.000 C 
BRANCH   3   4
ATOM      4  C   UNL     1      -8.441 -13.699  32.212  1.00  0.00    -0.000 C 
BRANCH   4   5
ATOM      5  C   UNL     1      -7.574 -14.869  31.705  1.00  0.00    -0.000 C 
BRANCH   5   6
ATOM      6  C   UNL     1      -7.272 -14.854  30.196  1.00  0.00    -0.000 C 
BRANCH   6   7
ATOM      7  C   UNL     1      -6.721 -13.502  29.711  1.00  0.00    -0.000 C 
BRANCH   7   8
ATOM      8  C   UNL     1      -5.508 -13.029  30.529  1.00  0.00    -0.000 C 
BRANCH   8   9
ATOM      9  C   UNL     1      -5.631 -11.570  30.995  1.00  0.00    -0.000 C 
BRANCH   9  10
ATOM     10  C   UNL     1      -5.065 -11.397  32.412  1.00  0.00    -0.000 C 
BRANCH  10  11
ATOM     11  C   UNL     1      -3.555 -11.668  32.484  1.00  0.00    -0.003 C 
ATOM     12  C   UNL     1      -2.755 -10.447  32.936  1.00  0.00     0.004 C 
ENDBRANCH  10  11
ENDBRANCH   9  10
ENDBRANCH   8   9
ENDBRANCH   7   8
ENDBRANCH   6   7
ENDBRANCH   5   6
ENDBRANCH   4   5
ENDBRANCH   3   4
ENDBRANCH   2   3
ENDBRANCH   1   2
BRANCH   1  13
ATOM     13  C   UNL     1     -10.437 -17.728  32.230  1.00  0.00     0.000 C 
BRANCH  13  14
ATOM     14  C   UNL     1      -9.879 -17.772  30.799  1.00  0.00     0.000 C 
BRANCH  14  15
ATOM     15  C   UNL     1     -10.386 -18.995  30.003  1.00  0.00     0.000 C 
BRANCH  15  16
ATOM     16  C   UNL     1     -11.435 -18.647  28.930  1.00  0.00     0.000 C 
BRANCH  16  17
ATOM     17  C   UNL     1     -12.383 -17.491  29.299  1.00  0.00     0.000 C 
BRANCH  17  18
ATOM     18  C   UNL     1     -12.410 -16.318  28.297  1.00  0.00     0.000 C 
BRANCH  18  19
ATOM     19  C   UNL     1     -11.513 -16.498  27.060  1.00  0.00     0.000 C 
BRANCH  19  20
ATOM     20  C   UNL     1     -10.790 -15.203  26.652  1.00  0.00     0.006 C 
BRANCH  20  21
ATOM     21  C   UNL     1      -9.263 -15.353  26.703  1.00  0.00     0.053 C 
BRANCH  21  22
ATOM     22  C   UNL     1      -8.573 -14.211  26.022  1.00  0.00     0.041 C 
ATOM     23  O   UNL     1      -7.360 -13.971  26.258  1.00  0.00    -0.550 OA
ATOM     24  O   UNL     1      -9.261 -13.433  25.100  1.00  0.00    -0.550 OA
ENDBRANCH  21  22
ENDBRANCH  20  21
ENDBRANCH  19  20
ENDBRANCH  18  19
ENDBRANCH  17  18
ENDBRANCH  16  17
ENDBRANCH  15  16
ENDBRANCH  14  15
ENDBRANCH  13  14
ENDBRANCH   1  13
TORSDOF 20
ENDMDL
MODEL 8
REMARK VINA RESULT:    -5.274      2.369      6.839
REMARK INTER + INTRA:         -13.971
REMARK INTER:                 -12.054
REMARK INTRA:                  -1.918
REMARK UNBOUND:                -2.532
REMARK SMILES CCCCCCCCCCCCCCCCCCCCCC(=O)[O-]
REMARK SMILES IDX 12 1 11 2 10 3 9 4 8 5 7 6 6 7 5 8 4 9 3 10 2 11 1 12 13 13
REMARK SMILES IDX 14 14 15 15 16 16 17 17 18 18 19 19 20 20 21 21 22 22 23 23
REMARK SMILES IDX 24 24
REMARK H PARENT
REMARK Flexibility Score: inf
ROOT
ATOM      1  C   UNL     1      -9.671 -14.715  25.601  1.00  0.00     0.000 C 
ENDROOT
BRANCH   1   2
ATOM      2  C   UNL     1      -8.575 -14.446  26.642  1.00  0.00     0.000 C 
BRANCH   2   3
ATOM      3  C   UNL     1      -7.241 -15.133  26.298  1.00  0.00     0.000 C 
BRANCH   3   4
ATOM      4  C   UNL     1      -6.013 -14.584  27.051  1.00  0.00    -0.000 C 
BRANCH   4   5
ATOM      5  C   UNL     1      -6.173 -14.476  28.581  1.00  0.00    -0.000 C 
BRANCH   5   6
ATOM      6  C   UNL     1      -4.855 -14.410  29.374  1.00  0.00    -0.000 C 
BRANCH   6   7
ATOM      7  C   UNL     1      -4.200 -13.019  29.328  1.00  0.00    -0.000 C 
BRANCH   7   8
ATOM      8  C   UNL     1      -5.182 -11.890  29.682  1.00  0.00    -0.000 C 
BRANCH   8   9
ATOM      9  C   UNL     1      -4.896 -11.256  31.053  1.00  0.00    -0.000 C 
BRANCH   9  10
ATOM     10  C   UNL     1      -6.092 -11.435  31.999  1.00  0.00    -0.000 C 
BRANCH  10  11
ATOM     11  C   UNL     1      -6.291 -12.895  32.433  1.00  0.00    -0.003 C 
ATOM     12  C   UNL     1      -7.623 -13.477  31.960  1.00  0.00     0.004 C 
ENDBRANCH  10  11
ENDBRANCH   9  10
ENDBRANCH   8   9
ENDBRANCH   7   8
ENDBRANCH   6   7
ENDBRANCH   5   6
ENDBRANCH   4   5
ENDBRANCH   3   4
ENDBRANCH   2   3
ENDBRANCH   1   2
BRANCH   1  13
ATOM     13  C   UNL     1     -10.938 -15.262  26.268  1.00  0.00     0.000 C 
BRANCH  13  14
ATOM     14  C   UNL     1     -10.600 -16.008  27.568  1.00  0.00     0.000 C 
BRANCH  14  15
ATOM     15  C   UNL     1     -11.699 -17.014  27.976  1.00  0.00     0.000 C 
BRANCH  15  16
ATOM     16  C   UNL     1     -12.946 -16.356  28.596  1.00  0.00     0.000 C 
BRANCH  16  17
ATOM     17  C   UNL     1     -13.536 -17.096  29.810  1.00  0.00     0.000 C 
BRANCH  17  18
ATOM     18  C   UNL     1     -12.630 -18.188  30.418  1.00  0.00     0.000 C 
BRANCH  18  19
ATOM     19  C   UNL     1     -12.053 -17.858  31.804  1.00  0.00     0.000 C 
BRANCH  19  20
ATOM     20  C   UNL     1     -10.914 -18.805  32.219  1.00  0.00     0.006 C 
BRANCH  20  21
ATOM     21  C   UNL     1      -9.674 -18.641  31.330  1.00  0.00     0.053 C 
BRANCH  21  22
ATOM     22  C   UNL     1      -9.015 -17.312  31.539  1.00  0.00     0.041 C 
ATOM     23  O   UNL     1      -8.005 -17.214  32.284  1.00  0.00    -0.550 OA
ATOM     24  O   UNL     1      -9.498 -16.187  30.883  1.00  0.00    -0.550 OA
ENDBRANCH  21  22
ENDBRANCH  20  21
ENDBRANCH  19  20
ENDBRANCH  18  19
ENDBRANCH  17  18
ENDBRANCH  16  17
ENDBRANCH  15  16
ENDBRANCH  14  15
ENDBRANCH  13  14
ENDBRANCH   1  13
TORSDOF 20
ENDMDL
MODEL 9
REMARK VINA RESULT:    -5.228      2.993      6.371
REMARK INTER + INTRA:         -13.872
REMARK INTER:                 -11.380
REMARK INTRA:                  -2.492
REMARK UNBOUND:                -2.532
REMARK SMILES CCCCCCCCCCCCCCCCCCCCCC(=O)[O-]
REMARK SMILES IDX 12 1 11 2 10 3 9 4 8 5 7 6 6 7 5 8 4 9 3 10 2 11 1 12 13 13
REMARK SMILES IDX 14 14 15 15 16 16 17 17 18 18 19 19 20 20 21 21 22 22 23 23
REMARK SMILES IDX 24 24
REMARK H PARENT
REMARK Flexibility Score: inf
ROOT
ATOM      1  C   UNL     1      -5.590 -12.845  29.071  1.00  0.00     0.000 C 
ENDROOT
BRANCH   1   2
ATOM      2  C   UNL     1      -5.349 -14.222  28.434  1.00  0.00     0.000 C 
BRANCH   2   3
ATOM      3  C   UNL     1      -6.642 -14.874  27.914  1.00  0.00     0.000 C 
BRANCH   3   4
ATOM      4  C   UNL     1      -7.022 -14.501  26.467  1.00  0.00    -0.000 C 
BRANCH   4   5
ATOM      5  C   UNL     1      -8.460 -13.977  26.279  1.00  0.00    -0.000 C 
BRANCH   5   6
ATOM      6  C   UNL     1      -9.412 -14.931  25.534  1.00  0.00    -0.000 C 
BRANCH   6   7
ATOM      7  C   UNL     1     -10.605 -15.377  26.397  1.00  0.00    -0.000 C 
BRANCH   7   8
ATOM      8  C   UNL     1     -10.175 -15.916  27.771  1.00  0.00    -0.000 C 
BRANCH   8   9
ATOM      9  C   UNL     1     -11.245 -16.800  28.429  1.00  0.00    -0.000 C 
BRANCH   9  10
ATOM     10  C   UNL     1     -11.966 -16.043  29.554  1.00  0.00    -0.000 C 
BRANCH  10  11
ATOM     11  C   UNL     1     -13.144 -16.837  30.141  1.00  0.00    -0.003 C 
ATOM     12  C   UNL     1     -13.105 -18.318  29.766  1.00  0.00     0.004 C 
ENDBRANCH  10  11
ENDBRANCH   9  10
ENDBRANCH   8   9
ENDBRANCH   7   8
ENDBRANCH   6   7
ENDBRANCH   5   6
ENDBRANCH   4   5
ENDBRANCH   3   4
ENDBRANCH   2   3
ENDBRANCH   1   2
BRANCH   1  13
ATOM     13  C   UNL     1      -4.298 -12.290  29.682  1.00  0.00     0.000 C 
BRANCH  13  14
ATOM     14  C   UNL     1      -4.592 -11.104  30.613  1.00  0.00     0.000 C 
BRANCH  14  15
ATOM     15  C   UNL     1      -5.833 -11.343  31.502  1.00  0.00     0.000 C 
BRANCH  15  16
ATOM     16  C   UNL     1      -5.606 -12.377  32.621  1.00  0.00     0.000 C 
BRANCH  16  17
ATOM     17  C   UNL     1      -6.761 -13.374  32.829  1.00  0.00     0.000 C 
BRANCH  17  18
ATOM     18  C   UNL     1      -7.575 -13.708  31.561  1.00  0.00     0.000 C 
BRANCH  18  19
ATOM     19  C   UNL     1      -8.735 -14.696  31.775  1.00  0.00     0.000 C 
BRANCH  19  20
ATOM     20  C   UNL     1      -8.535 -16.025  31.026  1.00  0.00     0.006 C 
BRANCH  20  21
ATOM     21  C   UNL     1      -8.538 -17.229  31.977  1.00  0.00     0.053 C 
BRANCH  21  22
ATOM     22  C   UNL     1      -9.815 -18.007  31.879  1.00  0.00     0.041 C 
ATOM     23  O   UNL     1     -10.799 -17.706  32.605  1.00  0.00    -0.550 OA
ATOM     24  O   UNL     1      -9.929 -19.043  30.961  1.00  0.00    -0.550 OA
ENDBRANCH  21  22
ENDBRANCH  20  21
ENDBRANCH  19  20
ENDBRANCH  18  19
ENDBRANCH  17  18
ENDBRANCH  16  17
ENDBRANCH  15  16
ENDBRANCH  14  15
ENDBRANCH  13  14
ENDBRANCH   1  13
TORSDOF 20
ENDMDL
