MODEL 1
REMARK VINA RESULT:    -4.239      0.000      0.000
REMARK INTER + INTRA:          -8.929
REMARK INTER:                  -7.213
REMARK INTRA:                  -1.716
REMARK UNBOUND:                -1.716
REMARK SMILES CCCCCCCCCCCCCC(=O)[O-]
REMARK SMILES IDX 8 1 9 2 10 3 11 4 12 5 13 6 14 7 15 8 16 9 7 10 6 11 5 12
REMARK SMILES IDX 4 13 3 14 2 15 1 16
REMARK H PARENT
REMARK Flexibility Score: inf
ROOT
ATOM      1  C   UNL     1      15.910 -35.020  21.725  1.00  0.00     0.000 C 
ENDROOT
BRANCH   1   2
ATOM      2  C   UNL     1      15.035 -33.828  22.146  1.00  0.00     0.000 C 
BRANCH   2   3
ATOM      3  C   UNL     1      14.345 -33.138  20.954  1.00  0.00     0.000 C 
BRANCH   3   4
ATOM      4  C   UNL     1      13.642 -31.810  21.286  1.00  0.00     0.000 C 
BRANCH   4   5
ATOM      5  C   UNL     1      13.353 -31.644  22.788  1.00  0.00     0.006 C 
BRANCH   5   6
ATOM      6  C   UNL     1      13.792 -30.271  23.314  1.00  0.00     0.053 C 
BRANCH   6   7
ATOM      7  C   UNL     1      15.264 -30.052  23.145  1.00  0.00     0.041 C 
ATOM      8  O   UNL     1      15.686 -29.105  22.431  1.00  0.00    -0.550 OA
ATOM      9  O   UNL     1      16.171 -30.876  23.800  1.00  0.00    -0.550 OA
ENDBRANCH   6   7
ENDBRANCH   5   6
ENDBRANCH   4   5
ENDBRANCH   3   4
ENDBRANCH   2   3
ENDBRANCH   1   2
BRANCH   1  10
ATOM     10  C   UNL     1      15.681 -35.426  20.252  1.00  0.00     0.000 C 
BRANCH  10  11
ATOM     11  C   UNL     1      16.984 -35.573  19.442  1.00  0.00    -0.000 C 
BRANCH  11  12
ATOM     12  C   UNL     1      17.725 -34.252  19.158  1.00  0.00    -0.000 C 
BRANCH  12  13
ATOM     13  C   UNL     1      19.055 -34.082  19.914  1.00  0.00    -0.000 C 
BRANCH  13  14
ATOM     14  C   UNL     1      18.965 -33.056  21.058  1.00  0.00    -0.000 C 
BRANCH  14  15
ATOM     15  C   UNL     1      17.941 -31.946  20.774  1.00  0.00    -0.003 C 
ATOM     16  C   UNL     1      18.504 -30.547  21.026  1.00  0.00     0.004 C 
ENDBRANCH  14  15
ENDBRANCH  13  14
ENDBRANCH  12  13
ENDBRANCH  11  12
ENDBRANCH  10  11
ENDBRANCH   1  10
TORSDOF 12
ENDMDL
MODEL 2
REMARK VINA RESULT:    -4.211      1.831      2.417
REMARK INTER + INTRA:          -8.881
REMARK INTER:                  -7.237
REMARK INTRA:                  -1.644
REMARK UNBOUND:                -1.716
REMARK SMILES CCCCCCCCCCCCCC(=O)[O-]
REMARK SMILES IDX 8 1 9 2 10 3 11 4 12 5 13 6 14 7 15 8 16 9 7 10 6 11 5 12
REMARK SMILES IDX 4 13 3 14 2 15 1 16
REMARK H PARENT
REMARK Flexibility Score: inf
ROOT
ATOM      1  C   UNL     1      15.848 -35.335  20.542  1.00  0.00     0.000 C 
ENDROOT
BRANCH   1   2
ATOM      2  C   UNL     1      14.826 -34.253  20.158  1.00  0.00     0.000 C 
BRANCH   2   3
ATOM      3  C   UNL     1      14.459 -33.328  21.333  1.00  0.00     0.000 C 
BRANCH   3   4
ATOM      4  C   UNL     1      13.779 -32.006  20.936  1.00  0.00     0.000 C 
BRANCH   4   5
ATOM      5  C   UNL     1      14.016 -30.880  21.957  1.00  0.00     0.006 C 
BRANCH   5   6
ATOM      6  C   UNL     1      13.223 -31.095  23.252  1.00  0.00     0.053 C 
BRANCH   6   7
ATOM      7  C   UNL     1      12.582 -29.830  23.732  1.00  0.00     0.041 C 
ATOM      8  O   UNL     1      13.089 -29.186  24.688  1.00  0.00    -0.550 OA
ATOM      9  O   UNL     1      11.440 -29.346  23.105  1.00  0.00    -0.550 OA
ENDBRANCH   6   7
ENDBRANCH   5   6
ENDBRANCH   4   5
ENDBRANCH   3   4
ENDBRANCH   2   3
ENDBRANCH   1   2
BRANCH   1  10
ATOM     10  C   UNL     1      16.948 -35.510  19.472  1.00  0.00     0.000 C 
BRANCH  10  11
ATOM     11  C   UNL     1      17.799 -34.245  19.247  1.00  0.00    -0.000 C 
BRANCH  11  12
ATOM     12  C   UNL     1      18.300 -33.561  20.534  1.00  0.00    -0.000 C 
BRANCH  12  13
ATOM     13  C   UNL     1      18.117 -32.033  20.568  1.00  0.00    -0.000 C 
BRANCH  13  14
ATOM     14  C   UNL     1      17.543 -31.529  21.904  1.00  0.00    -0.000 C 
BRANCH  14  15
ATOM     15  C   UNL     1      17.809 -32.502  23.063  1.00  0.00    -0.003 C 
ATOM     16  C   UNL     1      16.713 -32.464  24.129  1.00  0.00     0.004 C 
ENDBRANCH  14  15
ENDBRANCH  13  14
ENDBRANCH  12  13
ENDBRANCH  11  12
ENDBRANCH  10  11
ENDBRANCH   1  10
TORSDOF 12
ENDMDL
MODEL 3
REMARK VINA RESULT:    -4.144      2.079      3.422
REMARK INTER + INTRA:          -8.768
REMARK INTER:                  -6.663
REMARK INTRA:                  -2.105
REMARK UNBOUND:                -1.716
REMARK SMILES CCCCCCCCCCCCCC(=O)[O-]
REMARK SMILES IDX 8 1 9 2 10 3 11 4 12 5 13 6 14 7 15 8 16 9 7 10 6 11 5 12
REMARK SMILES IDX 4 13 3 14 2 15 1 16
REMARK H PARENT
REMARK Flexibility Score: inf
ROOT
ATOM      1  C   UNL     1      17.093 -34.257  23.843  1.00  0.00     0.000 C 
ENDROOT
BRANCH   1   2
ATOM      2  C   UNL     1      16.187 -34.703  22.684  1.00  0.00     0.000 C 
BRANCH   2   3
ATOM      3  C   UNL     1      14.942 -33.813  22.517  1.00  0.00     0.000 C 
BRANCH   3   4
ATOM      4  C   UNL     1      14.533 -33.527  21.061  1.00  0.00     0.000 C 
BRANCH   4   5
ATOM      5  C   UNL     1      13.728 -32.226  20.909  1.00  0.00     0.006 C 
BRANCH   5   6
ATOM      6  C   UNL     1      13.890 -31.299  22.121  1.00  0.00     0.053 C 
BRANCH   6   7
ATOM      7  C   UNL     1      12.580 -30.725  22.565  1.00  0.00     0.041 C 
ATOM      8  O   UNL     1      11.514 -31.057  21.984  1.00  0.00    -0.550 OA
ATOM      9  O   UNL     1      12.533 -29.844  23.639  1.00  0.00    -0.550 OA
ENDBRANCH   6   7
ENDBRANCH   5   6
ENDBRANCH   4   5
ENDBRANCH   3   4
ENDBRANCH   2   3
ENDBRANCH   1   2
BRANCH   1  10
ATOM     10  C   UNL     1      16.696 -32.872  24.400  1.00  0.00     0.000 C 
BRANCH  10  11
ATOM     11  C   UNL     1      17.744 -31.774  24.134  1.00  0.00    -0.000 C 
BRANCH  11  12
ATOM     12  C   UNL     1      17.464 -30.896  22.898  1.00  0.00    -0.000 C 
BRANCH  12  13
ATOM     13  C   UNL     1      18.418 -31.129  21.712  1.00  0.00    -0.000 C 
BRANCH  13  14
ATOM     14  C   UNL     1      17.782 -31.968  20.590  1.00  0.00    -0.000 C 
BRANCH  14  15
ATOM     15  C   UNL     1      18.539 -33.281  20.336  1.00  0.00    -0.003 C 
ATOM     16  C   UNL     1      17.814 -34.199  19.351  1.00  0.00     0.004 C 
ENDBRANCH  14  15
ENDBRANCH  13  14
ENDBRANCH  12  13
ENDBRANCH  11  12
ENDBRANCH  10  11
ENDBRANCH   1  10
TORSDOF 12
ENDMDL
MODEL 4
REMARK VINA RESULT:    -4.144      2.131      4.167
REMARK INTER + INTRA:          -8.767
REMARK INTER:                  -6.665
REMARK INTRA:                  -2.102
REMARK UNBOUND:                -1.716
REMARK SMILES CCCCCCCCCCCCCC(=O)[O-]
REMARK SMILES IDX 8 1 9 2 10 3 11 4 12 5 13 6 14 7 15 8 16 9 7 10 6 11 5 12
REMARK SMILES IDX 4 13 3 14 2 15 1 16
REMARK H PARENT
REMARK Flexibility Score: inf
ROOT
ATOM      1  C   UNL     1      19.247 -34.557  19.456  1.00  0.00     0.000 C 
ENDROOT
BRANCH   1   2
ATOM      2  C   UNL     1      17.761 -34.455  19.076  1.00  0.00     0.000 C 
BRANCH   2   3
ATOM      3  C   UNL     1      16.947 -35.693  19.496  1.00  0.00     0.000 C 
BRANCH   3   4
ATOM      4  C   UNL     1      15.816 -35.420  20.504  1.00  0.00     0.000 C 
BRANCH   4   5
ATOM      5  C   UNL     1      14.981 -34.179  20.146  1.00  0.00     0.006 C 
BRANCH   5   6
ATOM      6  C   UNL     1      14.496 -33.428  21.392  1.00  0.00     0.053 C 
BRANCH   6   7
ATOM      7  C   UNL     1      14.036 -32.041  21.065  1.00  0.00     0.041 C 
ATOM      8  O   UNL     1      12.830 -31.827  20.772  1.00  0.00    -0.550 OA
ATOM      9  O   UNL     1      14.931 -30.979  21.113  1.00  0.00    -0.550 OA
ENDBRANCH   6   7
ENDBRANCH   5   6
ENDBRANCH   4   5
ENDBRANCH   3   4
ENDBRANCH   2   3
ENDBRANCH   1   2
BRANCH   1  10
ATOM     10  C   UNL     1      19.654 -33.515  20.521  1.00  0.00     0.000 C 
BRANCH  10  11
ATOM     11  C   UNL     1      18.490 -32.621  20.989  1.00  0.00    -0.000 C 
BRANCH  11  12
ATOM     12  C   UNL     1      18.040 -32.850  22.445  1.00  0.00    -0.000 C 
BRANCH  12  13
ATOM     13  C   UNL     1      18.846 -33.914  23.211  1.00  0.00    -0.000 C 
BRANCH  13  14
ATOM     14  C   UNL     1      18.095 -35.251  23.345  1.00  0.00    -0.000 C 
BRANCH  14  15
ATOM     15  C   UNL     1      19.042 -36.461  23.341  1.00  0.00    -0.003 C 
ATOM     16  C   UNL     1      18.869 -37.341  22.102  1.00  0.00     0.004 C 
ENDBRANCH  14  15
ENDBRANCH  13  14
ENDBRANCH  12  13
ENDBRANCH  11  12
ENDBRANCH  10  11
ENDBRANCH   1  10
TORSDOF 12
ENDMDL
MODEL 5
REMARK VINA RESULT:    -4.117      1.533      3.190
REMARK INTER + INTRA:          -8.722
REMARK INTER:                  -7.630
REMARK INTRA:                  -1.093
REMARK UNBOUND:                -1.716
REMARK SMILES CCCCCCCCCCCCCC(=O)[O-]
REMARK SMILES IDX 8 1 9 2 10 3 11 4 12 5 13 6 14 7 15 8 16 9 7 10 6 11 5 12
REMARK SMILES IDX 4 13 3 14 2 15 1 16
REMARK H PARENT
REMARK Flexibility Score: inf
ROOT
ATOM      1  C   UNL     1      17.671 -34.419  19.215  1.00  0.00     0.000 C 
ENDROOT
BRANCH   1   2
ATOM      2  C   UNL     1      16.983 -35.726  19.644  1.00  0.00     0.000 C 
BRANCH   2   3
ATOM      3  C   UNL     1      15.702 -35.489  20.465  1.00  0.00     0.000 C 
BRANCH   3   4
ATOM      4  C   UNL     1      15.012 -34.135  20.222  1.00  0.00     0.000 C 
BRANCH   4   5
ATOM      5  C   UNL     1      14.726 -33.366  21.523  1.00  0.00     0.006 C 
BRANCH   5   6
ATOM      6  C   UNL     1      13.802 -32.163  21.294  1.00  0.00     0.053 C 
BRANCH   6   7
ATOM      7  C   UNL     1      13.317 -31.577  22.584  1.00  0.00     0.041 C 
ATOM      8  O   UNL     1      13.480 -32.203  23.665  1.00  0.00    -0.550 OA
ATOM      9  O   UNL     1      12.711 -30.327  22.598  1.00  0.00    -0.550 OA
ENDBRANCH   6   7
ENDBRANCH   5   6
ENDBRANCH   4   5
ENDBRANCH   3   4
ENDBRANCH   2   3
ENDBRANCH   1   2
BRANCH   1  10
ATOM     10  C   UNL     1      19.179 -34.413  19.546  1.00  0.00     0.000 C 
BRANCH  10  11
ATOM     11  C   UNL     1      19.598 -33.282  20.506  1.00  0.00    -0.000 C 
BRANCH  11  12
ATOM     12  C   UNL     1      18.452 -32.688  21.347  1.00  0.00    -0.000 C 
BRANCH  12  13
ATOM     13  C   UNL     1      18.056 -31.247  20.974  1.00  0.00    -0.000 C 
BRANCH  13  14
ATOM     14  C   UNL     1      19.171 -30.227  21.263  1.00  0.00    -0.000 C 
BRANCH  14  15
ATOM     15  C   UNL     1      18.766 -28.792  20.893  1.00  0.00    -0.003 C 
ATOM     16  C   UNL     1      19.934 -27.809  20.979  1.00  0.00     0.004 C 
ENDBRANCH  14  15
ENDBRANCH  13  14
ENDBRANCH  12  13
ENDBRANCH  11  12
ENDBRANCH  10  11
ENDBRANCH   1  10
TORSDOF 12
ENDMDL
MODEL 6
REMARK VINA RESULT:    -4.111      2.794      4.939
REMARK INTER + INTRA:          -8.711
REMARK INTER:                  -6.702
REMARK INTRA:                  -2.009
REMARK UNBOUND:                -1.716
REMARK SMILES CCCCCCCCCCCCCC(=O)[O-]
REMARK SMILES IDX 8 1 9 2 10 3 11 4 12 5 13 6 14 7 15 8 16 9 7 10 6 11 5 12
REMARK SMILES IDX 4 13 3 14 2 15 1 16
REMARK H PARENT
REMARK Flexibility Score: inf
ROOT
ATOM      1  C   UNL     1      14.145 -30.946  24.235  1.00  0.00     0.000 C 
ENDROOT
BRANCH   1   2
ATOM      2  C   UNL     1      13.500 -32.048  23.378  1.00  0.00     0.000 C 
BRANCH   2   3
ATOM      3  C   UNL     1      13.096 -31.560  21.975  1.00  0.00     0.000 C 
BRANCH   3   4
ATOM      4  C   UNL     1      13.672 -32.380  20.807  1.00  0.00     0.000 C 
BRANCH   4   5
ATOM      5  C   UNL     1      14.601 -33.514  21.272  1.00  0.00     0.006 C 
BRANCH   5   6
ATOM      6  C   UNL     1      16.010 -33.387  20.680  1.00  0.00     0.053 C 
BRANCH   6   7
ATOM      7  C   UNL     1      16.398 -34.602  19.894  1.00  0.00     0.041 C 
ATOM      8  O   UNL     1      17.290 -34.524  19.008  1.00  0.00    -0.550 OA
ATOM      9  O   UNL     1      15.795 -35.826  20.158  1.00  0.00    -0.550 OA
ENDBRANCH   6   7
ENDBRANCH   5   6
ENDBRANCH   4   5
ENDBRANCH   3   4
ENDBRANCH   2   3
ENDBRANCH   1   2
BRANCH   1  10
ATOM     10  C   UNL     1      15.013 -29.982  23.396  1.00  0.00     0.000 C 
BRANCH  10  11
ATOM     11  C   UNL     1      16.418 -30.530  23.079  1.00  0.00    -0.000 C 
BRANCH  11  12
ATOM     12  C   UNL     1      17.103 -31.271  24.243  1.00  0.00    -0.000 C 
BRANCH  12  13
ATOM     13  C   UNL     1      17.415 -32.754  23.971  1.00  0.00    -0.000 C 
BRANCH  13  14
ATOM     14  C   UNL     1      16.506 -33.711  24.762  1.00  0.00    -0.000 C 
BRANCH  14  15
ATOM     15  C   UNL     1      16.581 -35.156  24.245  1.00  0.00    -0.003 C 
ATOM     16  C   UNL     1      17.761 -35.383  23.300  1.00  0.00     0.004 C 
ENDBRANCH  14  15
ENDBRANCH  13  14
ENDBRANCH  12  13
ENDBRANCH  11  12
ENDBRANCH  10  11
ENDBRANCH   1  10
TORSDOF 12
ENDMDL
MODEL 7
REMARK VINA RESULT:    -4.085      1.629      3.395
REMARK INTER + INTRA:          -8.667
REMARK INTER:                  -6.680
REMARK INTRA:                  -1.987
REMARK UNBOUND:                -1.716
REMARK SMILES CCCCCCCCCCCCCC(=O)[O-]
REMARK SMILES IDX 8 1 9 2 10 3 11 4 12 5 13 6 14 7 15 8 16 9 7 10 6 11 5 12
REMARK SMILES IDX 4 13 3 14 2 15 1 16
REMARK H PARENT
REMARK Flexibility Score: inf
ROOT
ATOM      1  C   UNL     1      19.001 -32.583  21.364  1.00  0.00     0.000 C 
ENDROOT
BRANCH   1   2
ATOM      2  C   UNL     1      17.957 -31.806  20.545  1.00  0.00     0.000 C 
BRANCH   2   3
ATOM      3  C   UNL     1      16.849 -31.187  21.417  1.00  0.00     0.000 C 
BRANCH   3   4
ATOM      4  C   UNL     1      16.937 -31.518  22.917  1.00  0.00     0.000 C 
BRANCH   4   5
ATOM      5  C   UNL     1      15.860 -30.806  23.752  1.00  0.00     0.006 C 
BRANCH   5   6
ATOM      6  C   UNL     1      14.617 -31.681  23.961  1.00  0.00     0.053 C 
BRANCH   6   7
ATOM      7  C   UNL     1      13.473 -31.243  23.099  1.00  0.00     0.041 C 
ATOM      8  O   UNL     1      12.721 -30.306  23.474  1.00  0.00    -0.550 OA
ATOM      9  O   UNL     1      13.255 -31.849  21.868  1.00  0.00    -0.550 OA
ENDBRANCH   6   7
ENDBRANCH   5   6
ENDBRANCH   4   5
ENDBRANCH   3   4
ENDBRANCH   2   3
ENDBRANCH   1   2
BRANCH   1  10
ATOM     10  C   UNL     1      19.390 -33.922  20.699  1.00  0.00     0.000 C 
BRANCH  10  11
ATOM     11  C   UNL     1      18.488 -34.308  19.510  1.00  0.00    -0.000 C 
BRANCH  11  12
ATOM     12  C   UNL     1      18.109 -35.800  19.440  1.00  0.00    -0.000 C 
BRANCH  12  13
ATOM     13  C   UNL     1      16.938 -36.212  20.351  1.00  0.00    -0.000 C 
BRANCH  13  14
ATOM     14  C   UNL     1      15.804 -35.172  20.375  1.00  0.00    -0.000 C 
BRANCH  14  15
ATOM     15  C   UNL     1      15.479 -34.690  21.797  1.00  0.00    -0.003 C 
ATOM     16  C   UNL     1      16.529 -35.121  22.821  1.00  0.00     0.004 C 
ENDBRANCH  14  15
ENDBRANCH  13  14
ENDBRANCH  12  13
ENDBRANCH  11  12
ENDBRANCH  10  11
ENDBRANCH   1  10
TORSDOF 12
ENDMDL
MODEL 8
REMARK VINA RESULT:    -4.077      4.156      6.486
REMARK INTER + INTRA:          -8.653
REMARK INTER:                  -7.542
REMARK INTRA:                  -1.111
REMARK UNBOUND:                -1.716
REMARK SMILES CCCCCCCCCCCCCC(=O)[O-]
REMARK SMILES IDX 8 1 9 2 10 3 11 4 12 5 13 6 14 7 15 8 16 9 7 10 6 11 5 12
REMARK SMILES IDX 4 13 3 14 2 15 1 16
REMARK H PARENT
REMARK Flexibility Score: inf
ROOT
ATOM      1  C   UNL     1      18.929 -36.656  22.050  1.00  0.00     0.000 C 
ENDROOT
BRANCH   1   2
ATOM      2  C   UNL     1      18.314 -37.830  21.271  1.00  0.00     0.000 C 
BRANCH   2   3
ATOM      3  C   UNL     1      17.564 -37.382  20.003  1.00  0.00     0.000 C 
BRANCH   3   4
ATOM      4  C   UNL     1      17.995 -36.018  19.436  1.00  0.00     0.000 C 
BRANCH   4   5
ATOM      5  C   UNL     1      16.827 -35.026  19.305  1.00  0.00     0.006 C 
BRANCH   5   6
ATOM      6  C   UNL     1      15.769 -35.230  20.397  1.00  0.00     0.053 C 
BRANCH   6   7
ATOM      7  C   UNL     1      15.778 -34.116  21.399  1.00  0.00     0.041 C 
ATOM      8  O   UNL     1      14.701 -33.722  21.917  1.00  0.00    -0.550 OA
ATOM      9  O   UNL     1      16.980 -33.532  21.782  1.00  0.00    -0.550 OA
ENDBRANCH   6   7
ENDBRANCH   5   6
ENDBRANCH   4   5
ENDBRANCH   3   4
ENDBRANCH   2   3
ENDBRANCH   1   2
BRANCH   1  10
ATOM     10  C   UNL     1      18.764 -36.814  23.578  1.00  0.00     0.000 C 
BRANCH  10  11
ATOM     11  C   UNL     1      17.494 -36.143  24.136  1.00  0.00    -0.000 C 
BRANCH  11  12
ATOM     12  C   UNL     1      17.135 -36.534  25.582  1.00  0.00    -0.000 C 
BRANCH  12  13
ATOM     13  C   UNL     1      18.151 -37.463  26.272  1.00  0.00    -0.000 C 
BRANCH  13  14
ATOM     14  C   UNL     1      17.501 -38.724  26.867  1.00  0.00    -0.000 C 
BRANCH  14  15
ATOM     15  C   UNL     1      16.017 -38.517  27.206  1.00  0.00    -0.003 C 
ATOM     16  C   UNL     1      15.671 -38.954  28.630  1.00  0.00     0.004 C 
ENDBRANCH  14  15
ENDBRANCH  13  14
ENDBRANCH  12  13
ENDBRANCH  11  12
ENDBRANCH  10  11
ENDBRANCH   1  10
TORSDOF 12
ENDMDL
MODEL 9
REMARK VINA RESULT:    -4.064      2.847      5.392
REMARK INTER + INTRA:          -8.631
REMARK INTER:                  -6.747
REMARK INTRA:                  -1.885
REMARK UNBOUND:                -1.716
REMARK SMILES CCCCCCCCCCCCCC(=O)[O-]
REMARK SMILES IDX 8 1 9 2 10 3 11 4 12 5 13 6 14 7 15 8 16 9 7 10 6 11 5 12
REMARK SMILES IDX 4 13 3 14 2 15 1 16
REMARK H PARENT
REMARK Flexibility Score: inf
ROOT
ATOM      1  C   UNL     1      15.526 -33.503  24.136  1.00  0.00     0.000 C 
ENDROOT
BRANCH   1   2
ATOM      2  C   UNL     1      15.533 -34.615  23.074  1.00  0.00     0.000 C 
BRANCH   2   3
ATOM      3  C   UNL     1      15.034 -34.136  21.698  1.00  0.00     0.000 C 
BRANCH   3   4
ATOM      4  C   UNL     1      15.361 -35.074  20.522  1.00  0.00     0.000 C 
BRANCH   4   5
ATOM      5  C   UNL     1      16.698 -34.737  19.842  1.00  0.00     0.006 C 
BRANCH   5   6
ATOM      6  C   UNL     1      17.457 -35.995  19.401  1.00  0.00     0.053 C 
BRANCH   6   7
ATOM      7  C   UNL     1      17.829 -36.860  20.566  1.00  0.00     0.041 C 
ATOM      8  O   UNL     1      17.568 -38.092  20.548  1.00  0.00    -0.550 OA
ATOM      9  O   UNL     1      18.489 -36.313  21.659  1.00  0.00    -0.550 OA
ENDBRANCH   6   7
ENDBRANCH   5   6
ENDBRANCH   4   5
ENDBRANCH   3   4
ENDBRANCH   2   3
ENDBRANCH   1   2
BRANCH   1  10
ATOM     10  C   UNL     1      14.194 -32.720  24.158  1.00  0.00     0.000 C 
BRANCH  10  11
ATOM     11  C   UNL     1      14.364 -31.205  23.938  1.00  0.00    -0.000 C 
BRANCH  11  12
ATOM     12  C   UNL     1      13.881 -30.689  22.569  1.00  0.00    -0.000 C 
BRANCH  12  13
ATOM     13  C   UNL     1      15.004 -30.388  21.559  1.00  0.00    -0.000 C 
BRANCH  13  14
ATOM     14  C   UNL     1      16.411 -30.569  22.158  1.00  0.00    -0.000 C 
BRANCH  14  15
ATOM     15  C   UNL     1      17.348 -31.359  21.231  1.00  0.00    -0.003 C 
ATOM     16  C   UNL     1      18.417 -32.138  21.998  1.00  0.00     0.004 C 
ENDBRANCH  14  15
ENDBRANCH  13  14
ENDBRANCH  12  13
ENDBRANCH  11  12
ENDBRANCH  10  11
ENDBRANCH   1  10
TORSDOF 12
ENDMDL
