MODEL 1
REMARK VINA RESULT:    -4.988      0.000      0.000
REMARK INTER + INTRA:         -16.926
REMARK INTER:                 -12.570
REMARK INTRA:                  -4.356
REMARK UNBOUND:                -4.356
REMARK SMILES CCCCCCCCCCCCCCCCCCCCCCCCCCCC(=O)[O-]
REMARK SMILES IDX 15 1 16 2 17 3 18 4 19 5 20 6 21 7 22 8 23 9 24 10 25 11
REMARK SMILES IDX 26 12 27 13 28 14 29 15 30 16 14 17 13 18 12 19 11 20 10 21
REMARK SMILES IDX 9 22 8 23 7 24 6 25 5 26 4 27 3 28 2 29 1 30
REMARK H PARENT
REMARK Flexibility Score: inf
ROOT
ATOM      1  C   UNL     1     -21.371  20.007 -25.214  1.00  0.00     0.000 C 
ENDROOT
BRANCH   1   2
ATOM      2  C   UNL     1     -22.533  20.457 -24.313  1.00  0.00     0.000 C 
BRANCH   2   3
ATOM      3  C   UNL     1     -23.253  19.264 -23.650  1.00  0.00     0.000 C 
BRANCH   3   4
ATOM      4  C   UNL     1     -23.930  19.618 -22.315  1.00  0.00     0.000 C 
BRANCH   4   5
ATOM      5  C   UNL     1     -22.934  20.142 -21.267  1.00  0.00     0.000 C 
BRANCH   5   6
ATOM      6  C   UNL     1     -23.232  21.583 -20.814  1.00  0.00     0.000 C 
BRANCH   6   7
ATOM      7  C   UNL     1     -24.469  22.240 -21.454  1.00  0.00     0.000 C 
BRANCH   7   8
ATOM      8  C   UNL     1     -24.134  23.508 -22.260  1.00  0.00     0.000 C 
BRANCH   8   9
ATOM      9  C   UNL     1     -22.801  24.146 -21.826  1.00  0.00     0.000 C 
BRANCH   9  10
ATOM     10  C   UNL     1     -21.980  24.762 -22.976  1.00  0.00     0.000 C 
BRANCH  10  11
ATOM     11  C   UNL     1     -22.249  24.102 -24.347  1.00  0.00     0.000 C 
BRANCH  11  12
ATOM     12  C   UNL     1     -20.961  23.692 -25.088  1.00  0.00     0.006 C 
BRANCH  12  13
ATOM     13  C   UNL     1     -20.997  24.004 -26.593  1.00  0.00     0.053 C 
BRANCH  13  14
ATOM     14  C   UNL     1     -21.397  25.425 -26.859  1.00  0.00     0.041 C 
ATOM     15  O   UNL     1     -20.672  26.375 -26.465  1.00  0.00    -0.550 OA
ATOM     16  O   UNL     1     -22.592  25.698 -27.513  1.00  0.00    -0.550 OA
ENDBRANCH  13  14
ENDBRANCH  12  13
ENDBRANCH  11  12
ENDBRANCH  10  11
ENDBRANCH   9  10
ENDBRANCH   8   9
ENDBRANCH   7   8
ENDBRANCH   6   7
ENDBRANCH   5   6
ENDBRANCH   4   5
ENDBRANCH   3   4
ENDBRANCH   2   3
ENDBRANCH   1   2
BRANCH   1  17
ATOM     17  C   UNL     1     -21.322  18.479 -25.391  1.00  0.00     0.000 C 
BRANCH  17  18
ATOM     18  C   UNL     1     -20.149  17.838 -24.627  1.00  0.00     0.000 C 
BRANCH  18  19
ATOM     19  C   UNL     1     -20.521  16.491 -23.986  1.00  0.00     0.000 C 
BRANCH  19  20
ATOM     20  C   UNL     1     -20.261  16.470 -22.471  1.00  0.00     0.000 C 
BRANCH  20  21
ATOM     21  C   UNL     1     -21.529  16.731 -21.635  1.00  0.00     0.000 C 
BRANCH  21  22
ATOM     22  C   UNL     1     -22.779  15.939 -22.064  1.00  0.00    -0.000 C 
BRANCH  22  23
ATOM     23  C   UNL     1     -24.014  16.234 -21.192  1.00  0.00    -0.000 C 
BRANCH  23  24
ATOM     24  C   UNL     1     -24.329  15.084 -20.209  1.00  0.00    -0.000 C 
BRANCH  24  25
ATOM     25  C   UNL     1     -24.288  13.690 -20.862  1.00  0.00    -0.000 C 
BRANCH  25  26
ATOM     26  C   UNL     1     -23.453  12.681 -20.057  1.00  0.00    -0.000 C 
BRANCH  26  27
ATOM     27  C   UNL     1     -22.250  13.339 -19.352  1.00  0.00    -0.000 C 
BRANCH  27  28
ATOM     28  C   UNL     1     -20.949  13.326 -20.176  1.00  0.00    -0.000 C 
BRANCH  28  29
ATOM     29  C   UNL     1     -20.910  12.253 -21.283  1.00  0.00    -0.003 C 
ATOM     30  C   UNL     1     -20.474  12.820 -22.634  1.00  0.00     0.004 C 
ENDBRANCH  28  29
ENDBRANCH  27  28
ENDBRANCH  26  27
ENDBRANCH  25  26
ENDBRANCH  24  25
ENDBRANCH  23  24
ENDBRANCH  22  23
ENDBRANCH  21  22
ENDBRANCH  20  21
ENDBRANCH  19  20
ENDBRANCH  18  19
ENDBRANCH  17  18
ENDBRANCH   1  17
TORSDOF 26
ENDMDL
MODEL 2
REMARK VINA RESULT:    -4.937      1.569      5.424
REMARK INTER + INTRA:         -16.797
REMARK INTER:                 -12.252
REMARK INTRA:                  -4.545
REMARK UNBOUND:                -4.356
REMARK SMILES CCCCCCCCCCCCCCCCCCCCCCCCCCCC(=O)[O-]
REMARK SMILES IDX 15 1 16 2 17 3 18 4 19 5 20 6 21 7 22 8 23 9 24 10 25 11
REMARK SMILES IDX 26 12 27 13 28 14 29 15 30 16 14 17 13 18 12 19 11 20 10 21
REMARK SMILES IDX 9 22 8 23 7 24 6 25 5 26 4 27 3 28 2 29 1 30
REMARK H PARENT
REMARK Flexibility Score: inf
ROOT
ATOM      1  C   UNL     1     -24.578  17.075 -22.351  1.00  0.00     0.000 C 
ENDROOT
BRANCH   1   2
ATOM      2  C   UNL     1     -24.236  18.559 -22.570  1.00  0.00     0.000 C 
BRANCH   2   3
ATOM      3  C   UNL     1     -22.886  18.946 -21.930  1.00  0.00     0.000 C 
BRANCH   3   4
ATOM      4  C   UNL     1     -22.914  20.303 -21.208  1.00  0.00     0.000 C 
BRANCH   4   5
ATOM      5  C   UNL     1     -24.338  20.866 -21.063  1.00  0.00     0.000 C 
BRANCH   5   6
ATOM      6  C   UNL     1     -24.365  22.338 -20.611  1.00  0.00     0.000 C 
BRANCH   6   7
ATOM      7  C   UNL     1     -23.124  22.820 -19.838  1.00  0.00     0.000 C 
BRANCH   7   8
ATOM      8  C   UNL     1     -23.007  24.354 -19.775  1.00  0.00     0.000 C 
BRANCH   8   9
ATOM      9  C   UNL     1     -23.309  25.024 -21.128  1.00  0.00     0.000 C 
BRANCH   9  10
ATOM     10  C   UNL     1     -22.109  25.752 -21.765  1.00  0.00     0.000 C 
BRANCH  10  11
ATOM     11  C   UNL     1     -22.048  25.611 -23.303  1.00  0.00     0.000 C 
BRANCH  11  12
ATOM     12  C   UNL     1     -20.610  25.620 -23.857  1.00  0.00     0.006 C 
BRANCH  12  13
ATOM     13  C   UNL     1     -20.318  24.456 -24.818  1.00  0.00     0.053 C 
BRANCH  13  14
ATOM     14  C   UNL     1     -20.399  24.884 -26.253  1.00  0.00     0.041 C 
ATOM     15  O   UNL     1     -21.189  25.798 -26.602  1.00  0.00    -0.550 OA
ATOM     16  O   UNL     1     -19.622  24.243 -27.211  1.00  0.00    -0.550 OA
ENDBRANCH  13  14
ENDBRANCH  12  13
ENDBRANCH  11  12
ENDBRANCH  10  11
ENDBRANCH   9  10
ENDBRANCH   8   9
ENDBRANCH   7   8
ENDBRANCH   6   7
ENDBRANCH   5   6
ENDBRANCH   4   5
ENDBRANCH   3   4
ENDBRANCH   2   3
ENDBRANCH   1   2
BRANCH   1  17
ATOM     17  C   UNL     1     -23.978  16.519 -21.049  1.00  0.00     0.000 C 
BRANCH  17  18
ATOM     18  C   UNL     1     -23.348  15.128 -21.240  1.00  0.00     0.000 C 
BRANCH  18  19
ATOM     19  C   UNL     1     -21.812  15.169 -21.270  1.00  0.00     0.000 C 
BRANCH  19  20
ATOM     20  C   UNL     1     -21.259  15.465 -22.674  1.00  0.00     0.000 C 
BRANCH  20  21
ATOM     21  C   UNL     1     -20.289  16.662 -22.701  1.00  0.00     0.000 C 
BRANCH  21  22
ATOM     22  C   UNL     1     -20.234  17.441 -24.029  1.00  0.00    -0.000 C 
BRANCH  22  23
ATOM     23  C   UNL     1     -21.321  17.008 -25.031  1.00  0.00    -0.000 C 
BRANCH  23  24
ATOM     24  C   UNL     1     -22.183  18.197 -25.514  1.00  0.00    -0.000 C 
BRANCH  24  25
ATOM     25  C   UNL     1     -21.357  19.357 -26.100  1.00  0.00    -0.000 C 
BRANCH  25  26
ATOM     26  C   UNL     1     -21.437  20.633 -25.247  1.00  0.00    -0.000 C 
BRANCH  26  27
ATOM     27  C   UNL     1     -22.888  21.020 -24.896  1.00  0.00    -0.000 C 
BRANCH  27  28
ATOM     28  C   UNL     1     -23.023  22.358 -24.145  1.00  0.00    -0.000 C 
BRANCH  28  29
ATOM     29  C   UNL     1     -24.423  22.998 -24.236  1.00  0.00    -0.003 C 
ATOM     30  C   UNL     1     -24.503  24.081 -25.312  1.00  0.00     0.004 C 
ENDBRANCH  28  29
ENDBRANCH  27  28
ENDBRANCH  26  27
ENDBRANCH  25  26
ENDBRANCH  24  25
ENDBRANCH  23  24
ENDBRANCH  22  23
ENDBRANCH  21  22
ENDBRANCH  20  21
ENDBRANCH  19  20
ENDBRANCH  18  19
ENDBRANCH  17  18
ENDBRANCH   1  17
TORSDOF 26
ENDMDL
MODEL 3
REMARK VINA RESULT:    -4.887      4.199      9.313
REMARK INTER + INTRA:         -16.672
REMARK INTER:                 -12.066
REMARK INTRA:                  -4.606
REMARK UNBOUND:                -4.356
REMARK SMILES CCCCCCCCCCCCCCCCCCCCCCCCCCCC(=O)[O-]
REMARK SMILES IDX 15 1 16 2 17 3 18 4 19 5 20 6 21 7 22 8 23 9 24 10 25 11
REMARK SMILES IDX 26 12 27 13 28 14 29 15 30 16 14 17 13 18 12 19 11 20 10 21
REMARK SMILES IDX 9 22 8 23 7 24 6 25 5 26 4 27 3 28 2 29 1 30
REMARK H PARENT
REMARK Flexibility Score: inf
ROOT
ATOM      1  C   UNL     1     -20.502  18.233 -25.426  1.00  0.00     0.000 C 
ENDROOT
BRANCH   1   2
ATOM      2  C   UNL     1     -21.241  16.885 -25.495  1.00  0.00     0.000 C 
BRANCH   2   3
ATOM      3  C   UNL     1     -20.966  16.007 -24.256  1.00  0.00     0.000 C 
BRANCH   3   4
ATOM      4  C   UNL     1     -20.466  16.802 -23.037  1.00  0.00     0.000 C 
BRANCH   4   5
ATOM      5  C   UNL     1     -21.486  16.822 -21.887  1.00  0.00     0.000 C 
BRANCH   5   6
ATOM      6  C   UNL     1     -22.891  16.356 -22.313  1.00  0.00     0.000 C 
BRANCH   6   7
ATOM      7  C   UNL     1     -23.973  16.417 -21.218  1.00  0.00     0.000 C 
BRANCH   7   8
ATOM      8  C   UNL     1     -24.624  15.051 -20.932  1.00  0.00     0.000 C 
BRANCH   8   9
ATOM      9  C   UNL     1     -24.246  14.498 -19.546  1.00  0.00     0.000 C 
BRANCH   9  10
ATOM     10  C   UNL     1     -23.375  13.227 -19.579  1.00  0.00     0.000 C 
BRANCH  10  11
ATOM     11  C   UNL     1     -21.881  13.510 -19.855  1.00  0.00     0.000 C 
BRANCH  11  12
ATOM     12  C   UNL     1     -21.426  13.061 -21.258  1.00  0.00     0.006 C 
BRANCH  12  13
ATOM     13  C   UNL     1     -19.971  13.437 -21.577  1.00  0.00     0.053 C 
BRANCH  13  14
ATOM     14  C   UNL     1     -19.065  12.242 -21.545  1.00  0.00     0.041 C 
ATOM     15  O   UNL     1     -17.894  12.341 -21.096  1.00  0.00    -0.550 OA
ATOM     16  O   UNL     1     -19.509  11.023 -22.045  1.00  0.00    -0.550 OA
ENDBRANCH  13  14
ENDBRANCH  12  13
ENDBRANCH  11  12
ENDBRANCH  10  11
ENDBRANCH   9  10
ENDBRANCH   8   9
ENDBRANCH   7   8
ENDBRANCH   6   7
ENDBRANCH   5   6
ENDBRANCH   4   5
ENDBRANCH   3   4
ENDBRANCH   2   3
ENDBRANCH   1   2
BRANCH   1  17
ATOM     17  C   UNL     1     -21.392  19.413 -25.852  1.00  0.00     0.000 C 
BRANCH  17  18
ATOM     18  C   UNL     1     -21.790  20.306 -24.663  1.00  0.00     0.000 C 
BRANCH  18  19
ATOM     19  C   UNL     1     -22.992  19.754 -23.879  1.00  0.00     0.000 C 
BRANCH  19  20
ATOM     20  C   UNL     1     -22.941  20.124 -22.388  1.00  0.00     0.000 C 
BRANCH  20  21
ATOM     21  C   UNL     1     -24.327  20.119 -21.715  1.00  0.00     0.000 C 
BRANCH  21  22
ATOM     22  C   UNL     1     -24.615  21.310 -20.781  1.00  0.00    -0.000 C 
BRANCH  22  23
ATOM     23  C   UNL     1     -23.337  21.992 -20.256  1.00  0.00    -0.000 C 
BRANCH  23  24
ATOM     24  C   UNL     1     -23.519  23.515 -20.064  1.00  0.00    -0.000 C 
BRANCH  24  25
ATOM     25  C   UNL     1     -23.704  24.283 -21.385  1.00  0.00    -0.000 C 
BRANCH  25  26
ATOM     26  C   UNL     1     -22.438  24.279 -22.257  1.00  0.00    -0.000 C 
BRANCH  26  27
ATOM     27  C   UNL     1     -22.681  23.657 -23.647  1.00  0.00    -0.000 C 
BRANCH  27  28
ATOM     28  C   UNL     1     -24.152  23.297 -23.931  1.00  0.00    -0.000 C 
BRANCH  28  29
ATOM     29  C   UNL     1     -24.749  24.000 -25.167  1.00  0.00    -0.003 C 
ATOM     30  C   UNL     1     -24.044  25.318 -25.489  1.00  0.00     0.004 C 
ENDBRANCH  28  29
ENDBRANCH  27  28
ENDBRANCH  26  27
ENDBRANCH  25  26
ENDBRANCH  24  25
ENDBRANCH  23  24
ENDBRANCH  22  23
ENDBRANCH  21  22
ENDBRANCH  20  21
ENDBRANCH  19  20
ENDBRANCH  18  19
ENDBRANCH  17  18
ENDBRANCH   1  17
TORSDOF 26
ENDMDL
MODEL 4
REMARK VINA RESULT:    -4.859      2.975      8.315
REMARK INTER + INTRA:         -16.600
REMARK INTER:                 -12.628
REMARK INTRA:                  -3.972
REMARK UNBOUND:                -4.356
REMARK SMILES CCCCCCCCCCCCCCCCCCCCCCCCCCCC(=O)[O-]
REMARK SMILES IDX 15 1 16 2 17 3 18 4 19 5 20 6 21 7 22 8 23 9 24 10 25 11
REMARK SMILES IDX 26 12 27 13 28 14 29 15 30 16 14 17 13 18 12 19 11 20 10 21
REMARK SMILES IDX 9 22 8 23 7 24 6 25 5 26 4 27 3 28 2 29 1 30
REMARK H PARENT
REMARK Flexibility Score: inf
ROOT
ATOM      1  C   UNL     1     -20.904  23.400 -24.997  1.00  0.00     0.000 C 
ENDROOT
BRANCH   1   2
ATOM      2  C   UNL     1     -21.497  22.017 -25.313  1.00  0.00     0.000 C 
BRANCH   2   3
ATOM      3  C   UNL     1     -22.832  21.774 -24.578  1.00  0.00     0.000 C 
BRANCH   3   4
ATOM      4  C   UNL     1     -22.906  20.409 -23.872  1.00  0.00     0.000 C 
BRANCH   4   5
ATOM      5  C   UNL     1     -23.103  20.540 -22.352  1.00  0.00     0.000 C 
BRANCH   5   6
ATOM      6  C   UNL     1     -22.769  19.248 -21.584  1.00  0.00     0.000 C 
BRANCH   6   7
ATOM      7  C   UNL     1     -23.692  18.048 -21.867  1.00  0.00     0.000 C 
BRANCH   7   8
ATOM      8  C   UNL     1     -22.922  16.755 -22.194  1.00  0.00     0.000 C 
BRANCH   8   9
ATOM      9  C   UNL     1     -21.455  16.809 -21.727  1.00  0.00     0.000 C 
BRANCH   9  10
ATOM     10  C   UNL     1     -20.477  15.991 -22.592  1.00  0.00     0.000 C 
BRANCH  10  11
ATOM     11  C   UNL     1     -20.462  16.419 -24.077  1.00  0.00     0.000 C 
BRANCH  11  12
ATOM     12  C   UNL     1     -20.415  17.947 -24.269  1.00  0.00     0.006 C 
BRANCH  12  13
ATOM     13  C   UNL     1     -20.394  18.377 -25.745  1.00  0.00     0.053 C 
BRANCH  13  14
ATOM     14  C   UNL     1     -21.622  17.920 -26.476  1.00  0.00     0.041 C 
ATOM     15  O   UNL     1     -21.632  17.868 -27.733  1.00  0.00    -0.550 OA
ATOM     16  O   UNL     1     -22.768  17.586 -25.765  1.00  0.00    -0.550 OA
ENDBRANCH  13  14
ENDBRANCH  12  13
ENDBRANCH  11  12
ENDBRANCH  10  11
ENDBRANCH   9  10
ENDBRANCH   8   9
ENDBRANCH   7   8
ENDBRANCH   6   7
ENDBRANCH   5   6
ENDBRANCH   4   5
ENDBRANCH   3   4
ENDBRANCH   2   3
ENDBRANCH   1   2
BRANCH   1  17
ATOM     17  C   UNL     1     -21.044  24.382 -26.172  1.00  0.00     0.000 C 
BRANCH  17  18
ATOM     18  C   UNL     1     -21.892  25.614 -25.809  1.00  0.00     0.000 C 
BRANCH  18  19
ATOM     19  C   UNL     1     -23.361  25.475 -26.242  1.00  0.00     0.000 C 
BRANCH  19  20
ATOM     20  C   UNL     1     -24.293  25.158 -25.061  1.00  0.00     0.000 C 
BRANCH  20  21
ATOM     21  C   UNL     1     -23.772  25.702 -23.717  1.00  0.00     0.000 C 
BRANCH  21  22
ATOM     22  C   UNL     1     -23.941  24.759 -22.510  1.00  0.00    -0.000 C 
BRANCH  22  23
ATOM     23  C   UNL     1     -22.606  24.200 -21.984  1.00  0.00    -0.000 C 
BRANCH  23  24
ATOM     24  C   UNL     1     -21.662  25.313 -21.476  1.00  0.00    -0.000 C 
BRANCH  24  25
ATOM     25  C   UNL     1     -21.420  25.267 -19.956  1.00  0.00    -0.000 C 
BRANCH  25  26
ATOM     26  C   UNL     1     -22.355  26.206 -19.177  1.00  0.00    -0.000 C 
BRANCH  26  27
ATOM     27  C   UNL     1     -23.683  25.526 -18.786  1.00  0.00    -0.000 C 
BRANCH  27  28
ATOM     28  C   UNL     1     -23.516  24.140 -18.134  1.00  0.00    -0.000 C 
BRANCH  28  29
ATOM     29  C   UNL     1     -24.724  23.201 -18.326  1.00  0.00    -0.003 C 
ATOM     30  C   UNL     1     -24.629  22.381 -19.613  1.00  0.00     0.004 C 
ENDBRANCH  28  29
ENDBRANCH  27  28
ENDBRANCH  26  27
ENDBRANCH  25  26
ENDBRANCH  24  25
ENDBRANCH  23  24
ENDBRANCH  22  23
ENDBRANCH  21  22
ENDBRANCH  20  21
ENDBRANCH  19  20
ENDBRANCH  18  19
ENDBRANCH  17  18
ENDBRANCH   1  17
TORSDOF 26
ENDMDL
MODEL 5
REMARK VINA RESULT:    -4.809      2.537      8.820
REMARK INTER + INTRA:         -16.475
REMARK INTER:                 -12.264
REMARK INTRA:                  -4.210
REMARK UNBOUND:                -4.356
REMARK SMILES CCCCCCCCCCCCCCCCCCCCCCCCCCCC(=O)[O-]
REMARK SMILES IDX 15 1 16 2 17 3 18 4 19 5 20 6 21 7 22 8 23 9 24 10 25 11
REMARK SMILES IDX 26 12 27 13 28 14 29 15 30 16 14 17 13 18 12 19 11 20 10 21
REMARK SMILES IDX 9 22 8 23 7 24 6 25 5 26 4 27 3 28 2 29 1 30
REMARK H PARENT
REMARK Flexibility Score: inf
ROOT
ATOM      1  C   UNL     1     -22.877  22.462 -23.186  1.00  0.00     0.000 C 
ENDROOT
BRANCH   1   2
ATOM      2  C   UNL     1     -23.923  21.782 -22.286  1.00  0.00     0.000 C 
BRANCH   2   3
ATOM      3  C   UNL     1     -23.272  20.991 -21.132  1.00  0.00     0.000 C 
BRANCH   3   4
ATOM      4  C   UNL     1     -22.871  19.557 -21.518  1.00  0.00     0.000 C 
BRANCH   4   5
ATOM      5  C   UNL     1     -23.836  18.927 -22.536  1.00  0.00     0.000 C 
BRANCH   5   6
ATOM      6  C   UNL     1     -24.945  18.084 -21.879  1.00  0.00     0.000 C 
BRANCH   6   7
ATOM      7  C   UNL     1     -24.770  16.558 -21.982  1.00  0.00     0.000 C 
BRANCH   7   8
ATOM      8  C   UNL     1     -23.926  15.966 -20.838  1.00  0.00     0.000 C 
BRANCH   8   9
ATOM      9  C   UNL     1     -22.931  14.900 -21.331  1.00  0.00     0.000 C 
BRANCH   9  10
ATOM     10  C   UNL     1     -21.447  15.281 -21.162  1.00  0.00     0.000 C 
BRANCH  10  11
ATOM     11  C   UNL     1     -21.007  16.458 -22.062  1.00  0.00     0.000 C 
BRANCH  11  12
ATOM     12  C   UNL     1     -20.772  16.047 -23.529  1.00  0.00     0.006 C 
BRANCH  12  13
ATOM     13  C   UNL     1     -21.514  16.938 -24.539  1.00  0.00     0.053 C 
BRANCH  13  14
ATOM     14  C   UNL     1     -20.625  18.010 -25.095  1.00  0.00     0.041 C 
ATOM     15  O   UNL     1     -19.480  18.204 -24.610  1.00  0.00    -0.550 OA
ATOM     16  O   UNL     1     -21.079  18.819 -26.130  1.00  0.00    -0.550 OA
ENDBRANCH  13  14
ENDBRANCH  12  13
ENDBRANCH  11  12
ENDBRANCH  10  11
ENDBRANCH   9  10
ENDBRANCH   8   9
ENDBRANCH   7   8
ENDBRANCH   6   7
ENDBRANCH   5   6
ENDBRANCH   4   5
ENDBRANCH   3   4
ENDBRANCH   2   3
ENDBRANCH   1   2
BRANCH   1  17
ATOM     17  C   UNL     1     -22.839  21.862 -24.601  1.00  0.00     0.000 C 
BRANCH  17  18
ATOM     18  C   UNL     1     -21.545  22.218 -25.355  1.00  0.00     0.000 C 
BRANCH  18  19
ATOM     19  C   UNL     1     -20.890  23.509 -24.837  1.00  0.00     0.000 C 
BRANCH  19  20
ATOM     20  C   UNL     1     -20.262  24.342 -25.967  1.00  0.00     0.000 C 
BRANCH  20  21
ATOM     21  C   UNL     1     -21.003  25.669 -26.222  1.00  0.00     0.000 C 
BRANCH  21  22
ATOM     22  C   UNL     1     -22.268  25.563 -27.096  1.00  0.00    -0.000 C 
BRANCH  22  23
ATOM     23  C   UNL     1     -23.564  25.434 -26.275  1.00  0.00    -0.000 C 
BRANCH  23  24
ATOM     24  C   UNL     1     -23.463  26.135 -24.901  1.00  0.00    -0.000 C 
BRANCH  24  25
ATOM     25  C   UNL     1     -24.402  25.539 -23.836  1.00  0.00    -0.000 C 
BRANCH  25  26
ATOM     26  C   UNL     1     -23.987  25.909 -22.404  1.00  0.00    -0.000 C 
BRANCH  26  27
ATOM     27  C   UNL     1     -22.496  26.288 -22.300  1.00  0.00    -0.000 C 
BRANCH  27  28
ATOM     28  C   UNL     1     -21.634  25.263 -21.537  1.00  0.00    -0.000 C 
BRANCH  28  29
ATOM     29  C   UNL     1     -22.064  25.039 -20.073  1.00  0.00    -0.003 C 
ATOM     30  C   UNL     1     -22.000  26.321 -19.242  1.00  0.00     0.004 C 
ENDBRANCH  28  29
ENDBRANCH  27  28
ENDBRANCH  26  27
ENDBRANCH  25  26
ENDBRANCH  24  25
ENDBRANCH  23  24
ENDBRANCH  22  23
ENDBRANCH  21  22
ENDBRANCH  20  21
ENDBRANCH  19  20
ENDBRANCH  18  19
ENDBRANCH  17  18
ENDBRANCH   1  17
TORSDOF 26
ENDMDL
MODEL 6
REMARK VINA RESULT:    -4.765      4.009      9.075
REMARK INTER + INTRA:         -16.364
REMARK INTER:                 -11.784
REMARK INTRA:                  -4.579
REMARK UNBOUND:                -4.356
REMARK SMILES CCCCCCCCCCCCCCCCCCCCCCCCCCCC(=O)[O-]
REMARK SMILES IDX 15 1 16 2 17 3 18 4 19 5 20 6 21 7 22 8 23 9 24 10 25 11
REMARK SMILES IDX 26 12 27 13 28 14 29 15 30 16 14 17 13 18 12 19 11 20 10 21
REMARK SMILES IDX 9 22 8 23 7 24 6 25 5 26 4 27 3 28 2 29 1 30
REMARK H PARENT
REMARK Flexibility Score: inf
ROOT
ATOM      1  C   UNL     1     -19.853  17.730 -24.553  1.00  0.00     0.000 C 
ENDROOT
BRANCH   1   2
ATOM      2  C   UNL     1     -20.400  16.454 -23.890  1.00  0.00     0.000 C 
BRANCH   2   3
ATOM      3  C   UNL     1     -20.392  16.548 -22.350  1.00  0.00     0.000 C 
BRANCH   3   4
ATOM      4  C   UNL     1     -21.708  17.080 -21.759  1.00  0.00     0.000 C 
BRANCH   4   5
ATOM      5  C   UNL     1     -22.902  16.155 -22.048  1.00  0.00     0.000 C 
BRANCH   5   6
ATOM      6  C   UNL     1     -24.112  16.422 -21.132  1.00  0.00     0.000 C 
BRANCH   6   7
ATOM      7  C   UNL     1     -24.478  15.282 -20.164  1.00  0.00     0.000 C 
BRANCH   7   8
ATOM      8  C   UNL     1     -24.581  13.909 -20.854  1.00  0.00     0.000 C 
BRANCH   8   9
ATOM      9  C   UNL     1     -23.566  12.893 -20.300  1.00  0.00     0.000 C 
BRANCH   9  10
ATOM     10  C   UNL     1     -22.324  13.523 -19.638  1.00  0.00     0.000 C 
BRANCH  10  11
ATOM     11  C   UNL     1     -20.994  13.116 -20.311  1.00  0.00     0.000 C 
BRANCH  11  12
ATOM     12  C   UNL     1     -21.189  12.414 -21.669  1.00  0.00     0.006 C 
BRANCH  12  13
ATOM     13  C   UNL     1     -20.291  12.977 -22.782  1.00  0.00     0.053 C 
BRANCH  13  14
ATOM     14  C   UNL     1     -19.675  11.886 -23.607  1.00  0.00     0.041 C 
ATOM     15  O   UNL     1     -18.998  12.166 -24.629  1.00  0.00    -0.550 OA
ATOM     16  O   UNL     1     -19.882  10.556 -23.262  1.00  0.00    -0.550 OA
ENDBRANCH  13  14
ENDBRANCH  12  13
ENDBRANCH  11  12
ENDBRANCH  10  11
ENDBRANCH   9  10
ENDBRANCH   8   9
ENDBRANCH   7   8
ENDBRANCH   6   7
ENDBRANCH   5   6
ENDBRANCH   4   5
ENDBRANCH   3   4
ENDBRANCH   2   3
ENDBRANCH   1   2
BRANCH   1  17
ATOM     17  C   UNL     1     -20.769  18.249 -25.674  1.00  0.00     0.000 C 
BRANCH  17  18
ATOM     18  C   UNL     1     -22.122  17.516 -25.713  1.00  0.00     0.000 C 
BRANCH  18  19
ATOM     19  C   UNL     1     -23.244  18.301 -25.014  1.00  0.00     0.000 C 
BRANCH  19  20
ATOM     20  C   UNL     1     -22.903  19.791 -24.846  1.00  0.00     0.000 C 
BRANCH  20  21
ATOM     21  C   UNL     1     -22.524  20.166 -23.400  1.00  0.00     0.000 C 
BRANCH  21  22
ATOM     22  C   UNL     1     -23.699  20.236 -22.406  1.00  0.00    -0.000 C 
BRANCH  22  23
ATOM     23  C   UNL     1     -23.297  20.801 -21.030  1.00  0.00    -0.000 C 
BRANCH  23  24
ATOM     24  C   UNL     1     -24.454  21.564 -20.347  1.00  0.00    -0.000 C 
BRANCH  24  25
ATOM     25  C   UNL     1     -24.484  23.066 -20.685  1.00  0.00    -0.000 C 
BRANCH  25  26
ATOM     26  C   UNL     1     -23.104  23.614 -21.081  1.00  0.00    -0.000 C 
BRANCH  26  27
ATOM     27  C   UNL     1     -23.151  24.454 -22.374  1.00  0.00    -0.000 C 
BRANCH  27  28
ATOM     28  C   UNL     1     -22.242  23.930 -23.502  1.00  0.00    -0.000 C 
BRANCH  28  29
ATOM     29  C   UNL     1     -22.994  23.530 -24.787  1.00  0.00    -0.003 C 
ATOM     30  C   UNL     1     -24.506  23.441 -24.577  1.00  0.00     0.004 C 
ENDBRANCH  28  29
ENDBRANCH  27  28
ENDBRANCH  26  27
ENDBRANCH  25  26
ENDBRANCH  24  25
ENDBRANCH  23  24
ENDBRANCH  22  23
ENDBRANCH  21  22
ENDBRANCH  20  21
ENDBRANCH  19  20
ENDBRANCH  18  19
ENDBRANCH  17  18
ENDBRANCH   1  17
TORSDOF 26
ENDMDL
MODEL 7
REMARK VINA RESULT:    -4.759      3.757      9.381
REMARK INTER + INTRA:         -16.347
REMARK INTER:                 -12.316
REMARK INTRA:                  -4.032
REMARK UNBOUND:                -4.356
REMARK SMILES CCCCCCCCCCCCCCCCCCCCCCCCCCCC(=O)[O-]
REMARK SMILES IDX 15 1 16 2 17 3 18 4 19 5 20 6 21 7 22 8 23 9 24 10 25 11
REMARK SMILES IDX 26 12 27 13 28 14 29 15 30 16 14 17 13 18 12 19 11 20 10 21
REMARK SMILES IDX 9 22 8 23 7 24 6 25 5 26 4 27 3 28 2 29 1 30
REMARK H PARENT
REMARK Flexibility Score: inf
ROOT
ATOM      1  C   UNL     1     -21.460  19.773 -25.214  1.00  0.00     0.000 C 
ENDROOT
BRANCH   1   2
ATOM      2  C   UNL     1     -20.532  18.549 -25.131  1.00  0.00     0.000 C 
BRANCH   2   3
ATOM      3  C   UNL     1     -21.289  17.226 -25.376  1.00  0.00     0.000 C 
BRANCH   3   4
ATOM      4  C   UNL     1     -21.024  16.158 -24.302  1.00  0.00     0.000 C 
BRANCH   4   5
ATOM      5  C   UNL     1     -20.526  16.762 -22.979  1.00  0.00     0.000 C 
BRANCH   5   6
ATOM      6  C   UNL     1     -21.656  17.014 -21.963  1.00  0.00     0.000 C 
BRANCH   6   7
ATOM      7  C   UNL     1     -23.010  16.361 -22.298  1.00  0.00     0.000 C 
BRANCH   7   8
ATOM      8  C   UNL     1     -24.099  16.649 -21.249  1.00  0.00     0.000 C 
BRANCH   8   9
ATOM      9  C   UNL     1     -24.374  15.439 -20.338  1.00  0.00     0.000 C 
BRANCH   9  10
ATOM     10  C   UNL     1     -23.703  14.128 -20.793  1.00  0.00     0.000 C 
BRANCH  10  11
ATOM     11  C   UNL     1     -22.590  13.641 -19.838  1.00  0.00     0.000 C 
BRANCH  11  12
ATOM     12  C   UNL     1     -21.196  13.610 -20.495  1.00  0.00     0.006 C 
BRANCH  12  13
ATOM     13  C   UNL     1     -21.201  13.008 -21.909  1.00  0.00     0.053 C 
BRANCH  13  14
ATOM     14  C   UNL     1     -19.812  12.854 -22.455  1.00  0.00     0.041 C 
ATOM     15  O   UNL     1     -18.843  12.649 -21.680  1.00  0.00    -0.550 OA
ATOM     16  O   UNL     1     -19.588  12.974 -23.821  1.00  0.00    -0.550 OA
ENDBRANCH  13  14
ENDBRANCH  12  13
ENDBRANCH  11  12
ENDBRANCH  10  11
ENDBRANCH   9  10
ENDBRANCH   8   9
ENDBRANCH   7   8
ENDBRANCH   6   7
ENDBRANCH   5   6
ENDBRANCH   4   5
ENDBRANCH   3   4
ENDBRANCH   2   3
ENDBRANCH   1   2
BRANCH   1  17
ATOM     17  C   UNL     1     -22.729  19.607 -24.361  1.00  0.00     0.000 C 
BRANCH  17  18
ATOM     18  C   UNL     1     -22.859  20.701 -23.285  1.00  0.00     0.000 C 
BRANCH  18  19
ATOM     19  C   UNL     1     -23.477  20.179 -21.978  1.00  0.00     0.000 C 
BRANCH  19  20
ATOM     20  C   UNL     1     -24.195  21.284 -21.186  1.00  0.00     0.000 C 
BRANCH  20  21
ATOM     21  C   UNL     1     -23.225  22.228 -20.449  1.00  0.00     0.000 C 
BRANCH  21  22
ATOM     22  C   UNL     1     -23.336  23.718 -20.826  1.00  0.00    -0.000 C 
BRANCH  22  23
ATOM     23  C   UNL     1     -24.129  23.958 -22.124  1.00  0.00    -0.000 C 
BRANCH  23  24
ATOM     24  C   UNL     1     -23.251  24.552 -23.249  1.00  0.00    -0.000 C 
BRANCH  24  25
ATOM     25  C   UNL     1     -21.761  24.659 -22.874  1.00  0.00    -0.000 C 
BRANCH  25  26
ATOM     26  C   UNL     1     -20.832  24.560 -24.094  1.00  0.00    -0.000 C 
BRANCH  26  27
ATOM     27  C   UNL     1     -21.256  23.444 -25.070  1.00  0.00    -0.000 C 
BRANCH  27  28
ATOM     28  C   UNL     1     -21.016  23.778 -26.555  1.00  0.00    -0.000 C 
BRANCH  28  29
ATOM     29  C   UNL     1     -20.004  24.917 -26.793  1.00  0.00    -0.003 C 
ATOM     30  C   UNL     1     -19.160  24.698 -28.048  1.00  0.00     0.004 C 
ENDBRANCH  28  29
ENDBRANCH  27  28
ENDBRANCH  26  27
ENDBRANCH  25  26
ENDBRANCH  24  25
ENDBRANCH  23  24
ENDBRANCH  22  23
ENDBRANCH  21  22
ENDBRANCH  20  21
ENDBRANCH  19  20
ENDBRANCH  18  19
ENDBRANCH  17  18
ENDBRANCH   1  17
TORSDOF 26
ENDMDL
MODEL 8
REMARK VINA RESULT:    -4.728      4.195      9.476
REMARK INTER + INTRA:         -16.271
REMARK INTER:                 -12.225
REMARK INTRA:                  -4.047
REMARK UNBOUND:                -4.356
REMARK SMILES CCCCCCCCCCCCCCCCCCCCCCCCCCCC(=O)[O-]
REMARK SMILES IDX 15 1 16 2 17 3 18 4 19 5 20 6 21 7 22 8 23 9 24 10 25 11
REMARK SMILES IDX 26 12 27 13 28 14 29 15 30 16 14 17 13 18 12 19 11 20 10 21
REMARK SMILES IDX 9 22 8 23 7 24 6 25 5 26 4 27 3 28 2 29 1 30
REMARK H PARENT
REMARK Flexibility Score: inf
ROOT
ATOM      1  C   UNL     1     -20.318  16.708 -22.975  1.00  0.00     0.000 C 
ENDROOT
BRANCH   1   2
ATOM      2  C   UNL     1     -21.370  16.742 -21.853  1.00  0.00     0.000 C 
BRANCH   2   3
ATOM      3  C   UNL     1     -22.697  16.079 -22.279  1.00  0.00     0.000 C 
BRANCH   3   4
ATOM      4  C   UNL     1     -23.938  16.715 -21.630  1.00  0.00     0.000 C 
BRANCH   4   5
ATOM      5  C   UNL     1     -24.758  15.706 -20.808  1.00  0.00     0.000 C 
BRANCH   5   6
ATOM      6  C   UNL     1     -24.083  14.326 -20.694  1.00  0.00     0.000 C 
BRANCH   6   7
ATOM      7  C   UNL     1     -23.947  13.769 -19.265  1.00  0.00     0.000 C 
BRANCH   7   8
ATOM      8  C   UNL     1     -22.601  13.063 -19.015  1.00  0.00     0.000 C 
BRANCH   8   9
ATOM      9  C   UNL     1     -21.449  13.692 -19.820  1.00  0.00     0.000 C 
BRANCH   9  10
ATOM     10  C   UNL     1     -20.344  12.702 -20.238  1.00  0.00     0.000 C 
BRANCH  10  11
ATOM     11  C   UNL     1     -19.700  13.037 -21.602  1.00  0.00     0.000 C 
BRANCH  11  12
ATOM     12  C   UNL     1     -20.679  12.905 -22.785  1.00  0.00     0.006 C 
BRANCH  12  13
ATOM     13  C   UNL     1     -20.693  11.501 -23.412  1.00  0.00     0.053 C 
BRANCH  13  14
ATOM     14  C   UNL     1     -22.011  10.814 -23.211  1.00  0.00     0.041 C 
ATOM     15  O   UNL     1     -22.456  10.022 -24.081  1.00  0.00    -0.550 OA
ATOM     16  O   UNL     1     -22.764  11.078 -22.073  1.00  0.00    -0.550 OA
ENDBRANCH  13  14
ENDBRANCH  12  13
ENDBRANCH  11  12
ENDBRANCH  10  11
ENDBRANCH   9  10
ENDBRANCH   8   9
ENDBRANCH   7   8
ENDBRANCH   6   7
ENDBRANCH   5   6
ENDBRANCH   4   5
ENDBRANCH   3   4
ENDBRANCH   2   3
ENDBRANCH   1   2
BRANCH   1  17
ATOM     17  C   UNL     1     -20.918  17.036 -24.353  1.00  0.00     0.000 C 
BRANCH  17  18
ATOM     18  C   UNL     1     -20.288  18.291 -24.983  1.00  0.00     0.000 C 
BRANCH  18  19
ATOM     19  C   UNL     1     -21.313  19.407 -25.241  1.00  0.00     0.000 C 
BRANCH  19  20
ATOM     20  C   UNL     1     -22.600  19.224 -24.420  1.00  0.00     0.000 C 
BRANCH  20  21
ATOM     21  C   UNL     1     -22.861  20.383 -23.439  1.00  0.00     0.000 C 
BRANCH  21  22
ATOM     22  C   UNL     1     -22.903  19.992 -21.949  1.00  0.00    -0.000 C 
BRANCH  22  23
ATOM     23  C   UNL     1     -23.906  20.826 -21.131  1.00  0.00    -0.000 C 
BRANCH  23  24
ATOM     24  C   UNL     1     -23.260  22.088 -20.516  1.00  0.00    -0.000 C 
BRANCH  24  25
ATOM     25  C   UNL     1     -23.748  23.402 -21.154  1.00  0.00    -0.000 C 
BRANCH  25  26
ATOM     26  C   UNL     1     -22.664  24.491 -21.175  1.00  0.00    -0.000 C 
BRANCH  26  27
ATOM     27  C   UNL     1     -22.195  24.830 -22.605  1.00  0.00    -0.000 C 
BRANCH  27  28
ATOM     28  C   UNL     1     -22.971  24.096 -23.715  1.00  0.00    -0.000 C 
BRANCH  28  29
ATOM     29  C   UNL     1     -22.243  24.052 -25.074  1.00  0.00    -0.003 C 
ATOM     30  C   UNL     1     -21.018  23.137 -25.053  1.00  0.00     0.004 C 
ENDBRANCH  28  29
ENDBRANCH  27  28
ENDBRANCH  26  27
ENDBRANCH  25  26
ENDBRANCH  24  25
ENDBRANCH  23  24
ENDBRANCH  22  23
ENDBRANCH  21  22
ENDBRANCH  20  21
ENDBRANCH  19  20
ENDBRANCH  18  19
ENDBRANCH  17  18
ENDBRANCH   1  17
TORSDOF 26
ENDMDL
MODEL 9
REMARK VINA RESULT:    -4.724      1.431      3.746
REMARK INTER + INTRA:         -16.261
REMARK INTER:                 -11.994
REMARK INTRA:                  -4.266
REMARK UNBOUND:                -4.356
REMARK SMILES CCCCCCCCCCCCCCCCCCCCCCCCCCCC(=O)[O-]
REMARK SMILES IDX 15 1 16 2 17 3 18 4 19 5 20 6 21 7 22 8 23 9 24 10 25 11
REMARK SMILES IDX 26 12 27 13 28 14 29 15 30 16 14 17 13 18 12 19 11 20 10 21
REMARK SMILES IDX 9 22 8 23 7 24 6 25 5 26 4 27 3 28 2 29 1 30
REMARK H PARENT
REMARK Flexibility Score: inf
ROOT
ATOM      1  C   UNL     1     -20.445  16.311 -22.481  1.00  0.00     0.000 C 
ENDROOT
BRANCH   1   2
ATOM      2  C   UNL     1     -20.767  16.273 -23.985  1.00  0.00     0.000 C 
BRANCH   2   3
ATOM      3  C   UNL     1     -20.689  17.672 -24.632  1.00  0.00     0.000 C 
BRANCH   3   4
ATOM      4  C   UNL     1     -21.858  17.975 -25.584  1.00  0.00     0.000 C 
BRANCH   4   5
ATOM      5  C   UNL     1     -22.988  18.763 -24.901  1.00  0.00     0.000 C 
BRANCH   5   6
ATOM      6  C   UNL     1     -22.500  19.614 -23.713  1.00  0.00     0.000 C 
BRANCH   6   7
ATOM      7  C   UNL     1     -23.534  19.851 -22.596  1.00  0.00     0.000 C 
BRANCH   7   8
ATOM      8  C   UNL     1     -22.893  20.236 -21.249  1.00  0.00     0.000 C 
BRANCH   8   9
ATOM      9  C   UNL     1     -23.350  21.621 -20.755  1.00  0.00     0.000 C 
BRANCH   9  10
ATOM     10  C   UNL     1     -24.133  22.446 -21.795  1.00  0.00     0.000 C 
BRANCH  10  11
ATOM     11  C   UNL     1     -23.287  23.549 -22.472  1.00  0.00     0.000 C 
BRANCH  11  12
ATOM     12  C   UNL     1     -23.281  23.451 -24.010  1.00  0.00     0.006 C 
BRANCH  12  13
ATOM     13  C   UNL     1     -22.229  24.354 -24.674  1.00  0.00     0.053 C 
BRANCH  13  14
ATOM     14  C   UNL     1     -21.163  23.554 -25.364  1.00  0.00     0.041 C 
ATOM     15  O   UNL     1     -21.329  22.327 -25.582  1.00  0.00    -0.550 OA
ATOM     16  O   UNL     1     -19.970  24.164 -25.734  1.00  0.00    -0.550 OA
ENDBRANCH  13  14
ENDBRANCH  12  13
ENDBRANCH  11  12
ENDBRANCH  10  11
ENDBRANCH   9  10
ENDBRANCH   8   9
ENDBRANCH   7   8
ENDBRANCH   6   7
ENDBRANCH   5   6
ENDBRANCH   4   5
ENDBRANCH   3   4
ENDBRANCH   2   3
ENDBRANCH   1   2
BRANCH   1  17
ATOM     17  C   UNL     1     -21.654  16.741 -21.631  1.00  0.00     0.000 C 
BRANCH  17  18
ATOM     18  C   UNL     1     -22.949  16.021 -22.049  1.00  0.00     0.000 C 
BRANCH  18  19
ATOM     19  C   UNL     1     -24.215  16.733 -21.545  1.00  0.00     0.000 C 
BRANCH  19  20
ATOM     20  C   UNL     1     -24.984  15.899 -20.508  1.00  0.00     0.000 C 
BRANCH  20  21
ATOM     21  C   UNL     1     -24.650  14.396 -20.572  1.00  0.00     0.000 C 
BRANCH  21  22
ATOM     22  C   UNL     1     -23.941  13.821 -19.331  1.00  0.00    -0.000 C 
BRANCH  22  23
ATOM     23  C   UNL     1     -22.787  12.864 -19.681  1.00  0.00    -0.000 C 
BRANCH  23  24
ATOM     24  C   UNL     1     -21.422  13.587 -19.748  1.00  0.00    -0.000 C 
BRANCH  24  25
ATOM     25  C   UNL     1     -20.488  13.035 -20.841  1.00  0.00    -0.000 C 
BRANCH  25  26
ATOM     26  C   UNL     1     -21.241  12.630 -22.118  1.00  0.00    -0.000 C 
BRANCH  26  27
ATOM     27  C   UNL     1     -20.340  11.888 -23.125  1.00  0.00    -0.000 C 
BRANCH  27  28
ATOM     28  C   UNL     1     -19.593  12.813 -24.106  1.00  0.00    -0.000 C 
BRANCH  28  29
ATOM     29  C   UNL     1     -20.198  12.854 -25.524  1.00  0.00    -0.003 C 
ATOM     30  C   UNL     1     -20.946  11.568 -25.878  1.00  0.00     0.004 C 
ENDBRANCH  28  29
ENDBRANCH  27  28
ENDBRANCH  26  27
ENDBRANCH  25  26
ENDBRANCH  24  25
ENDBRANCH  23  24
ENDBRANCH  22  23
ENDBRANCH  21  22
ENDBRANCH  20  21
ENDBRANCH  19  20
ENDBRANCH  18  19
ENDBRANCH  17  18
ENDBRANCH   1  17
TORSDOF 26
ENDMDL
