MODEL 1
REMARK VINA RESULT:    -4.708      0.000      0.000
REMARK INTER + INTRA:          -4.983
REMARK INTER:                  -4.983
REMARK INTRA:                   0.000
REMARK UNBOUND:                 0.000
REMARK SMILES O=c1ccc2cc(O)c(O)cc2o1
REMARK SMILES IDX 4 1 3 2 2 3 1 4 13 5 12 6 11 7 9 8 7 9 6 10 5 11 8 12 10 14
REMARK H PARENT 8 13 10 15
REMARK Flexibility Score: inf
ROOT
ATOM      1  C   UNL     1      72.040  39.420  21.502  1.00  0.00     0.019 A 
ATOM      2  C   UNL     1      72.065  38.420  20.531  1.00  0.00     0.094 A 
ATOM      3  C   UNL     1      73.218  38.256  19.756  1.00  0.00     0.336 A 
ATOM      4  O   UNL     1      73.261  37.357  18.875  1.00  0.00    -0.246 OA
ATOM      5  O   UNL     1      74.274  39.044  19.944  1.00  0.00    -0.423 OA
ATOM      6  C   UNL     1      74.291  40.011  20.858  1.00  0.00     0.142 A 
ATOM      7  C   UNL     1      75.429  40.809  21.011  1.00  0.00     0.098 A 
ATOM      8  C   UNL     1      75.455  41.828  21.971  1.00  0.00     0.161 A 
ATOM      9  C   UNL     1      74.331  42.053  22.788  1.00  0.00     0.158 A 
ATOM     10  C   UNL     1      73.188  41.254  22.638  1.00  0.00     0.062 A 
ATOM     11  C   UNL     1      73.164  40.234  21.677  1.00  0.00     0.022 A 
ENDROOT
BRANCH   9  12
ATOM     12  O   UNL     1      74.356  43.066  23.743  1.00  0.00    -0.504 OA
ATOM     13  H   UNL     1      75.100  43.133  24.428  1.00  0.00     0.293 HD
ENDBRANCH   9  12
BRANCH   8  14
ATOM     14  O   UNL     1      76.605  42.607  22.098  1.00  0.00    -0.504 OA
ATOM     15  H   UNL     1      77.030  42.796  22.998  1.00  0.00     0.293 HD
ENDBRANCH   8  14
TORSDOF 2
ENDMDL
MODEL 2
REMARK VINA RESULT:    -4.703      1.160      2.269
REMARK INTER + INTRA:          -4.978
REMARK INTER:                  -4.978
REMARK INTRA:                   0.000
REMARK UNBOUND:                 0.000
REMARK SMILES O=c1ccc2cc(O)c(O)cc2o1
REMARK SMILES IDX 4 1 3 2 2 3 1 4 13 5 12 6 11 7 9 8 7 9 6 10 5 11 8 12 10 14
REMARK H PARENT 8 13 10 15
REMARK Flexibility Score: inf
ROOT
ATOM      1  C   UNL     1      74.281  39.078  19.907  1.00  0.00     0.019 A 
ATOM      2  C   UNL     1      73.134  38.292  19.801  1.00  0.00     0.094 A 
ATOM      3  C   UNL     1      72.060  38.539  20.662  1.00  0.00     0.336 A 
ATOM      4  O   UNL     1      71.015  37.840  20.581  1.00  0.00    -0.246 OA
ATOM      5  O   UNL     1      72.133  39.510  21.569  1.00  0.00    -0.423 OA
ATOM      6  C   UNL     1      73.209  40.282  21.704  1.00  0.00     0.142 A 
ATOM      7  C   UNL     1      73.229  41.288  22.676  1.00  0.00     0.098 A 
ATOM      8  C   UNL     1      74.356  42.105  22.825  1.00  0.00     0.161 A 
ATOM      9  C   UNL     1      75.476  41.916  21.994  1.00  0.00     0.158 A 
ATOM     10  C   UNL     1      75.459  40.909  21.017  1.00  0.00     0.062 A 
ATOM     11  C   UNL     1      74.330  40.092  20.870  1.00  0.00     0.022 A 
ENDROOT
BRANCH   9  12
ATOM     12  O   UNL     1      76.598  42.728  22.141  1.00  0.00    -0.504 OA
ATOM     13  H   UNL     1      76.640  43.656  21.735  1.00  0.00     0.293 HD
ENDBRANCH   9  12
BRANCH   8  14
ATOM     14  O   UNL     1      74.346  43.099  23.803  1.00  0.00    -0.504 OA
ATOM     15  H   UNL     1      74.124  44.063  23.588  1.00  0.00     0.293 HD
ENDBRANCH   8  14
TORSDOF 2
ENDMDL
MODEL 3
REMARK VINA RESULT:    -4.244      1.781      2.130
REMARK INTER + INTRA:          -4.492
REMARK INTER:                  -4.492
REMARK INTRA:                   0.000
REMARK UNBOUND:                 0.000
REMARK SMILES O=c1ccc2cc(O)c(O)cc2o1
REMARK SMILES IDX 4 1 3 2 2 3 1 4 13 5 12 6 11 7 9 8 7 9 6 10 5 11 8 12 10 14
REMARK H PARENT 8 13 10 15
REMARK Flexibility Score: inf
ROOT
ATOM      1  C   UNL     1      72.054  41.367  19.479  1.00  0.00     0.019 A 
ATOM      2  C   UNL     1      71.439  40.271  18.875  1.00  0.00     0.094 A 
ATOM      3  C   UNL     1      71.546  39.015  19.482  1.00  0.00     0.336 A 
ATOM      4  O   UNL     1      70.997  38.013  18.953  1.00  0.00    -0.246 OA
ATOM      5  O   UNL     1      72.224  38.870  20.617  1.00  0.00    -0.423 OA
ATOM      6  C   UNL     1      72.826  39.890  21.225  1.00  0.00     0.142 A 
ATOM      7  C   UNL     1      73.526  39.678  22.418  1.00  0.00     0.098 A 
ATOM      8  C   UNL     1      74.162  40.745  23.064  1.00  0.00     0.161 A 
ATOM      9  C   UNL     1      74.098  42.038  22.513  1.00  0.00     0.158 A 
ATOM     10  C   UNL     1      73.397  42.255  21.318  1.00  0.00     0.062 A 
ATOM     11  C   UNL     1      72.761  41.186  20.672  1.00  0.00     0.022 A 
ENDROOT
BRANCH   9  12
ATOM     12  O   UNL     1      74.731  43.101  23.155  1.00  0.00    -0.504 OA
ATOM     13  H   UNL     1      74.363  43.500  24.012  1.00  0.00     0.293 HD
ENDBRANCH   9  12
BRANCH   8  14
ATOM     14  O   UNL     1      74.851  40.502  24.251  1.00  0.00    -0.504 OA
ATOM     15  H   UNL     1      75.836  40.714  24.355  1.00  0.00     0.293 HD
ENDBRANCH   8  14
TORSDOF 2
ENDMDL
MODEL 4
REMARK VINA RESULT:    -4.142      2.085      3.797
REMARK INTER + INTRA:          -4.384
REMARK INTER:                  -4.384
REMARK INTRA:                   0.000
REMARK UNBOUND:                 0.000
REMARK SMILES O=c1ccc2cc(O)c(O)cc2o1
REMARK SMILES IDX 4 1 3 2 2 3 1 4 13 5 12 6 11 7 9 8 7 9 6 10 5 11 8 12 10 14
REMARK H PARENT 8 13 10 15
REMARK Flexibility Score: inf
ROOT
ATOM      1  C   UNL     1      73.009  42.951  22.978  1.00  0.00     0.019 A 
ATOM      2  C   UNL     1      71.734  42.603  23.425  1.00  0.00     0.094 A 
ATOM      3  C   UNL     1      71.200  41.366  23.052  1.00  0.00     0.336 A 
ATOM      4  O   UNL     1      70.051  41.032  23.446  1.00  0.00    -0.246 OA
ATOM      5  O   UNL     1      71.898  40.535  22.282  1.00  0.00    -0.423 OA
ATOM      6  C   UNL     1      73.116  40.829  21.833  1.00  0.00     0.142 A 
ATOM      7  C   UNL     1      73.802  39.916  21.026  1.00  0.00     0.098 A 
ATOM      8  C   UNL     1      75.085  40.218  20.550  1.00  0.00     0.161 A 
ATOM      9  C   UNL     1      75.687  41.445  20.884  1.00  0.00     0.158 A 
ATOM     10  C   UNL     1      75.002  42.363  21.694  1.00  0.00     0.062 A 
ATOM     11  C   UNL     1      73.720  42.059  22.169  1.00  0.00     0.022 A 
ENDROOT
BRANCH   9  12
ATOM     12  O   UNL     1      76.963  41.746  20.411  1.00  0.00    -0.504 OA
ATOM     13  H   UNL     1      77.664  42.171  21.007  1.00  0.00     0.293 HD
ENDBRANCH   9  12
BRANCH   8  14
ATOM     14  O   UNL     1      75.743  39.288  19.747  1.00  0.00    -0.504 OA
ATOM     15  H   UNL     1      75.441  39.082  18.803  1.00  0.00     0.293 HD
ENDBRANCH   8  14
TORSDOF 2
ENDMDL
MODEL 5
REMARK VINA RESULT:    -4.113      1.616      3.855
REMARK INTER + INTRA:          -4.353
REMARK INTER:                  -4.353
REMARK INTRA:                   0.000
REMARK UNBOUND:                 0.000
REMARK SMILES O=c1ccc2cc(O)c(O)cc2o1
REMARK SMILES IDX 4 1 3 2 2 3 1 4 13 5 12 6 11 7 9 8 7 9 6 10 5 11 8 12 10 14
REMARK H PARENT 8 13 10 15
REMARK Flexibility Score: inf
ROOT
ATOM      1  C   UNL     1      71.771  40.241  21.814  1.00  0.00     0.019 A 
ATOM      2  C   UNL     1      71.061  41.063  22.688  1.00  0.00     0.094 A 
ATOM      3  C   UNL     1      71.674  42.219  23.181  1.00  0.00     0.336 A 
ATOM      4  O   UNL     1      71.049  42.975  23.971  1.00  0.00    -0.246 OA
ATOM      5  O   UNL     1      72.918  42.528  22.821  1.00  0.00    -0.423 OA
ATOM      6  C   UNL     1      73.630  41.771  21.990  1.00  0.00     0.142 A 
ATOM      7  C   UNL     1      74.933  42.146  21.647  1.00  0.00     0.098 A 
ATOM      8  C   UNL     1      75.690  41.355  20.773  1.00  0.00     0.161 A 
ATOM      9  C   UNL     1      75.139  40.176  20.236  1.00  0.00     0.158 A 
ATOM     10  C   UNL     1      73.832  39.797  20.578  1.00  0.00     0.062 A 
ATOM     11  C   UNL     1      73.076  40.590  21.452  1.00  0.00     0.022 A 
ENDROOT
BRANCH   9  12
ATOM     12  O   UNL     1      75.890  39.389  19.367  1.00  0.00    -0.504 OA
ATOM     13  H   UNL     1      75.952  39.599  18.378  1.00  0.00     0.293 HD
ENDBRANCH   9  12
BRANCH   8  14
ATOM     14  O   UNL     1      76.986  41.755  20.450  1.00  0.00    -0.504 OA
ATOM     15  H   UNL     1      77.477  42.466  20.978  1.00  0.00     0.293 HD
ENDBRANCH   8  14
TORSDOF 2
ENDMDL
MODEL 6
REMARK VINA RESULT:    -4.058      1.687      4.740
REMARK INTER + INTRA:          -4.295
REMARK INTER:                  -4.295
REMARK INTRA:                   0.000
REMARK UNBOUND:                 0.000
REMARK SMILES O=c1ccc2cc(O)c(O)cc2o1
REMARK SMILES IDX 4 1 3 2 2 3 1 4 13 5 12 6 11 7 9 8 7 9 6 10 5 11 8 12 10 14
REMARK H PARENT 8 13 10 15
REMARK Flexibility Score: inf
ROOT
ATOM      1  C   UNL     1      73.031  42.303  20.832  1.00  0.00     0.019 A 
ATOM      2  C   UNL     1      74.117  42.763  21.574  1.00  0.00     0.094 A 
ATOM      3  C   UNL     1      74.962  41.832  22.188  1.00  0.00     0.336 A 
ATOM      4  O   UNL     1      75.950  42.228  22.861  1.00  0.00    -0.246 OA
ATOM      5  O   UNL     1      74.730  40.528  22.064  1.00  0.00    -0.423 OA
ATOM      6  C   UNL     1      73.704  40.047  21.366  1.00  0.00     0.142 A 
ATOM      7  C   UNL     1      73.510  38.665  21.271  1.00  0.00     0.098 A 
ATOM      8  C   UNL     1      72.433  38.151  20.538  1.00  0.00     0.161 A 
ATOM      9  C   UNL     1      71.540  39.027  19.893  1.00  0.00     0.158 A 
ATOM     10  C   UNL     1      71.732  40.414  19.985  1.00  0.00     0.062 A 
ATOM     11  C   UNL     1      72.810  40.926  20.719  1.00  0.00     0.022 A 
ENDROOT
BRANCH   9  12
ATOM     12  O   UNL     1      70.468  38.517  19.164  1.00  0.00    -0.504 OA
ATOM     13  H   UNL     1      70.261  38.842  18.226  1.00  0.00     0.293 HD
ENDBRANCH   9  12
BRANCH   8  14
ATOM     14  O   UNL     1      72.266  36.769  20.463  1.00  0.00    -0.504 OA
ATOM     15  H   UNL     1      71.459  36.348  20.018  1.00  0.00     0.293 HD
ENDBRANCH   8  14
TORSDOF 2
ENDMDL
