MODEL 1
REMARK VINA RESULT:    -5.152      0.000      0.000
REMARK INTER + INTRA:         -12.453
REMARK INTER:                  -9.972
REMARK INTRA:                  -2.482
REMARK UNBOUND:                -2.482
REMARK SMILES CCCCCCCCCCCCCCCCCC(=O)[O-]
REMARK SMILES IDX 10 1 11 2 12 3 13 4 14 5 15 6 16 7 17 8 18 9 19 10 20 11
REMARK SMILES IDX 9 12 8 13 7 14 6 15 5 16 4 17 3 18 2 19 1 20
REMARK H PARENT
REMARK Flexibility Score: inf
ROOT
ATOM      1  C   UNL     1       4.862   7.282   9.822  1.00  0.00     0.000 C 
ENDROOT
BRANCH   1   2
ATOM      2  C   UNL     1       4.389   8.680   9.386  1.00  0.00     0.000 C 
BRANCH   2   3
ATOM      3  C   UNL     1       5.541   9.693   9.278  1.00  0.00     0.000 C 
BRANCH   3   4
ATOM      4  C   UNL     1       6.324   9.837  10.594  1.00  0.00     0.000 C 
BRANCH   4   5
ATOM      5  C   UNL     1       7.831   9.578  10.417  1.00  0.00     0.000 C 
BRANCH   5   6
ATOM      6  C   UNL     1       8.416   8.711  11.543  1.00  0.00     0.000 C 
BRANCH   6   7
ATOM      7  C   UNL     1       7.871   7.274  11.527  1.00  0.00     0.006 C 
BRANCH   7   8
ATOM      8  C   UNL     1       9.009   6.261  11.376  1.00  0.00     0.053 C 
BRANCH   8   9
ATOM      9  C   UNL     1       9.073   5.747   9.973  1.00  0.00     0.041 C 
ATOM     10  O   UNL     1      10.177   5.697   9.367  1.00  0.00    -0.550 OA
ATOM     11  O   UNL     1       7.921   5.290   9.345  1.00  0.00    -0.550 OA
ENDBRANCH   8   9
ENDBRANCH   7   8
ENDBRANCH   6   7
ENDBRANCH   5   6
ENDBRANCH   4   5
ENDBRANCH   3   4
ENDBRANCH   2   3
ENDBRANCH   1   2
BRANCH   1  12
ATOM     12  C   UNL     1       4.204   6.738  11.107  1.00  0.00     0.000 C 
BRANCH  12  13
ATOM     13  C   UNL     1       2.874   7.413  11.495  1.00  0.00    -0.000 C 
BRANCH  13  14
ATOM     14  C   UNL     1       2.812   7.939  12.943  1.00  0.00    -0.000 C 
BRANCH  14  15
ATOM     15  C   UNL     1       3.983   8.853  13.357  1.00  0.00    -0.000 C 
BRANCH  15  16
ATOM     16  C   UNL     1       4.835   8.327  14.525  1.00  0.00    -0.000 C 
BRANCH  16  17
ATOM     17  C   UNL     1       4.160   7.176  15.286  1.00  0.00    -0.000 C 
BRANCH  17  18
ATOM     18  C   UNL     1       5.138   6.010  15.493  1.00  0.00    -0.000 C 
BRANCH  18  19
ATOM     19  C   UNL     1       6.191   5.917  14.378  1.00  0.00    -0.003 C 
ATOM     20  C   UNL     1       7.623   5.993  14.908  1.00  0.00     0.004 C 
ENDBRANCH  18  19
ENDBRANCH  17  18
ENDBRANCH  16  17
ENDBRANCH  15  16
ENDBRANCH  14  15
ENDBRANCH  13  14
ENDBRANCH  12  13
ENDBRANCH   1  12
TORSDOF 16
ENDMDL
MODEL 2
REMARK VINA RESULT:    -5.093      2.115      4.896
REMARK INTER + INTRA:         -12.338
REMARK INTER:                  -9.852
REMARK INTRA:                  -2.486
REMARK UNBOUND:                -2.482
REMARK SMILES CCCCCCCCCCCCCCCCCC(=O)[O-]
REMARK SMILES IDX 10 1 11 2 12 3 13 4 14 5 15 6 16 7 17 8 18 9 19 10 20 11
REMARK SMILES IDX 9 12 8 13 7 14 6 15 5 16 4 17 3 18 2 19 1 20
REMARK H PARENT
REMARK Flexibility Score: inf
ROOT
ATOM      1  C   UNL     1       4.339   7.160  10.316  1.00  0.00     0.000 C 
ENDROOT
BRANCH   1   2
ATOM      2  C   UNL     1       2.919   6.726  10.726  1.00  0.00     0.000 C 
BRANCH   2   3
ATOM      3  C   UNL     1       2.068   7.894  11.252  1.00  0.00     0.000 C 
BRANCH   3   4
ATOM      4  C   UNL     1       1.947   7.890  12.785  1.00  0.00     0.000 C 
BRANCH   4   5
ATOM      5  C   UNL     1       2.848   8.945  13.452  1.00  0.00     0.000 C 
BRANCH   5   6
ATOM      6  C   UNL     1       3.943   8.316  14.327  1.00  0.00     0.000 C 
BRANCH   6   7
ATOM      7  C   UNL     1       5.172   7.879  13.513  1.00  0.00     0.006 C 
BRANCH   7   8
ATOM      8  C   UNL     1       5.505   6.407  13.776  1.00  0.00     0.053 C 
BRANCH   8   9
ATOM      9  C   UNL     1       6.517   6.284  14.870  1.00  0.00     0.041 C 
ATOM     10  O   UNL     1       6.157   6.357  16.075  1.00  0.00    -0.550 OA
ATOM     11  O   UNL     1       7.852   6.052  14.562  1.00  0.00    -0.550 OA
ENDBRANCH   8   9
ENDBRANCH   7   8
ENDBRANCH   6   7
ENDBRANCH   5   6
ENDBRANCH   4   5
ENDBRANCH   3   4
ENDBRANCH   2   3
ENDBRANCH   1   2
BRANCH   1  12
ATOM     12  C   UNL     1       4.403   8.297   9.276  1.00  0.00     0.000 C 
BRANCH  12  13
ATOM     13  C   UNL     1       5.052   9.602   9.775  1.00  0.00    -0.000 C 
BRANCH  13  14
ATOM     14  C   UNL     1       6.295  10.053   8.983  1.00  0.00    -0.000 C 
BRANCH  14  15
ATOM     15  C   UNL     1       7.648   9.669   9.616  1.00  0.00    -0.000 C 
BRANCH  15  16
ATOM     16  C   UNL     1       7.661   9.638  11.155  1.00  0.00    -0.000 C 
BRANCH  16  17
ATOM     17  C   UNL     1       8.368   8.397  11.721  1.00  0.00    -0.000 C 
BRANCH  17  18
ATOM     18  C   UNL     1       7.964   7.135  10.944  1.00  0.00    -0.000 C 
BRANCH  18  19
ATOM     19  C   UNL     1       9.014   6.018  11.045  1.00  0.00    -0.003 C 
ATOM     20  C   UNL     1       9.635   5.666   9.693  1.00  0.00     0.004 C 
ENDBRANCH  18  19
ENDBRANCH  17  18
ENDBRANCH  16  17
ENDBRANCH  15  16
ENDBRANCH  14  15
ENDBRANCH  13  14
ENDBRANCH  12  13
ENDBRANCH   1  12
TORSDOF 16
ENDMDL
MODEL 3
REMARK VINA RESULT:    -5.061      3.417      6.397
REMARK INTER + INTRA:         -12.277
REMARK INTER:                 -10.021
REMARK INTRA:                  -2.256
REMARK UNBOUND:                -2.482
REMARK SMILES CCCCCCCCCCCCCCCCCC(=O)[O-]
REMARK SMILES IDX 10 1 11 2 12 3 13 4 14 5 15 6 16 7 17 8 18 9 19 10 20 11
REMARK SMILES IDX 9 12 8 13 7 14 6 15 5 16 4 17 3 18 2 19 1 20
REMARK H PARENT
REMARK Flexibility Score: inf
ROOT
ATOM      1  C   UNL     1       4.496   7.952  13.169  1.00  0.00     0.000 C 
ENDROOT
BRANCH   1   2
ATOM      2  C   UNL     1       5.296   6.637  13.184  1.00  0.00     0.000 C 
BRANCH   2   3
ATOM      3  C   UNL     1       6.544   6.709  14.080  1.00  0.00     0.000 C 
BRANCH   3   4
ATOM      4  C   UNL     1       6.214   6.488  15.566  1.00  0.00     0.000 C 
BRANCH   4   5
ATOM      5  C   UNL     1       5.032   5.526  15.774  1.00  0.00     0.000 C 
BRANCH   5   6
ATOM      6  C   UNL     1       4.454   5.600  17.196  1.00  0.00     0.000 C 
BRANCH   6   7
ATOM      7  C   UNL     1       2.973   6.012  17.212  1.00  0.00     0.006 C 
BRANCH   7   8
ATOM      8  C   UNL     1       2.755   7.297  16.408  1.00  0.00     0.053 C 
BRANCH   8   9
ATOM      9  C   UNL     1       3.263   8.483  17.163  1.00  0.00     0.041 C 
ATOM     10  O   UNL     1       2.744   8.801  18.266  1.00  0.00    -0.550 OA
ATOM     11  O   UNL     1       4.334   9.217  16.668  1.00  0.00    -0.550 OA
ENDBRANCH   8   9
ENDBRANCH   7   8
ENDBRANCH   6   7
ENDBRANCH   5   6
ENDBRANCH   4   5
ENDBRANCH   3   4
ENDBRANCH   2   3
ENDBRANCH   1   2
BRANCH   1  12
ATOM     12  C   UNL     1       3.110   7.868  12.496  1.00  0.00     0.000 C 
BRANCH  12  13
ATOM     13  C   UNL     1       3.070   7.065  11.181  1.00  0.00    -0.000 C 
BRANCH  13  14
ATOM     14  C   UNL     1       3.482   7.858   9.925  1.00  0.00    -0.000 C 
BRANCH  14  15
ATOM     15  C   UNL     1       4.951   7.677   9.491  1.00  0.00    -0.000 C 
BRANCH  15  16
ATOM     16  C   UNL     1       5.855   8.899   9.734  1.00  0.00    -0.000 C 
BRANCH  16  17
ATOM     17  C   UNL     1       7.139   8.547  10.502  1.00  0.00    -0.000 C 
BRANCH  17  18
ATOM     18  C   UNL     1       7.422   7.039  10.433  1.00  0.00    -0.000 C 
BRANCH  18  19
ATOM     19  C   UNL     1       8.822   6.677  10.955  1.00  0.00    -0.003 C 
ATOM     20  C   UNL     1       9.415   5.453  10.257  1.00  0.00     0.004 C 
ENDBRANCH  18  19
ENDBRANCH  17  18
ENDBRANCH  16  17
ENDBRANCH  15  16
ENDBRANCH  14  15
ENDBRANCH  13  14
ENDBRANCH  12  13
ENDBRANCH   1  12
TORSDOF 16
ENDMDL
MODEL 4
REMARK VINA RESULT:    -5.004      2.959      5.378
REMARK INTER + INTRA:         -12.167
REMARK INTER:                  -9.631
REMARK INTRA:                  -2.536
REMARK UNBOUND:                -2.482
REMARK SMILES CCCCCCCCCCCCCCCCCC(=O)[O-]
REMARK SMILES IDX 10 1 11 2 12 3 13 4 14 5 15 6 16 7 17 8 18 9 19 10 20 11
REMARK SMILES IDX 9 12 8 13 7 14 6 15 5 16 4 17 3 18 2 19 1 20
REMARK H PARENT
REMARK Flexibility Score: inf
ROOT
ATOM      1  C   UNL     1       5.017   7.115  10.003  1.00  0.00     0.000 C 
ENDROOT
BRANCH   1   2
ATOM      2  C   UNL     1       4.248   6.716  11.276  1.00  0.00     0.000 C 
BRANCH   2   3
ATOM      3  C   UNL     1       2.925   7.483  11.439  1.00  0.00     0.000 C 
BRANCH   3   4
ATOM      4  C   UNL     1       2.850   8.251  12.768  1.00  0.00     0.000 C 
BRANCH   4   5
ATOM      5  C   UNL     1       3.994   7.884  13.730  1.00  0.00     0.000 C 
BRANCH   5   6
ATOM      6  C   UNL     1       4.118   8.870  14.902  1.00  0.00     0.000 C 
BRANCH   6   7
ATOM      7  C   UNL     1       4.287   8.161  16.256  1.00  0.00     0.006 C 
BRANCH   7   8
ATOM      8  C   UNL     1       3.529   6.831  16.274  1.00  0.00     0.053 C 
BRANCH   8   9
ATOM      9  C   UNL     1       4.363   5.758  16.897  1.00  0.00     0.041 C 
ATOM     10  O   UNL     1       4.006   4.553  16.818  1.00  0.00    -0.550 OA
ATOM     11  O   UNL     1       5.554   6.084  17.535  1.00  0.00    -0.550 OA
ENDBRANCH   8   9
ENDBRANCH   7   8
ENDBRANCH   6   7
ENDBRANCH   5   6
ENDBRANCH   4   5
ENDBRANCH   3   4
ENDBRANCH   2   3
ENDBRANCH   1   2
BRANCH   1  12
ATOM     12  C   UNL     1       4.434   8.319   9.235  1.00  0.00     0.000 C 
BRANCH  12  13
ATOM     13  C   UNL     1       5.332   9.572   9.208  1.00  0.00    -0.000 C 
BRANCH  13  14
ATOM     14  C   UNL     1       6.064   9.873  10.531  1.00  0.00    -0.000 C 
BRANCH  14  15
ATOM     15  C   UNL     1       7.604   9.830  10.451  1.00  0.00    -0.000 C 
BRANCH  15  16
ATOM     16  C   UNL     1       8.284   8.924  11.492  1.00  0.00    -0.000 C 
BRANCH  16  17
ATOM     17  C   UNL     1       8.481   7.484  10.994  1.00  0.00    -0.000 C 
BRANCH  17  18
ATOM     18  C   UNL     1       8.069   6.471  12.072  1.00  0.00    -0.000 C 
BRANCH  18  19
ATOM     19  C   UNL     1       7.445   7.143  13.305  1.00  0.00    -0.003 C 
ATOM     20  C   UNL     1       7.396   6.219  14.522  1.00  0.00     0.004 C 
ENDBRANCH  18  19
ENDBRANCH  17  18
ENDBRANCH  16  17
ENDBRANCH  15  16
ENDBRANCH  14  15
ENDBRANCH  13  14
ENDBRANCH  12  13
ENDBRANCH   1  12
TORSDOF 16
ENDMDL
MODEL 5
REMARK VINA RESULT:    -4.985      1.370      2.300
REMARK INTER + INTRA:         -12.130
REMARK INTER:                  -9.939
REMARK INTRA:                  -2.190
REMARK UNBOUND:                -2.482
REMARK SMILES CCCCCCCCCCCCCCCCCC(=O)[O-]
REMARK SMILES IDX 10 1 11 2 12 3 13 4 14 5 15 6 16 7 17 8 18 9 19 10 20 11
REMARK SMILES IDX 9 12 8 13 7 14 6 15 5 16 4 17 3 18 2 19 1 20
REMARK H PARENT
REMARK Flexibility Score: inf
ROOT
ATOM      1  C   UNL     1       4.384   7.136  10.182  1.00  0.00     0.000 C 
ENDROOT
BRANCH   1   2
ATOM      2  C   UNL     1       3.927   8.568   9.850  1.00  0.00     0.000 C 
BRANCH   2   3
ATOM      3  C   UNL     1       4.999   9.378   9.102  1.00  0.00     0.000 C 
BRANCH   3   4
ATOM      4  C   UNL     1       5.968  10.096  10.056  1.00  0.00     0.000 C 
BRANCH   4   5
ATOM      5  C   UNL     1       7.418   9.600   9.911  1.00  0.00     0.000 C 
BRANCH   5   6
ATOM      6  C   UNL     1       8.082   9.317  11.267  1.00  0.00     0.000 C 
BRANCH   6   7
ATOM      7  C   UNL     1       7.990   7.837  11.674  1.00  0.00     0.006 C 
BRANCH   7   8
ATOM      8  C   UNL     1       8.041   6.928  10.443  1.00  0.00     0.053 C 
BRANCH   8   9
ATOM      9  C   UNL     1       9.187   5.973  10.542  1.00  0.00     0.041 C 
ATOM     10  O   UNL     1       9.472   5.438  11.646  1.00  0.00    -0.550 OA
ATOM     11  O   UNL     1       9.919   5.643   9.407  1.00  0.00    -0.550 OA
ENDBRANCH   8   9
ENDBRANCH   7   8
ENDBRANCH   6   7
ENDBRANCH   5   6
ENDBRANCH   4   5
ENDBRANCH   3   4
ENDBRANCH   2   3
ENDBRANCH   1   2
BRANCH   1  12
ATOM     12  C   UNL     1       4.226   6.723  11.660  1.00  0.00     0.000 C 
BRANCH  12  13
ATOM     13  C   UNL     1       4.338   7.877  12.675  1.00  0.00    -0.000 C 
BRANCH  13  14
ATOM     14  C   UNL     1       4.848   7.465  14.071  1.00  0.00    -0.000 C 
BRANCH  14  15
ATOM     15  C   UNL     1       5.703   6.182  14.102  1.00  0.00    -0.000 C 
BRANCH  15  16
ATOM     16  C   UNL     1       5.722   5.446  15.453  1.00  0.00    -0.000 C 
BRANCH  16  17
ATOM     17  C   UNL     1       5.494   6.385  16.648  1.00  0.00    -0.000 C 
BRANCH  17  18
ATOM     18  C   UNL     1       4.603   5.717  17.705  1.00  0.00    -0.000 C 
BRANCH  18  19
ATOM     19  C   UNL     1       3.488   4.861  17.083  1.00  0.00    -0.003 C 
ATOM     20  C   UNL     1       2.144   5.586  17.033  1.00  0.00     0.004 C 
ENDBRANCH  18  19
ENDBRANCH  17  18
ENDBRANCH  16  17
ENDBRANCH  15  16
ENDBRANCH  14  15
ENDBRANCH  13  14
ENDBRANCH  12  13
ENDBRANCH   1  12
TORSDOF 16
ENDMDL
MODEL 6
REMARK VINA RESULT:    -4.978      3.159      5.518
REMARK INTER + INTRA:         -12.115
REMARK INTER:                  -9.824
REMARK INTRA:                  -2.291
REMARK UNBOUND:                -2.482
REMARK SMILES CCCCCCCCCCCCCCCCCC(=O)[O-]
REMARK SMILES IDX 10 1 11 2 12 3 13 4 14 5 15 6 16 7 17 8 18 9 19 10 20 11
REMARK SMILES IDX 9 12 8 13 7 14 6 15 5 16 4 17 3 18 2 19 1 20
REMARK H PARENT
REMARK Flexibility Score: inf
ROOT
ATOM      1  C   UNL     1       4.253   6.785  10.802  1.00  0.00     0.000 C 
ENDROOT
BRANCH   1   2
ATOM      2  C   UNL     1       2.719   6.904  10.762  1.00  0.00     0.000 C 
BRANCH   2   3
ATOM      3  C   UNL     1       2.156   7.751  11.915  1.00  0.00     0.000 C 
BRANCH   3   4
ATOM      4  C   UNL     1       3.260   8.452  12.724  1.00  0.00     0.000 C 
BRANCH   4   5
ATOM      5  C   UNL     1       3.378   7.909  14.159  1.00  0.00     0.000 C 
BRANCH   5   6
ATOM      6  C   UNL     1       4.831   7.859  14.653  1.00  0.00     0.000 C 
BRANCH   6   7
ATOM      7  C   UNL     1       5.271   6.443  15.059  1.00  0.00     0.006 C 
BRANCH   7   8
ATOM      8  C   UNL     1       5.445   6.339  16.576  1.00  0.00     0.053 C 
BRANCH   8   9
ATOM      9  C   UNL     1       4.167   5.909  17.224  1.00  0.00     0.041 C 
ATOM     10  O   UNL     1       3.899   4.684  17.343  1.00  0.00    -0.550 OA
ATOM     11  O   UNL     1       3.288   6.860  17.729  1.00  0.00    -0.550 OA
ENDBRANCH   8   9
ENDBRANCH   7   8
ENDBRANCH   6   7
ENDBRANCH   5   6
ENDBRANCH   4   5
ENDBRANCH   3   4
ENDBRANCH   2   3
ENDBRANCH   1   2
BRANCH   1  12
ATOM     12  C   UNL     1       4.992   7.411   9.601  1.00  0.00     0.000 C 
BRANCH  12  13
ATOM     13  C   UNL     1       4.866   8.942   9.483  1.00  0.00    -0.000 C 
BRANCH  13  14
ATOM     14  C   UNL     1       5.868   9.742  10.339  1.00  0.00    -0.000 C 
BRANCH  14  15
ATOM     15  C   UNL     1       7.352   9.532   9.976  1.00  0.00    -0.000 C 
BRANCH  15  16
ATOM     16  C   UNL     1       8.222   8.952  11.105  1.00  0.00    -0.000 C 
BRANCH  16  17
ATOM     17  C   UNL     1       7.418   8.100  12.099  1.00  0.00    -0.000 C 
BRANCH  17  18
ATOM     18  C   UNL     1       7.815   6.620  11.999  1.00  0.00    -0.000 C 
BRANCH  18  19
ATOM     19  C   UNL     1       9.094   6.408  11.174  1.00  0.00    -0.003 C 
ATOM     20  C   UNL     1       8.848   5.602   9.898  1.00  0.00     0.004 C 
ENDBRANCH  18  19
ENDBRANCH  17  18
ENDBRANCH  16  17
ENDBRANCH  15  16
ENDBRANCH  14  15
ENDBRANCH  13  14
ENDBRANCH  12  13
ENDBRANCH   1  12
TORSDOF 16
ENDMDL
MODEL 7
REMARK VINA RESULT:    -4.969      1.057      2.248
REMARK INTER + INTRA:         -12.098
REMARK INTER:                  -9.647
REMARK INTRA:                  -2.452
REMARK UNBOUND:                -2.482
REMARK SMILES CCCCCCCCCCCCCCCCCC(=O)[O-]
REMARK SMILES IDX 10 1 11 2 12 3 13 4 14 5 15 6 16 7 17 8 18 9 19 10 20 11
REMARK SMILES IDX 9 12 8 13 7 14 6 15 5 16 4 17 3 18 2 19 1 20
REMARK H PARENT
REMARK Flexibility Score: inf
ROOT
ATOM      1  C   UNL     1       4.426   6.965  11.922  1.00  0.00     0.000 C 
ENDROOT
BRANCH   1   2
ATOM      2  C   UNL     1       3.453   6.942  10.730  1.00  0.00     0.000 C 
BRANCH   2   3
ATOM      3  C   UNL     1       3.531   8.215   9.871  1.00  0.00     0.000 C 
BRANCH   3   4
ATOM      4  C   UNL     1       4.895   8.375   9.179  1.00  0.00     0.000 C 
BRANCH   4   5
ATOM      5  C   UNL     1       5.460   9.801   9.309  1.00  0.00     0.000 C 
BRANCH   5   6
ATOM      6  C   UNL     1       6.402   9.956  10.513  1.00  0.00     0.000 C 
BRANCH   6   7
ATOM      7  C   UNL     1       7.714   9.174  10.343  1.00  0.00     0.006 C 
BRANCH   7   8
ATOM      8  C   UNL     1       7.841   8.082  11.408  1.00  0.00     0.053 C 
BRANCH   8   9
ATOM      9  C   UNL     1       8.149   6.762  10.776  1.00  0.00     0.041 C 
ATOM     10  O   UNL     1       7.332   6.240   9.972  1.00  0.00    -0.550 OA
ATOM     11  O   UNL     1       9.354   6.125  11.045  1.00  0.00    -0.550 OA
ENDBRANCH   8   9
ENDBRANCH   7   8
ENDBRANCH   6   7
ENDBRANCH   5   6
ENDBRANCH   4   5
ENDBRANCH   3   4
ENDBRANCH   2   3
ENDBRANCH   1   2
BRANCH   1  12
ATOM     12  C   UNL     1       4.261   8.163  12.880  1.00  0.00     0.000 C 
BRANCH  12  13
ATOM     13  C   UNL     1       2.981   8.139  13.739  1.00  0.00    -0.000 C 
BRANCH  13  14
ATOM     14  C   UNL     1       3.087   8.893  15.080  1.00  0.00    -0.000 C 
BRANCH  14  15
ATOM     15  C   UNL     1       3.896   8.169  16.175  1.00  0.00    -0.000 C 
BRANCH  15  16
ATOM     16  C   UNL     1       3.434   6.733  16.483  1.00  0.00    -0.000 C 
BRANCH  16  17
ATOM     17  C   UNL     1       4.558   5.698  16.324  1.00  0.00    -0.000 C 
BRANCH  17  18
ATOM     18  C   UNL     1       5.833   6.355  15.774  1.00  0.00    -0.000 C 
BRANCH  18  19
ATOM     19  C   UNL     1       6.389   5.624  14.542  1.00  0.00    -0.003 C 
ATOM     20  C   UNL     1       7.901   5.786  14.391  1.00  0.00     0.004 C 
ENDBRANCH  18  19
ENDBRANCH  17  18
ENDBRANCH  16  17
ENDBRANCH  15  16
ENDBRANCH  14  15
ENDBRANCH  13  14
ENDBRANCH  12  13
ENDBRANCH   1  12
TORSDOF 16
ENDMDL
MODEL 8
REMARK VINA RESULT:    -4.893      2.107      3.940
REMARK INTER + INTRA:         -11.951
REMARK INTER:                  -9.997
REMARK INTRA:                  -1.954
REMARK UNBOUND:                -2.482
REMARK SMILES CCCCCCCCCCCCCCCCCC(=O)[O-]
REMARK SMILES IDX 10 1 11 2 12 3 13 4 14 5 15 6 16 7 17 8 18 9 19 10 20 11
REMARK SMILES IDX 9 12 8 13 7 14 6 15 5 16 4 17 3 18 2 19 1 20
REMARK H PARENT
REMARK Flexibility Score: inf
ROOT
ATOM      1  C   UNL     1       7.246   6.019  14.085  1.00  0.00     0.000 C 
ENDROOT
BRANCH   1   2
ATOM      2  C   UNL     1       7.848   7.092  13.160  1.00  0.00     0.000 C 
BRANCH   2   3
ATOM      3  C   UNL     1       8.346   6.516  11.824  1.00  0.00     0.000 C 
BRANCH   3   4
ATOM      4  C   UNL     1       8.465   7.588  10.728  1.00  0.00     0.000 C 
BRANCH   4   5
ATOM      5  C   UNL     1       7.997   8.975  11.204  1.00  0.00     0.000 C 
BRANCH   5   6
ATOM      6  C   UNL     1       7.827   9.969  10.045  1.00  0.00     0.000 C 
BRANCH   6   7
ATOM      7  C   UNL     1       6.483   9.806   9.317  1.00  0.00     0.006 C 
BRANCH   7   8
ATOM      8  C   UNL     1       5.372   9.426  10.300  1.00  0.00     0.053 C 
BRANCH   8   9
ATOM      9  C   UNL     1       4.633   8.218   9.820  1.00  0.00     0.041 C 
ATOM     10  O   UNL     1       5.247   7.135   9.632  1.00  0.00    -0.550 OA
ATOM     11  O   UNL     1       3.260   8.277   9.615  1.00  0.00    -0.550 OA
ENDBRANCH   8   9
ENDBRANCH   7   8
ENDBRANCH   6   7
ENDBRANCH   5   6
ENDBRANCH   4   5
ENDBRANCH   3   4
ENDBRANCH   2   3
ENDBRANCH   1   2
BRANCH   1  12
ATOM     12  C   UNL     1       5.730   6.147  14.337  1.00  0.00     0.000 C 
BRANCH  12  13
ATOM     13  C   UNL     1       4.995   7.135  13.410  1.00  0.00    -0.000 C 
BRANCH  13  14
ATOM     14  C   UNL     1       4.069   8.134  14.130  1.00  0.00    -0.000 C 
BRANCH  14  15
ATOM     15  C   UNL     1       4.362   8.332  15.631  1.00  0.00    -0.000 C 
BRANCH  15  16
ATOM     16  C   UNL     1       3.160   8.100  16.564  1.00  0.00    -0.000 C 
BRANCH  16  17
ATOM     17  C   UNL     1       2.133   7.117  15.981  1.00  0.00    -0.000 C 
BRANCH  17  18
ATOM     18  C   UNL     1       1.875   5.955  16.951  1.00  0.00    -0.000 C 
BRANCH  18  19
ATOM     19  C   UNL     1       3.055   5.711  17.905  1.00  0.00    -0.003 C 
ATOM     20  C   UNL     1       4.105   4.768  17.317  1.00  0.00     0.004 C 
ENDBRANCH  18  19
ENDBRANCH  17  18
ENDBRANCH  16  17
ENDBRANCH  15  16
ENDBRANCH  14  15
ENDBRANCH  13  14
ENDBRANCH  12  13
ENDBRANCH   1  12
TORSDOF 16
ENDMDL
MODEL 9
REMARK VINA RESULT:    -4.846      2.009      2.719
REMARK INTER + INTRA:         -11.860
REMARK INTER:                  -9.660
REMARK INTRA:                  -2.199
REMARK UNBOUND:                -2.482
REMARK SMILES CCCCCCCCCCCCCCCCCC(=O)[O-]
REMARK SMILES IDX 10 1 11 2 12 3 13 4 14 5 15 6 16 7 17 8 18 9 19 10 20 11
REMARK SMILES IDX 9 12 8 13 7 14 6 15 5 16 4 17 3 18 2 19 1 20
REMARK H PARENT
REMARK Flexibility Score: inf
ROOT
ATOM      1  C   UNL     1       4.627   7.484   9.651  1.00  0.00     0.000 C 
ENDROOT
BRANCH   1   2
ATOM      2  C   UNL     1       4.502   8.956   9.216  1.00  0.00     0.000 C 
BRANCH   2   3
ATOM      3  C   UNL     1       5.759   9.781   9.537  1.00  0.00     0.000 C 
BRANCH   3   4
ATOM      4  C   UNL     1       6.468   9.304  10.814  1.00  0.00     0.000 C 
BRANCH   4   5
ATOM      5  C   UNL     1       7.914   8.846  10.553  1.00  0.00     0.000 C 
BRANCH   5   6
ATOM      6  C   UNL     1       8.248   7.520  11.254  1.00  0.00     0.000 C 
BRANCH   6   7
ATOM      7  C   UNL     1       7.114   7.031  12.169  1.00  0.00     0.006 C 
BRANCH   7   8
ATOM      8  C   UNL     1       7.512   7.152  13.643  1.00  0.00     0.053 C 
BRANCH   8   9
ATOM      9  C   UNL     1       7.428   5.822  14.321  1.00  0.00     0.041 C 
ATOM     10  O   UNL     1       6.307   5.285  14.525  1.00  0.00    -0.550 OA
ATOM     11  O   UNL     1       8.589   5.157  14.697  1.00  0.00    -0.550 OA
ENDBRANCH   8   9
ENDBRANCH   7   8
ENDBRANCH   6   7
ENDBRANCH   5   6
ENDBRANCH   4   5
ENDBRANCH   3   4
ENDBRANCH   2   3
ENDBRANCH   1   2
BRANCH   1  12
ATOM     12  C   UNL     1       3.604   7.024  10.710  1.00  0.00     0.000 C 
BRANCH  12  13
ATOM     13  C   UNL     1       2.375   7.939  10.870  1.00  0.00    -0.000 C 
BRANCH  13  14
ATOM     14  C   UNL     1       2.230   8.592  12.259  1.00  0.00    -0.000 C 
BRANCH  14  15
ATOM     15  C   UNL     1       2.957   7.860  13.405  1.00  0.00    -0.000 C 
BRANCH  15  16
ATOM     16  C   UNL     1       4.130   8.635  14.032  1.00  0.00    -0.000 C 
BRANCH  16  17
ATOM     17  C   UNL     1       4.486   8.140  15.442  1.00  0.00    -0.000 C 
BRANCH  17  18
ATOM     18  C   UNL     1       3.494   7.066  15.912  1.00  0.00    -0.000 C 
BRANCH  18  19
ATOM     19  C   UNL     1       3.961   6.349  17.188  1.00  0.00    -0.003 C 
ATOM     20  C   UNL     1       3.933   4.826  17.055  1.00  0.00     0.004 C 
ENDBRANCH  18  19
ENDBRANCH  17  18
ENDBRANCH  16  17
ENDBRANCH  15  16
ENDBRANCH  14  15
ENDBRANCH  13  14
ENDBRANCH  12  13
ENDBRANCH   1  12
TORSDOF 16
ENDMDL
