MODEL 1
REMARK VINA RESULT:    -6.162      0.000      0.000
REMARK INTER + INTRA:          -6.523
REMARK INTER:                  -6.523
REMARK INTRA:                   0.000
REMARK UNBOUND:                 0.000
REMARK SMILES O=c1ccc2cc(O)c(O)cc2o1
REMARK SMILES IDX 4 1 3 2 2 3 1 4 13 5 12 6 11 7 9 8 7 9 6 10 5 11 8 12 10 14
REMARK H PARENT 8 13 10 15
REMARK Flexibility Score: inf
ROOT
ATOM      1  C   UNL     1     -28.321  -8.408  -0.741  1.00  0.00     0.019 A 
ATOM      2  C   UNL     1     -28.772  -8.960   0.457  1.00  0.00     0.094 A 
ATOM      3  C   UNL     1     -29.480  -8.150   1.352  1.00  0.00     0.336 A 
ATOM      4  O   UNL     1     -29.895  -8.629   2.440  1.00  0.00    -0.246 OA
ATOM      5  O   UNL     1     -29.718  -6.872   1.062  1.00  0.00    -0.423 OA
ATOM      6  C   UNL     1     -29.306  -6.308  -0.070  1.00  0.00     0.142 A 
ATOM      7  C   UNL     1     -29.586  -4.962  -0.323  1.00  0.00     0.098 A 
ATOM      8  C   UNL     1     -29.153  -4.359  -1.514  1.00  0.00     0.161 A 
ATOM      9  C   UNL     1     -28.436  -5.115  -2.461  1.00  0.00     0.158 A 
ATOM     10  C   UNL     1     -28.155  -6.463  -2.211  1.00  0.00     0.062 A 
ATOM     11  C   UNL     1     -28.586  -7.064  -1.021  1.00  0.00     0.022 A 
ENDROOT
BRANCH   9  12
ATOM     12  O   UNL     1     -27.996  -4.541  -3.653  1.00  0.00    -0.504 OA
ATOM     13  H   UNL     1     -28.457  -4.716  -4.538  1.00  0.00     0.293 HD
ENDBRANCH   9  12
BRANCH   8  14
ATOM     14  O   UNL     1     -29.435  -3.017  -1.760  1.00  0.00    -0.504 OA
ATOM     15  H   UNL     1     -28.759  -2.406  -2.204  1.00  0.00     0.293 HD
ENDBRANCH   8  14
TORSDOF 2
ENDMDL
MODEL 2
REMARK VINA RESULT:    -6.060      1.144      2.265
REMARK INTER + INTRA:          -6.415
REMARK INTER:                  -6.415
REMARK INTRA:                   0.000
REMARK UNBOUND:                 0.000
REMARK SMILES O=c1ccc2cc(O)c(O)cc2o1
REMARK SMILES IDX 4 1 3 2 2 3 1 4 13 5 12 6 11 7 9 8 7 9 6 10 5 11 8 12 10 14
REMARK H PARENT 8 13 10 15
REMARK Flexibility Score: inf
ROOT
ATOM      1  C   UNL     1     -29.753  -6.958   1.191  1.00  0.00     0.019 A 
ATOM      2  C   UNL     1     -29.433  -8.295   1.427  1.00  0.00     0.094 A 
ATOM      3  C   UNL     1     -28.701  -8.996   0.463  1.00  0.00     0.336 A 
ATOM      4  O   UNL     1     -28.404 -10.204   0.657  1.00  0.00    -0.246 OA
ATOM      5  O   UNL     1     -28.316  -8.396  -0.661  1.00  0.00    -0.423 OA
ATOM      6  C   UNL     1     -28.599  -7.123  -0.924  1.00  0.00     0.142 A 
ATOM      7  C   UNL     1     -28.168  -6.544  -2.121  1.00  0.00     0.098 A 
ATOM      8  C   UNL     1     -28.464  -5.202  -2.406  1.00  0.00     0.161 A 
ATOM      9  C   UNL     1     -29.197  -4.434  -1.481  1.00  0.00     0.158 A 
ATOM     10  C   UNL     1     -29.630  -5.011  -0.281  1.00  0.00     0.062 A 
ATOM     11  C   UNL     1     -29.335  -6.352   0.002  1.00  0.00     0.022 A 
ENDROOT
BRANCH   9  12
ATOM     12  O   UNL     1     -29.504  -3.099  -1.739  1.00  0.00    -0.504 OA
ATOM     13  H   UNL     1     -29.718  -2.765  -2.671  1.00  0.00     0.293 HD
ENDBRANCH   9  12
BRANCH   8  14
ATOM     14  O   UNL     1     -28.033  -4.630  -3.601  1.00  0.00    -0.504 OA
ATOM     15  H   UNL     1     -27.409  -3.832  -3.612  1.00  0.00     0.293 HD
ENDBRANCH   8  14
TORSDOF 2
ENDMDL
MODEL 3
REMARK VINA RESULT:    -5.732      5.965      6.845
REMARK INTER + INTRA:          -6.067
REMARK INTER:                  -6.067
REMARK INTRA:                   0.000
REMARK UNBOUND:                 0.000
REMARK SMILES O=c1ccc2cc(O)c(O)cc2o1
REMARK SMILES IDX 4 1 3 2 2 3 1 4 13 5 12 6 11 7 9 8 7 9 6 10 5 11 8 12 10 14
REMARK H PARENT 8 13 10 15
REMARK Flexibility Score: inf
ROOT
ATOM      1  C   UNL     1     -30.626 -10.731   2.158  1.00  0.00     0.019 A 
ATOM      2  C   UNL     1     -30.420 -11.967   1.547  1.00  0.00     0.094 A 
ATOM      3  C   UNL     1     -31.516 -12.643   0.999  1.00  0.00     0.336 A 
ATOM      4  O   UNL     1     -31.350 -13.760   0.443  1.00  0.00    -0.246 OA
ATOM      5  O   UNL     1     -32.735 -12.112   1.060  1.00  0.00    -0.423 OA
ATOM      6  C   UNL     1     -32.974 -10.935   1.633  1.00  0.00     0.142 A 
ATOM      7  C   UNL     1     -34.275 -10.426   1.668  1.00  0.00     0.098 A 
ATOM      8  C   UNL     1     -34.535  -9.186   2.272  1.00  0.00     0.161 A 
ATOM      9  C   UNL     1     -33.480  -8.451   2.844  1.00  0.00     0.158 A 
ATOM     10  C   UNL     1     -32.176  -8.958   2.810  1.00  0.00     0.062 A 
ATOM     11  C   UNL     1     -31.917 -10.196   2.208  1.00  0.00     0.022 A 
ENDROOT
BRANCH   9  12
ATOM     12  O   UNL     1     -33.711  -7.216   3.449  1.00  0.00    -0.504 OA
ATOM     13  H   UNL     1     -34.640  -6.908   3.708  1.00  0.00     0.293 HD
ENDBRANCH   9  12
BRANCH   8  14
ATOM     14  O   UNL     1     -35.834  -8.683   2.304  1.00  0.00    -0.504 OA
ATOM     15  H   UNL     1     -36.505  -8.898   1.575  1.00  0.00     0.293 HD
ENDBRANCH   8  14
TORSDOF 2
ENDMDL
MODEL 4
REMARK VINA RESULT:    -5.724      5.898      6.716
REMARK INTER + INTRA:          -6.058
REMARK INTER:                  -6.058
REMARK INTRA:                   0.000
REMARK UNBOUND:                 0.000
REMARK SMILES O=c1ccc2cc(O)c(O)cc2o1
REMARK SMILES IDX 4 1 3 2 2 3 1 4 13 5 12 6 11 7 9 8 7 9 6 10 5 11 8 12 10 14
REMARK H PARENT 8 13 10 15
REMARK Flexibility Score: inf
ROOT
ATOM      1  C   UNL     1     -32.392 -12.493   1.049  1.00  0.00     0.019 A 
ATOM      2  C   UNL     1     -31.068 -12.930   1.047  1.00  0.00     0.094 A 
ATOM      3  C   UNL     1     -30.084 -12.114   1.616  1.00  0.00     0.336 A 
ATOM      4  O   UNL     1     -28.883 -12.491   1.622  1.00  0.00    -0.246 OA
ATOM      5  O   UNL     1     -30.408 -10.939   2.150  1.00  0.00    -0.423 OA
ATOM      6  C   UNL     1     -31.659 -10.485   2.174  1.00  0.00     0.142 A 
ATOM      7  C   UNL     1     -31.942  -9.244   2.750  1.00  0.00     0.098 A 
ATOM      8  C   UNL     1     -33.258  -8.758   2.777  1.00  0.00     0.161 A 
ATOM      9  C   UNL     1     -34.299  -9.526   2.223  1.00  0.00     0.158 A 
ATOM     10  C   UNL     1     -34.020 -10.770   1.646  1.00  0.00     0.062 A 
ATOM     11  C   UNL     1     -32.705 -11.254   1.619  1.00  0.00     0.022 A 
ENDROOT
BRANCH   9  12
ATOM     12  O   UNL     1     -35.616  -9.068   2.238  1.00  0.00    -0.504 OA
ATOM     13  H   UNL     1     -36.162  -9.025   3.090  1.00  0.00     0.293 HD
ENDBRANCH   9  12
BRANCH   8  14
ATOM     14  O   UNL     1     -33.534  -7.519   3.352  1.00  0.00    -0.504 OA
ATOM     15  H   UNL     1     -32.853  -7.037   3.927  1.00  0.00     0.293 HD
ENDBRANCH   8  14
TORSDOF 2
ENDMDL
MODEL 5
REMARK VINA RESULT:    -5.670     10.008     11.849
REMARK INTER + INTRA:          -6.001
REMARK INTER:                  -6.001
REMARK INTRA:                   0.000
REMARK UNBOUND:                 0.000
REMARK SMILES O=c1ccc2cc(O)c(O)cc2o1
REMARK SMILES IDX 4 1 3 2 2 3 1 4 13 5 12 6 11 7 9 8 7 9 6 10 5 11 8 12 10 14
REMARK H PARENT 8 13 10 15
REMARK Flexibility Score: inf
ROOT
ATOM      1  C   UNL     1     -35.237 -16.465   5.032  1.00  0.00     0.019 A 
ATOM      2  C   UNL     1     -36.283 -15.906   4.299  1.00  0.00     0.094 A 
ATOM      3  C   UNL     1     -36.018 -14.815   3.465  1.00  0.00     0.336 A 
ATOM      4  O   UNL     1     -36.950 -14.295   2.796  1.00  0.00    -0.246 OA
ATOM      5  O   UNL     1     -34.786 -14.319   3.374  1.00  0.00    -0.423 OA
ATOM      6  C   UNL     1     -33.760 -14.823   4.054  1.00  0.00     0.142 A 
ATOM      7  C   UNL     1     -32.487 -14.263   3.918  1.00  0.00     0.098 A 
ATOM      8  C   UNL     1     -31.401 -14.788   4.634  1.00  0.00     0.161 A 
ATOM      9  C   UNL     1     -31.593 -15.887   5.492  1.00  0.00     0.158 A 
ATOM     10  C   UNL     1     -32.867 -16.452   5.630  1.00  0.00     0.062 A 
ATOM     11  C   UNL     1     -33.952 -15.925   4.916  1.00  0.00     0.022 A 
ENDROOT
BRANCH   9  12
ATOM     12  O   UNL     1     -30.531 -16.430   6.214  1.00  0.00    -0.504 OA
ATOM     13  H   UNL     1     -29.739 -16.868   5.760  1.00  0.00     0.293 HD
ENDBRANCH   9  12
BRANCH   8  14
ATOM     14  O   UNL     1     -30.134 -14.225   4.495  1.00  0.00    -0.504 OA
ATOM     15  H   UNL     1     -30.010 -13.251   4.246  1.00  0.00     0.293 HD
ENDBRANCH   8  14
TORSDOF 2
ENDMDL
MODEL 6
REMARK VINA RESULT:    -5.666      5.667      6.655
REMARK INTER + INTRA:          -5.997
REMARK INTER:                  -5.997
REMARK INTRA:                   0.000
REMARK UNBOUND:                 0.000
REMARK SMILES O=c1ccc2cc(O)c(O)cc2o1
REMARK SMILES IDX 4 1 3 2 2 3 1 4 13 5 12 6 11 7 9 8 7 9 6 10 5 11 8 12 10 14
REMARK H PARENT 8 13 10 15
REMARK Flexibility Score: inf
ROOT
ATOM      1  C   UNL     1     -30.320  -9.024   3.137  1.00  0.00     0.019 A 
ATOM      2  C   UNL     1     -29.125  -9.702   2.894  1.00  0.00     0.094 A 
ATOM      3  C   UNL     1     -29.152 -10.866   2.119  1.00  0.00     0.336 A 
ATOM      4  O   UNL     1     -28.085 -11.493   1.890  1.00  0.00    -0.246 OA
ATOM      5  O   UNL     1     -30.301 -11.319   1.622  1.00  0.00    -0.423 OA
ATOM      6  C   UNL     1     -31.462 -10.703   1.829  1.00  0.00     0.142 A 
ATOM      7  C   UNL     1     -32.638 -11.223   1.282  1.00  0.00     0.098 A 
ATOM      8  C   UNL     1     -33.866 -10.579   1.497  1.00  0.00     0.161 A 
ATOM      9  C   UNL     1     -33.914  -9.402   2.266  1.00  0.00     0.158 A 
ATOM     10  C   UNL     1     -32.738  -8.877   2.816  1.00  0.00     0.062 A 
ATOM     11  C   UNL     1     -31.512  -9.522   2.601  1.00  0.00     0.022 A 
ENDROOT
BRANCH   9  12
ATOM     12  O   UNL     1     -35.120  -8.741   2.494  1.00  0.00    -0.504 OA
ATOM     13  H   UNL     1     -35.625  -8.270   1.754  1.00  0.00     0.293 HD
ENDBRANCH   9  12
BRANCH   8  14
ATOM     14  O   UNL     1     -35.035 -11.103   0.949  1.00  0.00    -0.504 OA
ATOM     15  H   UNL     1     -35.820 -10.510   0.707  1.00  0.00     0.293 HD
ENDBRANCH   8  14
TORSDOF 2
ENDMDL
MODEL 7
REMARK VINA RESULT:    -5.653     11.640     12.988
REMARK INTER + INTRA:          -5.983
REMARK INTER:                  -5.983
REMARK INTRA:                   0.000
REMARK UNBOUND:                 0.000
REMARK SMILES O=c1ccc2cc(O)c(O)cc2o1
REMARK SMILES IDX 4 1 3 2 2 3 1 4 13 5 12 6 11 7 9 8 7 9 6 10 5 11 8 12 10 14
REMARK H PARENT 8 13 10 15
REMARK Flexibility Score: inf
ROOT
ATOM      1  C   UNL     1     -35.827 -14.246   3.118  1.00  0.00     0.019 A 
ATOM      2  C   UNL     1     -37.181 -13.927   3.212  1.00  0.00     0.094 A 
ATOM      3  C   UNL     1     -37.901 -14.356   4.333  1.00  0.00     0.336 A 
ATOM      4  O   UNL     1     -39.125 -14.079   4.436  1.00  0.00    -0.246 OA
ATOM      5  O   UNL     1     -37.301 -15.056   5.293  1.00  0.00    -0.423 OA
ATOM      6  C   UNL     1     -36.012 -15.380   5.242  1.00  0.00     0.142 A 
ATOM      7  C   UNL     1     -35.434 -16.116   6.280  1.00  0.00     0.098 A 
ATOM      8  C   UNL     1     -34.075 -16.463   6.233  1.00  0.00     0.161 A 
ATOM      9  C   UNL     1     -33.289 -16.066   5.135  1.00  0.00     0.158 A 
ATOM     10  C   UNL     1     -33.864 -15.327   4.094  1.00  0.00     0.062 A 
ATOM     11  C   UNL     1     -35.221 -14.982   4.142  1.00  0.00     0.022 A 
ENDROOT
BRANCH   9  12
ATOM     12  O   UNL     1     -31.936 -16.395   5.063  1.00  0.00    -0.504 OA
ATOM     13  H   UNL     1     -31.589 -17.308   5.333  1.00  0.00     0.293 HD
ENDBRANCH   9  12
BRANCH   8  14
ATOM     14  O   UNL     1     -33.505 -17.198   7.270  1.00  0.00    -0.504 OA
ATOM     15  H   UNL     1     -33.038 -16.745   8.047  1.00  0.00     0.293 HD
ENDBRANCH   8  14
TORSDOF 2
ENDMDL
MODEL 8
REMARK VINA RESULT:    -5.613      7.738     10.701
REMARK INTER + INTRA:          -5.942
REMARK INTER:                  -5.942
REMARK INTRA:                   0.000
REMARK UNBOUND:                 0.000
REMARK SMILES O=c1ccc2cc(O)c(O)cc2o1
REMARK SMILES IDX 4 1 3 2 2 3 1 4 13 5 12 6 11 7 9 8 7 9 6 10 5 11 8 12 10 14
REMARK H PARENT 8 13 10 15
REMARK Flexibility Score: inf
ROOT
ATOM      1  C   UNL     1     -25.663 -14.030   1.641  1.00  0.00     0.019 A 
ATOM      2  C   UNL     1     -25.799 -12.720   2.099  1.00  0.00     0.094 A 
ATOM      3  C   UNL     1     -26.557 -12.480   3.250  1.00  0.00     0.336 A 
ATOM      4  O   UNL     1     -26.692 -11.304   3.679  1.00  0.00    -0.246 OA
ATOM      5  O   UNL     1     -27.139 -13.488   3.897  1.00  0.00    -0.423 OA
ATOM      6  C   UNL     1     -27.033 -14.752   3.494  1.00  0.00     0.142 A 
ATOM      7  C   UNL     1     -27.665 -15.770   4.212  1.00  0.00     0.098 A 
ATOM      8  C   UNL     1     -27.559 -17.105   3.792  1.00  0.00     0.161 A 
ATOM      9  C   UNL     1     -26.811 -17.420   2.642  1.00  0.00     0.158 A 
ATOM     10  C   UNL     1     -26.177 -16.403   1.920  1.00  0.00     0.062 A 
ATOM     11  C   UNL     1     -26.284 -15.070   2.340  1.00  0.00     0.022 A 
ENDROOT
BRANCH   9  12
ATOM     12  O   UNL     1     -26.689 -18.738   2.204  1.00  0.00    -0.504 OA
ATOM     13  H   UNL     1     -25.884 -19.309   2.430  1.00  0.00     0.293 HD
ENDBRANCH   9  12
BRANCH   8  14
ATOM     14  O   UNL     1     -28.191 -18.116   4.513  1.00  0.00    -0.504 OA
ATOM     15  H   UNL     1     -28.761 -18.818   4.055  1.00  0.00     0.293 HD
ENDBRANCH   8  14
TORSDOF 2
ENDMDL
MODEL 9
REMARK VINA RESULT:    -5.561      1.314      4.494
REMARK INTER + INTRA:          -5.886
REMARK INTER:                  -5.886
REMARK INTRA:                   0.000
REMARK UNBOUND:                 0.000
REMARK SMILES O=c1ccc2cc(O)c(O)cc2o1
REMARK SMILES IDX 4 1 3 2 2 3 1 4 13 5 12 6 11 7 9 8 7 9 6 10 5 11 8 12 10 14
REMARK H PARENT 8 13 10 15
REMARK Flexibility Score: inf
ROOT
ATOM      1  C   UNL     1     -28.229  -6.023  -1.900  1.00  0.00     0.019 A 
ATOM      2  C   UNL     1     -28.613  -4.684  -1.847  1.00  0.00     0.094 A 
ATOM      3  C   UNL     1     -29.360  -4.236  -0.753  1.00  0.00     0.336 A 
ATOM      4  O   UNL     1     -29.717  -3.030  -0.688  1.00  0.00    -0.246 OA
ATOM      5  O   UNL     1     -29.698  -5.076   0.223  1.00  0.00    -0.423 OA
ATOM      6  C   UNL     1     -29.352  -6.360   0.212  1.00  0.00     0.142 A 
ATOM      7  C   UNL     1     -29.734  -7.197   1.264  1.00  0.00     0.098 A 
ATOM      8  C   UNL     1     -29.373  -8.552   1.259  1.00  0.00     0.161 A 
ATOM      9  C   UNL     1     -28.621  -9.073   0.189  1.00  0.00     0.158 A 
ATOM     10  C   UNL     1     -28.236  -8.238  -0.866  1.00  0.00     0.062 A 
ATOM     11  C   UNL     1     -28.597  -6.884  -0.860  1.00  0.00     0.022 A 
ENDROOT
BRANCH   9  12
ATOM     12  O   UNL     1     -28.248 -10.416   0.160  1.00  0.00    -0.504 OA
ATOM     13  H   UNL     1     -28.255 -10.996   0.990  1.00  0.00     0.293 HD
ENDBRANCH   9  12
BRANCH   8  14
ATOM     14  O   UNL     1     -29.757  -9.382   2.311  1.00  0.00    -0.504 OA
ATOM     15  H   UNL     1     -29.634  -9.105   3.278  1.00  0.00     0.293 HD
ENDBRANCH   8  14
TORSDOF 2
ENDMDL
