MODEL 1
REMARK VINA RESULT:    -6.736      0.000      0.000
REMARK INTER + INTRA:         -11.023
REMARK INTER:                  -9.689
REMARK INTRA:                  -1.334
REMARK UNBOUND:                -1.334
REMARK SMILES O=c1c(O[C@H]2O[C@@H](CO)[C@H](O)[C@H](O)[C@@H]2O)c(-c2ccc(O)cc2)oc2cc(O)cc(O)c12
REMARK SMILES IDX 4 1 3 2 16 3 24 4 2 5 25 6 1 7 32 8 26 9 30 10 27 11 29 12
REMARK SMILES IDX 17 13 18 14 19 15 20 16 23 17 22 18 21 19 31 21 28 23 5 25
REMARK SMILES IDX 14 26 6 27 12 28 7 29 10 30 15 31 13 33 8 35 9 36 11 38
REMARK H PARENT 21 20 31 22 28 24 15 32 13 34 9 37 11 39
REMARK Flexibility Score: inf
ROOT
ATOM      1  O   UNL     1     -36.427   5.608  79.427  1.00  0.00    -0.454 OA
ENDROOT
BRANCH   1   2
ATOM      2  C   UNL     1     -37.586   5.099  80.028  1.00  0.00     0.214 A 
ATOM      3  C   UNL     1     -38.868   5.391  79.525  1.00  0.00     0.180 A 
ATOM      4  O   UNL     1     -39.935   4.839  80.091  1.00  0.00    -0.452 OA
ATOM      5  C   UNL     1     -37.468   4.283  81.159  1.00  0.00     0.239 A 
ATOM      6  C   UNL     1     -39.870   4.026  81.139  1.00  0.00     0.146 A 
ATOM      7  O   UNL     1     -36.325   4.117  81.659  1.00  0.00    -0.285 OA
ATOM      8  C   UNL     1     -38.621   3.685  81.720  1.00  0.00     0.111 A 
ATOM      9  C   UNL     1     -41.062   3.527  81.670  1.00  0.00     0.094 A 
ATOM     10  C   UNL     1     -38.611   2.789  82.832  1.00  0.00     0.134 A 
ATOM     11  C   UNL     1     -41.043   2.694  82.789  1.00  0.00     0.123 A 
ATOM     12  C   UNL     1     -39.824   2.335  83.364  1.00  0.00     0.093 A 
BRANCH   3  13
ATOM     13  C   UNL     1     -39.082   6.316  78.390  1.00  0.00     0.021 A 
ATOM     14  C   UNL     1     -38.559   5.997  77.127  1.00  0.00     0.016 A 
ATOM     15  C   UNL     1     -38.756   6.855  76.042  1.00  0.00     0.047 A 
ATOM     16  C   UNL     1     -39.491   8.034  76.201  1.00  0.00     0.115 A 
ATOM     17  C   UNL     1     -39.841   7.493  78.539  1.00  0.00     0.016 A 
ATOM     18  C   UNL     1     -40.036   8.349  77.453  1.00  0.00     0.047 A 
BRANCH  16  19
ATOM     19  O   UNL     1     -39.678   8.881  75.111  1.00  0.00    -0.508 OA
ATOM     20  H   UNL     1     -38.923   9.092  74.469  1.00  0.00     0.293 HD
ENDBRANCH  16  19
ENDBRANCH   3  13
BRANCH  10  21
ATOM     21  O   UNL     1     -37.447   2.295  83.429  1.00  0.00    -0.507 OA
ATOM     22  H   UNL     1     -37.324   2.143  84.419  1.00  0.00     0.293 HD
ENDBRANCH  10  21
BRANCH  11  23
ATOM     23  O   UNL     1     -42.230   2.209  83.335  1.00  0.00    -0.508 OA
ATOM     24  H   UNL     1     -42.261   1.332  83.841  1.00  0.00     0.293 HD
ENDBRANCH  11  23
ENDBRANCH   1   2
BRANCH   1  25
ATOM     25  C   UNL     1     -35.790   6.809  79.865  1.00  0.00     0.339 C 
ATOM     26  C   UNL     1     -35.579   7.791  78.702  1.00  0.00     0.214 C 
ATOM     27  O   UNL     1     -34.584   6.517  80.555  1.00  0.00    -0.332 OA
ATOM     28  C   UNL     1     -34.540   7.229  77.722  1.00  0.00     0.180 C 
ATOM     29  C   UNL     1     -33.551   5.986  79.731  1.00  0.00     0.179 C 
ATOM     30  C   UNL     1     -33.249   6.836  78.468  1.00  0.00     0.177 C 
BRANCH  26  31
ATOM     31  O   UNL     1     -35.157   9.029  79.217  1.00  0.00    -0.384 OA
ATOM     32  H   UNL     1     -35.119   9.664  78.454  1.00  0.00     0.211 HD
ENDBRANCH  26  31
BRANCH  28  33
ATOM     33  O   UNL     1     -34.269   8.177  76.722  1.00  0.00    -0.387 OA
ATOM     34  H   UNL     1     -34.803   8.984  76.940  1.00  0.00     0.211 HD
ENDBRANCH  28  33
BRANCH  29  35
ATOM     35  C   UNL     1     -33.699   4.467  79.480  1.00  0.00     0.191 C 
BRANCH  35  36
ATOM     36  O   UNL     1     -33.685   3.730  80.670  1.00  0.00    -0.394 OA
ATOM     37  H   UNL     1     -33.464   2.797  80.416  1.00  0.00     0.210 HD
ENDBRANCH  35  36
ENDBRANCH  29  35
BRANCH  30  38
ATOM     38  O   UNL     1     -32.550   7.992  78.859  1.00  0.00    -0.387 OA
ATOM     39  H   UNL     1     -33.031   8.770  78.475  1.00  0.00     0.211 HD
ENDBRANCH  30  38
ENDBRANCH   1  25
TORSDOF 11
ENDMDL
MODEL 2
REMARK VINA RESULT:    -6.659      2.394      4.549
REMARK INTER + INTRA:         -10.913
REMARK INTER:                  -9.637
REMARK INTRA:                  -1.276
REMARK UNBOUND:                -1.334
REMARK SMILES O=c1c(O[C@H]2O[C@@H](CO)[C@H](O)[C@H](O)[C@@H]2O)c(-c2ccc(O)cc2)oc2cc(O)cc(O)c12
REMARK SMILES IDX 4 1 3 2 16 3 24 4 2 5 25 6 1 7 32 8 26 9 30 10 27 11 29 12
REMARK SMILES IDX 17 13 18 14 19 15 20 16 23 17 22 18 21 19 31 21 28 23 5 25
REMARK SMILES IDX 14 26 6 27 12 28 7 29 10 30 15 31 13 33 8 35 9 36 11 38
REMARK H PARENT 21 20 31 22 28 24 15 32 13 34 9 37 11 39
REMARK Flexibility Score: inf
ROOT
ATOM      1  O   UNL     1     -36.742   6.085  81.107  1.00  0.00    -0.454 OA
ENDROOT
BRANCH   1   2
ATOM      2  C   UNL     1     -37.645   5.553  80.177  1.00  0.00     0.214 A 
ATOM      3  C   UNL     1     -37.539   5.836  78.801  1.00  0.00     0.180 A 
ATOM      4  O   UNL     1     -38.380   5.263  77.949  1.00  0.00    -0.452 OA
ATOM      5  C   UNL     1     -38.680   4.725  80.623  1.00  0.00     0.239 A 
ATOM      6  C   UNL     1     -39.351   4.437  78.320  1.00  0.00     0.146 A 
ATOM      7  O   UNL     1     -38.825   4.566  81.863  1.00  0.00    -0.285 OA
ATOM      8  C   UNL     1     -39.541   4.104  79.687  1.00  0.00     0.111 A 
ATOM      9  C   UNL     1     -40.196   3.916  77.337  1.00  0.00     0.094 A 
ATOM     10  C   UNL     1     -40.587   3.194  80.026  1.00  0.00     0.134 A 
ATOM     11  C   UNL     1     -41.248   3.069  77.686  1.00  0.00     0.123 A 
ATOM     12  C   UNL     1     -41.440   2.718  79.022  1.00  0.00     0.093 A 
BRANCH   3  13
ATOM     13  C   UNL     1     -36.529   6.773  78.260  1.00  0.00     0.021 A 
ATOM     14  C   UNL     1     -36.820   8.145  78.198  1.00  0.00     0.016 A 
ATOM     15  C   UNL     1     -35.877   9.046  77.697  1.00  0.00     0.047 A 
ATOM     16  C   UNL     1     -34.627   8.590  77.266  1.00  0.00     0.115 A 
ATOM     17  C   UNL     1     -35.262   6.322  77.846  1.00  0.00     0.016 A 
ATOM     18  C   UNL     1     -34.321   7.225  77.345  1.00  0.00     0.047 A 
BRANCH  16  19
ATOM     19  O   UNL     1     -33.697   9.499  76.766  1.00  0.00    -0.508 OA
ATOM     20  H   UNL     1     -32.701   9.368  76.904  1.00  0.00     0.293 HD
ENDBRANCH  16  19
ENDBRANCH   3  13
BRANCH  10  21
ATOM     21  O   UNL     1     -40.815   2.707  81.317  1.00  0.00    -0.507 OA
ATOM     22  H   UNL     1     -41.252   3.227  82.062  1.00  0.00     0.293 HD
ENDBRANCH  10  21
BRANCH  11  23
ATOM     23  O   UNL     1     -42.105   2.562  76.712  1.00  0.00    -0.508 OA
ATOM     24  H   UNL     1     -42.669   3.173  76.133  1.00  0.00     0.293 HD
ENDBRANCH  11  23
ENDBRANCH   1   2
BRANCH   1  25
ATOM     25  C   UNL     1     -35.377   5.671  81.186  1.00  0.00     0.339 C 
ATOM     26  C   UNL     1     -35.261   4.183  81.555  1.00  0.00     0.214 C 
ATOM     27  O   UNL     1     -34.647   6.507  82.070  1.00  0.00    -0.332 OA
ATOM     28  C   UNL     1     -35.737   3.960  82.996  1.00  0.00     0.180 C 
ATOM     29  C   UNL     1     -35.015   6.377  83.440  1.00  0.00     0.179 C 
ATOM     30  C   UNL     1     -35.005   4.915  83.961  1.00  0.00     0.177 C 
BRANCH  26  31
ATOM     31  O   UNL     1     -33.923   3.776  81.403  1.00  0.00    -0.384 OA
ATOM     32  H   UNL     1     -33.398   4.237  82.109  1.00  0.00     0.211 HD
ENDBRANCH  26  31
BRANCH  28  33
ATOM     33  O   UNL     1     -35.524   2.621  83.365  1.00  0.00    -0.387 OA
ATOM     34  H   UNL     1     -34.970   2.636  84.189  1.00  0.00     0.211 HD
ENDBRANCH  28  33
BRANCH  29  35
ATOM     35  C   UNL     1     -36.274   7.197  83.807  1.00  0.00     0.191 C 
BRANCH  35  36
ATOM     36  O   UNL     1     -37.421   6.399  83.888  1.00  0.00    -0.394 OA
ATOM     37  H   UNL     1     -37.101   5.464  83.983  1.00  0.00     0.210 HD
ENDBRANCH  35  36
ENDBRANCH  29  35
BRANCH  30  38
ATOM     38  O   UNL     1     -33.670   4.503  84.125  1.00  0.00    -0.387 OA
ATOM     39  H   UNL     1     -33.308   4.988  84.912  1.00  0.00     0.211 HD
ENDBRANCH  30  38
ENDBRANCH   1  25
TORSDOF 11
ENDMDL
MODEL 3
REMARK VINA RESULT:    -6.606      2.044      6.134
REMARK INTER + INTRA:         -10.836
REMARK INTER:                 -10.400
REMARK INTRA:                  -0.436
REMARK UNBOUND:                -1.334
REMARK SMILES O=c1c(O[C@H]2O[C@@H](CO)[C@H](O)[C@H](O)[C@@H]2O)c(-c2ccc(O)cc2)oc2cc(O)cc(O)c12
REMARK SMILES IDX 4 1 3 2 16 3 24 4 2 5 25 6 1 7 32 8 26 9 30 10 27 11 29 12
REMARK SMILES IDX 17 13 18 14 19 15 20 16 23 17 22 18 21 19 31 21 28 23 5 25
REMARK SMILES IDX 14 26 6 27 12 28 7 29 10 30 15 31 13 33 8 35 9 36 11 38
REMARK H PARENT 21 20 31 22 28 24 15 32 13 34 9 37 11 39
REMARK Flexibility Score: inf
ROOT
ATOM      1  O   UNL     1     -38.076   5.318  77.470  1.00  0.00    -0.454 OA
ENDROOT
BRANCH   1   2
ATOM      2  C   UNL     1     -37.153   6.309  77.828  1.00  0.00     0.214 A 
ATOM      3  C   UNL     1     -37.488   7.677  77.797  1.00  0.00     0.180 A 
ATOM      4  O   UNL     1     -36.601   8.577  78.201  1.00  0.00    -0.452 OA
ATOM      5  C   UNL     1     -35.864   5.933  78.223  1.00  0.00     0.239 A 
ATOM      6  C   UNL     1     -35.381   8.266  78.624  1.00  0.00     0.146 A 
ATOM      7  O   UNL     1     -35.546   4.718  78.146  1.00  0.00    -0.285 OA
ATOM      8  C   UNL     1     -34.952   6.914  78.679  1.00  0.00     0.111 A 
ATOM      9  C   UNL     1     -34.521   9.301  78.999  1.00  0.00     0.094 A 
ATOM     10  C   UNL     1     -33.637   6.638  79.163  1.00  0.00     0.134 A 
ATOM     11  C   UNL     1     -33.221   9.022  79.420  1.00  0.00     0.123 A 
ATOM     12  C   UNL     1     -32.787   7.699  79.496  1.00  0.00     0.093 A 
BRANCH   3  13
ATOM     13  C   UNL     1     -38.797   8.160  77.305  1.00  0.00     0.021 A 
ATOM     14  C   UNL     1     -39.800   8.504  78.226  1.00  0.00     0.016 A 
ATOM     15  C   UNL     1     -41.040   8.969  77.782  1.00  0.00     0.047 A 
ATOM     16  C   UNL     1     -41.289   9.110  76.412  1.00  0.00     0.115 A 
ATOM     17  C   UNL     1     -39.046   8.327  75.930  1.00  0.00     0.016 A 
ATOM     18  C   UNL     1     -40.287   8.791  75.488  1.00  0.00     0.047 A 
BRANCH  16  19
ATOM     19  O   UNL     1     -42.532   9.572  75.983  1.00  0.00    -0.508 OA
ATOM     20  H   UNL     1     -42.749   9.668  74.998  1.00  0.00     0.293 HD
ENDBRANCH  16  19
ENDBRANCH   3  13
BRANCH  10  21
ATOM     21  O   UNL     1     -33.131   5.350  79.362  1.00  0.00    -0.507 OA
ATOM     22  H   UNL     1     -33.690   4.530  79.545  1.00  0.00     0.293 HD
ENDBRANCH  10  21
BRANCH  11  23
ATOM     23  O   UNL     1     -32.352  10.052  79.775  1.00  0.00    -0.508 OA
ATOM     24  H   UNL     1     -31.793  10.006  80.619  1.00  0.00     0.293 HD
ENDBRANCH  11  23
ENDBRANCH   1   2
BRANCH   1  25
ATOM     25  C   UNL     1     -39.304   5.113  78.171  1.00  0.00     0.339 C 
ATOM     26  C   UNL     1     -39.160   5.444  79.666  1.00  0.00     0.214 C 
ATOM     27  O   UNL     1     -39.797   3.801  77.951  1.00  0.00    -0.332 OA
ATOM     28  C   UNL     1     -38.240   4.420  80.344  1.00  0.00     0.180 C 
ATOM     29  C   UNL     1     -39.010   2.771  78.542  1.00  0.00     0.179 C 
ATOM     30  C   UNL     1     -38.720   2.984  80.052  1.00  0.00     0.177 C 
BRANCH  26  31
ATOM     31  O   UNL     1     -40.434   5.440  80.261  1.00  0.00    -0.384 OA
ATOM     32  H   UNL     1     -41.089   5.656  79.546  1.00  0.00     0.211 HD
ENDBRANCH  26  31
BRANCH  28  33
ATOM     33  O   UNL     1     -38.201   4.660  81.727  1.00  0.00    -0.387 OA
ATOM     34  H   UNL     1     -39.119   4.505  82.071  1.00  0.00     0.211 HD
ENDBRANCH  28  33
BRANCH  29  35
ATOM     35  C   UNL     1     -37.782   2.383  77.686  1.00  0.00     0.191 C 
BRANCH  35  36
ATOM     36  O   UNL     1     -37.845   1.058  77.239  1.00  0.00    -0.394 OA
ATOM     37  H   UNL     1     -37.848   0.491  78.053  1.00  0.00     0.210 HD
ENDBRANCH  35  36
ENDBRANCH  29  35
BRANCH  30  38
ATOM     38  O   UNL     1     -39.893   2.713  80.779  1.00  0.00    -0.387 OA
ATOM     39  H   UNL     1     -40.318   3.585  80.987  1.00  0.00     0.211 HD
ENDBRANCH  30  38
ENDBRANCH   1  25
TORSDOF 11
ENDMDL
MODEL 4
REMARK VINA RESULT:    -6.522      2.582      4.536
REMARK INTER + INTRA:         -10.716
REMARK INTER:                  -9.320
REMARK INTRA:                  -1.396
REMARK UNBOUND:                -1.334
REMARK SMILES O=c1c(O[C@H]2O[C@@H](CO)[C@H](O)[C@H](O)[C@@H]2O)c(-c2ccc(O)cc2)oc2cc(O)cc(O)c12
REMARK SMILES IDX 4 1 3 2 16 3 24 4 2 5 25 6 1 7 32 8 26 9 30 10 27 11 29 12
REMARK SMILES IDX 17 13 18 14 19 15 20 16 23 17 22 18 21 19 31 21 28 23 5 25
REMARK SMILES IDX 14 26 6 27 12 28 7 29 10 30 15 31 13 33 8 35 9 36 11 38
REMARK H PARENT 21 20 31 22 28 24 15 32 13 34 9 37 11 39
REMARK Flexibility Score: inf
ROOT
ATOM      1  O   UNL     1     -37.415   5.311  81.732  1.00  0.00    -0.454 OA
ENDROOT
BRANCH   1   2
ATOM      2  C   UNL     1     -38.147   4.826  80.640  1.00  0.00     0.214 A 
ATOM      3  C   UNL     1     -37.614   4.825  79.336  1.00  0.00     0.180 A 
ATOM      4  O   UNL     1     -38.319   4.301  78.342  1.00  0.00    -0.452 OA
ATOM      5  C   UNL     1     -39.441   4.335  80.847  1.00  0.00     0.239 A 
ATOM      6  C   UNL     1     -39.533   3.785  78.496  1.00  0.00     0.146 A 
ATOM      7  O   UNL     1     -39.942   4.439  81.996  1.00  0.00    -0.285 OA
ATOM      8  C   UNL     1     -40.155   3.754  79.772  1.00  0.00     0.111 A 
ATOM      9  C   UNL     1     -40.195   3.287  77.371  1.00  0.00     0.094 A 
ATOM     10  C   UNL     1     -41.452   3.167  79.882  1.00  0.00     0.134 A 
ATOM     11  C   UNL     1     -41.483   2.764  77.482  1.00  0.00     0.123 A 
ATOM     12  C   UNL     1     -42.103   2.711  78.730  1.00  0.00     0.093 A 
BRANCH   3  13
ATOM     13  C   UNL     1     -36.291   5.409  79.020  1.00  0.00     0.021 A 
ATOM     14  C   UNL     1     -36.219   6.614  78.305  1.00  0.00     0.016 A 
ATOM     15  C   UNL     1     -34.979   7.185  78.003  1.00  0.00     0.047 A 
ATOM     16  C   UNL     1     -33.798   6.565  78.425  1.00  0.00     0.115 A 
ATOM     17  C   UNL     1     -35.100   4.802  79.462  1.00  0.00     0.016 A 
ATOM     18  C   UNL     1     -33.862   5.374  79.158  1.00  0.00     0.047 A 
BRANCH  16  19
ATOM     19  O   UNL     1     -32.569   7.144  78.115  1.00  0.00    -0.508 OA
ATOM     20  H   UNL     1     -32.193   7.115  77.174  1.00  0.00     0.293 HD
ENDBRANCH  16  19
ENDBRANCH   3  13
BRANCH  10  21
ATOM     21  O   UNL     1     -42.128   2.983  81.092  1.00  0.00    -0.507 OA
ATOM     22  H   UNL     1     -42.071   2.156  81.667  1.00  0.00     0.293 HD
ENDBRANCH  10  21
BRANCH  11  23
ATOM     23  O   UNL     1     -42.155   2.285  76.359  1.00  0.00    -0.508 OA
ATOM     24  H   UNL     1     -42.506   2.912  75.645  1.00  0.00     0.293 HD
ENDBRANCH  11  23
ENDBRANCH   1   2
BRANCH   1  25
ATOM     25  C   UNL     1     -37.735   6.535  82.396  1.00  0.00     0.339 C 
ATOM     26  C   UNL     1     -37.069   7.739  81.709  1.00  0.00     0.214 C 
ATOM     27  O   UNL     1     -37.419   6.456  83.778  1.00  0.00    -0.332 OA
ATOM     28  C   UNL     1     -35.547   7.673  81.894  1.00  0.00     0.180 C 
ATOM     29  C   UNL     1     -36.024   6.389  84.059  1.00  0.00     0.179 C 
ATOM     30  C   UNL     1     -35.189   7.511  83.386  1.00  0.00     0.177 C 
BRANCH  26  31
ATOM     31  O   UNL     1     -37.586   8.925  82.259  1.00  0.00    -0.384 OA
ATOM     32  H   UNL     1     -36.893   9.287  82.872  1.00  0.00     0.211 HD
ENDBRANCH  26  31
BRANCH  28  33
ATOM     33  O   UNL     1     -34.953   8.830  81.362  1.00  0.00    -0.387 OA
ATOM     34  H   UNL     1     -35.067   9.546  82.040  1.00  0.00     0.211 HD
ENDBRANCH  28  33
BRANCH  29  35
ATOM     35  C   UNL     1     -35.447   4.962  83.911  1.00  0.00     0.191 C 
BRANCH  35  36
ATOM     36  O   UNL     1     -36.415   3.974  84.125  1.00  0.00    -0.394 OA
ATOM     37  H   UNL     1     -36.579   3.551  83.242  1.00  0.00     0.210 HD
ENDBRANCH  35  36
ENDBRANCH  29  35
BRANCH  30  38
ATOM     38  O   UNL     1     -35.422   8.719  84.069  1.00  0.00    -0.387 OA
ATOM     39  H   UNL     1     -35.211   9.457  83.440  1.00  0.00     0.211 HD
ENDBRANCH  30  38
ENDBRANCH   1  25
TORSDOF 11
ENDMDL
MODEL 5
REMARK VINA RESULT:    -6.155      2.103      7.225
REMARK INTER + INTRA:         -10.189
REMARK INTER:                  -9.182
REMARK INTRA:                  -1.007
REMARK UNBOUND:                -1.334
REMARK SMILES O=c1c(O[C@H]2O[C@@H](CO)[C@H](O)[C@H](O)[C@@H]2O)c(-c2ccc(O)cc2)oc2cc(O)cc(O)c12
REMARK SMILES IDX 4 1 3 2 16 3 24 4 2 5 25 6 1 7 32 8 26 9 30 10 27 11 29 12
REMARK SMILES IDX 17 13 18 14 19 15 20 16 23 17 22 18 21 19 31 21 28 23 5 25
REMARK SMILES IDX 14 26 6 27 12 28 7 29 10 30 15 31 13 33 8 35 9 36 11 38
REMARK H PARENT 21 20 31 22 28 24 15 32 13 34 9 37 11 39
REMARK Flexibility Score: inf
ROOT
ATOM      1  O   UNL     1     -37.680   4.689  78.649  1.00  0.00    -0.454 OA
ENDROOT
BRANCH   1   2
ATOM      2  C   UNL     1     -36.668   5.433  79.269  1.00  0.00     0.214 A 
ATOM      3  C   UNL     1     -36.451   5.370  80.660  1.00  0.00     0.180 A 
ATOM      4  O   UNL     1     -35.444   6.047  81.196  1.00  0.00    -0.452 OA
ATOM      5  C   UNL     1     -35.854   6.264  78.491  1.00  0.00     0.239 A 
ATOM      6  C   UNL     1     -34.619   6.814  80.493  1.00  0.00     0.146 A 
ATOM      7  O   UNL     1     -36.126   6.392  77.269  1.00  0.00    -0.285 OA
ATOM      8  C   UNL     1     -34.769   6.948  79.088  1.00  0.00     0.111 A 
ATOM      9  C   UNL     1     -33.610   7.504  81.170  1.00  0.00     0.094 A 
ATOM     10  C   UNL     1     -33.840   7.770  78.380  1.00  0.00     0.134 A 
ATOM     11  C   UNL     1     -32.741   8.346  80.474  1.00  0.00     0.123 A 
ATOM     12  C   UNL     1     -32.862   8.477  79.092  1.00  0.00     0.093 A 
BRANCH   3  13
ATOM     13  C   UNL     1     -37.324   4.587  81.562  1.00  0.00     0.021 A 
ATOM     14  C   UNL     1     -37.247   3.185  81.557  1.00  0.00     0.016 A 
ATOM     15  C   UNL     1     -38.059   2.429  82.408  1.00  0.00     0.047 A 
ATOM     16  C   UNL     1     -38.945   3.064  83.284  1.00  0.00     0.115 A 
ATOM     17  C   UNL     1     -38.201   5.221  82.462  1.00  0.00     0.016 A 
ATOM     18  C   UNL     1     -39.012   4.463  83.311  1.00  0.00     0.047 A 
BRANCH  16  19
ATOM     19  O   UNL     1     -39.750   2.298  84.124  1.00  0.00    -0.508 OA
ATOM     20  H   UNL     1     -40.761   2.354  84.084  1.00  0.00     0.293 HD
ENDBRANCH  16  19
ENDBRANCH   3  13
BRANCH  10  21
ATOM     21  O   UNL     1     -33.814   7.904  76.989  1.00  0.00    -0.507 OA
ATOM     22  H   UNL     1     -34.285   7.292  76.340  1.00  0.00     0.293 HD
ENDBRANCH  10  21
BRANCH  11  23
ATOM     23  O   UNL     1     -31.745   9.051  81.147  1.00  0.00    -0.508 OA
ATOM     24  H   UNL     1     -30.851   8.627  81.366  1.00  0.00     0.293 HD
ENDBRANCH  11  23
ENDBRANCH   1   2
BRANCH   1  25
ATOM     25  C   UNL     1     -38.914   5.266  78.219  1.00  0.00     0.339 C 
ATOM     26  C   UNL     1     -39.903   5.414  79.387  1.00  0.00     0.214 C 
ATOM     27  O   UNL     1     -39.462   4.534  77.134  1.00  0.00    -0.332 OA
ATOM     28  C   UNL     1     -40.358   4.030  79.868  1.00  0.00     0.180 C 
ATOM     29  C   UNL     1     -39.916   3.229  77.475  1.00  0.00     0.179 C 
ATOM     30  C   UNL     1     -40.888   3.193  78.685  1.00  0.00     0.177 C 
BRANCH  26  31
ATOM     31  O   UNL     1     -41.003   6.180  78.963  1.00  0.00    -0.384 OA
ATOM     32  H   UNL     1     -41.550   6.374  79.769  1.00  0.00     0.211 HD
ENDBRANCH  26  31
BRANCH  28  33
ATOM     33  O   UNL     1     -41.345   4.172  80.858  1.00  0.00    -0.387 OA
ATOM     34  H   UNL     1     -41.541   5.142  80.929  1.00  0.00     0.211 HD
ENDBRANCH  28  33
BRANCH  29  35
ATOM     35  C   UNL     1     -38.775   2.185  77.519  1.00  0.00     0.191 C 
BRANCH  35  36
ATOM     36  O   UNL     1     -38.377   1.891  78.828  1.00  0.00    -0.394 OA
ATOM     37  H   UNL     1     -37.595   1.285  78.751  1.00  0.00     0.210 HD
ENDBRANCH  35  36
ENDBRANCH  29  35
BRANCH  30  38
ATOM     38  O   UNL     1     -42.140   3.684  78.272  1.00  0.00    -0.387 OA
ATOM     39  H   UNL     1     -42.035   4.658  78.113  1.00  0.00     0.211 HD
ENDBRANCH  30  38
ENDBRANCH   1  25
TORSDOF 11
ENDMDL
MODEL 6
REMARK VINA RESULT:    -6.122      1.513      2.704
REMARK INTER + INTRA:         -10.141
REMARK INTER:                  -8.917
REMARK INTRA:                  -1.225
REMARK UNBOUND:                -1.334
REMARK SMILES O=c1c(O[C@H]2O[C@@H](CO)[C@H](O)[C@H](O)[C@@H]2O)c(-c2ccc(O)cc2)oc2cc(O)cc(O)c12
REMARK SMILES IDX 4 1 3 2 16 3 24 4 2 5 25 6 1 7 32 8 26 9 30 10 27 11 29 12
REMARK SMILES IDX 17 13 18 14 19 15 20 16 23 17 22 18 21 19 31 21 28 23 5 25
REMARK SMILES IDX 14 26 6 27 12 28 7 29 10 30 15 31 13 33 8 35 9 36 11 38
REMARK H PARENT 21 20 31 22 28 24 15 32 13 34 9 37 11 39
REMARK Flexibility Score: inf
ROOT
ATOM      1  O   UNL     1     -36.238   7.065  79.931  1.00  0.00    -0.454 OA
ENDROOT
BRANCH   1   2
ATOM      2  C   UNL     1     -37.005   5.979  80.372  1.00  0.00     0.214 A 
ATOM      3  C   UNL     1     -38.192   5.598  79.717  1.00  0.00     0.180 A 
ATOM      4  O   UNL     1     -38.855   4.527  80.133  1.00  0.00    -0.452 OA
ATOM      5  C   UNL     1     -36.584   5.254  81.493  1.00  0.00     0.239 A 
ATOM      6  C   UNL     1     -38.473   3.783  81.165  1.00  0.00     0.146 A 
ATOM      7  O   UNL     1     -35.581   5.669  82.130  1.00  0.00    -0.285 OA
ATOM      8  C   UNL     1     -37.295   4.098  81.893  1.00  0.00     0.111 A 
ATOM      9  C   UNL     1     -39.265   2.693  81.533  1.00  0.00     0.094 A 
ATOM     10  C   UNL     1     -36.920   3.251  82.980  1.00  0.00     0.134 A 
ATOM     11  C   UNL     1     -38.917   1.904  82.629  1.00  0.00     0.123 A 
ATOM     12  C   UNL     1     -37.756   2.188  83.346  1.00  0.00     0.093 A 
BRANCH   3  13
ATOM     13  C   UNL     1     -38.752   6.366  78.582  1.00  0.00     0.021 A 
ATOM     14  C   UNL     1     -39.595   7.459  78.833  1.00  0.00     0.016 A 
ATOM     15  C   UNL     1     -40.128   8.200  77.774  1.00  0.00     0.047 A 
ATOM     16  C   UNL     1     -39.812   7.867  76.453  1.00  0.00     0.115 A 
ATOM     17  C   UNL     1     -38.419   6.049  77.251  1.00  0.00     0.016 A 
ATOM     18  C   UNL     1     -38.953   6.791  76.195  1.00  0.00     0.047 A 
BRANCH  16  19
ATOM     19  O   UNL     1     -40.352   8.612  75.407  1.00  0.00    -0.508 OA
ATOM     20  H   UNL     1     -40.519   8.202  74.496  1.00  0.00     0.293 HD
ENDBRANCH  16  19
ENDBRANCH   3  13
BRANCH  10  21
ATOM     21  O   UNL     1     -35.736   3.390  83.709  1.00  0.00    -0.507 OA
ATOM     22  H   UNL     1     -35.058   4.126  83.578  1.00  0.00     0.293 HD
ENDBRANCH  10  21
BRANCH  11  23
ATOM     23  O   UNL     1     -39.716   0.828  83.011  1.00  0.00    -0.508 OA
ATOM     24  H   UNL     1     -39.573   0.350  83.894  1.00  0.00     0.293 HD
ENDBRANCH  11  23
ENDBRANCH   1   2
BRANCH   1  25
ATOM     25  C   UNL     1     -35.340   6.981  78.823  1.00  0.00     0.339 C 
ATOM     26  C   UNL     1     -33.893   7.282  79.248  1.00  0.00     0.214 C 
ATOM     27  O   UNL     1     -35.776   7.809  77.757  1.00  0.00    -0.332 OA
ATOM     28  C   UNL     1     -33.759   8.758  79.645  1.00  0.00     0.180 C 
ATOM     29  C   UNL     1     -35.692   9.205  78.025  1.00  0.00     0.179 C 
ATOM     30  C   UNL     1     -34.298   9.671  78.525  1.00  0.00     0.177 C 
BRANCH  26  31
ATOM     31  O   UNL     1     -33.029   6.972  78.183  1.00  0.00    -0.384 OA
ATOM     32  H   UNL     1     -32.221   7.540  78.291  1.00  0.00     0.211 HD
ENDBRANCH  26  31
BRANCH  28  33
ATOM     33  O   UNL     1     -32.414   9.054  79.924  1.00  0.00    -0.387 OA
ATOM     34  H   UNL     1     -32.248   8.772  80.862  1.00  0.00     0.211 HD
ENDBRANCH  28  33
BRANCH  29  35
ATOM     35  C   UNL     1     -36.893   9.736  78.842  1.00  0.00     0.191 C 
BRANCH  35  36
ATOM     36  O   UNL     1     -36.543  10.038  80.163  1.00  0.00    -0.394 OA
ATOM     37  H   UNL     1     -36.092   9.231  80.522  1.00  0.00     0.210 HD
ENDBRANCH  35  36
ENDBRANCH  29  35
BRANCH  30  38
ATOM     38  O   UNL     1     -33.406   9.674  77.437  1.00  0.00    -0.387 OA
ATOM     39  H   UNL     1     -33.001  10.579  77.393  1.00  0.00     0.211 HD
ENDBRANCH  30  38
ENDBRANCH   1  25
TORSDOF 11
ENDMDL
MODEL 7
REMARK VINA RESULT:    -6.090      2.212      6.647
REMARK INTER + INTRA:         -10.094
REMARK INTER:                  -9.247
REMARK INTRA:                  -0.847
REMARK UNBOUND:                -1.334
REMARK SMILES O=c1c(O[C@H]2O[C@@H](CO)[C@H](O)[C@H](O)[C@@H]2O)c(-c2ccc(O)cc2)oc2cc(O)cc(O)c12
REMARK SMILES IDX 4 1 3 2 16 3 24 4 2 5 25 6 1 7 32 8 26 9 30 10 27 11 29 12
REMARK SMILES IDX 17 13 18 14 19 15 20 16 23 17 22 18 21 19 31 21 28 23 5 25
REMARK SMILES IDX 14 26 6 27 12 28 7 29 10 30 15 31 13 33 8 35 9 36 11 38
REMARK H PARENT 21 20 31 22 28 24 15 32 13 34 9 37 11 39
REMARK Flexibility Score: inf
ROOT
ATOM      1  O   UNL     1     -37.303   5.220  81.339  1.00  0.00    -0.454 OA
ENDROOT
BRANCH   1   2
ATOM      2  C   UNL     1     -36.780   5.969  80.276  1.00  0.00     0.214 A 
ATOM      3  C   UNL     1     -37.298   5.861  78.971  1.00  0.00     0.180 A 
ATOM      4  O   UNL     1     -36.811   6.632  78.008  1.00  0.00    -0.452 OA
ATOM      5  C   UNL     1     -35.713   6.842  80.514  1.00  0.00     0.239 A 
ATOM      6  C   UNL     1     -35.828   7.506  78.194  1.00  0.00     0.146 A 
ATOM      7  O   UNL     1     -35.192   6.850  81.660  1.00  0.00    -0.285 OA
ATOM      8  C   UNL     1     -35.236   7.674  79.474  1.00  0.00     0.111 A 
ATOM      9  C   UNL     1     -35.376   8.245  77.099  1.00  0.00     0.094 A 
ATOM     10  C   UNL     1     -34.198   8.644  79.621  1.00  0.00     0.134 A 
ATOM     11  C   UNL     1     -34.325   9.151  77.243  1.00  0.00     0.123 A 
ATOM     12  C   UNL     1     -33.742   9.342  78.496  1.00  0.00     0.093 A 
BRANCH   3  13
ATOM     13  C   UNL     1     -38.364   4.896  78.619  1.00  0.00     0.021 A 
ATOM     14  C   UNL     1     -38.016   3.624  78.137  1.00  0.00     0.016 A 
ATOM     15  C   UNL     1     -39.008   2.697  77.806  1.00  0.00     0.047 A 
ATOM     16  C   UNL     1     -40.359   3.024  77.966  1.00  0.00     0.115 A 
ATOM     17  C   UNL     1     -39.724   5.211  78.800  1.00  0.00     0.016 A 
ATOM     18  C   UNL     1     -40.714   4.283  78.467  1.00  0.00     0.047 A 
BRANCH  16  19
ATOM     19  O   UNL     1     -41.337   2.091  77.630  1.00  0.00    -0.508 OA
ATOM     20  H   UNL     1     -41.362   1.658  76.713  1.00  0.00     0.293 HD
ENDBRANCH  16  19
ENDBRANCH   3  13
BRANCH  10  21
ATOM     21  O   UNL     1     -33.605   8.977  80.842  1.00  0.00    -0.507 OA
ATOM     22  H   UNL     1     -33.836   8.559  81.730  1.00  0.00     0.293 HD
ENDBRANCH  10  21
BRANCH  11  23
ATOM     23  O   UNL     1     -33.856   9.876  76.149  1.00  0.00    -0.508 OA
ATOM     24  H   UNL     1     -33.903   9.504  75.208  1.00  0.00     0.293 HD
ENDBRANCH  11  23
ENDBRANCH   1   2
BRANCH   1  25
ATOM     25  C   UNL     1     -37.354   3.792  81.329  1.00  0.00     0.339 C 
ATOM     26  C   UNL     1     -38.772   3.278  81.624  1.00  0.00     0.214 C 
ATOM     27  O   UNL     1     -36.385   3.248  82.212  1.00  0.00    -0.332 OA
ATOM     28  C   UNL     1     -39.154   3.593  83.077  1.00  0.00     0.180 C 
ATOM     29  C   UNL     1     -36.647   3.487  83.591  1.00  0.00     0.179 C 
ATOM     30  C   UNL     1     -38.072   3.073  84.045  1.00  0.00     0.177 C 
BRANCH  26  31
ATOM     31  O   UNL     1     -38.817   1.893  81.388  1.00  0.00    -0.384 OA
ATOM     32  H   UNL     1     -38.682   1.444  82.264  1.00  0.00     0.211 HD
ENDBRANCH  26  31
BRANCH  28  33
ATOM     33  O   UNL     1     -40.403   3.024  83.374  1.00  0.00    -0.387 OA
ATOM     34  H   UNL     1     -40.661   3.353  84.274  1.00  0.00     0.211 HD
ENDBRANCH  28  33
BRANCH  29  35
ATOM     35  C   UNL     1     -36.190   4.889  84.058  1.00  0.00     0.191 C 
BRANCH  35  36
ATOM     36  O   UNL     1     -34.856   5.150  83.722  1.00  0.00    -0.394 OA
ATOM     37  H   UNL     1     -34.339   4.348  83.994  1.00  0.00     0.210 HD
ENDBRANCH  35  36
ENDBRANCH  29  35
BRANCH  30  38
ATOM     38  O   UNL     1     -38.131   1.670  84.123  1.00  0.00    -0.387 OA
ATOM     39  H   UNL     1     -38.038   1.321  83.199  1.00  0.00     0.211 HD
ENDBRANCH  30  38
ENDBRANCH   1  25
TORSDOF 11
ENDMDL
MODEL 8
REMARK VINA RESULT:    -6.060      1.303      2.155
REMARK INTER + INTRA:         -10.052
REMARK INTER:                  -8.898
REMARK INTRA:                  -1.154
REMARK UNBOUND:                -1.334
REMARK SMILES O=c1c(O[C@H]2O[C@@H](CO)[C@H](O)[C@H](O)[C@@H]2O)c(-c2ccc(O)cc2)oc2cc(O)cc(O)c12
REMARK SMILES IDX 4 1 3 2 16 3 24 4 2 5 25 6 1 7 32 8 26 9 30 10 27 11 29 12
REMARK SMILES IDX 17 13 18 14 19 15 20 16 23 17 22 18 21 19 31 21 28 23 5 25
REMARK SMILES IDX 14 26 6 27 12 28 7 29 10 30 15 31 13 33 8 35 9 36 11 38
REMARK H PARENT 21 20 31 22 28 24 15 32 13 34 9 37 11 39
REMARK Flexibility Score: inf
ROOT
ATOM      1  O   UNL     1     -36.978   7.405  79.796  1.00  0.00    -0.454 OA
ENDROOT
BRANCH   1   2
ATOM      2  C   UNL     1     -37.905   6.437  80.203  1.00  0.00     0.214 A 
ATOM      3  C   UNL     1     -39.101   6.214  79.492  1.00  0.00     0.180 A 
ATOM      4  O   UNL     1     -39.922   5.246  79.880  1.00  0.00    -0.452 OA
ATOM      5  C   UNL     1     -37.641   5.675  81.347  1.00  0.00     0.239 A 
ATOM      6  C   UNL     1     -39.694   4.469  80.933  1.00  0.00     0.146 A 
ATOM      7  O   UNL     1     -36.623   5.956  82.030  1.00  0.00    -0.285 OA
ATOM      8  C   UNL     1     -38.521   4.629  81.716  1.00  0.00     0.111 A 
ATOM      9  C   UNL     1     -40.644   3.500  81.265  1.00  0.00     0.094 A 
ATOM     10  C   UNL     1     -38.317   3.751  82.824  1.00  0.00     0.134 A 
ATOM     11  C   UNL     1     -40.459   2.683  82.381  1.00  0.00     0.123 A 
ATOM     12  C   UNL     1     -39.305   2.815  83.153  1.00  0.00     0.093 A 
BRANCH   3  13
ATOM     13  C   UNL     1     -39.495   7.037  78.328  1.00  0.00     0.021 A 
ATOM     14  C   UNL     1     -40.236   8.213  78.529  1.00  0.00     0.016 A 
ATOM     15  C   UNL     1     -40.612   9.007  77.443  1.00  0.00     0.047 A 
ATOM     16  C   UNL     1     -40.241   8.644  76.144  1.00  0.00     0.115 A 
ATOM     17  C   UNL     1     -39.105   6.689  77.021  1.00  0.00     0.016 A 
ATOM     18  C   UNL     1     -39.483   7.485  75.936  1.00  0.00     0.047 A 
BRANCH  16  19
ATOM     19  O   UNL     1     -40.625   9.444  75.070  1.00  0.00    -0.508 OA
ATOM     20  H   UNL     1     -41.265   9.106  74.360  1.00  0.00     0.293 HD
ENDBRANCH  16  19
ENDBRANCH   3  13
BRANCH  10  21
ATOM     21  O   UNL     1     -37.161   3.737  83.610  1.00  0.00    -0.507 OA
ATOM     22  H   UNL     1     -36.334   3.194  83.412  1.00  0.00     0.293 HD
ENDBRANCH  10  21
BRANCH  11  23
ATOM     23  O   UNL     1     -41.413   1.729  82.729  1.00  0.00    -0.508 OA
ATOM     24  H   UNL     1     -41.440   1.319  83.655  1.00  0.00     0.293 HD
ENDBRANCH  11  23
ENDBRANCH   1   2
BRANCH   1  25
ATOM     25  C   UNL     1     -36.289   7.340  78.546  1.00  0.00     0.339 C 
ATOM     26  C   UNL     1     -35.678   5.949  78.312  1.00  0.00     0.214 C 
ATOM     27  O   UNL     1     -35.327   8.379  78.446  1.00  0.00    -0.332 OA
ATOM     28  C   UNL     1     -34.538   5.702  79.308  1.00  0.00     0.180 C 
ATOM     29  C   UNL     1     -34.222   8.244  79.334  1.00  0.00     0.179 C 
ATOM     30  C   UNL     1     -33.521   6.861  79.265  1.00  0.00     0.177 C 
BRANCH  26  31
ATOM     31  O   UNL     1     -35.209   5.871  76.989  1.00  0.00    -0.384 OA
ATOM     32  H   UNL     1     -35.409   4.954  76.663  1.00  0.00     0.211 HD
ENDBRANCH  26  31
BRANCH  28  33
ATOM     33  O   UNL     1     -33.911   4.479  79.019  1.00  0.00    -0.387 OA
ATOM     34  H   UNL     1     -34.622   3.787  79.013  1.00  0.00     0.211 HD
ENDBRANCH  28  33
BRANCH  29  35
ATOM     35  C   UNL     1     -34.530   8.753  80.762  1.00  0.00     0.191 C 
BRANCH  35  36
ATOM     36  O   UNL     1     -34.502   7.723  81.709  1.00  0.00    -0.394 OA
ATOM     37  H   UNL     1     -33.811   7.978  82.375  1.00  0.00     0.210 HD
ENDBRANCH  35  36
ENDBRANCH  29  35
BRANCH  30  38
ATOM     38  O   UNL     1     -32.768   6.795  78.079  1.00  0.00    -0.387 OA
ATOM     39  H   UNL     1     -31.900   6.371  78.306  1.00  0.00     0.211 HD
ENDBRANCH  30  38
ENDBRANCH   1  25
TORSDOF 11
ENDMDL
MODEL 9
REMARK VINA RESULT:    -6.033      2.251      6.425
REMARK INTER + INTRA:         -10.013
REMARK INTER:                  -8.489
REMARK INTRA:                  -1.525
REMARK UNBOUND:                -1.334
REMARK SMILES O=c1c(O[C@H]2O[C@@H](CO)[C@H](O)[C@H](O)[C@@H]2O)c(-c2ccc(O)cc2)oc2cc(O)cc(O)c12
REMARK SMILES IDX 4 1 3 2 16 3 24 4 2 5 25 6 1 7 32 8 26 9 30 10 27 11 29 12
REMARK SMILES IDX 17 13 18 14 19 15 20 16 23 17 22 18 21 19 31 21 28 23 5 25
REMARK SMILES IDX 14 26 6 27 12 28 7 29 10 30 15 31 13 33 8 35 9 36 11 38
REMARK H PARENT 21 20 31 22 28 24 15 32 13 34 9 37 11 39
REMARK Flexibility Score: inf
ROOT
ATOM      1  O   UNL     1     -37.427   5.954  81.034  1.00  0.00    -0.454 OA
ENDROOT
BRANCH   1   2
ATOM      2  C   UNL     1     -36.227   6.659  80.877  1.00  0.00     0.214 A 
ATOM      3  C   UNL     1     -35.949   7.395  79.708  1.00  0.00     0.180 A 
ATOM      4  O   UNL     1     -34.825   8.095  79.627  1.00  0.00    -0.452 OA
ATOM      5  C   UNL     1     -35.276   6.630  81.904  1.00  0.00     0.239 A 
ATOM      6  C   UNL     1     -33.914   8.133  80.592  1.00  0.00     0.146 A 
ATOM      7  O   UNL     1     -35.492   5.885  82.896  1.00  0.00    -0.285 OA
ATOM      8  C   UNL     1     -34.102   7.413  81.801  1.00  0.00     0.111 A 
ATOM      9  C   UNL     1     -32.753   8.882  80.385  1.00  0.00     0.094 A 
ATOM     10  C   UNL     1     -33.099   7.507  82.813  1.00  0.00     0.134 A 
ATOM     11  C   UNL     1     -31.755   8.924  81.359  1.00  0.00     0.123 A 
ATOM     12  C   UNL     1     -31.931   8.237  82.560  1.00  0.00     0.093 A 
BRANCH   3  13
ATOM     13  C   UNL     1     -36.861   7.402  78.542  1.00  0.00     0.021 A 
ATOM     14  C   UNL     1     -37.709   8.501  78.333  1.00  0.00     0.016 A 
ATOM     15  C   UNL     1     -38.572   8.529  77.234  1.00  0.00     0.047 A 
ATOM     16  C   UNL     1     -38.586   7.468  76.323  1.00  0.00     0.115 A 
ATOM     17  C   UNL     1     -36.863   6.348  77.610  1.00  0.00     0.016 A 
ATOM     18  C   UNL     1     -37.727   6.378  76.513  1.00  0.00     0.047 A 
BRANCH  16  19
ATOM     19  O   UNL     1     -39.454   7.508  75.233  1.00  0.00    -0.508 OA
ATOM     20  H   UNL     1     -40.459   7.521  75.357  1.00  0.00     0.293 HD
ENDBRANCH  16  19
ENDBRANCH   3  13
BRANCH  10  21
ATOM     21  O   UNL     1     -33.210   6.933  84.082  1.00  0.00    -0.507 OA
ATOM     22  H   UNL     1     -33.590   6.018  84.272  1.00  0.00     0.293 HD
ENDBRANCH  10  21
BRANCH  11  23
ATOM     23  O   UNL     1     -30.587   9.655  81.149  1.00  0.00    -0.508 OA
ATOM     24  H   UNL     1     -29.713   9.393  81.589  1.00  0.00     0.293 HD
ENDBRANCH  11  23
ENDBRANCH   1   2
BRANCH   1  25
ATOM     25  C   UNL     1     -37.517   4.535  80.892  1.00  0.00     0.339 C 
ATOM     26  C   UNL     1     -38.537   4.142  79.811  1.00  0.00     0.214 C 
ATOM     27  O   UNL     1     -37.785   3.920  82.142  1.00  0.00    -0.332 OA
ATOM     28  C   UNL     1     -39.956   4.498  80.275  1.00  0.00     0.180 C 
ATOM     29  C   UNL     1     -39.083   4.189  82.663  1.00  0.00     0.179 C 
ATOM     30  C   UNL     1     -40.237   3.897  81.667  1.00  0.00     0.177 C 
BRANCH  26  31
ATOM     31  O   UNL     1     -38.428   2.763  79.558  1.00  0.00    -0.384 OA
ATOM     32  H   UNL     1     -38.519   2.299  80.432  1.00  0.00     0.211 HD
ENDBRANCH  26  31
BRANCH  28  33
ATOM     33  O   UNL     1     -40.892   4.035  79.335  1.00  0.00    -0.387 OA
ATOM     34  H   UNL     1     -40.396   3.880  78.489  1.00  0.00     0.211 HD
ENDBRANCH  28  33
BRANCH  29  35
ATOM     35  C   UNL     1     -39.171   5.552  83.389  1.00  0.00     0.191 C 
BRANCH  35  36
ATOM     36  O   UNL     1     -38.011   5.840  84.118  1.00  0.00    -0.394 OA
ATOM     37  H   UNL     1     -37.249   5.670  83.505  1.00  0.00     0.210 HD
ENDBRANCH  35  36
ENDBRANCH  29  35
BRANCH  30  38
ATOM     38  O   UNL     1     -40.404   2.504  81.565  1.00  0.00    -0.387 OA
ATOM     39  H   UNL     1     -40.120   2.241  80.651  1.00  0.00     0.211 HD
ENDBRANCH  30  38
ENDBRANCH   1  25
TORSDOF 11
ENDMDL
