MODEL 1
REMARK VINA RESULT:    -8.441      0.000      0.000
REMARK INTER + INTRA:          -9.989
REMARK INTER:                 -10.169
REMARK INTRA:                   0.180
REMARK UNBOUND:                 0.180
REMARK SMILES O=c1c(O)c(-c2ccc(O)c(O)c2)oc2cc(O)cc(O)c12
REMARK SMILES IDX 5 1 3 2 2 3 1 4 22 5 20 6 19 7 17 8 16 9 15 10 14 11 6 12
REMARK SMILES IDX 7 13 8 14 9 15 13 16 11 17 10 18 12 20 4 22 21 24 18 26
REMARK H PARENT 10 19 12 21 4 23 21 25 18 27
REMARK Flexibility Score: inf
ROOT
ATOM      1  C   UNL     1      17.230  22.641  40.543  1.00  0.00     0.180 A 
ATOM      2  C   UNL     1      16.820  23.626  39.629  1.00  0.00     0.208 A 
ATOM      3  C   UNL     1      15.689  24.403  39.927  1.00  0.00     0.238 A 
ATOM      4  O   UNL     1      15.294  25.246  39.080  1.00  0.00    -0.285 OA
ATOM      5  C   UNL     1      14.993  24.196  41.142  1.00  0.00     0.111 A 
ATOM      6  C   UNL     1      13.859  24.953  41.565  1.00  0.00     0.134 A 
ATOM      7  C   UNL     1      13.171  24.576  42.726  1.00  0.00     0.093 A 
ATOM      8  C   UNL     1      13.616  23.510  43.512  1.00  0.00     0.123 A 
ATOM      9  C   UNL     1      14.756  22.804  43.139  1.00  0.00     0.094 A 
ATOM     10  C   UNL     1      15.442  23.133  41.968  1.00  0.00     0.146 A 
ATOM     11  O   UNL     1      16.519  22.427  41.643  1.00  0.00    -0.452 OA
ENDROOT
BRANCH   1  12
ATOM     12  C   UNL     1      18.427  21.800  40.311  1.00  0.00     0.025 A 
ATOM     13  C   UNL     1      18.425  20.425  40.603  1.00  0.00     0.016 A 
ATOM     14  C   UNL     1      19.558  19.647  40.353  1.00  0.00     0.051 A 
ATOM     15  C   UNL     1      20.705  20.227  39.796  1.00  0.00     0.157 A 
ATOM     16  C   UNL     1      19.572  22.373  39.733  1.00  0.00     0.062 A 
ATOM     17  C   UNL     1      20.711  21.597  39.481  1.00  0.00     0.158 A 
BRANCH  15  18
ATOM     18  O   UNL     1      21.835  19.449  39.549  1.00  0.00    -0.504 OA
ATOM     19  H   UNL     1      22.768  19.842  39.589  1.00  0.00     0.293 HD
ENDBRANCH  15  18
BRANCH  17  20
ATOM     20  O   UNL     1      21.833  22.203  38.919  1.00  0.00    -0.504 OA
ATOM     21  H   UNL     1      22.103  22.048  37.956  1.00  0.00     0.293 HD
ENDBRANCH  17  20
ENDBRANCH   1  12
BRANCH   2  22
ATOM     22  O   UNL     1      17.508  23.799  38.425  1.00  0.00    -0.502 OA
ATOM     23  H   UNL     1      17.157  24.383  37.675  1.00  0.00     0.293 HD
ENDBRANCH   2  22
BRANCH   6  24
ATOM     24  O   UNL     1      13.388  26.091  40.903  1.00  0.00    -0.507 OA
ATOM     25  H   UNL     1      13.954  26.694  40.325  1.00  0.00     0.293 HD
ENDBRANCH   6  24
BRANCH   8  26
ATOM     26  O   UNL     1      12.934  23.151  44.673  1.00  0.00    -0.508 OA
ATOM     27  H   UNL     1      12.908  23.760  45.482  1.00  0.00     0.293 HD
ENDBRANCH   8  26
TORSDOF 6
ENDMDL
MODEL 2
REMARK VINA RESULT:    -8.084      1.187      1.539
REMARK INTER + INTRA:          -9.559
REMARK INTER:                  -9.376
REMARK INTRA:                  -0.182
REMARK UNBOUND:                 0.180
REMARK SMILES O=c1c(O)c(-c2ccc(O)c(O)c2)oc2cc(O)cc(O)c12
REMARK SMILES IDX 5 1 3 2 2 3 1 4 22 5 20 6 19 7 17 8 16 9 15 10 14 11 6 12
REMARK SMILES IDX 7 13 8 14 9 15 13 16 11 17 10 18 12 20 4 22 21 24 18 26
REMARK H PARENT 10 19 12 21 4 23 21 25 18 27
REMARK Flexibility Score: inf
ROOT
ATOM      1  C   UNL     1      16.107  22.700  41.358  1.00  0.00     0.180 A 
ATOM      2  C   UNL     1      15.528  23.712  40.574  1.00  0.00     0.208 A 
ATOM      3  C   UNL     1      14.471  24.467  41.109  1.00  0.00     0.238 A 
ATOM      4  O   UNL     1      13.920  25.335  40.384  1.00  0.00    -0.285 OA
ATOM      5  C   UNL     1      14.019  24.211  42.426  1.00  0.00     0.111 A 
ATOM      6  C   UNL     1      12.984  24.941  43.083  1.00  0.00     0.134 A 
ATOM      7  C   UNL     1      12.530  24.516  44.339  1.00  0.00     0.093 A 
ATOM      8  C   UNL     1      13.119  23.429  44.988  1.00  0.00     0.123 A 
ATOM      9  C   UNL     1      14.171  22.748  44.380  1.00  0.00     0.094 A 
ATOM     10  C   UNL     1      14.621  23.124  43.113  1.00  0.00     0.146 A 
ATOM     11  O   UNL     1      15.619  22.441  42.565  1.00  0.00    -0.452 OA
ENDROOT
BRANCH   1  12
ATOM     12  C   UNL     1      17.241  21.881  40.872  1.00  0.00     0.025 A 
ATOM     13  C   UNL     1      17.088  20.512  40.591  1.00  0.00     0.016 A 
ATOM     14  C   UNL     1      18.166  19.764  40.111  1.00  0.00     0.051 A 
ATOM     15  C   UNL     1      19.409  20.374  39.893  1.00  0.00     0.157 A 
ATOM     16  C   UNL     1      18.483  22.492  40.633  1.00  0.00     0.062 A 
ATOM     17  C   UNL     1      19.567  21.746  40.153  1.00  0.00     0.158 A 
BRANCH  15  18
ATOM     18  O   UNL     1      20.483  19.624  39.416  1.00  0.00    -0.504 OA
ATOM     19  H   UNL     1      20.595  18.647  39.655  1.00  0.00     0.293 HD
ENDBRANCH  15  18
BRANCH  17  20
ATOM     20  O   UNL     1      20.787  22.384  39.939  1.00  0.00    -0.504 OA
ATOM     21  H   UNL     1      21.618  22.150  40.470  1.00  0.00     0.293 HD
ENDBRANCH  17  20
ENDBRANCH   1  12
BRANCH   2  22
ATOM     22  O   UNL     1      15.974  23.934  39.268  1.00  0.00    -0.502 OA
ATOM     23  H   UNL     1      15.788  24.795  38.768  1.00  0.00     0.293 HD
ENDBRANCH   2  22
BRANCH   6  24
ATOM     24  O   UNL     1      12.391  26.096  42.564  1.00  0.00    -0.507 OA
ATOM     25  H   UNL     1      12.085  26.882  43.118  1.00  0.00     0.293 HD
ENDBRANCH   6  24
BRANCH   8  26
ATOM     26  O   UNL     1      12.672  23.023  46.243  1.00  0.00    -0.508 OA
ATOM     27  H   UNL     1      12.465  22.052  46.444  1.00  0.00     0.293 HD
ENDBRANCH   8  26
TORSDOF 6
ENDMDL
MODEL 3
REMARK VINA RESULT:    -7.811      1.242      6.707
REMARK INTER + INTRA:          -9.230
REMARK INTER:                  -9.544
REMARK INTRA:                   0.315
REMARK UNBOUND:                 0.180
REMARK SMILES O=c1c(O)c(-c2ccc(O)c(O)c2)oc2cc(O)cc(O)c12
REMARK SMILES IDX 5 1 3 2 2 3 1 4 22 5 20 6 19 7 17 8 16 9 15 10 14 11 6 12
REMARK SMILES IDX 7 13 8 14 9 15 13 16 11 17 10 18 12 20 4 22 21 24 18 26
REMARK H PARENT 10 19 12 21 4 23 21 25 18 27
REMARK Flexibility Score: inf
ROOT
ATOM      1  C   UNL     1      16.581  23.259  40.622  1.00  0.00     0.180 A 
ATOM      2  C   UNL     1      17.030  24.156  39.638  1.00  0.00     0.208 A 
ATOM      3  C   UNL     1      18.166  23.824  38.881  1.00  0.00     0.238 A 
ATOM      4  O   UNL     1      18.595  24.655  38.039  1.00  0.00    -0.285 OA
ATOM      5  C   UNL     1      18.827  22.593  39.107  1.00  0.00     0.111 A 
ATOM      6  C   UNL     1      19.962  22.137  38.371  1.00  0.00     0.134 A 
ATOM      7  C   UNL     1      20.615  20.962  38.767  1.00  0.00     0.093 A 
ATOM      8  C   UNL     1      20.134  20.195  39.830  1.00  0.00     0.123 A 
ATOM      9  C   UNL     1      18.992  20.601  40.516  1.00  0.00     0.094 A 
ATOM     10  C   UNL     1      18.340  21.787  40.168  1.00  0.00     0.146 A 
ATOM     11  O   UNL     1      17.261  22.143  40.854  1.00  0.00    -0.452 OA
ENDROOT
BRANCH   1  12
ATOM     12  C   UNL     1      15.377  23.528  41.442  1.00  0.00     0.025 A 
ATOM     13  C   UNL     1      14.359  24.385  40.990  1.00  0.00     0.016 A 
ATOM     14  C   UNL     1      13.221  24.604  41.770  1.00  0.00     0.051 A 
ATOM     15  C   UNL     1      13.077  23.961  43.007  1.00  0.00     0.157 A 
ATOM     16  C   UNL     1      15.219  22.870  42.673  1.00  0.00     0.062 A 
ATOM     17  C   UNL     1      14.081  23.087  43.459  1.00  0.00     0.158 A 
BRANCH  15  18
ATOM     18  O   UNL     1      11.942  24.184  43.784  1.00  0.00    -0.504 OA
ATOM     19  H   UNL     1      11.998  24.640  44.687  1.00  0.00     0.293 HD
ENDBRANCH  15  18
BRANCH  17  20
ATOM     20  O   UNL     1      13.964  22.427  44.681  1.00  0.00    -0.504 OA
ATOM     21  H   UNL     1      13.272  22.691  45.372  1.00  0.00     0.293 HD
ENDBRANCH  17  20
ENDBRANCH   1  12
BRANCH   2  22
ATOM     22  O   UNL     1      16.375  25.376  39.445  1.00  0.00    -0.502 OA
ATOM     23  H   UNL     1      15.888  25.604  38.587  1.00  0.00     0.293 HD
ENDBRANCH   2  22
BRANCH   6  24
ATOM     24  O   UNL     1      20.468  22.779  37.237  1.00  0.00    -0.507 OA
ATOM     25  H   UNL     1      20.979  23.649  37.249  1.00  0.00     0.293 HD
ENDBRANCH   6  24
BRANCH   8  26
ATOM     26  O   UNL     1      20.780  19.020  40.208  1.00  0.00    -0.508 OA
ATOM     27  H   UNL     1      20.519  18.518  41.049  1.00  0.00     0.293 HD
ENDBRANCH   8  26
TORSDOF 6
ENDMDL
MODEL 4
REMARK VINA RESULT:    -7.377      1.192      6.716
REMARK INTER + INTRA:          -8.706
REMARK INTER:                  -9.045
REMARK INTRA:                   0.339
REMARK UNBOUND:                 0.180
REMARK SMILES O=c1c(O)c(-c2ccc(O)c(O)c2)oc2cc(O)cc(O)c12
REMARK SMILES IDX 5 1 3 2 2 3 1 4 22 5 20 6 19 7 17 8 16 9 15 10 14 11 6 12
REMARK SMILES IDX 7 13 8 14 9 15 13 16 11 17 10 18 12 20 4 22 21 24 18 26
REMARK H PARENT 10 19 12 21 4 23 21 25 18 27
REMARK Flexibility Score: inf
ROOT
ATOM      1  C   UNL     1      16.218  23.093  41.066  1.00  0.00     0.180 A 
ATOM      2  C   UNL     1      16.651  23.966  40.054  1.00  0.00     0.208 A 
ATOM      3  C   UNL     1      17.758  23.604  39.269  1.00  0.00     0.238 A 
ATOM      4  O   UNL     1      18.175  24.415  38.401  1.00  0.00    -0.285 OA
ATOM      5  C   UNL     1      18.407  22.367  39.496  1.00  0.00     0.111 A 
ATOM      6  C   UNL     1      19.512  21.881  38.735  1.00  0.00     0.134 A 
ATOM      7  C   UNL     1      20.159  20.703  39.131  1.00  0.00     0.093 A 
ATOM      8  C   UNL     1      19.698  19.960  40.220  1.00  0.00     0.123 A 
ATOM      9  C   UNL     1      18.583  20.396  40.933  1.00  0.00     0.094 A 
ATOM     10  C   UNL     1      17.940  21.586  40.585  1.00  0.00     0.146 A 
ATOM     11  O   UNL     1      16.888  21.970  41.296  1.00  0.00    -0.452 OA
ENDROOT
BRANCH   1  12
ATOM     12  C   UNL     1      15.044  23.394  41.916  1.00  0.00     0.025 A 
ATOM     13  C   UNL     1      14.048  24.295  41.499  1.00  0.00     0.016 A 
ATOM     14  C   UNL     1      12.937  24.544  42.308  1.00  0.00     0.051 A 
ATOM     15  C   UNL     1      12.797  23.890  43.539  1.00  0.00     0.157 A 
ATOM     16  C   UNL     1      14.888  22.725  43.141  1.00  0.00     0.062 A 
ATOM     17  C   UNL     1      13.777  22.973  43.956  1.00  0.00     0.158 A 
BRANCH  15  18
ATOM     18  O   UNL     1      11.688  24.143  44.345  1.00  0.00    -0.504 OA
ATOM     19  H   UNL     1      11.788  24.386  45.323  1.00  0.00     0.293 HD
ENDBRANCH  15  18
BRANCH  17  20
ATOM     20  O   UNL     1      13.663  22.300  45.171  1.00  0.00    -0.504 OA
ATOM     21  H   UNL     1      14.290  22.477  45.946  1.00  0.00     0.293 HD
ENDBRANCH  17  20
ENDBRANCH   1  12
BRANCH   2  22
ATOM     22  O   UNL     1      16.010  25.193  39.861  1.00  0.00    -0.502 OA
ATOM     23  H   UNL     1      15.407  25.375  39.067  1.00  0.00     0.293 HD
ENDBRANCH   2  22
BRANCH   6  24
ATOM     24  O   UNL     1      19.994  22.496  37.575  1.00  0.00    -0.507 OA
ATOM     25  H   UNL     1      20.747  23.167  37.552  1.00  0.00     0.293 HD
ENDBRANCH   6  24
BRANCH   8  26
ATOM     26  O   UNL     1      20.337  18.782  40.599  1.00  0.00    -0.508 OA
ATOM     27  H   UNL     1      21.159  18.791  41.191  1.00  0.00     0.293 HD
ENDBRANCH   8  26
TORSDOF 6
ENDMDL
MODEL 5
REMARK VINA RESULT:    -7.316      1.509      7.183
REMARK INTER + INTRA:          -8.632
REMARK INTER:                  -8.430
REMARK INTRA:                  -0.202
REMARK UNBOUND:                 0.180
REMARK SMILES O=c1c(O)c(-c2ccc(O)c(O)c2)oc2cc(O)cc(O)c12
REMARK SMILES IDX 5 1 3 2 2 3 1 4 22 5 20 6 19 7 17 8 16 9 15 10 14 11 6 12
REMARK SMILES IDX 7 13 8 14 9 15 13 16 11 17 10 18 12 20 4 22 21 24 18 26
REMARK H PARENT 10 19 12 21 4 23 21 25 18 27
REMARK Flexibility Score: inf
ROOT
ATOM      1  C   UNL     1      17.031  22.357  40.910  1.00  0.00     0.180 A 
ATOM      2  C   UNL     1      17.108  20.978  40.656  1.00  0.00     0.208 A 
ATOM      3  C   UNL     1      18.310  20.442  40.163  1.00  0.00     0.238 A 
ATOM      4  O   UNL     1      18.356  19.215  39.886  1.00  0.00    -0.285 OA
ATOM      5  C   UNL     1      19.422  21.290  39.948  1.00  0.00     0.111 A 
ATOM      6  C   UNL     1      20.700  20.849  39.491  1.00  0.00     0.134 A 
ATOM      7  C   UNL     1      21.689  21.794  39.188  1.00  0.00     0.093 A 
ATOM      8  C   UNL     1      21.468  23.158  39.390  1.00  0.00     0.123 A 
ATOM      9  C   UNL     1      20.244  23.593  39.892  1.00  0.00     0.094 A 
ATOM     10  C   UNL     1      19.225  22.678  40.168  1.00  0.00     0.146 A 
ATOM     11  O   UNL     1      18.070  23.136  40.636  1.00  0.00    -0.452 OA
ENDROOT
BRANCH   1  12
ATOM     12  C   UNL     1      15.807  22.990  41.453  1.00  0.00     0.025 A 
ATOM     13  C   UNL     1      15.008  23.836  40.665  1.00  0.00     0.016 A 
ATOM     14  C   UNL     1      13.845  24.403  41.192  1.00  0.00     0.051 A 
ATOM     15  C   UNL     1      13.456  24.124  42.509  1.00  0.00     0.157 A 
ATOM     16  C   UNL     1      15.402  22.697  42.766  1.00  0.00     0.062 A 
ATOM     17  C   UNL     1      14.238  23.264  43.299  1.00  0.00     0.158 A 
BRANCH  15  18
ATOM     18  O   UNL     1      12.296  24.693  43.033  1.00  0.00    -0.504 OA
ATOM     19  H   UNL     1      12.136  25.693  43.004  1.00  0.00     0.293 HD
ENDBRANCH  15  18
BRANCH  17  20
ATOM     20  O   UNL     1      13.874  22.960  44.610  1.00  0.00    -0.504 OA
ATOM     21  H   UNL     1      13.540  23.667  45.253  1.00  0.00     0.293 HD
ENDBRANCH  17  20
ENDBRANCH   1  12
BRANCH   2  22
ATOM     22  O   UNL     1      15.991  20.161  40.854  1.00  0.00    -0.502 OA
ATOM     23  H   UNL     1      15.238  20.094  40.180  1.00  0.00     0.293 HD
ENDBRANCH   2  22
BRANCH   6  24
ATOM     24  O   UNL     1      21.057  19.505  39.344  1.00  0.00    -0.507 OA
ATOM     25  H   UNL     1      20.404  18.751  39.189  1.00  0.00     0.293 HD
ENDBRANCH   6  24
BRANCH   8  26
ATOM     26  O   UNL     1      22.462  24.090  39.101  1.00  0.00    -0.508 OA
ATOM     27  H   UNL     1      23.414  23.968  39.425  1.00  0.00     0.293 HD
ENDBRANCH   8  26
TORSDOF 6
ENDMDL
MODEL 6
REMARK VINA RESULT:    -6.915      1.986      7.123
REMARK INTER + INTRA:          -8.150
REMARK INTER:                  -7.833
REMARK INTRA:                  -0.317
REMARK UNBOUND:                 0.180
REMARK SMILES O=c1c(O)c(-c2ccc(O)c(O)c2)oc2cc(O)cc(O)c12
REMARK SMILES IDX 5 1 3 2 2 3 1 4 22 5 20 6 19 7 17 8 16 9 15 10 14 11 6 12
REMARK SMILES IDX 7 13 8 14 9 15 13 16 11 17 10 18 12 20 4 22 21 24 18 26
REMARK H PARENT 10 19 12 21 4 23 21 25 18 27
REMARK Flexibility Score: inf
ROOT
ATOM      1  C   UNL     1      14.055  23.840  42.796  1.00  0.00     0.180 A 
ATOM      2  C   UNL     1      13.862  24.835  41.823  1.00  0.00     0.208 A 
ATOM      3  C   UNL     1      14.688  24.845  40.686  1.00  0.00     0.238 A 
ATOM      4  O   UNL     1      14.546  25.771  39.845  1.00  0.00    -0.285 OA
ATOM      5  C   UNL     1      15.683  23.851  40.531  1.00  0.00     0.111 A 
ATOM      6  C   UNL     1      16.548  23.742  39.401  1.00  0.00     0.134 A 
ATOM      7  C   UNL     1      17.583  22.798  39.413  1.00  0.00     0.093 A 
ATOM      8  C   UNL     1      17.742  21.917  40.485  1.00  0.00     0.123 A 
ATOM      9  C   UNL     1      16.865  21.977  41.565  1.00  0.00     0.094 A 
ATOM     10  C   UNL     1      15.846  22.932  41.599  1.00  0.00     0.146 A 
ATOM     11  O   UNL     1      15.039  22.961  42.652  1.00  0.00    -0.452 OA
ENDROOT
BRANCH   1  12
ATOM     12  C   UNL     1      13.208  23.749  44.007  1.00  0.00     0.025 A 
ATOM     13  C   UNL     1      11.942  23.139  43.972  1.00  0.00     0.016 A 
ATOM     14  C   UNL     1      11.171  23.043  45.133  1.00  0.00     0.051 A 
ATOM     15  C   UNL     1      11.657  23.544  46.348  1.00  0.00     0.157 A 
ATOM     16  C   UNL     1      13.699  24.231  45.232  1.00  0.00     0.062 A 
ATOM     17  C   UNL     1      12.929  24.138  46.398  1.00  0.00     0.158 A 
BRANCH  15  18
ATOM     18  O   UNL     1      10.884  23.449  47.505  1.00  0.00    -0.504 OA
ATOM     19  H   UNL     1      10.400  24.253  47.886  1.00  0.00     0.293 HD
ENDBRANCH  15  18
BRANCH  17  20
ATOM     20  O   UNL     1      13.445  24.639  47.592  1.00  0.00    -0.504 OA
ATOM     21  H   UNL     1      14.180  24.165  48.103  1.00  0.00     0.293 HD
ENDBRANCH  17  20
ENDBRANCH   1  12
BRANCH   2  22
ATOM     22  O   UNL     1      12.888  25.820  42.006  1.00  0.00    -0.502 OA
ATOM     23  H   UNL     1      12.937  26.503  42.753  1.00  0.00     0.293 HD
ENDBRANCH   2  22
BRANCH   6  24
ATOM     24  O   UNL     1      16.419  24.510  38.240  1.00  0.00    -0.507 OA
ATOM     25  H   UNL     1      16.802  25.435  38.118  1.00  0.00     0.293 HD
ENDBRANCH   6  24
BRANCH   8  26
ATOM     26  O   UNL     1      18.765  20.971  40.482  1.00  0.00    -0.508 OA
ATOM     27  H   UNL     1      19.728  21.231  40.658  1.00  0.00     0.293 HD
ENDBRANCH   8  26
TORSDOF 6
ENDMDL
MODEL 7
REMARK VINA RESULT:    -6.251      1.810      7.004
REMARK INTER + INTRA:          -7.350
REMARK INTER:                  -7.586
REMARK INTRA:                   0.237
REMARK UNBOUND:                 0.180
REMARK SMILES O=c1c(O)c(-c2ccc(O)c(O)c2)oc2cc(O)cc(O)c12
REMARK SMILES IDX 5 1 3 2 2 3 1 4 22 5 20 6 19 7 17 8 16 9 15 10 14 11 6 12
REMARK SMILES IDX 7 13 8 14 9 15 13 16 11 17 10 18 12 20 4 22 21 24 18 26
REMARK H PARENT 10 19 12 21 4 23 21 25 18 27
REMARK Flexibility Score: inf
ROOT
ATOM      1  C   UNL     1      16.545  23.157  40.713  1.00  0.00     0.180 A 
ATOM      2  C   UNL     1      17.166  21.899  40.666  1.00  0.00     0.208 A 
ATOM      3  C   UNL     1      18.284  21.721  39.834  1.00  0.00     0.238 A 
ATOM      4  O   UNL     1      18.803  20.577  39.754  1.00  0.00    -0.285 OA
ATOM      5  C   UNL     1      18.774  22.809  39.073  1.00  0.00     0.111 A 
ATOM      6  C   UNL     1      19.923  22.753  38.228  1.00  0.00     0.134 A 
ATOM      7  C   UNL     1      20.241  23.854  37.421  1.00  0.00     0.093 A 
ATOM      8  C   UNL     1      19.489  25.030  37.479  1.00  0.00     0.123 A 
ATOM      9  C   UNL     1      18.402  25.114  38.345  1.00  0.00     0.094 A 
ATOM     10  C   UNL     1      18.039  24.021  39.135  1.00  0.00     0.146 A 
ATOM     11  O   UNL     1      16.989  24.140  39.939  1.00  0.00    -0.452 OA
ENDROOT
BRANCH   1  12
ATOM     12  C   UNL     1      15.379  23.428  41.586  1.00  0.00     0.025 A 
ATOM     13  C   UNL     1      14.326  24.259  41.165  1.00  0.00     0.016 A 
ATOM     14  C   UNL     1      13.225  24.480  41.996  1.00  0.00     0.051 A 
ATOM     15  C   UNL     1      13.153  23.866  43.253  1.00  0.00     0.157 A 
ATOM     16  C   UNL     1      15.292  22.798  42.838  1.00  0.00     0.062 A 
ATOM     17  C   UNL     1      14.191  23.018  43.675  1.00  0.00     0.158 A 
BRANCH  15  18
ATOM     18  O   UNL     1      12.054  24.091  44.081  1.00  0.00    -0.504 OA
ATOM     19  H   UNL     1      11.994  23.680  45.005  1.00  0.00     0.293 HD
ENDBRANCH  15  18
BRANCH  17  20
ATOM     20  O   UNL     1      14.146  22.386  44.916  1.00  0.00    -0.504 OA
ATOM     21  H   UNL     1      14.559  22.796  45.745  1.00  0.00     0.293 HD
ENDBRANCH  17  20
ENDBRANCH   1  12
BRANCH   2  22
ATOM     22  O   UNL     1      16.653  20.831  41.409  1.00  0.00    -0.502 OA
ATOM     23  H   UNL     1      15.680  20.779  41.687  1.00  0.00     0.293 HD
ENDBRANCH   2  22
BRANCH   6  24
ATOM     24  O   UNL     1      20.794  21.662  38.164  1.00  0.00    -0.507 OA
ATOM     25  H   UNL     1      21.082  21.109  38.958  1.00  0.00     0.293 HD
ENDBRANCH   6  24
BRANCH   8  26
ATOM     26  O   UNL     1      19.821  26.125  36.684  1.00  0.00    -0.508 OA
ATOM     27  H   UNL     1      19.218  26.436  35.932  1.00  0.00     0.293 HD
ENDBRANCH   8  26
TORSDOF 6
ENDMDL
MODEL 8
REMARK VINA RESULT:    -6.227      1.103      6.707
REMARK INTER + INTRA:          -7.321
REMARK INTER:                  -7.845
REMARK INTRA:                   0.524
REMARK UNBOUND:                 0.180
REMARK SMILES O=c1c(O)c(-c2ccc(O)c(O)c2)oc2cc(O)cc(O)c12
REMARK SMILES IDX 5 1 3 2 2 3 1 4 22 5 20 6 19 7 17 8 16 9 15 10 14 11 6 12
REMARK SMILES IDX 7 13 8 14 9 15 13 16 11 17 10 18 12 20 4 22 21 24 18 26
REMARK H PARENT 10 19 12 21 4 23 21 25 18 27
REMARK Flexibility Score: inf
ROOT
ATOM      1  C   UNL     1      16.660  23.288  40.560  1.00  0.00     0.180 A 
ATOM      2  C   UNL     1      17.132  24.153  39.559  1.00  0.00     0.208 A 
ATOM      3  C   UNL     1      18.268  23.784  38.820  1.00  0.00     0.238 A 
ATOM      4  O   UNL     1      18.718  24.587  37.962  1.00  0.00    -0.285 OA
ATOM      5  C   UNL     1      18.905  22.547  39.080  1.00  0.00     0.111 A 
ATOM      6  C   UNL     1      20.037  22.054  38.364  1.00  0.00     0.134 A 
ATOM      7  C   UNL     1      20.666  20.878  38.793  1.00  0.00     0.093 A 
ATOM      8  C   UNL     1      20.164  20.144  39.869  1.00  0.00     0.123 A 
ATOM      9  C   UNL     1      19.024  20.586  40.536  1.00  0.00     0.094 A 
ATOM     10  C   UNL     1      18.396  21.775  40.155  1.00  0.00     0.146 A 
ATOM     11  O   UNL     1      17.318  22.166  40.824  1.00  0.00    -0.452 OA
ENDROOT
BRANCH   1  12
ATOM     12  C   UNL     1      15.455  23.596  41.364  1.00  0.00     0.025 A 
ATOM     13  C   UNL     1      15.119  22.841  42.501  1.00  0.00     0.016 A 
ATOM     14  C   UNL     1      13.990  23.166  43.257  1.00  0.00     0.051 A 
ATOM     15  C   UNL     1      13.187  24.256  42.897  1.00  0.00     0.157 A 
ATOM     16  C   UNL     1      14.659  24.701  41.019  1.00  0.00     0.062 A 
ATOM     17  C   UNL     1      13.526  25.030  41.774  1.00  0.00     0.158 A 
BRANCH  15  18
ATOM     18  O   UNL     1      12.060  24.577  43.653  1.00  0.00    -0.504 OA
ATOM     19  H   UNL     1      11.163  24.753  43.217  1.00  0.00     0.293 HD
ENDBRANCH  15  18
BRANCH  17  20
ATOM     20  O   UNL     1      12.752  26.125  41.393  1.00  0.00    -0.504 OA
ATOM     21  H   UNL     1      11.747  26.064  41.287  1.00  0.00     0.293 HD
ENDBRANCH  17  20
ENDBRANCH   1  12
BRANCH   2  22
ATOM     22  O   UNL     1      16.501  25.380  39.334  1.00  0.00    -0.502 OA
ATOM     23  H   UNL     1      15.513  25.524  39.505  1.00  0.00     0.293 HD
ENDBRANCH   2  22
BRANCH   6  24
ATOM     24  O   UNL     1      20.563  22.660  37.219  1.00  0.00    -0.507 OA
ATOM     25  H   UNL     1      20.943  23.595  37.187  1.00  0.00     0.293 HD
ENDBRANCH   6  24
BRANCH   8  26
ATOM     26  O   UNL     1      20.786  18.967  40.280  1.00  0.00    -0.508 OA
ATOM     27  H   UNL     1      20.328  18.067  40.194  1.00  0.00     0.293 HD
ENDBRANCH   8  26
TORSDOF 6
ENDMDL
MODEL 9
REMARK VINA RESULT:    -5.526      1.498      7.462
REMARK INTER + INTRA:          -6.477
REMARK INTER:                  -6.972
REMARK INTRA:                   0.495
REMARK UNBOUND:                 0.180
REMARK SMILES O=c1c(O)c(-c2ccc(O)c(O)c2)oc2cc(O)cc(O)c12
REMARK SMILES IDX 5 1 3 2 2 3 1 4 22 5 20 6 19 7 17 8 16 9 15 10 14 11 6 12
REMARK SMILES IDX 7 13 8 14 9 15 13 16 11 17 10 18 12 20 4 22 21 24 18 26
REMARK H PARENT 10 19 12 21 4 23 21 25 18 27
REMARK Flexibility Score: inf
ROOT
ATOM      1  C   UNL     1      17.715  22.317  40.102  1.00  0.00     0.180 A 
ATOM      2  C   UNL     1      17.675  21.098  40.798  1.00  0.00     0.208 A 
ATOM      3  C   UNL     1      18.743  20.197  40.657  1.00  0.00     0.238 A 
ATOM      4  O   UNL     1      18.677  19.084  41.240  1.00  0.00    -0.285 OA
ATOM      5  C   UNL     1      19.845  20.536  39.836  1.00  0.00     0.111 A 
ATOM      6  C   UNL     1      21.000  19.718  39.653  1.00  0.00     0.134 A 
ATOM      7  C   UNL     1      21.971  20.093  38.715  1.00  0.00     0.093 A 
ATOM      8  C   UNL     1      21.860  21.290  38.003  1.00  0.00     0.123 A 
ATOM      9  C   UNL     1      20.765  22.123  38.219  1.00  0.00     0.094 A 
ATOM     10  C   UNL     1      19.763  21.758  39.121  1.00  0.00     0.146 A 
ATOM     11  O   UNL     1      18.731  22.577  39.288  1.00  0.00    -0.452 OA
ENDROOT
BRANCH   1  12
ATOM     12  C   UNL     1      16.638  23.327  40.220  1.00  0.00     0.025 A 
ATOM     13  C   UNL     1      16.514  24.378  39.294  1.00  0.00     0.016 A 
ATOM     14  C   UNL     1      15.476  25.305  39.411  1.00  0.00     0.051 A 
ATOM     15  C   UNL     1      14.539  25.190  40.447  1.00  0.00     0.157 A 
ATOM     16  C   UNL     1      15.684  23.204  41.243  1.00  0.00     0.062 A 
ATOM     17  C   UNL     1      14.642  24.132  41.366  1.00  0.00     0.158 A 
BRANCH  15  18
ATOM     18  O   UNL     1      13.505  26.118  40.563  1.00  0.00    -0.504 OA
ATOM     19  H   UNL     1      13.688  27.092  40.772  1.00  0.00     0.293 HD
ENDBRANCH  15  18
BRANCH  17  20
ATOM     20  O   UNL     1      13.722  23.985  42.402  1.00  0.00    -0.504 OA
ATOM     21  H   UNL     1      13.381  24.775  42.936  1.00  0.00     0.293 HD
ENDBRANCH  17  20
ENDBRANCH   1  12
BRANCH   2  22
ATOM     22  O   UNL     1      16.567  20.773  41.587  1.00  0.00    -0.502 OA
ATOM     23  H   UNL     1      15.742  21.360  41.636  1.00  0.00     0.293 HD
ENDBRANCH   2  22
BRANCH   6  24
ATOM     24  O   UNL     1      21.255  18.551  40.381  1.00  0.00    -0.507 OA
ATOM     25  H   UNL     1      22.145  18.315  40.795  1.00  0.00     0.293 HD
ENDBRANCH   6  24
BRANCH   8  26
ATOM     26  O   UNL     1      22.837  21.663  37.084  1.00  0.00    -0.508 OA
ATOM     27  H   UNL     1      23.442  22.459  37.247  1.00  0.00     0.293 HD
ENDBRANCH   8  26
TORSDOF 6
ENDMDL
