MODEL 1
REMARK VINA RESULT:    -6.546      0.000      0.000
REMARK INTER + INTRA:          -7.975
REMARK INTER:                  -7.694
REMARK INTRA:                  -0.282
REMARK UNBOUND:                -0.282
REMARK SMILES O=c1cc(-c2ccc(O)c(O)c2)oc2cc(O)cc(O)c12
REMARK SMILES IDX 4 1 3 2 2 3 1 4 21 5 19 6 18 7 16 8 15 9 14 10 13 11 5 12
REMARK SMILES IDX 6 13 7 14 8 15 12 16 10 17 9 18 11 20 20 22 17 24
REMARK H PARENT 9 19 11 21 20 23 17 25
REMARK Flexibility Score: inf
ROOT
ATOM      1  C   UNL     1       6.899  78.449  63.743  1.00  0.00     0.138 A 
ATOM      2  C   UNL     1       5.822  78.751  62.891  1.00  0.00     0.100 A 
ATOM      3  C   UNL     1       6.068  79.385  61.673  1.00  0.00     0.197 A 
ATOM      4  O   UNL     1       5.095  79.651  60.915  1.00  0.00    -0.289 OA
ATOM      5  C   UNL     1       7.390  79.708  61.310  1.00  0.00     0.107 A 
ATOM      6  C   UNL     1       7.726  80.351  60.095  1.00  0.00     0.134 A 
ATOM      7  C   UNL     1       9.069  80.633  59.806  1.00  0.00     0.093 A 
ATOM      8  C   UNL     1      10.080  80.287  60.707  1.00  0.00     0.123 A 
ATOM      9  C   UNL     1       9.754  79.651  61.909  1.00  0.00     0.094 A 
ATOM     10  C   UNL     1       8.421  79.362  62.216  1.00  0.00     0.146 A 
ATOM     11  O   UNL     1       8.137  78.759  63.366  1.00  0.00    -0.456 OA
ENDROOT
BRANCH   1  12
ATOM     12  C   UNL     1       6.697  77.775  65.051  1.00  0.00     0.021 A 
ATOM     13  C   UNL     1       7.499  78.075  66.169  1.00  0.00     0.016 A 
ATOM     14  C   UNL     1       7.293  77.417  67.385  1.00  0.00     0.051 A 
ATOM     15  C   UNL     1       6.292  76.445  67.502  1.00  0.00     0.157 A 
ATOM     16  C   UNL     1       5.703  76.789  65.174  1.00  0.00     0.062 A 
ATOM     17  C   UNL     1       5.496  76.129  66.395  1.00  0.00     0.158 A 
BRANCH  15  18
ATOM     18  O   UNL     1       6.084  75.789  68.714  1.00  0.00    -0.504 OA
ATOM     19  H   UNL     1       5.219  75.300  68.910  1.00  0.00     0.293 HD
ENDBRANCH  15  18
BRANCH  17  20
ATOM     20  O   UNL     1       4.503  75.159  66.514  1.00  0.00    -0.504 OA
ATOM     21  H   UNL     1       4.209  74.808  67.419  1.00  0.00     0.293 HD
ENDBRANCH  17  20
ENDBRANCH   1  12
BRANCH   6  22
ATOM     22  O   UNL     1       6.738  80.708  59.177  1.00  0.00    -0.507 OA
ATOM     23  H   UNL     1       5.982  80.078  58.935  1.00  0.00     0.293 HD
ENDBRANCH   6  22
BRANCH   8  24
ATOM     24  O   UNL     1      11.406  80.579  60.395  1.00  0.00    -0.508 OA
ATOM     25  H   UNL     1      11.681  80.857  59.460  1.00  0.00     0.293 HD
ENDBRANCH   8  24
TORSDOF 5
ENDMDL
MODEL 2
REMARK VINA RESULT:    -6.533      1.252      2.787
REMARK INTER + INTRA:          -7.961
REMARK INTER:                  -7.656
REMARK INTRA:                  -0.305
REMARK UNBOUND:                -0.282
REMARK SMILES O=c1cc(-c2ccc(O)c(O)c2)oc2cc(O)cc(O)c12
REMARK SMILES IDX 4 1 3 2 2 3 1 4 21 5 19 6 18 7 16 8 15 9 14 10 13 11 5 12
REMARK SMILES IDX 6 13 7 14 8 15 12 16 10 17 9 18 11 20 20 22 17 24
REMARK H PARENT 9 19 11 21 20 23 17 25
REMARK Flexibility Score: inf
ROOT
ATOM      1  C   UNL     1       6.979  78.430  63.869  1.00  0.00     0.138 A 
ATOM      2  C   UNL     1       8.257  78.907  63.529  1.00  0.00     0.100 A 
ATOM      3  C   UNL     1       8.460  79.497  62.281  1.00  0.00     0.197 A 
ATOM      4  O   UNL     1       9.610  79.922  61.986  1.00  0.00    -0.289 OA
ATOM      5  C   UNL     1       7.382  79.611  61.381  1.00  0.00     0.107 A 
ATOM      6  C   UNL     1       7.501  80.194  60.097  1.00  0.00     0.134 A 
ATOM      7  C   UNL     1       6.377  80.275  59.263  1.00  0.00     0.093 A 
ATOM      8  C   UNL     1       5.139  79.785  59.686  1.00  0.00     0.123 A 
ATOM      9  C   UNL     1       5.014  79.208  60.954  1.00  0.00     0.094 A 
ATOM     10  C   UNL     1       6.123  79.117  61.801  1.00  0.00     0.146 A 
ATOM     11  O   UNL     1       5.980  78.563  63.000  1.00  0.00    -0.456 OA
ENDROOT
BRANCH   1  12
ATOM     12  C   UNL     1       6.705  77.795  65.182  1.00  0.00     0.021 A 
ATOM     13  C   UNL     1       7.410  78.162  66.344  1.00  0.00     0.016 A 
ATOM     14  C   UNL     1       7.137  77.540  67.566  1.00  0.00     0.051 A 
ATOM     15  C   UNL     1       6.164  76.536  67.646  1.00  0.00     0.157 A 
ATOM     16  C   UNL     1       5.738  76.777  65.269  1.00  0.00     0.062 A 
ATOM     17  C   UNL     1       5.464  76.153  66.496  1.00  0.00     0.158 A 
BRANCH  15  18
ATOM     18  O   UNL     1       5.889  75.915  68.862  1.00  0.00    -0.504 OA
ATOM     19  H   UNL     1       5.353  76.379  69.585  1.00  0.00     0.293 HD
ENDBRANCH  15  18
BRANCH  17  20
ATOM     20  O   UNL     1       4.499  75.151  66.577  1.00  0.00    -0.504 OA
ATOM     21  H   UNL     1       3.513  75.354  66.458  1.00  0.00     0.293 HD
ENDBRANCH  17  20
ENDBRANCH   1  12
BRANCH   6  22
ATOM     22  O   UNL     1       8.725  80.692  59.648  1.00  0.00    -0.507 OA
ATOM     23  H   UNL     1       8.853  81.674  59.431  1.00  0.00     0.293 HD
ENDBRANCH   6  22
BRANCH   8  24
ATOM     24  O   UNL     1       4.038  79.878  58.838  1.00  0.00    -0.508 OA
ATOM     25  H   UNL     1       3.417  79.092  58.688  1.00  0.00     0.293 HD
ENDBRANCH   8  24
TORSDOF 5
ENDMDL
MODEL 3
REMARK VINA RESULT:    -6.201      2.330      7.092
REMARK INTER + INTRA:          -7.570
REMARK INTER:                  -7.308
REMARK INTRA:                  -0.262
REMARK UNBOUND:                -0.282
REMARK SMILES O=c1cc(-c2ccc(O)c(O)c2)oc2cc(O)cc(O)c12
REMARK SMILES IDX 4 1 3 2 2 3 1 4 21 5 19 6 18 7 16 8 15 9 14 10 13 11 5 12
REMARK SMILES IDX 6 13 7 14 8 15 12 16 10 17 9 18 11 20 20 22 17 24
REMARK H PARENT 9 19 11 21 20 23 17 25
REMARK Flexibility Score: inf
ROOT
ATOM      1  C   UNL     1       5.256  78.717  63.937  1.00  0.00     0.138 A 
ATOM      2  C   UNL     1       4.337  79.608  64.516  1.00  0.00     0.100 A 
ATOM      3  C   UNL     1       4.038  79.498  65.875  1.00  0.00     0.197 A 
ATOM      4  O   UNL     1       3.212  80.303  66.386  1.00  0.00    -0.289 OA
ATOM      5  C   UNL     1       4.666  78.501  66.647  1.00  0.00     0.107 A 
ATOM      6  C   UNL     1       4.419  78.321  68.029  1.00  0.00     0.134 A 
ATOM      7  C   UNL     1       5.090  77.307  68.728  1.00  0.00     0.093 A 
ATOM      8  C   UNL     1       6.000  76.471  68.074  1.00  0.00     0.123 A 
ATOM      9  C   UNL     1       6.247  76.645  66.709  1.00  0.00     0.094 A 
ATOM     10  C   UNL     1       5.588  77.650  65.994  1.00  0.00     0.146 A 
ATOM     11  O   UNL     1       5.839  77.793  64.697  1.00  0.00    -0.456 OA
ENDROOT
BRANCH   1  12
ATOM     12  C   UNL     1       5.613  78.787  62.497  1.00  0.00     0.021 A 
ATOM     13  C   UNL     1       6.906  79.149  62.071  1.00  0.00     0.016 A 
ATOM     14  C   UNL     1       7.210  79.216  60.709  1.00  0.00     0.051 A 
ATOM     15  C   UNL     1       6.230  78.933  59.750  1.00  0.00     0.157 A 
ATOM     16  C   UNL     1       4.631  78.517  61.527  1.00  0.00     0.062 A 
ATOM     17  C   UNL     1       4.937  78.585  60.160  1.00  0.00     0.158 A 
BRANCH  15  18
ATOM     18  O   UNL     1       6.530  78.998  58.392  1.00  0.00    -0.504 OA
ATOM     19  H   UNL     1       6.506  78.174  57.803  1.00  0.00     0.293 HD
ENDBRANCH  15  18
BRANCH  17  20
ATOM     20  O   UNL     1       3.962  78.307  59.204  1.00  0.00    -0.504 OA
ATOM     21  H   UNL     1       3.009  78.083  59.468  1.00  0.00     0.293 HD
ENDBRANCH  17  20
ENDBRANCH   1  12
BRANCH   6  22
ATOM     22  O   UNL     1       3.517  79.140  68.709  1.00  0.00    -0.507 OA
ATOM     23  H   UNL     1       3.366  79.053  69.707  1.00  0.00     0.293 HD
ENDBRANCH   6  22
BRANCH   8  24
ATOM     24  O   UNL     1       6.653  75.472  68.793  1.00  0.00    -0.508 OA
ATOM     25  H   UNL     1       7.257  74.800  68.335  1.00  0.00     0.293 HD
ENDBRANCH   8  24
TORSDOF 5
ENDMDL
MODEL 4
REMARK VINA RESULT:    -6.180      2.945      7.391
REMARK INTER + INTRA:          -7.545
REMARK INTER:                  -7.262
REMARK INTRA:                  -0.283
REMARK UNBOUND:                -0.282
REMARK SMILES O=c1cc(-c2ccc(O)c(O)c2)oc2cc(O)cc(O)c12
REMARK SMILES IDX 4 1 3 2 2 3 1 4 21 5 19 6 18 7 16 8 15 9 14 10 13 11 5 12
REMARK SMILES IDX 6 13 7 14 8 15 12 16 10 17 9 18 11 20 20 22 17 24
REMARK H PARENT 9 19 11 21 20 23 17 25
REMARK Flexibility Score: inf
ROOT
ATOM      1  C   UNL     1       5.456  78.694  64.084  1.00  0.00     0.138 A 
ATOM      2  C   UNL     1       6.321  77.927  64.882  1.00  0.00     0.100 A 
ATOM      3  C   UNL     1       6.147  77.913  66.266  1.00  0.00     0.197 A 
ATOM      4  O   UNL     1       6.929  77.220  66.974  1.00  0.00    -0.289 OA
ATOM      5  C   UNL     1       5.102  78.661  66.844  1.00  0.00     0.107 A 
ATOM      6  C   UNL     1       4.857  78.702  68.237  1.00  0.00     0.134 A 
ATOM      7  C   UNL     1       3.792  79.469  68.733  1.00  0.00     0.093 A 
ATOM      8  C   UNL     1       2.971  80.194  67.865  1.00  0.00     0.123 A 
ATOM      9  C   UNL     1       3.209  80.157  66.487  1.00  0.00     0.094 A 
ATOM     10  C   UNL     1       4.266  79.400  65.974  1.00  0.00     0.146 A 
ATOM     11  O   UNL     1       4.473  79.383  64.661  1.00  0.00    -0.456 OA
ENDROOT
BRANCH   1  12
ATOM     12  C   UNL     1       5.594  78.747  62.607  1.00  0.00     0.021 A 
ATOM     13  C   UNL     1       6.792  79.155  61.989  1.00  0.00     0.016 A 
ATOM     14  C   UNL     1       6.890  79.205  60.596  1.00  0.00     0.051 A 
ATOM     15  C   UNL     1       5.793  78.858  59.797  1.00  0.00     0.157 A 
ATOM     16  C   UNL     1       4.493  78.413  61.797  1.00  0.00     0.062 A 
ATOM     17  C   UNL     1       4.592  78.463  60.399  1.00  0.00     0.158 A 
BRANCH  15  18
ATOM     18  O   UNL     1       5.888  78.906  58.408  1.00  0.00    -0.504 OA
ATOM     19  H   UNL     1       6.193  78.104  57.870  1.00  0.00     0.293 HD
ENDBRANCH  15  18
BRANCH  17  20
ATOM     20  O   UNL     1       3.501  78.122  59.602  1.00  0.00    -0.504 OA
ATOM     21  H   UNL     1       3.475  78.346  58.613  1.00  0.00     0.293 HD
ENDBRANCH  17  20
ENDBRANCH   1  12
BRANCH   6  22
ATOM     22  O   UNL     1       5.659  77.988  69.128  1.00  0.00    -0.507 OA
ATOM     23  H   UNL     1       5.421  77.049  69.425  1.00  0.00     0.293 HD
ENDBRANCH   6  22
BRANCH   8  24
ATOM     24  O   UNL     1       1.920  80.947  68.384  1.00  0.00    -0.508 OA
ATOM     25  H   UNL     1       1.157  81.265  67.798  1.00  0.00     0.293 HD
ENDBRANCH   8  24
TORSDOF 5
ENDMDL
MODEL 5
REMARK VINA RESULT:    -6.066      5.277      7.319
REMARK INTER + INTRA:          -7.411
REMARK INTER:                  -7.093
REMARK INTRA:                  -0.318
REMARK UNBOUND:                -0.282
REMARK SMILES O=c1cc(-c2ccc(O)c(O)c2)oc2cc(O)cc(O)c12
REMARK SMILES IDX 4 1 3 2 2 3 1 4 21 5 19 6 18 7 16 8 15 9 14 10 13 11 5 12
REMARK SMILES IDX 6 13 7 14 8 15 12 16 10 17 9 18 11 20 20 22 17 24
REMARK H PARENT 9 19 11 21 20 23 17 25
REMARK Flexibility Score: inf
ROOT
ATOM      1  C   UNL     1       3.229  80.211  66.599  1.00  0.00     0.138 A 
ATOM      2  C   UNL     1       3.561  80.037  65.244  1.00  0.00     0.100 A 
ATOM      3  C   UNL     1       4.484  79.054  64.885  1.00  0.00     0.197 A 
ATOM      4  O   UNL     1       4.775  78.905  63.667  1.00  0.00    -0.289 OA
ATOM      5  C   UNL     1       5.065  78.247  65.883  1.00  0.00     0.107 A 
ATOM      6  C   UNL     1       6.009  77.230  65.606  1.00  0.00     0.134 A 
ATOM      7  C   UNL     1       6.537  76.466  66.656  1.00  0.00     0.093 A 
ATOM      8  C   UNL     1       6.142  76.699  67.977  1.00  0.00     0.123 A 
ATOM      9  C   UNL     1       5.209  77.704  68.257  1.00  0.00     0.094 A 
ATOM     10  C   UNL     1       4.671  78.476  67.223  1.00  0.00     0.146 A 
ATOM     11  O   UNL     1       3.789  79.426  67.515  1.00  0.00    -0.456 OA
ENDROOT
BRANCH   1  12
ATOM     12  C   UNL     1       2.253  81.240  67.039  1.00  0.00     0.021 A 
ATOM     13  C   UNL     1       1.740  82.203  66.148  1.00  0.00     0.016 A 
ATOM     14  C   UNL     1       0.830  83.166  66.593  1.00  0.00     0.051 A 
ATOM     15  C   UNL     1       0.425  83.191  67.933  1.00  0.00     0.157 A 
ATOM     16  C   UNL     1       1.851  81.280  68.386  1.00  0.00     0.062 A 
ATOM     17  C   UNL     1       0.937  82.247  68.832  1.00  0.00     0.158 A 
BRANCH  15  18
ATOM     18  O   UNL     1      -0.483  84.149  68.379  1.00  0.00    -0.504 OA
ATOM     19  H   UNL     1      -1.305  84.391  67.841  1.00  0.00     0.293 HD
ENDBRANCH  15  18
BRANCH  17  20
ATOM     20  O   UNL     1       0.535  82.276  70.166  1.00  0.00    -0.504 OA
ATOM     21  H   UNL     1       0.116  81.467  70.611  1.00  0.00     0.293 HD
ENDBRANCH  17  20
ENDBRANCH   1  12
BRANCH   6  22
ATOM     22  O   UNL     1       6.422  76.973  64.298  1.00  0.00    -0.507 OA
ATOM     23  H   UNL     1       6.940  76.136  64.057  1.00  0.00     0.293 HD
ENDBRANCH   6  22
BRANCH   8  24
ATOM     24  O   UNL     1       6.681  75.926  69.002  1.00  0.00    -0.508 OA
ATOM     25  H   UNL     1       7.591  75.488  68.912  1.00  0.00     0.293 HD
ENDBRANCH   8  24
TORSDOF 5
ENDMDL
MODEL 6
REMARK VINA RESULT:    -6.040      2.370      7.198
REMARK INTER + INTRA:          -7.381
REMARK INTER:                  -7.105
REMARK INTRA:                  -0.276
REMARK UNBOUND:                -0.282
REMARK SMILES O=c1cc(-c2ccc(O)c(O)c2)oc2cc(O)cc(O)c12
REMARK SMILES IDX 4 1 3 2 2 3 1 4 21 5 19 6 18 7 16 8 15 9 14 10 13 11 5 12
REMARK SMILES IDX 6 13 7 14 8 15 12 16 10 17 9 18 11 20 20 22 17 24
REMARK H PARENT 9 19 11 21 20 23 17 25
REMARK Flexibility Score: inf
ROOT
ATOM      1  C   UNL     1       5.240  78.753  63.989  1.00  0.00     0.138 A 
ATOM      2  C   UNL     1       4.334  79.660  64.564  1.00  0.00     0.100 A 
ATOM      3  C   UNL     1       4.028  79.558  65.921  1.00  0.00     0.197 A 
ATOM      4  O   UNL     1       3.214  80.377  66.428  1.00  0.00    -0.289 OA
ATOM      5  C   UNL     1       4.636  78.551  66.698  1.00  0.00     0.107 A 
ATOM      6  C   UNL     1       4.381  78.377  68.079  1.00  0.00     0.134 A 
ATOM      7  C   UNL     1       5.031  77.353  68.782  1.00  0.00     0.093 A 
ATOM      8  C   UNL     1       5.929  76.501  68.133  1.00  0.00     0.123 A 
ATOM      9  C   UNL     1       6.185  76.669  66.768  1.00  0.00     0.094 A 
ATOM     10  C   UNL     1       5.546  77.683  66.049  1.00  0.00     0.146 A 
ATOM     11  O   UNL     1       5.804  77.820  64.752  1.00  0.00    -0.456 OA
ENDROOT
BRANCH   1  12
ATOM     12  C   UNL     1       5.604  78.815  62.551  1.00  0.00     0.021 A 
ATOM     13  C   UNL     1       4.652  78.592  61.537  1.00  0.00     0.016 A 
ATOM     14  C   UNL     1       5.025  78.647  60.190  1.00  0.00     0.051 A 
ATOM     15  C   UNL     1       6.352  78.915  59.835  1.00  0.00     0.157 A 
ATOM     16  C   UNL     1       6.937  79.071  62.184  1.00  0.00     0.062 A 
ATOM     17  C   UNL     1       7.311  79.126  60.833  1.00  0.00     0.158 A 
BRANCH  15  18
ATOM     18  O   UNL     1       6.727  78.971  58.494  1.00  0.00    -0.504 OA
ATOM     19  H   UNL     1       6.213  79.529  57.823  1.00  0.00     0.293 HD
ENDBRANCH  15  18
BRANCH  17  20
ATOM     20  O   UNL     1       8.632  79.389  60.477  1.00  0.00    -0.504 OA
ATOM     21  H   UNL     1       9.292  79.781  61.139  1.00  0.00     0.293 HD
ENDBRANCH  17  20
ENDBRANCH   1  12
BRANCH   6  22
ATOM     22  O   UNL     1       3.490  79.213  68.754  1.00  0.00    -0.507 OA
ATOM     23  H   UNL     1       3.142  78.985  69.678  1.00  0.00     0.293 HD
ENDBRANCH   6  22
BRANCH   8  24
ATOM     24  O   UNL     1       6.563  75.492  68.855  1.00  0.00    -0.508 OA
ATOM     25  H   UNL     1       7.452  75.108  68.559  1.00  0.00     0.293 HD
ENDBRANCH   8  24
TORSDOF 5
ENDMDL
MODEL 7
REMARK VINA RESULT:    -6.024      5.864      8.586
REMARK INTER + INTRA:          -7.362
REMARK INTER:                  -7.087
REMARK INTRA:                  -0.275
REMARK UNBOUND:                -0.282
REMARK SMILES O=c1cc(-c2ccc(O)c(O)c2)oc2cc(O)cc(O)c12
REMARK SMILES IDX 4 1 3 2 2 3 1 4 21 5 19 6 18 7 16 8 15 9 14 10 13 11 5 12
REMARK SMILES IDX 6 13 7 14 8 15 12 16 10 17 9 18 11 20 20 22 17 24
REMARK H PARENT 9 19 11 21 20 23 17 25
REMARK Flexibility Score: inf
ROOT
ATOM      1  C   UNL     1       2.129  78.613  69.640  1.00  0.00     0.138 A 
ATOM      2  C   UNL     1       1.686  77.311  69.348  1.00  0.00     0.100 A 
ATOM      3  C   UNL     1       2.498  76.463  68.595  1.00  0.00     0.197 A 
ATOM      4  O   UNL     1       2.092  75.296  68.340  1.00  0.00    -0.289 OA
ATOM      5  C   UNL     1       3.751  76.920  68.141  1.00  0.00     0.107 A 
ATOM      6  C   UNL     1       4.634  76.126  67.372  1.00  0.00     0.134 A 
ATOM      7  C   UNL     1       5.867  76.654  66.963  1.00  0.00     0.093 A 
ATOM      8  C   UNL     1       6.234  77.958  67.308  1.00  0.00     0.123 A 
ATOM      9  C   UNL     1       5.365  78.747  68.069  1.00  0.00     0.094 A 
ATOM     10  C   UNL     1       4.131  78.239  68.485  1.00  0.00     0.146 A 
ATOM     11  O   UNL     1       3.322  79.010  69.204  1.00  0.00    -0.456 OA
ENDROOT
BRANCH   1  12
ATOM     12  C   UNL     1       1.308  79.558  70.437  1.00  0.00     0.021 A 
ATOM     13  C   UNL     1       0.962  79.291  71.776  1.00  0.00     0.016 A 
ATOM     14  C   UNL     1       0.179  80.195  72.500  1.00  0.00     0.051 A 
ATOM     15  C   UNL     1      -0.277  81.374  71.899  1.00  0.00     0.157 A 
ATOM     16  C   UNL     1       0.834  80.739  69.838  1.00  0.00     0.062 A 
ATOM     17  C   UNL     1       0.049  81.646  70.565  1.00  0.00     0.158 A 
BRANCH  15  18
ATOM     18  O   UNL     1      -1.057  82.278  72.618  1.00  0.00    -0.504 OA
ATOM     19  H   UNL     1      -1.799  82.806  72.176  1.00  0.00     0.293 HD
ENDBRANCH  15  18
BRANCH  17  20
ATOM     20  O   UNL     1      -0.409  82.819  69.968  1.00  0.00    -0.504 OA
ATOM     21  H   UNL     1       0.222  83.575  69.729  1.00  0.00     0.293 HD
ENDBRANCH  17  20
ENDBRANCH   1  12
BRANCH   6  22
ATOM     22  O   UNL     1       4.296  74.820  67.013  1.00  0.00    -0.507 OA
ATOM     23  H   UNL     1       4.904  74.252  66.435  1.00  0.00     0.293 HD
ENDBRANCH   6  22
BRANCH   8  24
ATOM     24  O   UNL     1       7.465  78.458  66.890  1.00  0.00    -0.508 OA
ATOM     25  H   UNL     1       7.561  79.403  66.538  1.00  0.00     0.293 HD
ENDBRANCH   8  24
TORSDOF 5
ENDMDL
MODEL 8
REMARK VINA RESULT:    -6.004      1.862      6.970
REMARK INTER + INTRA:          -7.338
REMARK INTER:                  -7.040
REMARK INTRA:                  -0.299
REMARK UNBOUND:                -0.282
REMARK SMILES O=c1cc(-c2ccc(O)c(O)c2)oc2cc(O)cc(O)c12
REMARK SMILES IDX 4 1 3 2 2 3 1 4 21 5 19 6 18 7 16 8 15 9 14 10 13 11 5 12
REMARK SMILES IDX 6 13 7 14 8 15 12 16 10 17 9 18 11 20 20 22 17 24
REMARK H PARENT 9 19 11 21 20 23 17 25
REMARK Flexibility Score: inf
ROOT
ATOM      1  C   UNL     1       6.554  78.803  63.815  1.00  0.00     0.138 A 
ATOM      2  C   UNL     1       5.271  79.363  63.938  1.00  0.00     0.100 A 
ATOM      3  C   UNL     1       4.503  79.078  65.067  1.00  0.00     0.197 A 
ATOM      4  O   UNL     1       3.353  79.586  65.169  1.00  0.00    -0.289 OA
ATOM      5  C   UNL     1       5.025  78.237  66.070  1.00  0.00     0.107 A 
ATOM      6  C   UNL     1       4.313  77.896  67.244  1.00  0.00     0.134 A 
ATOM      7  C   UNL     1       4.906  77.057  68.198  1.00  0.00     0.093 A 
ATOM      8  C   UNL     1       6.195  76.552  68.001  1.00  0.00     0.123 A 
ATOM      9  C   UNL     1       6.903  76.886  66.842  1.00  0.00     0.094 A 
ATOM     10  C   UNL     1       6.329  77.721  65.879  1.00  0.00     0.146 A 
ATOM     11  O   UNL     1       7.022  78.021  64.786  1.00  0.00    -0.456 OA
ENDROOT
BRANCH   1  12
ATOM     12  C   UNL     1       7.417  79.073  62.637  1.00  0.00     0.021 A 
ATOM     13  C   UNL     1       6.891  79.124  61.332  1.00  0.00     0.016 A 
ATOM     14  C   UNL     1       7.729  79.370  60.240  1.00  0.00     0.051 A 
ATOM     15  C   UNL     1       9.103  79.560  60.431  1.00  0.00     0.157 A 
ATOM     16  C   UNL     1       8.800  79.253  62.819  1.00  0.00     0.062 A 
ATOM     17  C   UNL     1       9.640  79.500  61.723  1.00  0.00     0.158 A 
BRANCH  15  18
ATOM     18  O   UNL     1       9.940  79.806  59.345  1.00  0.00    -0.504 OA
ATOM     19  H   UNL     1      10.566  79.095  58.987  1.00  0.00     0.293 HD
ENDBRANCH  15  18
BRANCH  17  20
ATOM     20  O   UNL     1      11.008  79.686  61.910  1.00  0.00    -0.504 OA
ATOM     21  H   UNL     1      11.661  79.637  61.136  1.00  0.00     0.293 HD
ENDBRANCH  17  20
ENDBRANCH   1  12
BRANCH   6  22
ATOM     22  O   UNL     1       3.026  78.385  67.469  1.00  0.00    -0.507 OA
ATOM     23  H   UNL     1       2.572  79.012  66.815  1.00  0.00     0.293 HD
ENDBRANCH   6  22
BRANCH   8  24
ATOM     24  O   UNL     1       6.761  75.721  68.965  1.00  0.00    -0.508 OA
ATOM     25  H   UNL     1       7.740  75.463  68.932  1.00  0.00     0.293 HD
ENDBRANCH   8  24
TORSDOF 5
ENDMDL
MODEL 9
REMARK VINA RESULT:    -5.981      6.905      9.518
REMARK INTER + INTRA:          -7.312
REMARK INTER:                  -7.019
REMARK INTRA:                  -0.292
REMARK UNBOUND:                -0.282
REMARK SMILES O=c1cc(-c2ccc(O)c(O)c2)oc2cc(O)cc(O)c12
REMARK SMILES IDX 4 1 3 2 2 3 1 4 21 5 19 6 18 7 16 8 15 9 14 10 13 11 5 12
REMARK SMILES IDX 6 13 7 14 8 15 12 16 10 17 9 18 11 20 20 22 17 24
REMARK H PARENT 9 19 11 21 20 23 17 25
REMARK Flexibility Score: inf
ROOT
ATOM      1  C   UNL     1       2.149  79.158  68.399  1.00  0.00     0.138 A 
ATOM      2  C   UNL     1       3.551  79.137  68.497  1.00  0.00     0.100 A 
ATOM      3  C   UNL     1       4.219  77.913  68.516  1.00  0.00     0.197 A 
ATOM      4  O   UNL     1       5.478  77.905  68.603  1.00  0.00    -0.289 OA
ATOM      5  C   UNL     1       3.482  76.715  68.431  1.00  0.00     0.107 A 
ATOM      6  C   UNL     1       4.080  75.433  68.445  1.00  0.00     0.134 A 
ATOM      7  C   UNL     1       3.275  74.289  68.351  1.00  0.00     0.093 A 
ATOM      8  C   UNL     1       1.886  74.401  68.245  1.00  0.00     0.123 A 
ATOM      9  C   UNL     1       1.289  75.666  68.231  1.00  0.00     0.094 A 
ATOM     10  C   UNL     1       2.074  76.819  68.324  1.00  0.00     0.146 A 
ATOM     11  O   UNL     1       1.483  78.009  68.311  1.00  0.00    -0.456 OA
ENDROOT
BRANCH   1  12
ATOM     12  C   UNL     1       1.385  80.431  68.374  1.00  0.00     0.021 A 
ATOM     13  C   UNL     1       0.043  80.480  67.948  1.00  0.00     0.016 A 
ATOM     14  C   UNL     1      -0.649  81.695  67.925  1.00  0.00     0.051 A 
ATOM     15  C   UNL     1      -0.012  82.878  68.318  1.00  0.00     0.157 A 
ATOM     16  C   UNL     1       2.020  81.626  68.755  1.00  0.00     0.062 A 
ATOM     17  C   UNL     1       1.324  82.845  68.732  1.00  0.00     0.158 A 
BRANCH  15  18
ATOM     18  O   UNL     1      -0.700  84.090  68.297  1.00  0.00    -0.504 OA
ATOM     19  H   UNL     1      -0.211  84.975  68.232  1.00  0.00     0.293 HD
ENDBRANCH  15  18
BRANCH  17  20
ATOM     20  O   UNL     1       1.957  84.025  69.119  1.00  0.00    -0.504 OA
ATOM     21  H   UNL     1       1.551  84.933  68.921  1.00  0.00     0.293 HD
ENDBRANCH  17  20
ENDBRANCH   1  12
BRANCH   6  22
ATOM     22  O   UNL     1       5.465  75.290  68.549  1.00  0.00    -0.507 OA
ATOM     23  H   UNL     1       6.102  75.870  68.016  1.00  0.00     0.293 HD
ENDBRANCH   6  22
BRANCH   8  24
ATOM     24  O   UNL     1       1.110  73.248  68.153  1.00  0.00    -0.508 OA
ATOM     25  H   UNL     1       1.492  72.335  68.366  1.00  0.00     0.293 HD
ENDBRANCH   8  24
TORSDOF 5
ENDMDL
