MODEL 1
REMARK VINA RESULT:    -6.496      0.000      0.000
REMARK INTER + INTRA:         -10.885
REMARK INTER:                  -9.344
REMARK INTRA:                  -1.541
REMARK UNBOUND:                -1.541
REMARK SMILES O=c1c(O[C@@H]2O[C@@H](CO)[C@H](O)[C@H](O)[C@H]2O)c(-c2ccc(O)cc2)oc2cc(O)cc(O)c12
REMARK SMILES IDX 4 1 3 2 16 3 24 4 2 5 25 6 1 7 32 8 26 9 30 10 27 11 29 12
REMARK SMILES IDX 17 13 18 14 19 15 20 16 23 17 22 18 21 19 31 21 28 23 5 25
REMARK SMILES IDX 14 26 6 27 12 28 7 29 10 30 15 31 13 33 8 35 9 36 11 38
REMARK H PARENT 21 20 31 22 28 24 15 32 13 34 9 37 11 39
REMARK Flexibility Score: inf
ROOT
ATOM      1  O   UNL     1      16.885  -3.184 -14.410  1.00  0.00    -0.454 OA
ENDROOT
BRANCH   1   2
ATOM      2  C   UNL     1      17.584  -2.925 -15.607  1.00  0.00     0.214 A 
ATOM      3  C   UNL     1      17.834  -3.974 -16.511  1.00  0.00     0.180 A 
ATOM      4  O   UNL     1      18.458  -3.738 -17.659  1.00  0.00    -0.452 OA
ATOM      5  C   UNL     1      17.991  -1.614 -15.954  1.00  0.00     0.239 A 
ATOM      6  C   UNL     1      18.883  -2.524 -18.018  1.00  0.00     0.146 A 
ATOM      7  O   UNL     1      17.716  -0.650 -15.197  1.00  0.00    -0.285 OA
ATOM      8  C   UNL     1      18.698  -1.413 -17.159  1.00  0.00     0.111 A 
ATOM      9  C   UNL     1      19.511  -2.360 -19.253  1.00  0.00     0.094 A 
ATOM     10  C   UNL     1      19.186  -0.151 -17.544  1.00  0.00     0.134 A 
ATOM     11  C   UNL     1      19.891  -1.085 -19.687  1.00  0.00     0.123 A 
ATOM     12  C   UNL     1      19.719   0.019 -18.849  1.00  0.00     0.093 A 
BRANCH   3  13
ATOM     13  C   UNL     1      17.283  -5.317 -16.282  1.00  0.00     0.021 A 
ATOM     14  C   UNL     1      18.147  -6.366 -15.888  1.00  0.00     0.016 A 
ATOM     15  C   UNL     1      17.693  -7.680 -15.809  1.00  0.00     0.047 A 
ATOM     16  C   UNL     1      16.339  -7.961 -16.092  1.00  0.00     0.115 A 
ATOM     17  C   UNL     1      15.933  -5.604 -16.497  1.00  0.00     0.016 A 
ATOM     18  C   UNL     1      15.465  -6.909 -16.348  1.00  0.00     0.047 A 
BRANCH  16  19
ATOM     19  O   UNL     1      15.911  -9.268 -16.112  1.00  0.00    -0.508 OA
ATOM     20  H   UNL     1      15.869  -9.787 -16.988  1.00  0.00     0.293 HD
ENDBRANCH  16  19
ENDBRANCH   3  13
BRANCH  10  21
ATOM     21  O   UNL     1      19.076   0.965 -16.698  1.00  0.00    -0.507 OA
ATOM     22  H   UNL     1      19.805   1.241 -16.047  1.00  0.00     0.293 HD
ENDBRANCH  10  21
BRANCH  11  23
ATOM     23  O   UNL     1      20.304  -0.881 -21.016  1.00  0.00    -0.508 OA
ATOM     24  H   UNL     1      21.205  -0.424 -21.172  1.00  0.00     0.293 HD
ENDBRANCH  11  23
ENDBRANCH   1   2
BRANCH   1  25
ATOM     25  C   UNL     1      17.552  -3.613 -13.219  1.00  0.00     0.339 C 
ATOM     26  C   UNL     1      17.357  -2.577 -12.076  1.00  0.00     0.214 C 
ATOM     27  O   UNL     1      17.178  -4.936 -12.895  1.00  0.00    -0.332 OA
ATOM     28  C   UNL     1      16.102  -2.824 -11.137  1.00  0.00     0.180 C 
ATOM     29  C   UNL     1      15.830  -4.960 -12.495  1.00  0.00     0.179 C 
ATOM     30  C   UNL     1      15.697  -4.338 -11.067  1.00  0.00     0.177 C 
BRANCH  26  31
ATOM     31  O   UNL     1      18.574  -2.491 -11.329  1.00  0.00    -0.384 OA
ATOM     32  H   UNL     1      19.053  -1.666 -11.631  1.00  0.00     0.211 HD
ENDBRANCH  26  31
BRANCH  28  33
ATOM     33  O   UNL     1      15.006  -2.060 -11.565  1.00  0.00    -0.387 OA
ATOM     34  H   UNL     1      14.229  -2.681 -11.448  1.00  0.00     0.211 HD
ENDBRANCH  28  33
BRANCH  29  35
ATOM     35  C   UNL     1      15.378  -6.430 -12.611  1.00  0.00     0.191 C 
BRANCH  35  36
ATOM     36  O   UNL     1      13.971  -6.519 -12.606  1.00  0.00    -0.394 OA
ATOM     37  H   UNL     1      13.653  -7.459 -12.578  1.00  0.00     0.210 HD
ENDBRANCH  35  36
ENDBRANCH  29  35
BRANCH  30  38
ATOM     38  O   UNL     1      14.370  -4.468 -10.582  1.00  0.00    -0.387 OA
ATOM     39  H   UNL     1      14.386  -4.529  -9.591  1.00  0.00     0.211 HD
ENDBRANCH  30  38
ENDBRANCH   1  25
TORSDOF 11
ENDMDL
MODEL 2
REMARK VINA RESULT:    -6.313      1.030      2.334
REMARK INTER + INTRA:         -10.622
REMARK INTER:                  -9.217
REMARK INTRA:                  -1.405
REMARK UNBOUND:                -1.541
REMARK SMILES O=c1c(O[C@@H]2O[C@@H](CO)[C@H](O)[C@H](O)[C@H]2O)c(-c2ccc(O)cc2)oc2cc(O)cc(O)c12
REMARK SMILES IDX 4 1 3 2 16 3 24 4 2 5 25 6 1 7 32 8 26 9 30 10 27 11 29 12
REMARK SMILES IDX 17 13 18 14 19 15 20 16 23 17 22 18 21 19 31 21 28 23 5 25
REMARK SMILES IDX 14 26 6 27 12 28 7 29 10 30 15 31 13 33 8 35 9 36 11 38
REMARK H PARENT 21 20 31 22 28 24 15 32 13 34 9 37 11 39
REMARK Flexibility Score: inf
ROOT
ATOM      1  O   UNL     1      17.461  -3.639 -14.290  1.00  0.00    -0.454 OA
ENDROOT
BRANCH   1   2
ATOM      2  C   UNL     1      17.926  -3.223 -15.554  1.00  0.00     0.214 A 
ATOM      3  C   UNL     1      18.055  -4.162 -16.595  1.00  0.00     0.180 A 
ATOM      4  O   UNL     1      18.455  -3.778 -17.801  1.00  0.00    -0.452 OA
ATOM      5  C   UNL     1      18.210  -1.863 -15.824  1.00  0.00     0.239 A 
ATOM      6  C   UNL     1      18.759  -2.511 -18.096  1.00  0.00     0.146 A 
ATOM      7  O   UNL     1      18.034  -0.995 -14.933  1.00  0.00    -0.285 OA
ATOM      8  C   UNL     1      18.683  -1.503 -17.105  1.00  0.00     0.111 A 
ATOM      9  C   UNL     1      19.150  -2.191 -19.396  1.00  0.00     0.094 A 
ATOM     10  C   UNL     1      19.043  -0.182 -17.430  1.00  0.00     0.134 A 
ATOM     11  C   UNL     1      19.394  -0.859 -19.750  1.00  0.00     0.123 A 
ATOM     12  C   UNL     1      19.329   0.146 -18.782  1.00  0.00     0.093 A 
BRANCH   3  13
ATOM     13  C   UNL     1      17.609  -5.551 -16.419  1.00  0.00     0.021 A 
ATOM     14  C   UNL     1      16.321  -5.931 -16.866  1.00  0.00     0.016 A 
ATOM     15  C   UNL     1      15.805  -7.192 -16.582  1.00  0.00     0.047 A 
ATOM     16  C   UNL     1      16.597  -8.118 -15.869  1.00  0.00     0.115 A 
ATOM     17  C   UNL     1      18.402  -6.501 -15.770  1.00  0.00     0.016 A 
ATOM     18  C   UNL     1      17.910  -7.787 -15.551  1.00  0.00     0.047 A 
BRANCH  16  19
ATOM     19  O   UNL     1      16.054  -9.328 -15.501  1.00  0.00    -0.508 OA
ATOM     20  H   UNL     1      15.625  -9.937 -16.197  1.00  0.00     0.293 HD
ENDBRANCH  16  19
ENDBRANCH   3  13
BRANCH  10  21
ATOM     21  O   UNL     1      19.038   0.837 -16.464  1.00  0.00    -0.507 OA
ATOM     22  H   UNL     1      19.203   1.814 -16.688  1.00  0.00     0.293 HD
ENDBRANCH  10  21
BRANCH  11  23
ATOM     23  O   UNL     1      19.557  -0.502 -21.101  1.00  0.00    -0.508 OA
ATOM     24  H   UNL     1      20.490  -0.590 -21.510  1.00  0.00     0.293 HD
ENDBRANCH  11  23
ENDBRANCH   1   2
BRANCH   1  25
ATOM     25  C   UNL     1      16.075  -3.894 -14.036  1.00  0.00     0.339 C 
ATOM     26  C   UNL     1      15.904  -5.122 -13.099  1.00  0.00     0.214 C 
ATOM     27  O   UNL     1      15.430  -2.715 -13.599  1.00  0.00    -0.332 OA
ATOM     28  C   UNL     1      15.849  -4.794 -11.547  1.00  0.00     0.180 C 
ATOM     29  C   UNL     1      15.899  -2.369 -12.319  1.00  0.00     0.179 C 
ATOM     30  C   UNL     1      15.301  -3.352 -11.261  1.00  0.00     0.177 C 
BRANCH  26  31
ATOM     31  O   UNL     1      14.760  -5.866 -13.529  1.00  0.00    -0.384 OA
ATOM     32  H   UNL     1      14.795  -6.756 -13.074  1.00  0.00     0.211 HD
ENDBRANCH  26  31
BRANCH  28  33
ATOM     33  O   UNL     1      17.115  -4.945 -10.963  1.00  0.00    -0.387 OA
ATOM     34  H   UNL     1      17.231  -4.101 -10.436  1.00  0.00     0.211 HD
ENDBRANCH  28  33
BRANCH  29  35
ATOM     35  C   UNL     1      15.526  -0.885 -12.117  1.00  0.00     0.191 C 
BRANCH  35  36
ATOM     36  O   UNL     1      14.331  -0.771 -11.379  1.00  0.00    -0.394 OA
ATOM     37  H   UNL     1      14.491  -0.779 -10.399  1.00  0.00     0.210 HD
ENDBRANCH  35  36
ENDBRANCH  29  35
BRANCH  30  38
ATOM     38  O   UNL     1      15.650  -2.948  -9.946  1.00  0.00    -0.387 OA
ATOM     39  H   UNL     1      15.722  -3.750  -9.364  1.00  0.00     0.211 HD
ENDBRANCH  30  38
ENDBRANCH   1  25
TORSDOF 11
ENDMDL
MODEL 3
REMARK VINA RESULT:    -6.192      2.470      6.078
REMARK INTER + INTRA:         -10.447
REMARK INTER:                  -9.012
REMARK INTRA:                  -1.436
REMARK UNBOUND:                -1.541
REMARK SMILES O=c1c(O[C@@H]2O[C@@H](CO)[C@H](O)[C@H](O)[C@H]2O)c(-c2ccc(O)cc2)oc2cc(O)cc(O)c12
REMARK SMILES IDX 4 1 3 2 16 3 24 4 2 5 25 6 1 7 32 8 26 9 30 10 27 11 29 12
REMARK SMILES IDX 17 13 18 14 19 15 20 16 23 17 22 18 21 19 31 21 28 23 5 25
REMARK SMILES IDX 14 26 6 27 12 28 7 29 10 30 15 31 13 33 8 35 9 36 11 38
REMARK H PARENT 21 20 31 22 28 24 15 32 13 34 9 37 11 39
REMARK Flexibility Score: inf
ROOT
ATOM      1  O   UNL     1      18.261  -2.771 -12.592  1.00  0.00    -0.454 OA
ENDROOT
BRANCH   1   2
ATOM      2  C   UNL     1      17.712  -3.606 -13.587  1.00  0.00     0.214 A 
ATOM      3  C   UNL     1      17.159  -3.038 -14.749  1.00  0.00     0.180 A 
ATOM      4  O   UNL     1      16.673  -3.812 -15.711  1.00  0.00    -0.452 OA
ATOM      5  C   UNL     1      17.758  -5.016 -13.473  1.00  0.00     0.239 A 
ATOM      6  C   UNL     1      16.672  -5.146 -15.637  1.00  0.00     0.146 A 
ATOM      7  O   UNL     1      18.311  -5.548 -12.478  1.00  0.00    -0.285 OA
ATOM      8  C   UNL     1      17.184  -5.805 -14.493  1.00  0.00     0.111 A 
ATOM      9  C   UNL     1      16.160  -5.886 -16.705  1.00  0.00     0.094 A 
ATOM     10  C   UNL     1      17.138  -7.209 -14.424  1.00  0.00     0.134 A 
ATOM     11  C   UNL     1      16.223  -7.284 -16.686  1.00  0.00     0.123 A 
ATOM     12  C   UNL     1      16.721  -7.948 -15.562  1.00  0.00     0.093 A 
BRANCH   3  13
ATOM     13  C   UNL     1      17.242  -1.591 -14.996  1.00  0.00     0.021 A 
ATOM     14  C   UNL     1      18.440  -1.040 -15.512  1.00  0.00     0.016 A 
ATOM     15  C   UNL     1      18.611   0.337 -15.616  1.00  0.00     0.047 A 
ATOM     16  C   UNL     1      17.556   1.195 -15.235  1.00  0.00     0.115 A 
ATOM     17  C   UNL     1      16.187  -0.730 -14.684  1.00  0.00     0.016 A 
ATOM     18  C   UNL     1      16.335   0.645 -14.857  1.00  0.00     0.047 A 
BRANCH  16  19
ATOM     19  O   UNL     1      17.757   2.556 -15.242  1.00  0.00    -0.508 OA
ATOM     20  H   UNL     1      17.337   3.147 -14.525  1.00  0.00     0.293 HD
ENDBRANCH  16  19
ENDBRANCH   3  13
BRANCH  10  21
ATOM     21  O   UNL     1      17.582  -7.900 -13.284  1.00  0.00    -0.507 OA
ATOM     22  H   UNL     1      18.548  -7.894 -12.973  1.00  0.00     0.293 HD
ENDBRANCH  10  21
BRANCH  11  23
ATOM     23  O   UNL     1      15.930  -8.022 -17.847  1.00  0.00    -0.508 OA
ATOM     24  H   UNL     1      15.792  -9.031 -17.750  1.00  0.00     0.293 HD
ENDBRANCH  11  23
ENDBRANCH   1   2
BRANCH   1  25
ATOM     25  C   UNL     1      17.440  -1.970 -11.735  1.00  0.00     0.339 C 
ATOM     26  C   UNL     1      16.176  -2.759 -11.290  1.00  0.00     0.214 C 
ATOM     27  O   UNL     1      18.210  -1.433 -10.679  1.00  0.00    -0.332 OA
ATOM     28  C   UNL     1      16.321  -3.575  -9.938  1.00  0.00     0.180 C 
ATOM     29  C   UNL     1      18.609  -2.466  -9.813  1.00  0.00     0.179 C 
ATOM     30  C   UNL     1      17.382  -2.945  -8.970  1.00  0.00     0.177 C 
BRANCH  26  31
ATOM     31  O   UNL     1      15.068  -1.855 -11.253  1.00  0.00    -0.384 OA
ATOM     32  H   UNL     1      15.168  -1.293 -10.431  1.00  0.00     0.211 HD
ENDBRANCH  26  31
BRANCH  28  33
ATOM     33  O   UNL     1      16.655  -4.913 -10.200  1.00  0.00    -0.387 OA
ATOM     34  H   UNL     1      15.803  -5.406 -10.016  1.00  0.00     0.211 HD
ENDBRANCH  28  33
BRANCH  29  35
ATOM     35  C   UNL     1      19.786  -1.902  -8.991  1.00  0.00     0.191 C 
BRANCH  35  36
ATOM     36  O   UNL     1      20.582  -2.948  -8.481  1.00  0.00    -0.394 OA
ATOM     37  H   UNL     1      21.133  -2.659  -7.708  1.00  0.00     0.210 HD
ENDBRANCH  35  36
ENDBRANCH  29  35
BRANCH  30  38
ATOM     38  O   UNL     1      17.781  -3.895  -7.995  1.00  0.00    -0.387 OA
ATOM     39  H   UNL     1      16.985  -4.400  -7.682  1.00  0.00     0.211 HD
ENDBRANCH  30  38
ENDBRANCH   1  25
TORSDOF 11
ENDMDL
MODEL 4
REMARK VINA RESULT:    -6.003      1.562      4.345
REMARK INTER + INTRA:         -10.176
REMARK INTER:                  -8.875
REMARK INTRA:                  -1.302
REMARK UNBOUND:                -1.541
REMARK SMILES O=c1c(O[C@@H]2O[C@@H](CO)[C@H](O)[C@H](O)[C@H]2O)c(-c2ccc(O)cc2)oc2cc(O)cc(O)c12
REMARK SMILES IDX 4 1 3 2 16 3 24 4 2 5 25 6 1 7 32 8 26 9 30 10 27 11 29 12
REMARK SMILES IDX 17 13 18 14 19 15 20 16 23 17 22 18 21 19 31 21 28 23 5 25
REMARK SMILES IDX 14 26 6 27 12 28 7 29 10 30 15 31 13 33 8 35 9 36 11 38
REMARK H PARENT 21 20 31 22 28 24 15 32 13 34 9 37 11 39
REMARK Flexibility Score: inf
ROOT
ATOM      1  O   UNL     1      16.663  -3.760 -14.974  1.00  0.00    -0.454 OA
ENDROOT
BRANCH   1   2
ATOM      2  C   UNL     1      17.398  -2.776 -15.669  1.00  0.00     0.214 A 
ATOM      3  C   UNL     1      17.495  -1.474 -15.143  1.00  0.00     0.180 A 
ATOM      4  O   UNL     1      18.214  -0.549 -15.766  1.00  0.00    -0.452 OA
ATOM      5  C   UNL     1      18.097  -3.084 -16.861  1.00  0.00     0.239 A 
ATOM      6  C   UNL     1      18.870  -0.785 -16.906  1.00  0.00     0.146 A 
ATOM      7  O   UNL     1      18.085  -4.257 -17.311  1.00  0.00    -0.285 OA
ATOM      8  C   UNL     1      18.809  -2.059 -17.521  1.00  0.00     0.111 A 
ATOM      9  C   UNL     1      19.621   0.239 -17.483  1.00  0.00     0.094 A 
ATOM     10  C   UNL     1      19.479  -2.273 -18.740  1.00  0.00     0.134 A 
ATOM     11  C   UNL     1      20.382  -0.007 -18.631  1.00  0.00     0.123 A 
ATOM     12  C   UNL     1      20.328  -1.257 -19.253  1.00  0.00     0.093 A 
BRANCH   3  13
ATOM     13  C   UNL     1      16.933  -1.148 -13.824  1.00  0.00     0.021 A 
ATOM     14  C   UNL     1      17.758  -1.235 -12.677  1.00  0.00     0.016 A 
ATOM     15  C   UNL     1      17.227  -1.084 -11.398  1.00  0.00     0.047 A 
ATOM     16  C   UNL     1      15.852  -0.801 -11.250  1.00  0.00     0.115 A 
ATOM     17  C   UNL     1      15.589  -0.807 -13.661  1.00  0.00     0.016 A 
ATOM     18  C   UNL     1      15.075  -0.585 -12.385  1.00  0.00     0.047 A 
BRANCH  16  19
ATOM     19  O   UNL     1      15.306  -0.750  -9.988  1.00  0.00    -0.508 OA
ATOM     20  H   UNL     1      15.529  -1.465  -9.297  1.00  0.00     0.293 HD
ENDBRANCH  16  19
ENDBRANCH   3  13
BRANCH  10  21
ATOM     21  O   UNL     1      19.397  -3.502 -19.414  1.00  0.00    -0.507 OA
ATOM     22  H   UNL     1      18.607  -4.133 -19.323  1.00  0.00     0.293 HD
ENDBRANCH  10  21
BRANCH  11  23
ATOM     23  O   UNL     1      21.318   0.943 -19.079  1.00  0.00    -0.508 OA
ATOM     24  H   UNL     1      21.180   1.918 -18.803  1.00  0.00     0.293 HD
ENDBRANCH  11  23
ENDBRANCH   1   2
BRANCH   1  25
ATOM     25  C   UNL     1      17.304  -4.792 -14.217  1.00  0.00     0.339 C 
ATOM     26  C   UNL     1      16.827  -4.766 -12.738  1.00  0.00     0.214 C 
ATOM     27  O   UNL     1      17.162  -6.038 -14.868  1.00  0.00    -0.332 OA
ATOM     28  C   UNL     1      15.571  -5.678 -12.410  1.00  0.00     0.180 C 
ATOM     29  C   UNL     1      15.815  -6.442 -14.826  1.00  0.00     0.179 C 
ATOM     30  C   UNL     1      15.456  -6.908 -13.377  1.00  0.00     0.177 C 
BRANCH  26  31
ATOM     31  O   UNL     1      17.943  -5.070 -11.896  1.00  0.00    -0.384 OA
ATOM     32  H   UNL     1      17.651  -4.927 -10.950  1.00  0.00     0.211 HD
ENDBRANCH  26  31
BRANCH  28  33
ATOM     33  O   UNL     1      14.387  -4.926 -12.455  1.00  0.00    -0.387 OA
ATOM     34  H   UNL     1      14.711  -3.979 -12.440  1.00  0.00     0.211 HD
ENDBRANCH  28  33
BRANCH  29  35
ATOM     35  C   UNL     1      15.660  -7.522 -15.916  1.00  0.00     0.191 C 
BRANCH  35  36
ATOM     36  O   UNL     1      14.335  -7.556 -16.395  1.00  0.00    -0.394 OA
ATOM     37  H   UNL     1      13.876  -6.681 -16.297  1.00  0.00     0.210 HD
ENDBRANCH  35  36
ENDBRANCH  29  35
BRANCH  30  38
ATOM     38  O   UNL     1      14.143  -7.444 -13.332  1.00  0.00    -0.387 OA
ATOM     39  H   UNL     1      13.823  -7.455 -12.392  1.00  0.00     0.211 HD
ENDBRANCH  30  38
ENDBRANCH   1  25
TORSDOF 11
ENDMDL
MODEL 5
REMARK VINA RESULT:    -5.921      1.660      4.949
REMARK INTER + INTRA:         -10.058
REMARK INTER:                  -8.804
REMARK INTRA:                  -1.254
REMARK UNBOUND:                -1.541
REMARK SMILES O=c1c(O[C@@H]2O[C@@H](CO)[C@H](O)[C@H](O)[C@H]2O)c(-c2ccc(O)cc2)oc2cc(O)cc(O)c12
REMARK SMILES IDX 4 1 3 2 16 3 24 4 2 5 25 6 1 7 32 8 26 9 30 10 27 11 29 12
REMARK SMILES IDX 17 13 18 14 19 15 20 16 23 17 22 18 21 19 31 21 28 23 5 25
REMARK SMILES IDX 14 26 6 27 12 28 7 29 10 30 15 31 13 33 8 35 9 36 11 38
REMARK H PARENT 21 20 31 22 28 24 15 32 13 34 9 37 11 39
REMARK Flexibility Score: inf
ROOT
ATOM      1  O   UNL     1      17.106  -5.469 -15.035  1.00  0.00    -0.454 OA
ENDROOT
BRANCH   1   2
ATOM      2  C   UNL     1      17.522  -4.251 -15.612  1.00  0.00     0.214 A 
ATOM      3  C   UNL     1      17.364  -3.050 -14.897  1.00  0.00     0.180 A 
ATOM      4  O   UNL     1      17.785  -1.901 -15.411  1.00  0.00    -0.452 OA
ATOM      5  C   UNL     1      18.156  -4.213 -16.877  1.00  0.00     0.239 A 
ATOM      6  C   UNL     1      18.366  -1.812 -16.610  1.00  0.00     0.146 A 
ATOM      7  O   UNL     1      18.373  -5.281 -17.503  1.00  0.00    -0.285 OA
ATOM      8  C   UNL     1      18.543  -2.966 -17.412  1.00  0.00     0.111 A 
ATOM      9  C   UNL     1      18.799  -0.566 -17.065  1.00  0.00     0.094 A 
ATOM     10  C   UNL     1      19.124  -2.841 -18.687  1.00  0.00     0.134 A 
ATOM     11  C   UNL     1      19.483  -0.460 -18.282  1.00  0.00     0.123 A 
ATOM     12  C   UNL     1      19.661  -1.588 -19.086  1.00  0.00     0.093 A 
BRANCH   3  13
ATOM     13  C   UNL     1      16.872  -3.053 -13.511  1.00  0.00     0.021 A 
ATOM     14  C   UNL     1      17.776  -3.307 -12.452  1.00  0.00     0.016 A 
ATOM     15  C   UNL     1      17.325  -3.469 -11.146  1.00  0.00     0.047 A 
ATOM     16  C   UNL     1      15.946  -3.342 -10.871  1.00  0.00     0.115 A 
ATOM     17  C   UNL     1      15.520  -2.869 -13.211  1.00  0.00     0.016 A 
ATOM     18  C   UNL     1      15.080  -2.961 -11.891  1.00  0.00     0.047 A 
BRANCH  16  19
ATOM     19  O   UNL     1      15.485  -3.600  -9.600  1.00  0.00    -0.508 OA
ATOM     20  H   UNL     1      15.243  -4.549  -9.319  1.00  0.00     0.293 HD
ENDBRANCH  16  19
ENDBRANCH   3  13
BRANCH  10  21
ATOM     21  O   UNL     1      19.266  -3.949 -19.538  1.00  0.00    -0.507 OA
ATOM     22  H   UNL     1      18.558  -4.671 -19.631  1.00  0.00     0.293 HD
ENDBRANCH  10  21
BRANCH  11  23
ATOM     23  O   UNL     1      20.125   0.741 -18.633  1.00  0.00    -0.508 OA
ATOM     24  H   UNL     1      20.890   1.067 -18.037  1.00  0.00     0.293 HD
ENDBRANCH  11  23
ENDBRANCH   1   2
BRANCH   1  25
ATOM     25  C   UNL     1      15.792  -5.998 -15.244  1.00  0.00     0.339 C 
ATOM     26  C   UNL     1      15.609  -6.451 -16.719  1.00  0.00     0.214 C 
ATOM     27  O   UNL     1      15.500  -6.985 -14.276  1.00  0.00    -0.332 OA
ATOM     28  C   UNL     1      15.972  -7.967 -17.018  1.00  0.00     0.180 C 
ATOM     29  C   UNL     1      16.305  -8.116 -14.499  1.00  0.00     0.179 C 
ATOM     30  C   UNL     1      15.789  -8.884 -15.758  1.00  0.00     0.177 C 
BRANCH  26  31
ATOM     31  O   UNL     1      14.277  -6.130 -17.131  1.00  0.00    -0.384 OA
ATOM     32  H   UNL     1      13.694  -6.176 -16.320  1.00  0.00     0.211 HD
ENDBRANCH  26  31
BRANCH  28  33
ATOM     33  O   UNL     1      17.286  -8.076 -17.497  1.00  0.00    -0.387 OA
ATOM     34  H   UNL     1      17.505  -9.044 -17.359  1.00  0.00     0.211 HD
ENDBRANCH  28  33
BRANCH  29  35
ATOM     35  C   UNL     1      16.277  -8.924 -13.185  1.00  0.00     0.191 C 
BRANCH  35  36
ATOM     36  O   UNL     1      15.532 -10.109 -13.347  1.00  0.00    -0.394 OA
ATOM     37  H   UNL     1      14.993 -10.104 -14.180  1.00  0.00     0.210 HD
ENDBRANCH  35  36
ENDBRANCH  29  35
BRANCH  30  38
ATOM     38  O   UNL     1      16.498 -10.101 -15.932  1.00  0.00    -0.387 OA
ATOM     39  H   UNL     1      16.688 -10.501 -15.043  1.00  0.00     0.211 HD
ENDBRANCH  30  38
ENDBRANCH   1  25
TORSDOF 11
ENDMDL
MODEL 6
REMARK VINA RESULT:    -5.908      3.665      9.625
REMARK INTER + INTRA:         -10.039
REMARK INTER:                  -8.475
REMARK INTRA:                  -1.563
REMARK UNBOUND:                -1.541
REMARK SMILES O=c1c(O[C@@H]2O[C@@H](CO)[C@H](O)[C@H](O)[C@H]2O)c(-c2ccc(O)cc2)oc2cc(O)cc(O)c12
REMARK SMILES IDX 4 1 3 2 16 3 24 4 2 5 25 6 1 7 32 8 26 9 30 10 27 11 29 12
REMARK SMILES IDX 17 13 18 14 19 15 20 16 23 17 22 18 21 19 31 21 28 23 5 25
REMARK SMILES IDX 14 26 6 27 12 28 7 29 10 30 15 31 13 33 8 35 9 36 11 38
REMARK H PARENT 21 20 31 22 28 24 15 32 13 34 9 37 11 39
REMARK Flexibility Score: inf
ROOT
ATOM      1  O   UNL     1      14.027  -6.959 -12.806  1.00  0.00    -0.454 OA
ENDROOT
BRANCH   1   2
ATOM      2  C   UNL     1      13.265  -6.867 -11.623  1.00  0.00     0.214 A 
ATOM      3  C   UNL     1      13.436  -5.765 -10.765  1.00  0.00     0.180 A 
ATOM      4  O   UNL     1      12.699  -5.647  -9.668  1.00  0.00    -0.452 OA
ATOM      5  C   UNL     1      12.280  -7.833 -11.305  1.00  0.00     0.239 A 
ATOM      6  C   UNL     1      11.776  -6.544  -9.313  1.00  0.00     0.146 A 
ATOM      7  O   UNL     1      12.058  -8.787 -12.092  1.00  0.00    -0.285 OA
ATOM      8  C   UNL     1      11.552  -7.698 -10.103  1.00  0.00     0.111 A 
ATOM      9  C   UNL     1      11.029  -6.330  -8.154  1.00  0.00     0.094 A 
ATOM     10  C   UNL     1      10.600  -8.647  -9.689  1.00  0.00     0.134 A 
ATOM     11  C   UNL     1      10.001  -7.213  -7.805  1.00  0.00     0.123 A 
ATOM     12  C   UNL     1       9.772  -8.359  -8.572  1.00  0.00     0.093 A 
BRANCH   3  13
ATOM     13  C   UNL     1      14.319  -4.650 -11.134  1.00  0.00     0.021 A 
ATOM     14  C   UNL     1      15.527  -4.452 -10.422  1.00  0.00     0.016 A 
ATOM     15  C   UNL     1      16.312  -3.324 -10.638  1.00  0.00     0.047 A 
ATOM     16  C   UNL     1      15.914  -2.382 -11.612  1.00  0.00     0.115 A 
ATOM     17  C   UNL     1      13.974  -3.740 -12.136  1.00  0.00     0.016 A 
ATOM     18  C   UNL     1      14.800  -2.648 -12.401  1.00  0.00     0.047 A 
BRANCH  16  19
ATOM     19  O   UNL     1      16.634  -1.218 -11.758  1.00  0.00    -0.508 OA
ATOM     20  H   UNL     1      16.833  -0.844 -12.685  1.00  0.00     0.293 HD
ENDBRANCH  16  19
ENDBRANCH   3  13
BRANCH  10  21
ATOM     21  O   UNL     1      10.387  -9.833 -10.410  1.00  0.00    -0.507 OA
ATOM     22  H   UNL     1      11.140 -10.457 -10.685  1.00  0.00     0.293 HD
ENDBRANCH  10  21
BRANCH  11  23
ATOM     23  O   UNL     1       9.097  -6.882  -6.780  1.00  0.00    -0.508 OA
ATOM     24  H   UNL     1       8.518  -7.629  -6.392  1.00  0.00     0.293 HD
ENDBRANCH  11  23
ENDBRANCH   1   2
BRANCH   1  25
ATOM     25  C   UNL     1      15.268  -7.672 -12.856  1.00  0.00     0.339 C 
ATOM     26  C   UNL     1      15.195  -8.830 -13.891  1.00  0.00     0.214 C 
ATOM     27  O   UNL     1      16.343  -6.774 -13.040  1.00  0.00    -0.332 OA
ATOM     28  C   UNL     1      15.659  -8.461 -15.363  1.00  0.00     0.180 C 
ATOM     29  C   UNL     1      16.277  -6.218 -14.330  1.00  0.00     0.179 C 
ATOM     30  C   UNL     1      16.704  -7.291 -15.384  1.00  0.00     0.177 C 
BRANCH  26  31
ATOM     31  O   UNL     1      15.915  -9.950 -13.369  1.00  0.00    -0.384 OA
ATOM     32  H   UNL     1      16.813  -9.620 -13.078  1.00  0.00     0.211 HD
ENDBRANCH  26  31
BRANCH  28  33
ATOM     33  O   UNL     1      14.555  -8.125 -16.160  1.00  0.00    -0.387 OA
ATOM     34  H   UNL     1      14.279  -9.001 -16.558  1.00  0.00     0.211 HD
ENDBRANCH  28  33
BRANCH  29  35
ATOM     35  C   UNL     1      17.159  -4.953 -14.294  1.00  0.00     0.191 C 
BRANCH  35  36
ATOM     36  O   UNL     1      18.468  -5.247 -14.726  1.00  0.00    -0.394 OA
ATOM     37  H   UNL     1      18.605  -5.034 -15.685  1.00  0.00     0.210 HD
ENDBRANCH  35  36
ENDBRANCH  29  35
BRANCH  30  38
ATOM     38  O   UNL     1      16.774  -6.722 -16.682  1.00  0.00    -0.387 OA
ATOM     39  H   UNL     1      17.492  -7.173 -17.201  1.00  0.00     0.211 HD
ENDBRANCH  30  38
ENDBRANCH   1  25
TORSDOF 11
ENDMDL
MODEL 7
REMARK VINA RESULT:    -5.907      3.148      8.649
REMARK INTER + INTRA:         -10.037
REMARK INTER:                  -8.576
REMARK INTRA:                  -1.462
REMARK UNBOUND:                -1.541
REMARK SMILES O=c1c(O[C@@H]2O[C@@H](CO)[C@H](O)[C@H](O)[C@H]2O)c(-c2ccc(O)cc2)oc2cc(O)cc(O)c12
REMARK SMILES IDX 4 1 3 2 16 3 24 4 2 5 25 6 1 7 32 8 26 9 30 10 27 11 29 12
REMARK SMILES IDX 17 13 18 14 19 15 20 16 23 17 22 18 21 19 31 21 28 23 5 25
REMARK SMILES IDX 14 26 6 27 12 28 7 29 10 30 15 31 13 33 8 35 9 36 11 38
REMARK H PARENT 21 20 31 22 28 24 15 32 13 34 9 37 11 39
REMARK Flexibility Score: inf
ROOT
ATOM      1  O   UNL     1      15.960  -5.981 -13.151  1.00  0.00    -0.454 OA
ENDROOT
BRANCH   1   2
ATOM      2  C   UNL     1      14.917  -6.056 -12.205  1.00  0.00     0.214 A 
ATOM      3  C   UNL     1      14.771  -5.039 -11.243  1.00  0.00     0.180 A 
ATOM      4  O   UNL     1      13.771  -5.076 -10.371  1.00  0.00    -0.452 OA
ATOM      5  C   UNL     1      13.967  -7.106 -12.235  1.00  0.00     0.239 A 
ATOM      6  C   UNL     1      12.867  -6.059 -10.345  1.00  0.00     0.146 A 
ATOM      7  O   UNL     1      14.034  -7.986 -13.129  1.00  0.00    -0.285 OA
ATOM      8  C   UNL     1      12.949  -7.138 -11.258  1.00  0.00     0.111 A 
ATOM      9  C   UNL     1      11.835  -6.009  -9.407  1.00  0.00     0.094 A 
ATOM     10  C   UNL     1      12.006  -8.179 -11.188  1.00  0.00     0.134 A 
ATOM     11  C   UNL     1      10.829  -6.983  -9.414  1.00  0.00     0.123 A 
ATOM     12  C   UNL     1      10.900  -8.056 -10.306  1.00  0.00     0.093 A 
BRANCH   3  13
ATOM     13  C   UNL     1      15.622  -3.840 -11.275  1.00  0.00     0.021 A 
ATOM     14  C   UNL     1      15.132  -2.655 -11.874  1.00  0.00     0.016 A 
ATOM     15  C   UNL     1      15.959  -1.550 -12.060  1.00  0.00     0.047 A 
ATOM     16  C   UNL     1      17.295  -1.604 -11.609  1.00  0.00     0.115 A 
ATOM     17  C   UNL     1      16.928  -3.853 -10.779  1.00  0.00     0.016 A 
ATOM     18  C   UNL     1      17.731  -2.720 -10.902  1.00  0.00     0.047 A 
BRANCH  16  19
ATOM     19  O   UNL     1      18.141  -0.553 -11.880  1.00  0.00    -0.508 OA
ATOM     20  H   UNL     1      18.929  -0.672 -12.515  1.00  0.00     0.293 HD
ENDBRANCH  16  19
ENDBRANCH   3  13
BRANCH  10  21
ATOM     21  O   UNL     1      12.085  -9.296 -12.035  1.00  0.00    -0.507 OA
ATOM     22  H   UNL     1      12.309  -9.228 -13.023  1.00  0.00     0.293 HD
ENDBRANCH  10  21
BRANCH  11  23
ATOM     23  O   UNL     1       9.670  -6.811  -8.636  1.00  0.00    -0.508 OA
ATOM     24  H   UNL     1       9.399  -7.571  -8.007  1.00  0.00     0.293 HD
ENDBRANCH  11  23
ENDBRANCH   1   2
BRANCH   1  25
ATOM     25  C   UNL     1      15.863  -5.168 -14.325  1.00  0.00     0.339 C 
ATOM     26  C   UNL     1      17.214  -4.457 -14.615  1.00  0.00     0.214 C 
ATOM     27  O   UNL     1      15.341  -5.920 -15.401  1.00  0.00    -0.332 OA
ATOM     28  C   UNL     1      18.208  -5.243 -15.570  1.00  0.00     0.180 C 
ATOM     29  C   UNL     1      16.279  -6.889 -15.798  1.00  0.00     0.179 C 
ATOM     30  C   UNL     1      17.454  -6.197 -16.562  1.00  0.00     0.177 C 
BRANCH  26  31
ATOM     31  O   UNL     1      16.939  -3.139 -15.098  1.00  0.00    -0.384 OA
ATOM     32  H   UNL     1      17.009  -2.515 -14.320  1.00  0.00     0.211 HD
ENDBRANCH  26  31
BRANCH  28  33
ATOM     33  O   UNL     1      19.138  -5.979 -14.820  1.00  0.00    -0.387 OA
ATOM     34  H   UNL     1      19.990  -5.870 -15.334  1.00  0.00     0.211 HD
ENDBRANCH  28  33
BRANCH  29  35
ATOM     35  C   UNL     1      15.493  -7.933 -16.617  1.00  0.00     0.191 C 
BRANCH  35  36
ATOM     36  O   UNL     1      15.583  -7.653 -17.995  1.00  0.00    -0.394 OA
ATOM     37  H   UNL     1      15.444  -6.691 -18.193  1.00  0.00     0.210 HD
ENDBRANCH  35  36
ENDBRANCH  29  35
BRANCH  30  38
ATOM     38  O   UNL     1      18.351  -7.162 -17.090  1.00  0.00    -0.387 OA
ATOM     39  H   UNL     1      19.046  -6.705 -17.631  1.00  0.00     0.211 HD
ENDBRANCH  30  38
ENDBRANCH   1  25
TORSDOF 11
ENDMDL
MODEL 8
REMARK VINA RESULT:    -5.755      2.032      4.627
REMARK INTER + INTRA:          -9.819
REMARK INTER:                  -8.479
REMARK INTRA:                  -1.340
REMARK UNBOUND:                -1.541
REMARK SMILES O=c1c(O[C@@H]2O[C@@H](CO)[C@H](O)[C@H](O)[C@H]2O)c(-c2ccc(O)cc2)oc2cc(O)cc(O)c12
REMARK SMILES IDX 4 1 3 2 16 3 24 4 2 5 25 6 1 7 32 8 26 9 30 10 27 11 29 12
REMARK SMILES IDX 17 13 18 14 19 15 20 16 23 17 22 18 21 19 31 21 28 23 5 25
REMARK SMILES IDX 14 26 6 27 12 28 7 29 10 30 15 31 13 33 8 35 9 36 11 38
REMARK H PARENT 21 20 31 22 28 24 15 32 13 34 9 37 11 39
REMARK Flexibility Score: inf
ROOT
ATOM      1  O   UNL     1      16.882  -2.791 -13.861  1.00  0.00    -0.454 OA
ENDROOT
BRANCH   1   2
ATOM      2  C   UNL     1      17.492  -2.129 -14.947  1.00  0.00     0.214 A 
ATOM      3  C   UNL     1      17.717  -0.742 -14.883  1.00  0.00     0.180 A 
ATOM      4  O   UNL     1      18.325  -0.112 -15.881  1.00  0.00    -0.452 OA
ATOM      5  C   UNL     1      17.944  -2.841 -16.084  1.00  0.00     0.239 A 
ATOM      6  C   UNL     1      18.745  -0.737 -16.984  1.00  0.00     0.146 A 
ATOM      7  O   UNL     1      17.819  -4.091 -16.133  1.00  0.00    -0.285 OA
ATOM      8  C   UNL     1      18.539  -2.128 -17.147  1.00  0.00     0.111 A 
ATOM      9  C   UNL     1      19.395  -0.002 -17.977  1.00  0.00     0.094 A 
ATOM     10  C   UNL     1      18.958  -2.757 -18.334  1.00  0.00     0.134 A 
ATOM     11  C   UNL     1      19.917  -0.648 -19.103  1.00  0.00     0.123 A 
ATOM     12  C   UNL     1      19.716  -2.019 -19.281  1.00  0.00     0.093 A 
BRANCH   3  13
ATOM     13  C   UNL     1      17.427   0.016 -13.657  1.00  0.00     0.021 A 
ATOM     14  C   UNL     1      18.483   0.344 -12.775  1.00  0.00     0.016 A 
ATOM     15  C   UNL     1      18.230   0.924 -11.535  1.00  0.00     0.047 A 
ATOM     16  C   UNL     1      16.899   1.223 -11.171  1.00  0.00     0.115 A 
ATOM     17  C   UNL     1      16.123   0.376 -13.307  1.00  0.00     0.016 A 
ATOM     18  C   UNL     1      15.879   1.022 -12.096  1.00  0.00     0.047 A 
BRANCH  16  19
ATOM     19  O   UNL     1      16.636   1.703  -9.909  1.00  0.00    -0.508 OA
ATOM     20  H   UNL     1      16.563   2.705  -9.740  1.00  0.00     0.293 HD
ENDBRANCH  16  19
ENDBRANCH   3  13
BRANCH  10  21
ATOM     21  O   UNL     1      18.721  -4.123 -18.562  1.00  0.00    -0.507 OA
ATOM     22  H   UNL     1      18.859  -4.835 -17.852  1.00  0.00     0.293 HD
ENDBRANCH  10  21
BRANCH  11  23
ATOM     23  O   UNL     1      20.771   0.041 -19.984  1.00  0.00    -0.508 OA
ATOM     24  H   UNL     1      21.779  -0.077 -19.863  1.00  0.00     0.293 HD
ENDBRANCH  11  23
ENDBRANCH   1   2
BRANCH   1  25
ATOM     25  C   UNL     1      17.628  -3.610 -12.954  1.00  0.00     0.339 C 
ATOM     26  C   UNL     1      17.826  -2.885 -11.594  1.00  0.00     0.214 C 
ATOM     27  O   UNL     1      17.052  -4.897 -12.866  1.00  0.00    -0.332 OA
ATOM     28  C   UNL     1      16.710  -3.165 -10.502  1.00  0.00     0.180 C 
ATOM     29  C   UNL     1      15.806  -4.812 -12.220  1.00  0.00     0.179 C 
ATOM     30  C   UNL     1      16.026  -4.564 -10.692  1.00  0.00     0.177 C 
BRANCH  26  31
ATOM     31  O   UNL     1      19.138  -3.184 -11.107  1.00  0.00    -0.384 OA
ATOM     32  H   UNL     1      19.284  -4.167 -11.225  1.00  0.00     0.211 HD
ENDBRANCH  26  31
BRANCH  28  33
ATOM     33  O   UNL     1      15.736  -2.156 -10.519  1.00  0.00    -0.387 OA
ATOM     34  H   UNL     1      15.798  -1.787 -11.447  1.00  0.00     0.211 HD
ENDBRANCH  28  33
BRANCH  29  35
ATOM     35  C   UNL     1      15.056  -6.114 -12.569  1.00  0.00     0.191 C 
BRANCH  35  36
ATOM     36  O   UNL     1      13.687  -5.998 -12.253  1.00  0.00    -0.394 OA
ATOM     37  H   UNL     1      13.470  -5.123 -11.837  1.00  0.00     0.210 HD
ENDBRANCH  35  36
ENDBRANCH  29  35
BRANCH  30  38
ATOM     38  O   UNL     1      14.793  -4.605  -9.992  1.00  0.00    -0.387 OA
ATOM     39  H   UNL     1      14.465  -3.679  -9.847  1.00  0.00     0.211 HD
ENDBRANCH  30  38
ENDBRANCH   1  25
TORSDOF 11
ENDMDL
MODEL 9
REMARK VINA RESULT:    -5.751      2.273      5.270
REMARK INTER + INTRA:          -9.814
REMARK INTER:                  -8.329
REMARK INTRA:                  -1.485
REMARK UNBOUND:                -1.541
REMARK SMILES O=c1c(O[C@@H]2O[C@@H](CO)[C@H](O)[C@H](O)[C@H]2O)c(-c2ccc(O)cc2)oc2cc(O)cc(O)c12
REMARK SMILES IDX 4 1 3 2 16 3 24 4 2 5 25 6 1 7 32 8 26 9 30 10 27 11 29 12
REMARK SMILES IDX 17 13 18 14 19 15 20 16 23 17 22 18 21 19 31 21 28 23 5 25
REMARK SMILES IDX 14 26 6 27 12 28 7 29 10 30 15 31 13 33 8 35 9 36 11 38
REMARK H PARENT 21 20 31 22 28 24 15 32 13 34 9 37 11 39
REMARK Flexibility Score: inf
ROOT
ATOM      1  O   UNL     1      17.613  -2.603 -13.497  1.00  0.00    -0.454 OA
ENDROOT
BRANCH   1   2
ATOM      2  C   UNL     1      17.953  -2.006 -14.728  1.00  0.00     0.214 A 
ATOM      3  C   UNL     1      18.108  -0.609 -14.808  1.00  0.00     0.180 A 
ATOM      4  O   UNL     1      18.465  -0.037 -15.951  1.00  0.00    -0.452 OA
ATOM      5  C   UNL     1      18.203  -2.787 -15.882  1.00  0.00     0.239 A 
ATOM      6  C   UNL     1      18.687  -0.729 -17.071  1.00  0.00     0.146 A 
ATOM      7  O   UNL     1      18.141  -4.040 -15.818  1.00  0.00    -0.285 OA
ATOM      8  C   UNL     1      18.530  -2.136 -17.092  1.00  0.00     0.111 A 
ATOM      9  C   UNL     1      19.081  -0.049 -18.225  1.00  0.00     0.094 A 
ATOM     10  C   UNL     1      18.734  -2.840 -18.293  1.00  0.00     0.134 A 
ATOM     11  C   UNL     1      19.399  -0.760 -19.387  1.00  0.00     0.123 A 
ATOM     12  C   UNL     1      19.243  -2.148 -19.424  1.00  0.00     0.093 A 
BRANCH   3  13
ATOM     13  C   UNL     1      18.030   0.230 -13.604  1.00  0.00     0.021 A 
ATOM     14  C   UNL     1      19.117   0.250 -12.698  1.00  0.00     0.016 A 
ATOM     15  C   UNL     1      19.022   0.909 -11.475  1.00  0.00     0.047 A 
ATOM     16  C   UNL     1      17.833   1.600 -11.155  1.00  0.00     0.115 A 
ATOM     17  C   UNL     1      16.886   0.970 -13.297  1.00  0.00     0.016 A 
ATOM     18  C   UNL     1      16.820   1.689 -12.104  1.00  0.00     0.047 A 
BRANCH  16  19
ATOM     19  O   UNL     1      17.698   2.168  -9.908  1.00  0.00    -0.508 OA
ATOM     20  H   UNL     1      17.977   3.135  -9.745  1.00  0.00     0.293 HD
ENDBRANCH  16  19
ENDBRANCH   3  13
BRANCH  10  21
ATOM     21  O   UNL     1      18.532  -4.227 -18.372  1.00  0.00    -0.507 OA
ATOM     22  H   UNL     1      17.772  -4.648 -18.897  1.00  0.00     0.293 HD
ENDBRANCH  10  21
BRANCH  11  23
ATOM     23  O   UNL     1      20.017  -0.110 -20.470  1.00  0.00    -0.508 OA
ATOM     24  H   UNL     1      19.656   0.806 -20.747  1.00  0.00     0.293 HD
ENDBRANCH  11  23
ENDBRANCH   1   2
BRANCH   1  25
ATOM     25  C   UNL     1      16.257  -2.898 -13.145  1.00  0.00     0.339 C 
ATOM     26  C   UNL     1      16.037  -4.433 -13.040  1.00  0.00     0.214 C 
ATOM     27  O   UNL     1      15.874  -2.161 -12.002  1.00  0.00    -0.332 OA
ATOM     28  C   UNL     1      16.262  -5.058 -11.599  1.00  0.00     0.180 C 
ATOM     29  C   UNL     1      16.574  -2.636 -10.879  1.00  0.00     0.179 C 
ATOM     30  C   UNL     1      15.993  -4.023 -10.450  1.00  0.00     0.177 C 
BRANCH  26  31
ATOM     31  O   UNL     1      14.740  -4.742 -13.560  1.00  0.00    -0.384 OA
ATOM     32  H   UNL     1      14.115  -4.025 -13.251  1.00  0.00     0.211 HD
ENDBRANCH  26  31
BRANCH  28  33
ATOM     33  O   UNL     1      17.561  -5.572 -11.479  1.00  0.00    -0.387 OA
ATOM     34  H   UNL     1      18.091  -5.020 -12.125  1.00  0.00     0.211 HD
ENDBRANCH  28  33
BRANCH  29  35
ATOM     35  C   UNL     1      16.470  -1.528  -9.811  1.00  0.00     0.191 C 
BRANCH  35  36
ATOM     36  O   UNL     1      15.339  -0.720 -10.042  1.00  0.00    -0.394 OA
ATOM     37  H   UNL     1      14.639  -0.845  -9.350  1.00  0.00     0.210 HD
ENDBRANCH  35  36
ENDBRANCH  29  35
BRANCH  30  38
ATOM     38  O   UNL     1      16.590  -4.468  -9.242  1.00  0.00    -0.387 OA
ATOM     39  H   UNL     1      16.704  -5.454  -9.274  1.00  0.00     0.211 HD
ENDBRANCH  30  38
ENDBRANCH   1  25
TORSDOF 11
ENDMDL
