MODEL 1
REMARK VINA RESULT:    -1.100      0.000      0.000
REMARK INTER + INTRA:          -1.664
REMARK INTER:                  -1.357
REMARK INTRA:                  -0.307
REMARK UNBOUND:                -0.307
REMARK SMILES Oc1cc(O)c2cc(O)c(-c3cc(O)c(O)c(O)c3)[o+]c2c1
REMARK SMILES IDX 10 1 20 2 21 3 22 4 2 5 3 6 4 7 6 8 7 9 8 10 11 11 12 12
REMARK SMILES IDX 13 13 19 14 15 15 17 16 14 17 16 19 18 21 9 23 1 25 5 27
REMARK H PARENT 14 18 16 20 18 22 9 24 1 26 5 28
REMARK Flexibility Score: inf
ROOT
ATOM      1  C   UNL     1      24.869  34.957  13.655  1.00  0.00     0.402 A 
ATOM      2  O   UNL     1      24.393  34.425  12.534  1.00  0.00    -0.202 OA
ATOM      3  C   UNL     1      24.924  33.357  11.949  1.00  0.00     0.368 A 
ATOM      4  C   UNL     1      24.350  32.869  10.773  1.00  0.00     0.162 A 
ATOM      5  C   UNL     1      24.888  31.744  10.139  1.00  0.00     0.128 A 
ATOM      6  C   UNL     1      26.002  31.104  10.685  1.00  0.00     0.093 A 
ATOM      7  C   UNL     1      26.595  31.573  11.864  1.00  0.00     0.136 A 
ATOM      8  C   UNL     1      26.055  32.716  12.510  1.00  0.00     0.125 A 
ATOM      9  C   UNL     1      26.592  33.264  13.686  1.00  0.00     0.078 A 
ATOM     10  C   UNL     1      26.008  34.396  14.262  1.00  0.00     0.223 A 
ENDROOT
BRANCH   1  11
ATOM     11  C   UNL     1      24.183  36.145  14.215  1.00  0.00     0.091 A 
ATOM     12  C   UNL     1      24.750  37.426  14.128  1.00  0.00     0.068 A 
ATOM     13  C   UNL     1      24.104  38.538  14.683  1.00  0.00     0.162 A 
ATOM     14  C   UNL     1      22.970  35.981  14.898  1.00  0.00     0.068 A 
ATOM     15  C   UNL     1      22.866  38.368  15.348  1.00  0.00     0.200 A 
ATOM     16  C   UNL     1      22.311  37.085  15.454  1.00  0.00     0.162 A 
BRANCH  13  17
ATOM     17  O   UNL     1      24.728  39.781  14.555  1.00  0.00    -0.504 OA
ATOM     18  H   UNL     1      25.564  39.941  14.011  1.00  0.00     0.293 HD
ENDBRANCH  13  17
BRANCH  15  19
ATOM     19  O   UNL     1      22.165  39.435  15.912  1.00  0.00    -0.502 OA
ATOM     20  H   UNL     1      22.293  40.401  15.646  1.00  0.00     0.293 HD
ENDBRANCH  15  19
BRANCH  16  21
ATOM     21  O   UNL     1      21.097  36.914  16.118  1.00  0.00    -0.504 OA
ATOM     22  H   UNL     1      20.926  37.327  17.028  1.00  0.00     0.293 HD
ENDBRANCH  16  21
ENDBRANCH   1  11
BRANCH  10  23
ATOM     23  O   UNL     1      26.570  34.970  15.403  1.00  0.00    -0.500 OA
ATOM     24  H   UNL     1      26.274  35.876  15.744  1.00  0.00     0.294 HD
ENDBRANCH  10  23
BRANCH   5  25
ATOM     25  O   UNL     1      24.320  31.253   8.965  1.00  0.00    -0.507 OA
ATOM     26  H   UNL     1      23.335  31.024   8.907  1.00  0.00     0.293 HD
ENDBRANCH   5  25
BRANCH   7  27
ATOM     27  O   UNL     1      27.706  30.875  12.348  1.00  0.00    -0.507 OA
ATOM     28  H   UNL     1      27.844  30.623  13.315  1.00  0.00     0.293 HD
ENDBRANCH   7  27
TORSDOF 7
ENDMDL
MODEL 2
REMARK VINA RESULT:    -0.903      1.286      7.287
REMARK INTER + INTRA:          -1.421
REMARK INTER:                  -1.152
REMARK INTRA:                  -0.269
REMARK UNBOUND:                -0.307
REMARK SMILES Oc1cc(O)c2cc(O)c(-c3cc(O)c(O)c(O)c3)[o+]c2c1
REMARK SMILES IDX 10 1 20 2 21 3 22 4 2 5 3 6 4 7 6 8 7 9 8 10 11 11 12 12
REMARK SMILES IDX 13 13 19 14 15 15 17 16 14 17 16 19 18 21 9 23 1 25 5 27
REMARK H PARENT 14 18 16 20 18 22 9 24 1 26 5 28
REMARK Flexibility Score: inf
ROOT
ATOM      1  C   UNL     1      23.955  35.033  13.156  1.00  0.00     0.402 A 
ATOM      2  O   UNL     1      24.755  36.060  13.422  1.00  0.00    -0.202 OA
ATOM      3  C   UNL     1      24.390  37.097  14.168  1.00  0.00     0.368 A 
ATOM      4  C   UNL     1      25.304  38.129  14.395  1.00  0.00     0.162 A 
ATOM      5  C   UNL     1      24.945  39.230  15.179  1.00  0.00     0.128 A 
ATOM      6  C   UNL     1      23.668  39.298  15.739  1.00  0.00     0.093 A 
ATOM      7  C   UNL     1      22.733  38.277  15.527  1.00  0.00     0.136 A 
ATOM      8  C   UNL     1      23.091  37.159  14.730  1.00  0.00     0.125 A 
ATOM      9  C   UNL     1      22.216  36.096  14.453  1.00  0.00     0.078 A 
ATOM     10  C   UNL     1      22.639  35.029  13.655  1.00  0.00     0.223 A 
ENDROOT
BRANCH   1  11
ATOM     11  C   UNL     1      24.483  33.931  12.318  1.00  0.00     0.091 A 
ATOM     12  C   UNL     1      25.487  33.069  12.790  1.00  0.00     0.068 A 
ATOM     13  C   UNL     1      25.996  32.046  11.981  1.00  0.00     0.162 A 
ATOM     14  C   UNL     1      24.015  33.778  11.007  1.00  0.00     0.068 A 
ATOM     15  C   UNL     1      25.498  31.882  10.666  1.00  0.00     0.200 A 
ATOM     16  C   UNL     1      24.511  32.756  10.188  1.00  0.00     0.162 A 
BRANCH  13  17
ATOM     17  O   UNL     1      26.991  31.228  12.519  1.00  0.00    -0.504 OA
ATOM     18  H   UNL     1      27.543  30.579  11.977  1.00  0.00     0.293 HD
ENDBRANCH  13  17
BRANCH  15  19
ATOM     19  O   UNL     1      25.953  30.875   9.812  1.00  0.00    -0.502 OA
ATOM     20  H   UNL     1      25.381  30.111   9.482  1.00  0.00     0.293 HD
ENDBRANCH  15  19
BRANCH  16  21
ATOM     21  O   UNL     1      24.027  32.602   8.889  1.00  0.00    -0.504 OA
ATOM     22  H   UNL     1      23.877  33.398   8.280  1.00  0.00     0.293 HD
ENDBRANCH  16  21
ENDBRANCH   1  11
BRANCH  10  23
ATOM     23  O   UNL     1      21.754  33.997  13.339  1.00  0.00    -0.500 OA
ATOM     24  H   UNL     1      21.831  33.082  13.765  1.00  0.00     0.294 HD
ENDBRANCH  10  23
BRANCH   5  25
ATOM     25  O   UNL     1      25.851  40.263  15.408  1.00  0.00    -0.507 OA
ATOM     26  H   UNL     1      26.330  40.728  14.645  1.00  0.00     0.293 HD
ENDBRANCH   5  25
BRANCH   7  27
ATOM     27  O   UNL     1      21.478  38.419  16.125  1.00  0.00    -0.507 OA
ATOM     28  H   UNL     1      20.614  38.546  15.618  1.00  0.00     0.293 HD
ENDBRANCH   7  27
TORSDOF 7
ENDMDL
MODEL 3
REMARK VINA RESULT:     0.427      2.250      3.639
REMARK INTER + INTRA:           0.220
REMARK INTER:                   0.481
REMARK INTRA:                  -0.262
REMARK UNBOUND:                -0.307
REMARK SMILES Oc1cc(O)c2cc(O)c(-c3cc(O)c(O)c(O)c3)[o+]c2c1
REMARK SMILES IDX 10 1 20 2 21 3 22 4 2 5 3 6 4 7 6 8 7 9 8 10 11 11 12 12
REMARK SMILES IDX 13 13 19 14 15 15 17 16 14 17 16 19 18 21 9 23 1 25 5 27
REMARK H PARENT 14 18 16 20 18 22 9 24 1 26 5 28
REMARK Flexibility Score: inf
ROOT
ATOM      1  C   UNL     1      24.091  35.820  14.899  1.00  0.00     0.402 A 
ATOM      2  O   UNL     1      25.059  35.051  14.410  1.00  0.00    -0.202 OA
ATOM      3  C   UNL     1      25.008  33.723  14.413  1.00  0.00     0.368 A 
ATOM      4  C   UNL     1      26.075  33.000  13.874  1.00  0.00     0.162 A 
ATOM      5  C   UNL     1      26.046  31.602  13.862  1.00  0.00     0.128 A 
ATOM      6  C   UNL     1      24.945  30.925  14.390  1.00  0.00     0.093 A 
ATOM      7  C   UNL     1      23.863  31.626  14.937  1.00  0.00     0.136 A 
ATOM      8  C   UNL     1      23.889  33.046  14.954  1.00  0.00     0.125 A 
ATOM      9  C   UNL     1      22.856  33.830  15.493  1.00  0.00     0.078 A 
ATOM     10  C   UNL     1      22.955  35.225  15.478  1.00  0.00     0.223 A 
ENDROOT
BRANCH   1  11
ATOM     11  C   UNL     1      24.260  37.290  14.829  1.00  0.00     0.091 A 
ATOM     12  C   UNL     1      23.405  38.090  14.053  1.00  0.00     0.068 A 
ATOM     13  C   UNL     1      23.589  39.475  13.975  1.00  0.00     0.162 A 
ATOM     14  C   UNL     1      25.331  37.893  15.503  1.00  0.00     0.068 A 
ATOM     15  C   UNL     1      24.657  40.080  14.681  1.00  0.00     0.200 A 
ATOM     16  C   UNL     1      25.524  39.279  15.437  1.00  0.00     0.162 A 
BRANCH  13  17
ATOM     17  O   UNL     1      22.698  40.205  13.185  1.00  0.00    -0.504 OA
ATOM     18  H   UNL     1      21.997  40.831  13.556  1.00  0.00     0.293 HD
ENDBRANCH  13  17
BRANCH  15  19
ATOM     19  O   UNL     1      24.889  41.456  14.655  1.00  0.00    -0.502 OA
ATOM     20  H   UNL     1      24.294  42.123  14.184  1.00  0.00     0.293 HD
ENDBRANCH  15  19
BRANCH  16  21
ATOM     21  O   UNL     1      26.583  39.871  16.124  1.00  0.00    -0.504 OA
ATOM     22  H   UNL     1      26.530  40.825  16.462  1.00  0.00     0.293 HD
ENDBRANCH  16  21
ENDBRANCH   1  11
BRANCH  10  23
ATOM     23  O   UNL     1      21.952  36.004  16.057  1.00  0.00    -0.500 OA
ATOM     24  H   UNL     1      22.014  37.014  16.086  1.00  0.00     0.294 HD
ENDBRANCH  10  23
BRANCH   5  25
ATOM     25  O   UNL     1      27.106  30.875  13.325  1.00  0.00    -0.507 OA
ATOM     26  H   UNL     1      27.812  31.315  12.746  1.00  0.00     0.293 HD
ENDBRANCH   5  25
BRANCH   7  27
ATOM     27  O   UNL     1      22.798  30.876  15.442  1.00  0.00    -0.507 OA
ATOM     28  H   UNL     1      22.868  29.914  15.741  1.00  0.00     0.293 HD
ENDBRANCH   7  27
TORSDOF 7
ENDMDL
MODEL 4
REMARK VINA RESULT:     0.622     18.710     20.878
REMARK INTER + INTRA:           0.460
REMARK INTER:                  -0.010
REMARK INTRA:                   0.471
REMARK UNBOUND:                -0.307
REMARK SMILES Oc1cc(O)c2cc(O)c(-c3cc(O)c(O)c(O)c3)[o+]c2c1
REMARK SMILES IDX 10 1 20 2 21 3 22 4 2 5 3 6 4 7 6 8 7 9 8 10 11 11 12 12
REMARK SMILES IDX 13 13 19 14 15 15 17 16 14 17 16 19 18 21 9 23 1 25 5 27
REMARK H PARENT 14 18 16 20 18 22 9 24 1 26 5 28
REMARK Flexibility Score: inf
ROOT
ATOM      1  C   UNL     1      21.430  51.112   1.312  1.00  0.00     0.402 A 
ATOM      2  O   UNL     1      21.937  51.098   2.540  1.00  0.00    -0.202 OA
ATOM      3  C   UNL     1      23.242  51.094   2.792  1.00  0.00     0.368 A 
ATOM      4  C   UNL     1      23.679  51.083   4.118  1.00  0.00     0.162 A 
ATOM      5  C   UNL     1      25.047  51.082   4.411  1.00  0.00     0.128 A 
ATOM      6  C   UNL     1      25.980  51.093   3.372  1.00  0.00     0.093 A 
ATOM      7  C   UNL     1      25.568  51.105   2.034  1.00  0.00     0.136 A 
ATOM      8  C   UNL     1      24.181  51.104   1.732  1.00  0.00     0.125 A 
ATOM      9  C   UNL     1      23.676  51.102   0.421  1.00  0.00     0.078 A 
ATOM     10  C   UNL     1      22.295  51.095   0.202  1.00  0.00     0.223 A 
ENDROOT
BRANCH   1  11
ATOM     11  C   UNL     1      19.956  51.125   1.161  1.00  0.00     0.091 A 
ATOM     12  C   UNL     1      19.106  51.123   2.279  1.00  0.00     0.068 A 
ATOM     13  C   UNL     1      17.715  51.110   2.124  1.00  0.00     0.162 A 
ATOM     14  C   UNL     1      19.395  51.079  -0.122  1.00  0.00     0.068 A 
ATOM     15  C   UNL     1      17.156  51.091   0.824  1.00  0.00     0.200 A 
ATOM     16  C   UNL     1      18.005  51.071  -0.291  1.00  0.00     0.162 A 
BRANCH  13  17
ATOM     17  O   UNL     1      16.933  51.111   3.282  1.00  0.00    -0.504 OA
ATOM     18  H   UNL     1      16.470  51.929   3.650  1.00  0.00     0.293 HD
ENDBRANCH  13  17
BRANCH  15  19
ATOM     19  O   UNL     1      15.777  51.090   0.600  1.00  0.00    -0.502 OA
ATOM     20  H   UNL     1      15.146  50.388   0.960  1.00  0.00     0.293 HD
ENDBRANCH  15  19
BRANCH  16  21
ATOM     21  O   UNL     1      17.456  51.041  -1.572  1.00  0.00    -0.504 OA
ATOM     22  H   UNL     1      16.486  51.282  -1.741  1.00  0.00     0.293 HD
ENDBRANCH  16  21
ENDBRANCH   1  11
BRANCH  10  23
ATOM     23  O   UNL     1      21.793  51.043  -1.100  1.00  0.00    -0.500 OA
ATOM     24  H   UNL     1      21.425  51.866  -1.561  1.00  0.00     0.294 HD
ENDBRANCH  10  23
BRANCH   5  25
ATOM     25  O   UNL     1      25.490  51.070   5.732  1.00  0.00    -0.507 OA
ATOM     26  H   UNL     1      25.684  51.928   6.234  1.00  0.00     0.293 HD
ENDBRANCH   5  25
BRANCH   7  27
ATOM     27  O   UNL     1      26.563  51.119   1.053  1.00  0.00    -0.507 OA
ATOM     28  H   UNL     1      27.172  51.903   0.869  1.00  0.00     0.293 HD
ENDBRANCH   7  27
TORSDOF 7
ENDMDL
MODEL 5
REMARK VINA RESULT:     0.690      2.004      3.189
REMARK INTER + INTRA:           0.545
REMARK INTER:                   0.863
REMARK INTRA:                  -0.318
REMARK UNBOUND:                -0.307
REMARK SMILES Oc1cc(O)c2cc(O)c(-c3cc(O)c(O)c(O)c3)[o+]c2c1
REMARK SMILES IDX 10 1 20 2 21 3 22 4 2 5 3 6 4 7 6 8 7 9 8 10 11 11 12 12
REMARK SMILES IDX 13 13 19 14 15 15 17 16 14 17 16 19 18 21 9 23 1 25 5 27
REMARK H PARENT 14 18 16 20 18 22 9 24 1 26 5 28
REMARK Flexibility Score: inf
ROOT
ATOM      1  C   UNL     1      23.883  35.784  14.543  1.00  0.00     0.402 A 
ATOM      2  O   UNL     1      24.680  35.020  13.803  1.00  0.00    -0.202 OA
ATOM      3  C   UNL     1      24.539  33.703  13.699  1.00  0.00     0.368 A 
ATOM      4  C   UNL     1      25.426  32.985  12.893  1.00  0.00     0.162 A 
ATOM      5  C   UNL     1      25.297  31.598  12.763  1.00  0.00     0.128 A 
ATOM      6  C   UNL     1      24.278  30.928  13.442  1.00  0.00     0.093 A 
ATOM      7  C   UNL     1      23.376  31.624  14.256  1.00  0.00     0.136 A 
ATOM      8  C   UNL     1      23.503  33.032  14.393  1.00  0.00     0.125 A 
ATOM      9  C   UNL     1      22.654  33.809  15.197  1.00  0.00     0.078 A 
ATOM     10  C   UNL     1      22.845  35.191  15.286  1.00  0.00     0.223 A 
ENDROOT
BRANCH   1  11
ATOM     11  C   UNL     1      24.137  37.243  14.571  1.00  0.00     0.091 A 
ATOM     12  C   UNL     1      25.191  37.789  15.321  1.00  0.00     0.068 A 
ATOM     13  C   UNL     1      25.407  39.172  15.359  1.00  0.00     0.162 A 
ATOM     14  C   UNL     1      23.273  38.105  13.882  1.00  0.00     0.068 A 
ATOM     15  C   UNL     1      24.546  40.034  14.639  1.00  0.00     0.200 A 
ATOM     16  C   UNL     1      23.480  39.490  13.908  1.00  0.00     0.162 A 
BRANCH  13  17
ATOM     17  O   UNL     1      26.476  39.641  16.125  1.00  0.00    -0.504 OA
ATOM     18  H   UNL     1      27.161  40.305  15.792  1.00  0.00     0.293 HD
ENDBRANCH  13  17
BRANCH  15  19
ATOM     19  O   UNL     1      24.712  41.420  14.625  1.00  0.00    -0.502 OA
ATOM     20  H   UNL     1      25.503  41.892  14.210  1.00  0.00     0.293 HD
ENDBRANCH  15  19
BRANCH  16  21
ATOM     21  O   UNL     1      22.624  40.339  13.207  1.00  0.00    -0.504 OA
ATOM     22  H   UNL     1      21.934  40.909  13.682  1.00  0.00     0.293 HD
ENDBRANCH  16  21
ENDBRANCH   1  11
BRANCH  10  23
ATOM     23  O   UNL     1      22.033  35.958  16.123  1.00  0.00    -0.500 OA
ATOM     24  H   UNL     1      21.101  36.240  15.847  1.00  0.00     0.294 HD
ENDBRANCH  10  23
BRANCH   5  25
ATOM     25  O   UNL     1      26.179  30.877  11.961  1.00  0.00    -0.507 OA
ATOM     26  H   UNL     1      25.853  30.142  11.344  1.00  0.00     0.293 HD
ENDBRANCH   5  25
BRANCH   7  27
ATOM     27  O   UNL     1      22.382  30.881  14.899  1.00  0.00    -0.507 OA
ATOM     28  H   UNL     1      21.519  30.586  14.466  1.00  0.00     0.293 HD
ENDBRANCH   7  27
TORSDOF 7
ENDMDL
MODEL 6
REMARK VINA RESULT:     0.993      3.565      4.575
REMARK INTER + INTRA:           0.918
REMARK INTER:                   0.734
REMARK INTRA:                   0.184
REMARK UNBOUND:                -0.307
REMARK SMILES Oc1cc(O)c2cc(O)c(-c3cc(O)c(O)c(O)c3)[o+]c2c1
REMARK SMILES IDX 10 1 20 2 21 3 22 4 2 5 3 6 4 7 6 8 7 9 8 10 11 11 12 12
REMARK SMILES IDX 13 13 19 14 15 15 17 16 14 17 16 19 18 21 9 23 1 25 5 27
REMARK H PARENT 14 18 16 20 18 22 9 24 1 26 5 28
REMARK Flexibility Score: inf
ROOT
ATOM      1  C   UNL     1      23.737  35.952  15.361  1.00  0.00     0.402 A 
ATOM      2  O   UNL     1      22.463  35.577  15.427  1.00  0.00    -0.202 OA
ATOM      3  C   UNL     1      22.081  34.318  15.616  1.00  0.00     0.368 A 
ATOM      4  C   UNL     1      20.717  34.023  15.674  1.00  0.00     0.162 A 
ATOM      5  C   UNL     1      20.288  32.707  15.874  1.00  0.00     0.128 A 
ATOM      6  C   UNL     1      21.227  31.684  16.018  1.00  0.00     0.093 A 
ATOM      7  C   UNL     1      22.600  31.954  15.964  1.00  0.00     0.136 A 
ATOM      8  C   UNL     1      23.041  33.287  15.758  1.00  0.00     0.125 A 
ATOM      9  C   UNL     1      24.396  33.648  15.676  1.00  0.00     0.078 A 
ATOM     10  C   UNL     1      24.753  34.984  15.467  1.00  0.00     0.223 A 
ENDROOT
BRANCH   1  11
ATOM     11  C   UNL     1      24.036  37.388  15.157  1.00  0.00     0.091 A 
ATOM     12  C   UNL     1      23.219  38.199  14.352  1.00  0.00     0.068 A 
ATOM     13  C   UNL     1      23.525  39.550  14.146  1.00  0.00     0.162 A 
ATOM     14  C   UNL     1      25.190  37.940  15.730  1.00  0.00     0.068 A 
ATOM     15  C   UNL     1      24.678  40.105  14.751  1.00  0.00     0.200 A 
ATOM     16  C   UNL     1      25.505  39.290  15.537  1.00  0.00     0.162 A 
BRANCH  13  17
ATOM     17  O   UNL     1      22.665  40.294  13.335  1.00  0.00    -0.504 OA
ATOM     18  H   UNL     1      22.021  39.887  12.673  1.00  0.00     0.293 HD
ENDBRANCH  13  17
BRANCH  15  19
ATOM     19  O   UNL     1      25.034  41.447  14.597  1.00  0.00    -0.502 OA
ATOM     20  H   UNL     1      25.106  41.915  13.704  1.00  0.00     0.293 HD
ENDBRANCH  15  19
BRANCH  16  21
ATOM     21  O   UNL     1      26.647  39.833  16.124  1.00  0.00    -0.504 OA
ATOM     22  H   UNL     1      26.737  40.829  16.291  1.00  0.00     0.293 HD
ENDBRANCH  16  21
ENDBRANCH   1  11
BRANCH  10  23
ATOM     23  O   UNL     1      26.097  35.337  15.337  1.00  0.00    -0.500 OA
ATOM     24  H   UNL     1      26.471  36.174  15.766  1.00  0.00     0.294 HD
ENDBRANCH  10  23
BRANCH   5  25
ATOM     25  O   UNL     1      18.929  32.405  15.933  1.00  0.00    -0.507 OA
ATOM     26  H   UNL     1      18.378  32.597  16.762  1.00  0.00     0.293 HD
ENDBRANCH   5  25
BRANCH   7  27
ATOM     27  O   UNL     1      23.475  30.875  16.120  1.00  0.00    -0.507 OA
ATOM     28  H   UNL     1      23.646  30.171  15.417  1.00  0.00     0.293 HD
ENDBRANCH   7  27
TORSDOF 7
ENDMDL
