MODEL 1
REMARK VINA RESULT:    -3.620      0.000      0.000
REMARK INTER + INTRA:         -11.084
REMARK INTER:                  -7.853
REMARK INTRA:                  -3.231
REMARK UNBOUND:                -3.231
REMARK SMILES CCCCCCCCCCCCCCCCCCCCCC(=O)[O-]
REMARK SMILES IDX 12 1 11 2 10 3 9 4 8 5 7 6 6 7 5 8 4 9 3 10 2 11 1 12 13 13
REMARK SMILES IDX 14 14 15 15 16 16 17 17 18 18 19 19 20 20 21 21 22 22 23 23
REMARK SMILES IDX 24 24
REMARK H PARENT
REMARK Flexibility Score: inf
ROOT
ATOM      1  C   UNL     1     -94.350 147.237 237.291  1.00  0.00     0.000 C 
ENDROOT
BRANCH   1   2
ATOM      2  C   UNL     1     -94.445 148.493 238.183  1.00  0.00     0.000 C 
BRANCH   2   3
ATOM      3  C   UNL     1     -93.677 148.373 239.510  1.00  0.00     0.000 C 
BRANCH   3   4
ATOM      4  C   UNL     1     -94.603 148.338 240.736  1.00  0.00    -0.000 C 
BRANCH   4   5
ATOM      5  C   UNL     1     -94.849 146.909 241.248  1.00  0.00    -0.000 C 
BRANCH   5   6
ATOM      6  C   UNL     1     -96.344 146.553 241.291  1.00  0.00    -0.000 C 
BRANCH   6   7
ATOM      7  C   UNL     1     -96.912 146.382 239.877  1.00  0.00    -0.000 C 
BRANCH   7   8
ATOM      8  C   UNL     1     -98.221 147.171 239.712  1.00  0.00    -0.000 C 
BRANCH   8   9
ATOM      9  C   UNL     1     -97.975 148.637 239.297  1.00  0.00    -0.000 C 
BRANCH   9  10
ATOM     10  C   UNL     1     -98.578 149.665 240.275  1.00  0.00    -0.000 C 
BRANCH  10  11
ATOM     11  C   UNL     1     -97.583 150.241 241.296  1.00  0.00    -0.003 C 
ATOM     12  C   UNL     1     -97.797 149.694 242.707  1.00  0.00     0.004 C 
ENDBRANCH  10  11
ENDBRANCH   9  10
ENDBRANCH   8   9
ENDBRANCH   7   8
ENDBRANCH   6   7
ENDBRANCH   5   6
ENDBRANCH   4   5
ENDBRANCH   3   4
ENDBRANCH   2   3
ENDBRANCH   1   2
BRANCH   1  13
ATOM     13  C   UNL     1     -93.239 146.275 237.752  1.00  0.00     0.000 C 
BRANCH  13  14
ATOM     14  C   UNL     1     -92.352 145.800 236.589  1.00  0.00     0.000 C 
BRANCH  14  15
ATOM     15  C   UNL     1     -93.066 145.881 235.229  1.00  0.00     0.000 C 
BRANCH  15  16
ATOM     16  C   UNL     1     -92.176 146.486 234.131  1.00  0.00     0.000 C 
BRANCH  16  17
ATOM     17  C   UNL     1     -92.694 147.849 233.639  1.00  0.00     0.000 C 
BRANCH  17  18
ATOM     18  C   UNL     1     -93.949 147.713 232.760  1.00  0.00     0.000 C 
BRANCH  18  19
ATOM     19  C   UNL     1     -94.979 148.846 232.979  1.00  0.00     0.000 C 
BRANCH  19  20
ATOM     20  C   UNL     1     -94.927 149.457 234.392  1.00  0.00     0.006 C 
BRANCH  20  21
ATOM     21  C   UNL     1     -96.310 149.750 234.993  1.00  0.00     0.053 C 
BRANCH  21  22
ATOM     22  C   UNL     1     -96.534 151.221 235.177  1.00  0.00     0.041 C 
ATOM     23  O   UNL     1     -95.665 152.050 234.798  1.00  0.00    -0.550 OA
ATOM     24  O   UNL     1     -97.697 151.674 235.787  1.00  0.00    -0.550 OA
ENDBRANCH  21  22
ENDBRANCH  20  21
ENDBRANCH  19  20
ENDBRANCH  18  19
ENDBRANCH  17  18
ENDBRANCH  16  17
ENDBRANCH  15  16
ENDBRANCH  14  15
ENDBRANCH  13  14
ENDBRANCH   1  13
TORSDOF 20
ENDMDL
MODEL 2
REMARK VINA RESULT:    -3.570      1.714      3.087
REMARK INTER + INTRA:         -10.974
REMARK INTER:                  -7.227
REMARK INTRA:                  -3.747
REMARK UNBOUND:                -3.231
REMARK SMILES CCCCCCCCCCCCCCCCCCCCCC(=O)[O-]
REMARK SMILES IDX 12 1 11 2 10 3 9 4 8 5 7 6 6 7 5 8 4 9 3 10 2 11 1 12 13 13
REMARK SMILES IDX 14 14 15 15 16 16 17 17 18 18 19 19 20 20 21 21 22 22 23 23
REMARK SMILES IDX 24 24
REMARK H PARENT
REMARK Flexibility Score: inf
ROOT
ATOM      1  C   UNL     1     -94.268 146.835 240.800  1.00  0.00     0.000 C 
ENDROOT
BRANCH   1   2
ATOM      2  C   UNL     1     -94.254 148.350 240.508  1.00  0.00     0.000 C 
BRANCH   2   3
ATOM      3  C   UNL     1     -95.491 149.097 241.036  1.00  0.00     0.000 C 
BRANCH   3   4
ATOM      4  C   UNL     1     -96.501 148.168 241.729  1.00  0.00    -0.000 C 
BRANCH   4   5
ATOM      5  C   UNL     1     -97.699 148.933 242.314  1.00  0.00    -0.000 C 
BRANCH   5   6
ATOM      6  C   UNL     1     -98.004 150.224 241.538  1.00  0.00    -0.000 C 
BRANCH   6   7
ATOM      7  C   UNL     1     -99.317 150.102 240.756  1.00  0.00    -0.000 C 
BRANCH   7   8
ATOM      8  C   UNL     1     -99.097 150.399 239.264  1.00  0.00    -0.000 C 
BRANCH   8   9
ATOM      9  C   UNL     1     -98.162 149.371 238.592  1.00  0.00    -0.000 C 
BRANCH   9  10
ATOM     10  C   UNL     1     -98.886 148.098 238.112  1.00  0.00    -0.000 C 
BRANCH  10  11
ATOM     11  C   UNL     1     -98.630 146.849 238.972  1.00  0.00    -0.003 C 
ATOM     12  C   UNL     1     -97.275 146.200 238.688  1.00  0.00     0.004 C 
ENDBRANCH  10  11
ENDBRANCH   9  10
ENDBRANCH   8   9
ENDBRANCH   7   8
ENDBRANCH   6   7
ENDBRANCH   5   6
ENDBRANCH   4   5
ENDBRANCH   3   4
ENDBRANCH   2   3
ENDBRANCH   1   2
BRANCH   1  13
ATOM     13  C   UNL     1     -93.592 146.018 239.683  1.00  0.00     0.000 C 
BRANCH  13  14
ATOM     14  C   UNL     1     -93.150 146.893 238.498  1.00  0.00     0.000 C 
BRANCH  14  15
ATOM     15  C   UNL     1     -93.438 146.235 237.137  1.00  0.00     0.000 C 
BRANCH  15  16
ATOM     16  C   UNL     1     -94.291 147.127 236.221  1.00  0.00     0.000 C 
BRANCH  16  17
ATOM     17  C   UNL     1     -94.950 148.292 236.982  1.00  0.00     0.000 C 
BRANCH  17  18
ATOM     18  C   UNL     1     -95.445 149.399 236.036  1.00  0.00     0.000 C 
BRANCH  18  19
ATOM     19  C   UNL     1     -96.647 148.969 235.163  1.00  0.00     0.000 C 
BRANCH  19  20
ATOM     20  C   UNL     1     -97.531 150.148 234.713  1.00  0.00     0.006 C 
BRANCH  20  21
ATOM     21  C   UNL     1     -97.408 151.392 235.607  1.00  0.00     0.053 C 
BRANCH  21  22
ATOM     22  C   UNL     1     -96.804 152.549 234.869  1.00  0.00     0.041 C 
ATOM     23  O   UNL     1     -96.444 152.420 233.669  1.00  0.00    -0.550 OA
ATOM     24  O   UNL     1     -96.623 153.765 235.514  1.00  0.00    -0.550 OA
ENDBRANCH  21  22
ENDBRANCH  20  21
ENDBRANCH  19  20
ENDBRANCH  18  19
ENDBRANCH  17  18
ENDBRANCH  16  17
ENDBRANCH  15  16
ENDBRANCH  14  15
ENDBRANCH  13  14
ENDBRANCH   1  13
TORSDOF 20
ENDMDL
MODEL 3
REMARK VINA RESULT:    -3.541      2.891      7.167
REMARK INTER + INTRA:         -10.912
REMARK INTER:                  -7.798
REMARK INTRA:                  -3.113
REMARK UNBOUND:                -3.231
REMARK SMILES CCCCCCCCCCCCCCCCCCCCCC(=O)[O-]
REMARK SMILES IDX 12 1 11 2 10 3 9 4 8 5 7 6 6 7 5 8 4 9 3 10 2 11 1 12 13 13
REMARK SMILES IDX 14 14 15 15 16 16 17 17 18 18 19 19 20 20 21 21 22 22 23 23
REMARK SMILES IDX 24 24
REMARK H PARENT
REMARK Flexibility Score: inf
ROOT
ATOM      1  C   UNL     1     -96.630 148.269 237.265  1.00  0.00     0.000 C 
ENDROOT
BRANCH   1   2
ATOM      2  C   UNL     1     -97.562 149.497 237.213  1.00  0.00     0.000 C 
BRANCH   2   3
ATOM      3  C   UNL     1     -98.547 149.482 236.032  1.00  0.00     0.000 C 
BRANCH   3   4
ATOM      4  C   UNL     1     -99.432 150.737 235.974  1.00  0.00    -0.000 C 
BRANCH   4   5
ATOM      5  C   UNL     1     -99.012 151.802 237.000  1.00  0.00    -0.000 C 
BRANCH   5   6
ATOM      6  C   UNL     1     -98.829 153.189 236.362  1.00  0.00    -0.000 C 
BRANCH   6   7
ATOM      7  C   UNL     1     -98.121 153.084 235.006  1.00  0.00    -0.000 C 
BRANCH   7   8
ATOM      8  C   UNL     1     -96.614 152.839 235.192  1.00  0.00    -0.000 C 
BRANCH   8   9
ATOM      9  C   UNL     1     -96.021 151.955 234.075  1.00  0.00    -0.000 C 
BRANCH   9  10
ATOM     10  C   UNL     1     -95.237 150.737 234.602  1.00  0.00    -0.000 C 
BRANCH  10  11
ATOM     11  C   UNL     1     -95.427 149.447 233.787  1.00  0.00    -0.003 C 
ATOM     12  C   UNL     1     -94.286 148.449 233.980  1.00  0.00     0.004 C 
ENDBRANCH  10  11
ENDBRANCH   9  10
ENDBRANCH   8   9
ENDBRANCH   7   8
ENDBRANCH   6   7
ENDBRANCH   5   6
ENDBRANCH   4   5
ENDBRANCH   3   4
ENDBRANCH   2   3
ENDBRANCH   1   2
BRANCH   1  13
ATOM     13  C   UNL     1     -95.185 148.647 237.642  1.00  0.00     0.000 C 
BRANCH  13  14
ATOM     14  C   UNL     1     -94.228 147.446 237.588  1.00  0.00     0.000 C 
BRANCH  14  15
ATOM     15  C   UNL     1     -93.362 147.322 238.854  1.00  0.00     0.000 C 
BRANCH  15  16
ATOM     16  C   UNL     1     -93.852 148.229 239.994  1.00  0.00     0.000 C 
BRANCH  16  17
ATOM     17  C   UNL     1     -94.614 147.449 241.081  1.00  0.00     0.000 C 
BRANCH  17  18
ATOM     18  C   UNL     1     -96.026 148.009 241.318  1.00  0.00     0.000 C 
BRANCH  18  19
ATOM     19  C   UNL     1     -96.117 149.543 241.139  1.00  0.00     0.000 C 
BRANCH  19  20
ATOM     20  C   UNL     1     -97.493 150.125 241.514  1.00  0.00     0.006 C 
BRANCH  20  21
ATOM     21  C   UNL     1     -98.020 149.642 242.874  1.00  0.00     0.053 C 
BRANCH  21  22
ATOM     22  C   UNL     1     -99.506 149.806 242.983  1.00  0.00     0.041 C 
ATOM     23  O   UNL     1    -100.198 150.035 241.956  1.00  0.00    -0.550 OA
ATOM     24  O   UNL     1    -100.124 149.723 244.224  1.00  0.00    -0.550 OA
ENDBRANCH  21  22
ENDBRANCH  20  21
ENDBRANCH  19  20
ENDBRANCH  18  19
ENDBRANCH  17  18
ENDBRANCH  16  17
ENDBRANCH  15  16
ENDBRANCH  14  15
ENDBRANCH  13  14
ENDBRANCH   1  13
TORSDOF 20
ENDMDL
MODEL 4
REMARK VINA RESULT:    -3.536      1.905      5.861
REMARK INTER + INTRA:         -10.901
REMARK INTER:                  -7.613
REMARK INTRA:                  -3.288
REMARK UNBOUND:                -3.231
REMARK SMILES CCCCCCCCCCCCCCCCCCCCCC(=O)[O-]
REMARK SMILES IDX 12 1 11 2 10 3 9 4 8 5 7 6 6 7 5 8 4 9 3 10 2 11 1 12 13 13
REMARK SMILES IDX 14 14 15 15 16 16 17 17 18 18 19 19 20 20 21 21 22 22 23 23
REMARK SMILES IDX 24 24
REMARK H PARENT
REMARK Flexibility Score: inf
ROOT
ATOM      1  C   UNL     1     -94.689 148.634 240.764  1.00  0.00     0.000 C 
ENDROOT
BRANCH   1   2
ATOM      2  C   UNL     1     -93.704 148.156 239.677  1.00  0.00     0.000 C 
BRANCH   2   3
ATOM      3  C   UNL     1     -93.760 146.643 239.408  1.00  0.00     0.000 C 
BRANCH   3   4
ATOM      4  C   UNL     1     -92.422 146.074 238.909  1.00  0.00    -0.000 C 
BRANCH   4   5
ATOM      5  C   UNL     1     -92.330 146.044 237.375  1.00  0.00    -0.000 C 
BRANCH   5   6
ATOM      6  C   UNL     1     -93.711 146.123 236.705  1.00  0.00    -0.000 C 
BRANCH   6   7
ATOM      7  C   UNL     1     -93.626 146.823 235.344  1.00  0.00    -0.000 C 
BRANCH   7   8
ATOM      8  C   UNL     1     -94.765 147.843 235.179  1.00  0.00    -0.000 C 
BRANCH   8   9
ATOM      9  C   UNL     1     -94.981 148.694 236.448  1.00  0.00    -0.000 C 
BRANCH   9  10
ATOM     10  C   UNL     1     -96.437 149.160 236.640  1.00  0.00    -0.000 C 
BRANCH  10  11
ATOM     11  C   UNL     1     -97.138 148.587 237.883  1.00  0.00    -0.003 C 
ATOM     12  C   UNL     1     -97.203 147.060 237.877  1.00  0.00     0.004 C 
ENDBRANCH  10  11
ENDBRANCH   9  10
ENDBRANCH   8   9
ENDBRANCH   7   8
ENDBRANCH   6   7
ENDBRANCH   5   6
ENDBRANCH   4   5
ENDBRANCH   3   4
ENDBRANCH   2   3
ENDBRANCH   1   2
BRANCH   1  13
ATOM     13  C   UNL     1     -95.674 147.529 241.187  1.00  0.00     0.000 C 
BRANCH  13  14
ATOM     14  C   UNL     1     -97.033 148.090 241.637  1.00  0.00     0.000 C 
BRANCH  14  15
ATOM     15  C   UNL     1     -96.986 149.604 241.912  1.00  0.00     0.000 C 
BRANCH  15  16
ATOM     16  C   UNL     1     -97.962 150.394 241.025  1.00  0.00     0.000 C 
BRANCH  16  17
ATOM     17  C   UNL     1     -99.272 149.628 240.766  1.00  0.00     0.000 C 
BRANCH  17  18
ATOM     18  C   UNL     1    -100.326 150.499 240.062  1.00  0.00     0.000 C 
BRANCH  18  19
ATOM     19  C   UNL     1    -100.085 150.645 238.540  1.00  0.00     0.000 C 
BRANCH  19  20
ATOM     20  C   UNL     1     -99.536 152.027 238.137  1.00  0.00     0.006 C 
BRANCH  20  21
ATOM     21  C   UNL     1     -98.914 152.061 236.733  1.00  0.00     0.053 C 
BRANCH  21  22
ATOM     22  C   UNL     1     -98.625 153.463 236.287  1.00  0.00     0.041 C 
ATOM     23  O   UNL     1     -99.510 154.354 236.377  1.00  0.00    -0.550 OA
ATOM     24  O   UNL     1     -97.382 153.779 235.754  1.00  0.00    -0.550 OA
ENDBRANCH  21  22
ENDBRANCH  20  21
ENDBRANCH  19  20
ENDBRANCH  18  19
ENDBRANCH  17  18
ENDBRANCH  16  17
ENDBRANCH  15  16
ENDBRANCH  14  15
ENDBRANCH  13  14
ENDBRANCH   1  13
TORSDOF 20
ENDMDL
MODEL 5
REMARK VINA RESULT:    -3.522      2.918      6.684
REMARK INTER + INTRA:         -10.871
REMARK INTER:                  -7.911
REMARK INTRA:                  -2.959
REMARK UNBOUND:                -3.231
REMARK SMILES CCCCCCCCCCCCCCCCCCCCCC(=O)[O-]
REMARK SMILES IDX 12 1 11 2 10 3 9 4 8 5 7 6 6 7 5 8 4 9 3 10 2 11 1 12 13 13
REMARK SMILES IDX 14 14 15 15 16 16 17 17 18 18 19 19 20 20 21 21 22 22 23 23
REMARK SMILES IDX 24 24
REMARK H PARENT
REMARK Flexibility Score: inf
ROOT
ATOM      1  C   UNL     1     -94.744 147.976 240.330  1.00  0.00     0.000 C 
ENDROOT
BRANCH   1   2
ATOM      2  C   UNL     1     -93.943 146.713 240.709  1.00  0.00     0.000 C 
BRANCH   2   3
ATOM      3  C   UNL     1     -93.500 145.871 239.501  1.00  0.00     0.000 C 
BRANCH   3   4
ATOM      4  C   UNL     1     -91.992 145.976 239.219  1.00  0.00    -0.000 C 
BRANCH   4   5
ATOM      5  C   UNL     1     -91.650 145.728 237.741  1.00  0.00    -0.000 C 
BRANCH   5   6
ATOM      6  C   UNL     1     -92.825 146.057 236.807  1.00  0.00    -0.000 C 
BRANCH   6   7
ATOM      7  C   UNL     1     -92.465 145.769 235.344  1.00  0.00    -0.000 C 
BRANCH   7   8
ATOM      8  C   UNL     1     -92.864 146.946 234.439  1.00  0.00    -0.000 C 
BRANCH   8   9
ATOM      9  C   UNL     1     -94.308 147.424 234.699  1.00  0.00    -0.000 C 
BRANCH   9  10
ATOM     10  C   UNL     1     -94.546 148.901 234.329  1.00  0.00    -0.000 C 
BRANCH  10  11
ATOM     11  C   UNL     1     -96.003 149.374 234.469  1.00  0.00    -0.003 C 
ATOM     12  C   UNL     1     -96.114 150.839 234.889  1.00  0.00     0.004 C 
ENDBRANCH  10  11
ENDBRANCH   9  10
ENDBRANCH   8   9
ENDBRANCH   7   8
ENDBRANCH   6   7
ENDBRANCH   5   6
ENDBRANCH   4   5
ENDBRANCH   3   4
ENDBRANCH   2   3
ENDBRANCH   1   2
BRANCH   1  13
ATOM     13  C   UNL     1     -94.187 148.666 239.071  1.00  0.00     0.000 C 
BRANCH  13  14
ATOM     14  C   UNL     1     -95.238 148.796 237.956  1.00  0.00     0.000 C 
BRANCH  14  15
ATOM     15  C   UNL     1     -96.241 147.629 237.950  1.00  0.00     0.000 C 
BRANCH  15  16
ATOM     16  C   UNL     1     -97.682 148.092 237.680  1.00  0.00     0.000 C 
BRANCH  16  17
ATOM     17  C   UNL     1     -98.026 149.400 238.415  1.00  0.00     0.000 C 
BRANCH  17  18
ATOM     18  C   UNL     1     -99.088 149.192 239.507  1.00  0.00     0.000 C 
BRANCH  18  19
ATOM     19  C   UNL     1     -98.993 150.220 240.660  1.00  0.00     0.000 C 
BRANCH  19  20
ATOM     20  C   UNL     1     -97.649 150.177 241.411  1.00  0.00     0.006 C 
BRANCH  20  21
ATOM     21  C   UNL     1     -97.458 148.917 242.268  1.00  0.00     0.053 C 
BRANCH  21  22
ATOM     22  C   UNL     1     -98.041 149.084 243.639  1.00  0.00     0.041 C 
ATOM     23  O   UNL     1     -98.355 150.228 244.062  1.00  0.00    -0.550 OA
ATOM     24  O   UNL     1     -98.220 147.976 244.456  1.00  0.00    -0.550 OA
ENDBRANCH  21  22
ENDBRANCH  20  21
ENDBRANCH  19  20
ENDBRANCH  18  19
ENDBRANCH  17  18
ENDBRANCH  16  17
ENDBRANCH  15  16
ENDBRANCH  14  15
ENDBRANCH  13  14
ENDBRANCH   1  13
TORSDOF 20
ENDMDL
MODEL 6
REMARK VINA RESULT:    -3.512      3.507      7.242
REMARK INTER + INTRA:         -10.849
REMARK INTER:                  -8.193
REMARK INTRA:                  -2.656
REMARK UNBOUND:                -3.231
REMARK SMILES CCCCCCCCCCCCCCCCCCCCCC(=O)[O-]
REMARK SMILES IDX 12 1 11 2 10 3 9 4 8 5 7 6 6 7 5 8 4 9 3 10 2 11 1 12 13 13
REMARK SMILES IDX 14 14 15 15 16 16 17 17 18 18 19 19 20 20 21 21 22 22 23 23
REMARK SMILES IDX 24 24
REMARK H PARENT
REMARK Flexibility Score: inf
ROOT
ATOM      1  C   UNL     1     -91.596 145.642 237.495  1.00  0.00     0.000 C 
ENDROOT
BRANCH   1   2
ATOM      2  C   UNL     1     -92.647 145.985 236.419  1.00  0.00     0.000 C 
BRANCH   2   3
ATOM      3  C   UNL     1     -92.502 145.167 235.124  1.00  0.00     0.000 C 
BRANCH   3   4
ATOM      4  C   UNL     1     -92.263 146.046 233.885  1.00  0.00    -0.000 C 
BRANCH   4   5
ATOM      5  C   UNL     1     -92.918 147.431 234.010  1.00  0.00    -0.000 C 
BRANCH   5   6
ATOM      6  C   UNL     1     -94.155 147.576 233.110  1.00  0.00    -0.000 C 
BRANCH   6   7
ATOM      7  C   UNL     1     -95.357 148.103 233.903  1.00  0.00    -0.000 C 
BRANCH   7   8
ATOM      8  C   UNL     1     -94.945 149.271 234.813  1.00  0.00    -0.000 C 
BRANCH   8   9
ATOM      9  C   UNL     1     -95.378 149.056 236.278  1.00  0.00    -0.000 C 
BRANCH   9  10
ATOM     10  C   UNL     1     -96.020 147.679 236.537  1.00  0.00    -0.000 C 
BRANCH  10  11
ATOM     11  C   UNL     1     -97.047 147.652 237.681  1.00  0.00    -0.003 C 
ATOM     12  C   UNL     1     -97.722 149.005 237.905  1.00  0.00     0.004 C 
ENDBRANCH  10  11
ENDBRANCH   9  10
ENDBRANCH   8   9
ENDBRANCH   7   8
ENDBRANCH   6   7
ENDBRANCH   5   6
ENDBRANCH   4   5
ENDBRANCH   3   4
ENDBRANCH   2   3
ENDBRANCH   1   2
BRANCH   1  13
ATOM     13  C   UNL     1     -92.046 146.065 238.906  1.00  0.00     0.000 C 
BRANCH  13  14
ATOM     14  C   UNL     1     -93.515 146.516 238.947  1.00  0.00     0.000 C 
BRANCH  14  15
ATOM     15  C   UNL     1     -93.677 147.957 239.464  1.00  0.00     0.000 C 
BRANCH  15  16
ATOM     16  C   UNL     1     -94.434 148.020 240.801  1.00  0.00     0.000 C 
BRANCH  16  17
ATOM     17  C   UNL     1     -95.433 149.190 240.855  1.00  0.00     0.000 C 
BRANCH  17  18
ATOM     18  C   UNL     1     -96.780 148.776 241.472  1.00  0.00     0.000 C 
BRANCH  18  19
ATOM     19  C   UNL     1     -97.757 149.960 241.664  1.00  0.00     0.000 C 
BRANCH  19  20
ATOM     20  C   UNL     1     -98.382 150.017 243.071  1.00  0.00     0.006 C 
BRANCH  20  21
ATOM     21  C   UNL     1     -98.075 148.786 243.936  1.00  0.00     0.053 C 
BRANCH  21  22
ATOM     22  C   UNL     1     -98.994 148.694 245.118  1.00  0.00     0.041 C 
ATOM     23  O   UNL     1     -99.615 147.625 245.358  1.00  0.00    -0.550 OA
ATOM     24  O   UNL     1     -99.177 149.796 245.942  1.00  0.00    -0.550 OA
ENDBRANCH  21  22
ENDBRANCH  20  21
ENDBRANCH  19  20
ENDBRANCH  18  19
ENDBRANCH  17  18
ENDBRANCH  16  17
ENDBRANCH  15  16
ENDBRANCH  14  15
ENDBRANCH  13  14
ENDBRANCH   1  13
TORSDOF 20
ENDMDL
MODEL 7
REMARK VINA RESULT:    -3.511      4.066      7.925
REMARK INTER + INTRA:         -10.847
REMARK INTER:                  -6.606
REMARK INTRA:                  -4.241
REMARK UNBOUND:                -3.231
REMARK SMILES CCCCCCCCCCCCCCCCCCCCCC(=O)[O-]
REMARK SMILES IDX 12 1 11 2 10 3 9 4 8 5 7 6 6 7 5 8 4 9 3 10 2 11 1 12 13 13
REMARK SMILES IDX 14 14 15 15 16 16 17 17 18 18 19 19 20 20 21 21 22 22 23 23
REMARK SMILES IDX 24 24
REMARK H PARENT
REMARK Flexibility Score: inf
ROOT
ATOM      1  C   UNL     1     -96.387 149.009 241.489  1.00  0.00     0.000 C 
ENDROOT
BRANCH   1   2
ATOM      2  C   UNL     1     -96.227 147.503 241.781  1.00  0.00     0.000 C 
BRANCH   2   3
ATOM      3  C   UNL     1     -96.822 146.591 240.694  1.00  0.00     0.000 C 
BRANCH   3   4
ATOM      4  C   UNL     1     -95.855 145.483 240.247  1.00  0.00    -0.000 C 
BRANCH   4   5
ATOM      5  C   UNL     1     -94.384 145.843 240.511  1.00  0.00    -0.000 C 
BRANCH   5   6
ATOM      6  C   UNL     1     -93.671 146.351 239.247  1.00  0.00    -0.000 C 
BRANCH   6   7
ATOM      7  C   UNL     1     -93.466 147.870 239.301  1.00  0.00    -0.000 C 
BRANCH   7   8
ATOM      8  C   UNL     1     -94.438 148.589 238.352  1.00  0.00    -0.000 C 
BRANCH   8   9
ATOM      9  C   UNL     1     -95.016 147.644 237.277  1.00  0.00    -0.000 C 
BRANCH   9  10
ATOM     10  C   UNL     1     -96.554 147.677 237.188  1.00  0.00    -0.000 C 
BRANCH  10  11
ATOM     11  C   UNL     1     -97.149 149.046 236.817  1.00  0.00    -0.003 C 
ATOM     12  C   UNL     1     -98.677 149.044 236.799  1.00  0.00     0.004 C 
ENDBRANCH  10  11
ENDBRANCH   9  10
ENDBRANCH   8   9
ENDBRANCH   7   8
ENDBRANCH   6   7
ENDBRANCH   5   6
ENDBRANCH   4   5
ENDBRANCH   3   4
ENDBRANCH   2   3
ENDBRANCH   1   2
BRANCH   1  13
ATOM     13  C   UNL     1     -97.411 149.282 240.371  1.00  0.00     0.000 C 
BRANCH  13  14
ATOM     14  C   UNL     1     -98.433 150.363 240.760  1.00  0.00     0.000 C 
BRANCH  14  15
ATOM     15  C   UNL     1     -99.843 150.065 240.220  1.00  0.00     0.000 C 
BRANCH  15  16
ATOM     16  C   UNL     1    -100.251 148.596 240.418  1.00  0.00     0.000 C 
BRANCH  16  17
ATOM     17  C   UNL     1    -100.777 148.318 241.838  1.00  0.00     0.000 C 
BRANCH  17  18
ATOM     18  C   UNL     1     -99.794 147.473 242.667  1.00  0.00     0.000 C 
BRANCH  18  19
ATOM     19  C   UNL     1     -99.742 147.881 244.159  1.00  0.00     0.000 C 
BRANCH  19  20
ATOM     20  C   UNL     1     -98.464 148.652 244.539  1.00  0.00     0.006 C 
BRANCH  20  21
ATOM     21  C   UNL     1     -98.605 150.178 244.433  1.00  0.00     0.053 C 
BRANCH  21  22
ATOM     22  C   UNL     1     -98.823 150.810 245.774  1.00  0.00     0.041 C 
ATOM     23  O   UNL     1     -97.854 151.298 246.413  1.00  0.00    -0.550 OA
ATOM     24  O   UNL     1    -100.097 150.843 246.327  1.00  0.00    -0.550 OA
ENDBRANCH  21  22
ENDBRANCH  20  21
ENDBRANCH  19  20
ENDBRANCH  18  19
ENDBRANCH  17  18
ENDBRANCH  16  17
ENDBRANCH  15  16
ENDBRANCH  14  15
ENDBRANCH  13  14
ENDBRANCH   1  13
TORSDOF 20
ENDMDL
MODEL 8
REMARK VINA RESULT:    -3.508      2.152      3.944
REMARK INTER + INTRA:         -10.840
REMARK INTER:                  -7.290
REMARK INTRA:                  -3.550
REMARK UNBOUND:                -3.231
REMARK SMILES CCCCCCCCCCCCCCCCCCCCCC(=O)[O-]
REMARK SMILES IDX 12 1 11 2 10 3 9 4 8 5 7 6 6 7 5 8 4 9 3 10 2 11 1 12 13 13
REMARK SMILES IDX 14 14 15 15 16 16 17 17 18 18 19 19 20 20 21 21 22 22 23 23
REMARK SMILES IDX 24 24
REMARK H PARENT
REMARK Flexibility Score: inf
ROOT
ATOM      1  C   UNL     1     -93.578 145.890 240.293  1.00  0.00     0.000 C 
ENDROOT
BRANCH   1   2
ATOM      2  C   UNL     1     -94.577 146.770 241.072  1.00  0.00     0.000 C 
BRANCH   2   3
ATOM      3  C   UNL     1     -94.627 148.231 240.591  1.00  0.00     0.000 C 
BRANCH   3   4
ATOM      4  C   UNL     1     -95.799 149.020 241.198  1.00  0.00    -0.000 C 
BRANCH   4   5
ATOM      5  C   UNL     1     -97.033 149.040 240.281  1.00  0.00    -0.000 C 
BRANCH   5   6
ATOM      6  C   UNL     1     -98.042 150.127 240.684  1.00  0.00    -0.000 C 
BRANCH   6   7
ATOM      7  C   UNL     1     -98.988 150.459 239.523  1.00  0.00    -0.000 C 
BRANCH   7   8
ATOM      8  C   UNL     1     -98.730 149.533 238.323  1.00  0.00    -0.000 C 
BRANCH   8   9
ATOM      9  C   UNL     1     -99.167 150.168 236.986  1.00  0.00    -0.000 C 
BRANCH   9  10
ATOM     10  C   UNL     1     -99.078 151.706 236.974  1.00  0.00    -0.000 C 
BRANCH  10  11
ATOM     11  C   UNL     1     -98.278 152.295 235.800  1.00  0.00    -0.003 C 
ATOM     12  C   UNL     1     -97.998 153.789 235.963  1.00  0.00     0.004 C 
ENDBRANCH  10  11
ENDBRANCH   9  10
ENDBRANCH   8   9
ENDBRANCH   7   8
ENDBRANCH   6   7
ENDBRANCH   5   6
ENDBRANCH   4   5
ENDBRANCH   3   4
ENDBRANCH   2   3
ENDBRANCH   1   2
BRANCH   1  13
ATOM     13  C   UNL     1     -92.746 146.703 239.283  1.00  0.00     0.000 C 
BRANCH  13  14
ATOM     14  C   UNL     1     -92.613 145.996 237.925  1.00  0.00     0.000 C 
BRANCH  14  15
ATOM     15  C   UNL     1     -93.519 146.613 236.845  1.00  0.00     0.000 C 
BRANCH  15  16
ATOM     16  C   UNL     1     -95.004 146.276 237.059  1.00  0.00     0.000 C 
BRANCH  16  17
ATOM     17  C   UNL     1     -95.901 147.526 237.025  1.00  0.00     0.000 C 
BRANCH  17  18
ATOM     18  C   UNL     1     -95.093 148.827 237.165  1.00  0.00     0.000 C 
BRANCH  18  19
ATOM     19  C   UNL     1     -95.479 149.905 236.124  1.00  0.00     0.000 C 
BRANCH  19  20
ATOM     20  C   UNL     1     -96.146 149.327 234.862  1.00  0.00     0.006 C 
BRANCH  20  21
ATOM     21  C   UNL     1     -95.226 149.300 233.632  1.00  0.00     0.053 C 
BRANCH  21  22
ATOM     22  C   UNL     1     -94.413 148.041 233.574  1.00  0.00     0.041 C 
ATOM     23  O   UNL     1     -94.982 146.918 233.532  1.00  0.00    -0.550 OA
ATOM     24  O   UNL     1     -93.027 148.109 233.586  1.00  0.00    -0.550 OA
ENDBRANCH  21  22
ENDBRANCH  20  21
ENDBRANCH  19  20
ENDBRANCH  18  19
ENDBRANCH  17  18
ENDBRANCH  16  17
ENDBRANCH  15  16
ENDBRANCH  14  15
ENDBRANCH  13  14
ENDBRANCH   1  13
TORSDOF 20
ENDMDL
MODEL 9
REMARK VINA RESULT:    -3.500      1.742      2.829
REMARK INTER + INTRA:         -10.824
REMARK INTER:                  -8.710
REMARK INTRA:                  -2.114
REMARK UNBOUND:                -3.231
REMARK SMILES CCCCCCCCCCCCCCCCCCCCCC(=O)[O-]
REMARK SMILES IDX 12 1 11 2 10 3 9 4 8 5 7 6 6 7 5 8 4 9 3 10 2 11 1 12 13 13
REMARK SMILES IDX 14 14 15 15 16 16 17 17 18 18 19 19 20 20 21 21 22 22 23 23
REMARK SMILES IDX 24 24
REMARK H PARENT
REMARK Flexibility Score: inf
ROOT
ATOM      1  C   UNL     1     -93.448 146.542 239.051  1.00  0.00     0.000 C 
ENDROOT
BRANCH   1   2
ATOM      2  C   UNL     1     -93.506 148.071 239.252  1.00  0.00     0.000 C 
BRANCH   2   3
ATOM      3  C   UNL     1     -94.920 148.662 239.120  1.00  0.00     0.000 C 
BRANCH   3   4
ATOM      4  C   UNL     1     -95.989 147.825 239.842  1.00  0.00    -0.000 C 
BRANCH   4   5
ATOM      5  C   UNL     1     -96.181 148.253 241.306  1.00  0.00    -0.000 C 
BRANCH   5   6
ATOM      6  C   UNL     1     -96.416 149.765 241.448  1.00  0.00    -0.000 C 
BRANCH   6   7
ATOM      7  C   UNL     1     -97.908 150.104 241.353  1.00  0.00    -0.000 C 
BRANCH   7   8
ATOM      8  C   UNL     1     -98.698 149.426 242.484  1.00  0.00    -0.000 C 
BRANCH   8   9
ATOM      9  C   UNL     1     -98.483 150.117 243.847  1.00  0.00    -0.000 C 
BRANCH   9  10
ATOM     10  C   UNL     1     -99.188 149.407 245.019  1.00  0.00    -0.000 C 
BRANCH  10  11
ATOM     11  C   UNL     1     -99.082 150.133 246.370  1.00  0.00    -0.003 C 
ATOM     12  C   UNL     1     -98.412 151.502 246.257  1.00  0.00     0.004 C 
ENDBRANCH  10  11
ENDBRANCH   9  10
ENDBRANCH   8   9
ENDBRANCH   7   8
ENDBRANCH   6   7
ENDBRANCH   5   6
ENDBRANCH   4   5
ENDBRANCH   3   4
ENDBRANCH   2   3
ENDBRANCH   1   2
BRANCH   1  13
ATOM     13  C   UNL     1     -92.004 146.026 238.907  1.00  0.00     0.000 C 
BRANCH  13  14
ATOM     14  C   UNL     1     -91.646 145.676 237.454  1.00  0.00     0.000 C 
BRANCH  14  15
ATOM     15  C   UNL     1     -92.868 145.709 236.519  1.00  0.00     0.000 C 
BRANCH  15  16
ATOM     16  C   UNL     1     -92.624 146.561 235.262  1.00  0.00     0.000 C 
BRANCH  16  17
ATOM     17  C   UNL     1     -93.931 147.117 234.668  1.00  0.00     0.000 C 
BRANCH  17  18
ATOM     18  C   UNL     1     -94.996 147.380 235.746  1.00  0.00     0.000 C 
BRANCH  18  19
ATOM     19  C   UNL     1     -96.269 148.066 235.198  1.00  0.00     0.000 C 
BRANCH  19  20
ATOM     20  C   UNL     1     -96.555 149.434 235.846  1.00  0.00     0.006 C 
BRANCH  20  21
ATOM     21  C   UNL     1     -95.407 150.444 235.696  1.00  0.00     0.053 C 
BRANCH  21  22
ATOM     22  C   UNL     1     -95.737 151.516 234.702  1.00  0.00     0.041 C 
ATOM     23  O   UNL     1     -96.127 152.648 235.093  1.00  0.00    -0.550 OA
ATOM     24  O   UNL     1     -95.629 151.258 233.342  1.00  0.00    -0.550 OA
ENDBRANCH  21  22
ENDBRANCH  20  21
ENDBRANCH  19  20
ENDBRANCH  18  19
ENDBRANCH  17  18
ENDBRANCH  16  17
ENDBRANCH  15  16
ENDBRANCH  14  15
ENDBRANCH  13  14
ENDBRANCH   1  13
TORSDOF 20
ENDMDL
