MODEL 1
REMARK VINA RESULT:    -6.906      0.000      0.000
REMARK INTER + INTRA:         -11.124
REMARK INTER:                  -9.531
REMARK INTRA:                  -1.594
REMARK UNBOUND:                -1.594
REMARK SMILES CC[C@H](CC[C@H](C)[C@@H]1CC[C@H]2[C@@H]3CC=C4C[C@H](O)CC[C@]4(C)[C@@H]3CC[C@]21C)C(C)C
REMARK SMILES IDX 5 1 4 2 3 3 2 4 1 5 28 6 29 7 30 8 6 9 7 10 8 11 9 12 26 13
REMARK SMILES IDX 10 14 11 15 25 16 27 17 12 18 24 19 23 20 13 21 21 22 14 23
REMARK SMILES IDX 15 24 20 25 22 26 16 27 19 28 17 29 18 30
REMARK H PARENT 18 31
REMARK Flexibility Score: inf
ROOT
ATOM      1  C   UNL     1     114.380 124.582 123.725  1.00  0.00     0.004 C 
ENDROOT
BRANCH   1   2
ATOM      2  C   UNL     1     114.495 126.055 124.195  1.00  0.00     0.004 C 
BRANCH   2   3
ATOM      3  C   UNL     1     115.651 126.496 125.160  1.00  0.00    -0.009 C 
BRANCH   3   4
ATOM      4  C   UNL     1     116.475 127.723 124.650  1.00  0.00     0.000 C 
ATOM      5  C   UNL     1     117.738 127.296 123.892  1.00  0.00     0.004 C 
ENDBRANCH   3   4
BRANCH   3   6
ATOM      6  C   UNL     1     115.145 126.601 126.650  1.00  0.00    -0.014 C 
ATOM      7  C   UNL     1     116.132 127.449 127.516  1.00  0.00     0.007 C 
ATOM      8  C   UNL     1     113.742 127.223 126.794  1.00  0.00     0.007 C 
ENDBRANCH   3   6
ENDBRANCH   2   3
ENDBRANCH   1   2
BRANCH   1   9
ATOM      9  C   UNL     1     114.726 124.283 122.244  1.00  0.00    -0.011 C 
ATOM     10  C   UNL     1     113.507 123.814 121.426  1.00  0.00     0.008 C 
BRANCH   9  11
ATOM     11  C   UNL     1     116.004 123.369 122.137  1.00  0.00    -0.002 C 
ATOM     12  C   UNL     1     116.640 123.080 123.508  1.00  0.00     0.005 C 
ATOM     13  C   UNL     1     117.174 123.707 121.135  1.00  0.00    -0.026 C 
ATOM     14  C   UNL     1     118.134 123.326 123.368  1.00  0.00     0.005 C 
ATOM     15  C   UNL     1     118.470 123.244 121.868  1.00  0.00    -0.001 C 
ATOM     16  C   UNL     1     116.996 122.988 119.764  1.00  0.00     0.007 C 
ATOM     17  C   UNL     1     117.335 125.221 120.836  1.00  0.00     0.012 C 
ATOM     18  C   UNL     1     119.033 121.850 121.438  1.00  0.00     0.000 C 
ATOM     19  C   UNL     1     117.128 121.457 119.779  1.00  0.00     0.005 C 
ATOM     20  C   UNL     1     117.940 120.859 120.966  1.00  0.00     0.003 C 
ATOM     21  C   UNL     1     120.131 121.998 120.364  1.00  0.00     0.031 C 
ATOM     22  C   UNL     1     118.565 119.435 120.663  1.00  0.00    -0.008 C 
ATOM     23  C   UNL     1     120.592 120.681 119.798  1.00  0.00    -0.027 C 
ATOM     24  C   UNL     1     119.849 119.543 119.832  1.00  0.00    -0.065 C 
ATOM     25  C   UNL     1     117.527 118.524 119.921  1.00  0.00     0.014 C 
ATOM     26  C   UNL     1     118.928 118.745 122.006  1.00  0.00     0.016 C 
ATOM     27  C   UNL     1     120.427 118.278 119.230  1.00  0.00     0.063 C 
ATOM     28  C   UNL     1     118.124 117.227 119.336  1.00  0.00     0.033 C 
ATOM     29  C   UNL     1     119.359 117.512 118.455  1.00  0.00     0.118 C 
BRANCH  29  30
ATOM     30  O   UNL     1     118.997 118.262 117.320  1.00  0.00    -0.393 OA
ATOM     31  H   UNL     1     119.521 117.933 116.558  1.00  0.00     0.210 HD
ENDBRANCH  29  30
ENDBRANCH   9  11
ENDBRANCH   1   9
TORSDOF 7
ENDMDL
MODEL 2
REMARK VINA RESULT:    -6.866      1.927      4.254
REMARK INTER + INTRA:         -11.068
REMARK INTER:                  -9.359
REMARK INTRA:                  -1.709
REMARK UNBOUND:                -1.594
REMARK SMILES CC[C@H](CC[C@H](C)[C@@H]1CC[C@H]2[C@@H]3CC=C4C[C@H](O)CC[C@]4(C)[C@@H]3CC[C@]21C)C(C)C
REMARK SMILES IDX 5 1 4 2 3 3 2 4 1 5 28 6 29 7 30 8 6 9 7 10 8 11 9 12 26 13
REMARK SMILES IDX 10 14 11 15 25 16 27 17 12 18 24 19 23 20 13 21 21 22 14 23
REMARK SMILES IDX 15 24 20 25 22 26 16 27 19 28 17 29 18 30
REMARK H PARENT 18 31
REMARK Flexibility Score: inf
ROOT
ATOM      1  C   UNL     1     113.510 123.530 121.616  1.00  0.00     0.004 C 
ENDROOT
BRANCH   1   2
ATOM      2  C   UNL     1     113.289 122.196 120.858  1.00  0.00     0.004 C 
BRANCH   2   3
ATOM      3  C   UNL     1     112.309 121.109 121.425  1.00  0.00    -0.009 C 
BRANCH   3   4
ATOM      4  C   UNL     1     111.158 120.713 120.443  1.00  0.00     0.000 C 
ATOM      5  C   UNL     1     111.275 121.435 119.095  1.00  0.00     0.004 C 
ENDBRANCH   3   4
BRANCH   3   6
ATOM      6  C   UNL     1     113.098 119.899 122.057  1.00  0.00    -0.014 C 
ATOM      7  C   UNL     1     114.516 119.761 121.414  1.00  0.00     0.007 C 
ATOM      8  C   UNL     1     113.285 120.001 123.584  1.00  0.00     0.007 C 
ENDBRANCH   3   6
ENDBRANCH   2   3
ENDBRANCH   1   2
BRANCH   1   9
ATOM      9  C   UNL     1     114.367 123.477 122.907  1.00  0.00    -0.011 C 
ATOM     10  C   UNL     1     114.427 124.829 123.643  1.00  0.00     0.008 C 
BRANCH   9  11
ATOM     11  C   UNL     1     115.759 122.795 122.631  1.00  0.00    -0.002 C 
ATOM     12  C   UNL     1     116.372 122.167 123.895  1.00  0.00     0.005 C 
ATOM     13  C   UNL     1     116.914 123.562 121.877  1.00  0.00    -0.026 C 
ATOM     14  C   UNL     1     117.823 122.615 123.958  1.00  0.00     0.005 C 
ATOM     15  C   UNL     1     118.229 123.045 122.536  1.00  0.00    -0.001 C 
ATOM     16  C   UNL     1     116.891 123.291 120.342  1.00  0.00     0.007 C 
ATOM     17  C   UNL     1     116.882 125.101 122.068  1.00  0.00     0.012 C 
ATOM     18  C   UNL     1     118.992 121.929 121.750  1.00  0.00     0.000 C 
ATOM     19  C   UNL     1     117.227 121.858 119.901  1.00  0.00     0.005 C 
ATOM     20  C   UNL     1     118.062 121.017 120.911  1.00  0.00     0.003 C 
ATOM     21  C   UNL     1     120.103 122.531 120.864  1.00  0.00     0.031 C 
ATOM     22  C   UNL     1     118.884 119.840 120.241  1.00  0.00    -0.008 C 
ATOM     23  C   UNL     1     120.760 121.518 119.964  1.00  0.00    -0.027 C 
ATOM     24  C   UNL     1     120.176 120.349 119.589  1.00  0.00    -0.065 C 
ATOM     25  C   UNL     1     118.010 119.093 119.175  1.00  0.00     0.014 C 
ATOM     26  C   UNL     1     119.281 118.812 121.335  1.00  0.00     0.016 C 
ATOM     27  C   UNL     1     120.943 119.411 118.680  1.00  0.00     0.063 C 
ATOM     28  C   UNL     1     118.799 118.122 118.273  1.00  0.00     0.033 C 
ATOM     29  C   UNL     1     120.020 118.808 117.624  1.00  0.00     0.118 C 
BRANCH  29  30
ATOM     30  O   UNL     1     119.608 119.828 116.746  1.00  0.00    -0.393 OA
ATOM     31  H   UNL     1     120.315 119.958 116.077  1.00  0.00     0.210 HD
ENDBRANCH  29  30
ENDBRANCH   9  11
ENDBRANCH   1   9
TORSDOF 7
ENDMDL
MODEL 3
REMARK VINA RESULT:    -6.851      2.309      4.145
REMARK INTER + INTRA:         -11.048
REMARK INTER:                  -8.910
REMARK INTRA:                  -2.138
REMARK UNBOUND:                -1.594
REMARK SMILES CC[C@H](CC[C@H](C)[C@@H]1CC[C@H]2[C@@H]3CC=C4C[C@H](O)CC[C@]4(C)[C@@H]3CC[C@]21C)C(C)C
REMARK SMILES IDX 5 1 4 2 3 3 2 4 1 5 28 6 29 7 30 8 6 9 7 10 8 11 9 12 26 13
REMARK SMILES IDX 10 14 11 15 25 16 27 17 12 18 24 19 23 20 13 21 21 22 14 23
REMARK SMILES IDX 15 24 20 25 22 26 16 27 19 28 17 29 18 30
REMARK H PARENT 18 31
REMARK Flexibility Score: inf
ROOT
ATOM      1  C   UNL     1     114.237 122.967 124.452  1.00  0.00     0.004 C 
ENDROOT
BRANCH   1   2
ATOM      2  C   UNL     1     113.318 121.733 124.260  1.00  0.00     0.004 C 
BRANCH   2   3
ATOM      3  C   UNL     1     113.933 120.299 124.088  1.00  0.00    -0.009 C 
BRANCH   3   4
ATOM      4  C   UNL     1     113.659 119.339 125.292  1.00  0.00     0.000 C 
ATOM      5  C   UNL     1     112.253 118.729 125.236  1.00  0.00     0.004 C 
ENDBRANCH   3   4
BRANCH   3   6
ATOM      6  C   UNL     1     113.607 119.702 122.666  1.00  0.00    -0.014 C 
ATOM      7  C   UNL     1     112.400 120.448 122.011  1.00  0.00     0.007 C 
ATOM      8  C   UNL     1     114.787 119.761 121.675  1.00  0.00     0.007 C 
ENDBRANCH   3   6
ENDBRANCH   2   3
ENDBRANCH   1   2
BRANCH   1   9
ATOM      9  C   UNL     1     114.848 123.600 123.176  1.00  0.00    -0.011 C 
ATOM     10  C   UNL     1     113.821 123.772 122.041  1.00  0.00     0.008 C 
BRANCH   9  11
ATOM     11  C   UNL     1     116.186 122.873 122.773  1.00  0.00    -0.002 C 
ATOM     12  C   UNL     1     116.889 122.217 123.974  1.00  0.00     0.005 C 
ATOM     13  C   UNL     1     117.293 123.606 121.920  1.00  0.00    -0.026 C 
ATOM     14  C   UNL     1     118.354 122.616 123.907  1.00  0.00     0.005 C 
ATOM     15  C   UNL     1     118.643 123.041 122.456  1.00  0.00    -0.001 C 
ATOM     16  C   UNL     1     117.121 123.345 120.393  1.00  0.00     0.007 C 
ATOM     17  C   UNL     1     117.331 125.143 122.117  1.00  0.00     0.012 C 
ATOM     18  C   UNL     1     119.294 121.905 121.600  1.00  0.00     0.000 C 
ATOM     19  C   UNL     1     117.367 121.905 119.919  1.00  0.00     0.005 C 
ATOM     20  C   UNL     1     118.261 121.030 120.846  1.00  0.00     0.003 C 
ATOM     21  C   UNL     1     120.340 122.475 120.619  1.00  0.00     0.031 C 
ATOM     22  C   UNL     1     118.980 119.830 120.101  1.00  0.00    -0.008 C 
ATOM     23  C   UNL     1     120.878 121.447 119.659  1.00  0.00    -0.027 C 
ATOM     24  C   UNL     1     120.223 120.300 119.336  1.00  0.00    -0.065 C 
ATOM     25  C   UNL     1     117.988 119.120 119.116  1.00  0.00     0.014 C 
ATOM     26  C   UNL     1     119.439 118.783 121.151  1.00  0.00     0.016 C 
ATOM     27  C   UNL     1     120.872 119.342 118.357  1.00  0.00     0.063 C 
ATOM     28  C   UNL     1     118.659 118.128 118.143  1.00  0.00     0.033 C 
ATOM     29  C   UNL     1     119.838 118.777 117.388  1.00  0.00     0.118 C 
BRANCH  29  30
ATOM     30  O   UNL     1     119.383 119.815 116.554  1.00  0.00    -0.393 OA
ATOM     31  H   UNL     1     120.155 120.370 116.309  1.00  0.00     0.210 HD
ENDBRANCH  29  30
ENDBRANCH   9  11
ENDBRANCH   1   9
TORSDOF 7
ENDMDL
MODEL 4
REMARK VINA RESULT:    -6.792      3.383      5.212
REMARK INTER + INTRA:         -10.966
REMARK INTER:                  -9.257
REMARK INTRA:                  -1.709
REMARK UNBOUND:                -1.594
REMARK SMILES CC[C@H](CC[C@H](C)[C@@H]1CC[C@H]2[C@@H]3CC=C4C[C@H](O)CC[C@]4(C)[C@@H]3CC[C@]21C)C(C)C
REMARK SMILES IDX 5 1 4 2 3 3 2 4 1 5 28 6 29 7 30 8 6 9 7 10 8 11 9 12 26 13
REMARK SMILES IDX 10 14 11 15 25 16 27 17 12 18 24 19 23 20 13 21 21 22 14 23
REMARK SMILES IDX 15 24 20 25 22 26 16 27 19 28 17 29 18 30
REMARK H PARENT 18 31
REMARK Flexibility Score: inf
ROOT
ATOM      1  C   UNL     1     112.489 120.635 124.949  1.00  0.00     0.004 C 
ENDROOT
BRANCH   1   2
ATOM      2  C   UNL     1     112.780 119.173 125.373  1.00  0.00     0.004 C 
BRANCH   2   3
ATOM      3  C   UNL     1     114.215 118.750 125.848  1.00  0.00    -0.009 C 
BRANCH   3   4
ATOM      4  C   UNL     1     115.270 119.904 125.796  1.00  0.00     0.000 C 
ATOM      5  C   UNL     1     116.332 119.667 124.716  1.00  0.00     0.004 C 
ENDBRANCH   3   4
BRANCH   3   6
ATOM      6  C   UNL     1     114.158 117.953 127.207  1.00  0.00    -0.014 C 
ATOM      7  C   UNL     1     115.591 117.531 127.667  1.00  0.00     0.007 C 
ATOM      8  C   UNL     1     113.506 118.735 128.366  1.00  0.00     0.007 C 
ENDBRANCH   3   6
ENDBRANCH   2   3
ENDBRANCH   1   2
BRANCH   1   9
ATOM      9  C   UNL     1     112.631 120.976 123.443  1.00  0.00    -0.011 C 
ATOM     10  C   UNL     1     112.396 119.760 122.528  1.00  0.00     0.008 C 
BRANCH   9  11
ATOM     11  C   UNL     1     113.957 121.782 123.171  1.00  0.00    -0.002 C 
ATOM     12  C   UNL     1     114.248 122.829 124.260  1.00  0.00     0.005 C 
ATOM     13  C   UNL     1     114.231 122.463 121.774  1.00  0.00    -0.026 C 
ATOM     14  C   UNL     1     114.594 124.128 123.550  1.00  0.00     0.005 C 
ATOM     15  C   UNL     1     115.022 123.762 122.117  1.00  0.00    -0.001 C 
ATOM     16  C   UNL     1     115.034 121.532 120.817  1.00  0.00     0.007 C 
ATOM     17  C   UNL     1     112.948 122.896 121.018  1.00  0.00     0.012 C 
ATOM     18  C   UNL     1     116.574 123.681 121.939  1.00  0.00     0.000 C 
ATOM     19  C   UNL     1     116.484 121.228 121.224  1.00  0.00     0.005 C 
ATOM     20  C   UNL     1     117.151 122.264 122.178  1.00  0.00     0.003 C 
ATOM     21  C   UNL     1     117.006 124.217 120.558  1.00  0.00     0.031 C 
ATOM     22  C   UNL     1     118.733 122.281 122.101  1.00  0.00    -0.008 C 
ATOM     23  C   UNL     1     118.470 124.012 120.272  1.00  0.00    -0.027 C 
ATOM     24  C   UNL     1     119.235 123.069 120.885  1.00  0.00    -0.065 C 
ATOM     25  C   UNL     1     119.299 120.820 122.056  1.00  0.00     0.014 C 
ATOM     26  C   UNL     1     119.295 122.969 123.375  1.00  0.00     0.016 C 
ATOM     27  C   UNL     1     120.699 122.964 120.511  1.00  0.00     0.063 C 
ATOM     28  C   UNL     1     120.797 120.729 121.700  1.00  0.00     0.033 C 
ATOM     29  C   UNL     1     121.126 121.503 120.406  1.00  0.00     0.118 C 
BRANCH  29  30
ATOM     30  O   UNL     1     120.478 120.920 119.301  1.00  0.00    -0.393 OA
ATOM     31  H   UNL     1     120.513 121.558 118.556  1.00  0.00     0.210 HD
ENDBRANCH  29  30
ENDBRANCH   9  11
ENDBRANCH   1   9
TORSDOF 7
ENDMDL
MODEL 5
REMARK VINA RESULT:    -6.724      3.952      7.820
REMARK INTER + INTRA:         -10.872
REMARK INTER:                 -10.675
REMARK INTRA:                  -0.197
REMARK UNBOUND:                -1.594
REMARK SMILES CC[C@H](CC[C@H](C)[C@@H]1CC[C@H]2[C@@H]3CC=C4C[C@H](O)CC[C@]4(C)[C@@H]3CC[C@]21C)C(C)C
REMARK SMILES IDX 5 1 4 2 3 3 2 4 1 5 28 6 29 7 30 8 6 9 7 10 8 11 9 12 26 13
REMARK SMILES IDX 10 14 11 15 25 16 27 17 12 18 24 19 23 20 13 21 21 22 14 23
REMARK SMILES IDX 15 24 20 25 22 26 16 27 19 28 17 29 18 30
REMARK H PARENT 18 31
REMARK Flexibility Score: inf
ROOT
ATOM      1  C   UNL     1     113.998 119.510 122.750  1.00  0.00     0.004 C 
ENDROOT
BRANCH   1   2
ATOM      2  C   UNL     1     114.651 119.715 124.141  1.00  0.00     0.004 C 
BRANCH   2   3
ATOM      3  C   UNL     1     113.770 119.743 125.440  1.00  0.00    -0.009 C 
BRANCH   3   4
ATOM      4  C   UNL     1     112.230 119.710 125.167  1.00  0.00     0.000 C 
ATOM      5  C   UNL     1     111.714 118.284 124.940  1.00  0.00     0.004 C 
ENDBRANCH   3   4
BRANCH   3   6
ATOM      6  C   UNL     1     114.285 118.700 126.504  1.00  0.00    -0.014 C 
ATOM      7  C   UNL     1     115.847 118.684 126.560  1.00  0.00     0.007 C 
ATOM      8  C   UNL     1     113.768 118.955 127.934  1.00  0.00     0.007 C 
ENDBRANCH   3   6
ENDBRANCH   2   3
ENDBRANCH   1   2
BRANCH   1   9
ATOM      9  C   UNL     1     114.712 120.149 121.532  1.00  0.00    -0.011 C 
ATOM     10  C   UNL     1     115.955 119.358 121.082  1.00  0.00     0.008 C 
BRANCH   9  11
ATOM     11  C   UNL     1     114.936 121.692 121.756  1.00  0.00    -0.002 C 
ATOM     12  C   UNL     1     114.369 122.545 120.608  1.00  0.00     0.005 C 
ATOM     13  C   UNL     1     116.359 122.270 122.118  1.00  0.00    -0.026 C 
ATOM     14  C   UNL     1     115.446 123.545 120.221  1.00  0.00     0.005 C 
ATOM     15  C   UNL     1     116.409 123.662 121.417  1.00  0.00    -0.001 C 
ATOM     16  C   UNL     1     116.566 122.389 123.658  1.00  0.00     0.007 C 
ATOM     17  C   UNL     1     117.542 121.436 121.562  1.00  0.00     0.012 C 
ATOM     18  C   UNL     1     116.110 124.895 122.331  1.00  0.00     0.000 C 
ATOM     19  C   UNL     1     115.695 123.426 124.382  1.00  0.00     0.005 C 
ATOM     20  C   UNL     1     115.139 124.581 123.497  1.00  0.00     0.003 C 
ATOM     21  C   UNL     1     117.414 125.523 122.866  1.00  0.00     0.031 C 
ATOM     22  C   UNL     1     114.786 125.897 124.305  1.00  0.00    -0.008 C 
ATOM     23  C   UNL     1     117.178 126.612 123.879  1.00  0.00    -0.027 C 
ATOM     24  C   UNL     1     116.038 126.728 124.612  1.00  0.00    -0.065 C 
ATOM     25  C   UNL     1     114.044 125.543 125.639  1.00  0.00     0.014 C 
ATOM     26  C   UNL     1     113.834 126.777 123.450  1.00  0.00     0.016 C 
ATOM     27  C   UNL     1     115.921 127.871 125.599  1.00  0.00     0.063 C 
ATOM     28  C   UNL     1     113.908 126.722 126.624  1.00  0.00     0.033 C 
ATOM     29  C   UNL     1     115.268 127.400 126.896  1.00  0.00     0.118 C 
BRANCH  29  30
ATOM     30  O   UNL     1     116.144 126.512 127.548  1.00  0.00    -0.393 OA
ATOM     31  H   UNL     1     115.639 126.048 128.251  1.00  0.00     0.210 HD
ENDBRANCH  29  30
ENDBRANCH   9  11
ENDBRANCH   1   9
TORSDOF 7
ENDMDL
MODEL 6
REMARK VINA RESULT:    -6.654      3.505      7.620
REMARK INTER + INTRA:         -10.775
REMARK INTER:                  -9.680
REMARK INTRA:                  -1.096
REMARK UNBOUND:                -1.594
REMARK SMILES CC[C@H](CC[C@H](C)[C@@H]1CC[C@H]2[C@@H]3CC=C4C[C@H](O)CC[C@]4(C)[C@@H]3CC[C@]21C)C(C)C
REMARK SMILES IDX 5 1 4 2 3 3 2 4 1 5 28 6 29 7 30 8 6 9 7 10 8 11 9 12 26 13
REMARK SMILES IDX 10 14 11 15 25 16 27 17 12 18 24 19 23 20 13 21 21 22 14 23
REMARK SMILES IDX 15 24 20 25 22 26 16 27 19 28 17 29 18 30
REMARK H PARENT 18 31
REMARK Flexibility Score: inf
ROOT
ATOM      1  C   UNL     1     115.008 119.633 121.413  1.00  0.00     0.004 C 
ENDROOT
BRANCH   1   2
ATOM      2  C   UNL     1     114.086 120.369 122.418  1.00  0.00     0.004 C 
BRANCH   2   3
ATOM      3  C   UNL     1     113.864 119.797 123.863  1.00  0.00    -0.009 C 
BRANCH   3   4
ATOM      4  C   UNL     1     114.744 120.481 124.961  1.00  0.00     0.000 C 
ATOM      5  C   UNL     1     116.101 119.788 125.128  1.00  0.00     0.004 C 
ENDBRANCH   3   4
BRANCH   3   6
ATOM      6  C   UNL     1     112.329 119.686 124.207  1.00  0.00    -0.014 C 
ATOM      7  C   UNL     1     111.470 119.615 122.903  1.00  0.00     0.007 C 
ATOM      8  C   UNL     1     111.968 118.462 125.073  1.00  0.00     0.007 C 
ENDBRANCH   3   6
ENDBRANCH   2   3
ENDBRANCH   1   2
BRANCH   1   9
ATOM      9  C   UNL     1     116.247 120.405 120.893  1.00  0.00    -0.011 C 
ATOM     10  C   UNL     1     117.578 119.723 121.263  1.00  0.00     0.008 C 
BRANCH   9  11
ATOM     11  C   UNL     1     116.148 121.936 121.253  1.00  0.00    -0.002 C 
ATOM     12  C   UNL     1     115.500 122.767 120.132  1.00  0.00     0.005 C 
ATOM     13  C   UNL     1     117.404 122.739 121.771  1.00  0.00    -0.026 C 
ATOM     14  C   UNL     1     116.382 123.985 119.911  1.00  0.00     0.005 C 
ATOM     15  C   UNL     1     117.224 124.173 121.187  1.00  0.00    -0.001 C 
ATOM     16  C   UNL     1     117.485 122.754 123.328  1.00  0.00     0.007 C 
ATOM     17  C   UNL     1     118.761 122.200 121.250  1.00  0.00     0.012 C 
ATOM     18  C   UNL     1     116.630 125.238 122.166  1.00  0.00     0.000 C 
ATOM     19  C   UNL     1     116.382 123.536 124.057  1.00  0.00     0.005 C 
ATOM     20  C   UNL     1     115.668 124.639 123.222  1.00  0.00     0.003 C 
ATOM     21  C   UNL     1     117.749 126.051 122.851  1.00  0.00     0.031 C 
ATOM     22  C   UNL     1     115.013 125.785 124.098  1.00  0.00    -0.008 C 
ATOM     23  C   UNL     1     117.239 126.978 123.923  1.00  0.00    -0.027 C 
ATOM     24  C   UNL     1     116.055 126.807 124.568  1.00  0.00    -0.065 C 
ATOM     25  C   UNL     1     114.271 125.175 125.338  1.00  0.00     0.014 C 
ATOM     26  C   UNL     1     113.962 126.541 123.241  1.00  0.00     0.016 C 
ATOM     27  C   UNL     1     115.652 127.812 125.628  1.00  0.00     0.063 C 
ATOM     28  C   UNL     1     113.843 126.212 126.396  1.00  0.00     0.033 C 
ATOM     29  C   UNL     1     115.023 127.109 126.828  1.00  0.00     0.118 C 
BRANCH  29  30
ATOM     30  O   UNL     1     116.013 126.348 127.478  1.00  0.00    -0.393 OA
ATOM     31  H   UNL     1     116.763 126.229 126.855  1.00  0.00     0.210 HD
ENDBRANCH  29  30
ENDBRANCH   9  11
ENDBRANCH   1   9
TORSDOF 7
ENDMDL
MODEL 7
REMARK VINA RESULT:    -6.617      2.570      4.043
REMARK INTER + INTRA:         -10.725
REMARK INTER:                  -9.607
REMARK INTRA:                  -1.119
REMARK UNBOUND:                -1.594
REMARK SMILES CC[C@H](CC[C@H](C)[C@@H]1CC[C@H]2[C@@H]3CC=C4C[C@H](O)CC[C@]4(C)[C@@H]3CC[C@]21C)C(C)C
REMARK SMILES IDX 5 1 4 2 3 3 2 4 1 5 28 6 29 7 30 8 6 9 7 10 8 11 9 12 26 13
REMARK SMILES IDX 10 14 11 15 25 16 27 17 12 18 24 19 23 20 13 21 21 22 14 23
REMARK SMILES IDX 15 24 20 25 22 26 16 27 19 28 17 29 18 30
REMARK H PARENT 18 31
REMARK Flexibility Score: inf
ROOT
ATOM      1  C   UNL     1     113.926 122.734 124.177  1.00  0.00     0.004 C 
ENDROOT
BRANCH   1   2
ATOM      2  C   UNL     1     113.399 121.364 123.677  1.00  0.00     0.004 C 
BRANCH   2   3
ATOM      3  C   UNL     1     112.584 120.425 124.634  1.00  0.00    -0.009 C 
BRANCH   3   4
ATOM      4  C   UNL     1     111.746 119.331 123.894  1.00  0.00     0.000 C 
ATOM      5  C   UNL     1     111.797 119.498 122.371  1.00  0.00     0.004 C 
ENDBRANCH   3   4
BRANCH   3   6
ATOM      6  C   UNL     1     113.480 119.897 125.819  1.00  0.00    -0.014 C 
ATOM      7  C   UNL     1     112.797 118.692 126.542  1.00  0.00     0.007 C 
ATOM      8  C   UNL     1     114.890 119.445 125.386  1.00  0.00     0.007 C 
ENDBRANCH   3   6
ENDBRANCH   2   3
ENDBRANCH   1   2
BRANCH   1   9
ATOM      9  C   UNL     1     114.733 123.592 123.170  1.00  0.00    -0.011 C 
ATOM     10  C   UNL     1     113.882 124.083 121.983  1.00  0.00     0.008 C 
BRANCH   9  11
ATOM     11  C   UNL     1     116.086 122.884 122.784  1.00  0.00    -0.002 C 
ATOM     12  C   UNL     1     116.783 122.241 123.995  1.00  0.00     0.005 C 
ATOM     13  C   UNL     1     117.193 123.631 121.943  1.00  0.00    -0.026 C 
ATOM     14  C   UNL     1     118.244 122.660 123.945  1.00  0.00     0.005 C 
ATOM     15  C   UNL     1     118.545 123.086 122.496  1.00  0.00    -0.001 C 
ATOM     16  C   UNL     1     117.044 123.365 120.415  1.00  0.00     0.007 C 
ATOM     17  C   UNL     1     117.206 125.169 122.138  1.00  0.00     0.012 C 
ATOM     18  C   UNL     1     119.222 121.959 121.650  1.00  0.00     0.000 C 
ATOM     19  C   UNL     1     117.316 121.928 119.946  1.00  0.00     0.005 C 
ATOM     20  C   UNL     1     118.211 121.068 120.886  1.00  0.00     0.003 C 
ATOM     21  C   UNL     1     120.271 122.542 120.681  1.00  0.00     0.031 C 
ATOM     22  C   UNL     1     118.955 119.877 120.151  1.00  0.00    -0.008 C 
ATOM     23  C   UNL     1     120.836 121.520 119.730  1.00  0.00    -0.027 C 
ATOM     24  C   UNL     1     120.201 120.363 119.400  1.00  0.00    -0.065 C 
ATOM     25  C   UNL     1     117.986 119.151 119.156  1.00  0.00     0.014 C 
ATOM     26  C   UNL     1     119.416 118.838 121.209  1.00  0.00     0.016 C 
ATOM     27  C   UNL     1     120.876 119.413 118.432  1.00  0.00     0.063 C 
ATOM     28  C   UNL     1     118.682 118.168 118.193  1.00  0.00     0.033 C 
ATOM     29  C   UNL     1     119.862 118.832 117.451  1.00  0.00     0.118 C 
BRANCH  29  30
ATOM     30  O   UNL     1     119.402 119.862 116.610  1.00  0.00    -0.393 OA
ATOM     31  H   UNL     1     118.875 120.487 117.154  1.00  0.00     0.210 HD
ENDBRANCH  29  30
ENDBRANCH   9  11
ENDBRANCH   1   9
TORSDOF 7
ENDMDL
MODEL 8
REMARK VINA RESULT:    -6.333      3.507      5.396
REMARK INTER + INTRA:         -10.334
REMARK INTER:                  -8.402
REMARK INTRA:                  -1.932
REMARK UNBOUND:                -1.594
REMARK SMILES CC[C@H](CC[C@H](C)[C@@H]1CC[C@H]2[C@@H]3CC=C4C[C@H](O)CC[C@]4(C)[C@@H]3CC[C@]21C)C(C)C
REMARK SMILES IDX 5 1 4 2 3 3 2 4 1 5 28 6 29 7 30 8 6 9 7 10 8 11 9 12 26 13
REMARK SMILES IDX 10 14 11 15 25 16 27 17 12 18 24 19 23 20 13 21 21 22 14 23
REMARK SMILES IDX 15 24 20 25 22 26 16 27 19 28 17 29 18 30
REMARK H PARENT 18 31
REMARK Flexibility Score: inf
ROOT
ATOM      1  C   UNL     1     113.015 119.622 126.090  1.00  0.00     0.004 C 
ENDROOT
BRANCH   1   2
ATOM      2  C   UNL     1     114.223 118.655 126.184  1.00  0.00     0.004 C 
BRANCH   2   3
ATOM      3  C   UNL     1     115.582 119.135 126.807  1.00  0.00    -0.009 C 
BRANCH   3   4
ATOM      4  C   UNL     1     116.060 118.281 128.027  1.00  0.00     0.000 C 
ATOM      5  C   UNL     1     116.693 119.146 129.124  1.00  0.00     0.004 C 
ENDBRANCH   3   4
BRANCH   3   6
ATOM      6  C   UNL     1     116.670 119.379 125.692  1.00  0.00    -0.014 C 
ATOM      7  C   UNL     1     117.272 120.817 125.806  1.00  0.00     0.007 C 
ATOM      8  C   UNL     1     117.841 118.376 125.727  1.00  0.00     0.007 C 
ENDBRANCH   3   6
ENDBRANCH   2   3
ENDBRANCH   1   2
BRANCH   1   9
ATOM      9  C   UNL     1     112.587 120.086 124.675  1.00  0.00    -0.011 C 
ATOM     10  C   UNL     1     111.900 118.973 123.861  1.00  0.00     0.008 C 
BRANCH   9  11
ATOM     11  C   UNL     1     113.770 120.827 123.944  1.00  0.00    -0.002 C 
ATOM     12  C   UNL     1     114.066 122.209 124.550  1.00  0.00     0.005 C 
ATOM     13  C   UNL     1     113.794 120.983 122.374  1.00  0.00    -0.026 C 
ATOM     14  C   UNL     1     114.173 123.191 123.394  1.00  0.00     0.005 C 
ATOM     15  C   UNL     1     114.466 122.368 122.125  1.00  0.00    -0.001 C 
ATOM     16  C   UNL     1     114.579 119.827 121.684  1.00  0.00     0.007 C 
ATOM     17  C   UNL     1     112.389 121.033 121.720  1.00  0.00     0.012 C 
ATOM     18  C   UNL     1     115.984 122.331 121.752  1.00  0.00     0.000 C 
ATOM     19  C   UNL     1     116.092 119.784 121.944  1.00  0.00     0.005 C 
ATOM     20  C   UNL     1     116.745 121.132 122.371  1.00  0.00     0.003 C 
ATOM     21  C   UNL     1     116.184 122.367 120.222  1.00  0.00     0.031 C 
ATOM     22  C   UNL     1     118.294 121.225 122.053  1.00  0.00    -0.008 C 
ATOM     23  C   UNL     1     117.617 122.170 119.804  1.00  0.00    -0.027 C 
ATOM     24  C   UNL     1     118.552 121.560 120.579  1.00  0.00    -0.065 C 
ATOM     25  C   UNL     1     119.015 119.884 122.427  1.00  0.00     0.014 C 
ATOM     26  C   UNL     1     118.921 122.356 122.912  1.00  0.00     0.016 C 
ATOM     27  C   UNL     1     119.964 121.425 120.045  1.00  0.00     0.063 C 
ATOM     28  C   UNL     1     120.460 119.771 121.899  1.00  0.00     0.033 C 
ATOM     29  C   UNL     1     120.540 120.053 120.384  1.00  0.00     0.118 C 
BRANCH  29  30
ATOM     30  O   UNL     1     119.837 119.073 119.659  1.00  0.00    -0.393 OA
ATOM     31  H   UNL     1     119.495 118.410 120.296  1.00  0.00     0.210 HD
ENDBRANCH  29  30
ENDBRANCH   9  11
ENDBRANCH   1   9
TORSDOF 7
ENDMDL
MODEL 9
REMARK VINA RESULT:    -6.325      2.128      4.022
REMARK INTER + INTRA:         -10.323
REMARK INTER:                  -8.248
REMARK INTRA:                  -2.075
REMARK UNBOUND:                -1.594
REMARK SMILES CC[C@H](CC[C@H](C)[C@@H]1CC[C@H]2[C@@H]3CC=C4C[C@H](O)CC[C@]4(C)[C@@H]3CC[C@]21C)C(C)C
REMARK SMILES IDX 5 1 4 2 3 3 2 4 1 5 28 6 29 7 30 8 6 9 7 10 8 11 9 12 26 13
REMARK SMILES IDX 10 14 11 15 25 16 27 17 12 18 24 19 23 20 13 21 21 22 14 23
REMARK SMILES IDX 15 24 20 25 22 26 16 27 19 28 17 29 18 30
REMARK H PARENT 18 31
REMARK Flexibility Score: inf
ROOT
ATOM      1  C   UNL     1     114.780 123.706 123.685  1.00  0.00     0.004 C 
ENDROOT
BRANCH   1   2
ATOM      2  C   UNL     1     114.244 124.297 122.356  1.00  0.00     0.004 C 
BRANCH   2   3
ATOM      3  C   UNL     1     114.078 123.388 121.088  1.00  0.00    -0.009 C 
BRANCH   3   4
ATOM      4  C   UNL     1     115.416 123.099 120.330  1.00  0.00     0.000 C 
ATOM      5  C   UNL     1     116.124 124.389 119.899  1.00  0.00     0.004 C 
ENDBRANCH   3   4
BRANCH   3   6
ATOM      6  C   UNL     1     113.199 122.117 121.404  1.00  0.00    -0.014 C 
ATOM      7  C   UNL     1     111.946 122.059 120.472  1.00  0.00     0.007 C 
ATOM      8  C   UNL     1     113.953 120.780 121.259  1.00  0.00     0.007 C 
ENDBRANCH   3   6
ENDBRANCH   2   3
ENDBRANCH   1   2
BRANCH   1   9
ATOM      9  C   UNL     1     116.318 123.606 123.846  1.00  0.00    -0.011 C 
ATOM     10  C   UNL     1     117.053 124.884 123.399  1.00  0.00     0.008 C 
BRANCH   9  11
ATOM     11  C   UNL     1     116.863 122.263 123.229  1.00  0.00    -0.002 C 
ATOM     12  C   UNL     1     116.086 121.029 123.719  1.00  0.00     0.005 C 
ATOM     13  C   UNL     1     118.399 121.902 123.273  1.00  0.00    -0.026 C 
ATOM     14  C   UNL     1     117.114 119.989 124.136  1.00  0.00     0.005 C 
ATOM     15  C   UNL     1     118.436 120.353 123.437  1.00  0.00    -0.001 C 
ATOM     16  C   UNL     1     119.144 122.367 121.986  1.00  0.00     0.007 C 
ATOM     17  C   UNL     1     119.157 122.508 124.482  1.00  0.00     0.012 C 
ATOM     18  C   UNL     1     118.685 119.535 122.126  1.00  0.00     0.000 C 
ATOM     19  C   UNL     1     118.766 121.645 120.684  1.00  0.00     0.005 C 
ATOM     20  C   UNL     1     118.141 120.229 120.852  1.00  0.00     0.003 C 
ATOM     21  C   UNL     1     120.179 119.190 121.959  1.00  0.00     0.031 C 
ATOM     22  C   UNL     1     118.317 119.294 119.585  1.00  0.00    -0.008 C 
ATOM     23  C   UNL     1     120.496 118.546 120.635  1.00  0.00    -0.027 C 
ATOM     24  C   UNL     1     119.719 118.674 119.527  1.00  0.00    -0.065 C 
ATOM     25  C   UNL     1     118.035 120.093 118.266  1.00  0.00     0.014 C 
ATOM     26  C   UNL     1     117.290 118.132 119.665  1.00  0.00     0.016 C 
ATOM     27  C   UNL     1     120.145 117.974 118.253  1.00  0.00     0.063 C 
ATOM     28  C   UNL     1     118.450 119.358 116.976  1.00  0.00     0.033 C 
ATOM     29  C   UNL     1     119.913 118.870 117.040  1.00  0.00     0.118 C 
BRANCH  29  30
ATOM     30  O   UNL     1     120.798 119.963 117.108  1.00  0.00    -0.393 OA
ATOM     31  H   UNL     1     120.751 120.337 118.014  1.00  0.00     0.210 HD
ENDBRANCH  29  30
ENDBRANCH   9  11
ENDBRANCH   1   9
TORSDOF 7
ENDMDL
