MODEL 1
REMARK VINA RESULT:    -5.023      0.000      0.000
REMARK INTER + INTRA:         -10.229
REMARK INTER:                  -9.133
REMARK INTRA:                  -1.096
REMARK UNBOUND:                -1.096
REMARK SMILES CCCCCCCCCCCCCCCC(=O)[O-]
REMARK SMILES IDX 9 1 10 2 11 3 12 4 13 5 14 6 15 7 16 8 17 9 18 10 8 11 7 12
REMARK SMILES IDX 6 13 5 14 4 15 3 16 2 17 1 18
REMARK H PARENT
REMARK Flexibility Score: inf
ROOT
ATOM      1  C   UNL     1      -1.941   4.537  15.748  1.00  0.00     0.000 C 
ENDROOT
BRANCH   1   2
ATOM      2  C   UNL     1      -2.730   3.246  15.482  1.00  0.00     0.000 C 
BRANCH   2   3
ATOM      3  C   UNL     1      -3.375   2.675  16.754  1.00  0.00     0.000 C 
BRANCH   3   4
ATOM      4  C   UNL     1      -4.898   2.574  16.600  1.00  0.00     0.000 C 
BRANCH   4   5
ATOM      5  C   UNL     1      -5.583   3.873  17.051  1.00  0.00     0.000 C 
BRANCH   5   6
ATOM      6  C   UNL     1      -6.082   4.721  15.871  1.00  0.00     0.006 C 
BRANCH   6   7
ATOM      7  C   UNL     1      -5.407   6.098  15.806  1.00  0.00     0.053 C 
BRANCH   7   8
ATOM      8  C   UNL     1      -6.352   7.165  16.258  1.00  0.00     0.041 C 
ATOM      9  O   UNL     1      -7.595   7.015  16.112  1.00  0.00    -0.550 OA
ATOM     10  O   UNL     1      -5.861   8.347  16.798  1.00  0.00    -0.550 OA
ENDBRANCH   7   8
ENDBRANCH   6   7
ENDBRANCH   5   6
ENDBRANCH   4   5
ENDBRANCH   3   4
ENDBRANCH   2   3
ENDBRANCH   1   2
BRANCH   1  11
ATOM     11  C   UNL     1      -1.026   4.427  16.977  1.00  0.00     0.000 C 
BRANCH  11  12
ATOM     12  C   UNL     1      -0.195   5.703  17.158  1.00  0.00    -0.000 C 
BRANCH  12  13
ATOM     13  C   UNL     1       0.083   5.972  18.645  1.00  0.00    -0.000 C 
BRANCH  13  14
ATOM     14  C   UNL     1       0.492   7.430  18.915  1.00  0.00    -0.000 C 
BRANCH  14  15
ATOM     15  C   UNL     1       0.294   7.837  20.385  1.00  0.00    -0.000 C 
BRANCH  15  16
ATOM     16  C   UNL     1      -0.383   6.736  21.217  1.00  0.00    -0.000 C 
BRANCH  16  17
ATOM     17  C   UNL     1       0.078   6.736  22.683  1.00  0.00    -0.003 C 
ATOM     18  C   UNL     1       1.599   6.683  22.780  1.00  0.00     0.004 C 
ENDBRANCH  16  17
ENDBRANCH  15  16
ENDBRANCH  14  15
ENDBRANCH  13  14
ENDBRANCH  12  13
ENDBRANCH  11  12
ENDBRANCH   1  11
TORSDOF 14
ENDMDL
MODEL 2
REMARK VINA RESULT:    -4.878      1.902      2.177
REMARK INTER + INTRA:          -9.966
REMARK INTER:                  -9.145
REMARK INTRA:                  -0.821
REMARK UNBOUND:                -1.096
REMARK SMILES CCCCCCCCCCCCCCCC(=O)[O-]
REMARK SMILES IDX 9 1 10 2 11 3 12 4 13 5 14 6 15 7 16 8 17 9 18 10 8 11 7 12
REMARK SMILES IDX 6 13 5 14 4 15 3 16 2 17 1 18
REMARK H PARENT
REMARK Flexibility Score: inf
ROOT
ATOM      1  C   UNL     1      -1.336   3.759  16.300  1.00  0.00     0.000 C 
ENDROOT
BRANCH   1   2
ATOM      2  C   UNL     1      -2.606   3.078  15.766  1.00  0.00     0.000 C 
BRANCH   2   3
ATOM      3  C   UNL     1      -3.650   2.831  16.864  1.00  0.00     0.000 C 
BRANCH   3   4
ATOM      4  C   UNL     1      -5.057   3.200  16.378  1.00  0.00     0.000 C 
BRANCH   4   5
ATOM      5  C   UNL     1      -5.275   4.721  16.428  1.00  0.00     0.000 C 
BRANCH   5   6
ATOM      6  C   UNL     1      -6.604   5.151  15.788  1.00  0.00     0.006 C 
BRANCH   6   7
ATOM      7  C   UNL     1      -6.436   5.627  14.339  1.00  0.00     0.053 C 
BRANCH   7   8
ATOM      8  C   UNL     1      -6.521   4.470  13.396  1.00  0.00     0.041 C 
ATOM      9  O   UNL     1      -5.498   4.089  12.766  1.00  0.00    -0.550 OA
ATOM     10  O   UNL     1      -7.739   3.840  13.174  1.00  0.00    -0.550 OA
ENDBRANCH   7   8
ENDBRANCH   6   7
ENDBRANCH   5   6
ENDBRANCH   4   5
ENDBRANCH   3   4
ENDBRANCH   2   3
ENDBRANCH   1   2
BRANCH   1  11
ATOM     11  C   UNL     1      -1.581   5.215  16.727  1.00  0.00     0.000 C 
BRANCH  11  12
ATOM     12  C   UNL     1      -0.259   5.921  17.051  1.00  0.00    -0.000 C 
BRANCH  12  13
ATOM     13  C   UNL     1      -0.047   6.020  18.569  1.00  0.00    -0.000 C 
BRANCH  13  14
ATOM     14  C   UNL     1       0.502   7.391  19.000  1.00  0.00    -0.000 C 
BRANCH  14  15
ATOM     15  C   UNL     1       0.790   7.464  20.509  1.00  0.00    -0.000 C 
BRANCH  15  16
ATOM     16  C   UNL     1      -0.310   6.803  21.354  1.00  0.00    -0.000 C 
BRANCH  16  17
ATOM     17  C   UNL     1       0.140   6.525  22.796  1.00  0.00    -0.003 C 
ATOM     18  C   UNL     1       1.659   6.592  22.920  1.00  0.00     0.004 C 
ENDBRANCH  16  17
ENDBRANCH  15  16
ENDBRANCH  14  15
ENDBRANCH  13  14
ENDBRANCH  12  13
ENDBRANCH  11  12
ENDBRANCH   1  11
TORSDOF 14
ENDMDL
MODEL 3
REMARK VINA RESULT:    -4.777      3.198      7.362
REMARK INTER + INTRA:          -9.783
REMARK INTER:                  -8.768
REMARK INTRA:                  -1.015
REMARK UNBOUND:                -1.096
REMARK SMILES CCCCCCCCCCCCCCCC(=O)[O-]
REMARK SMILES IDX 9 1 10 2 11 3 12 4 13 5 14 6 15 7 16 8 17 9 18 10 8 11 7 12
REMARK SMILES IDX 6 13 5 14 4 15 3 16 2 17 1 18
REMARK H PARENT
REMARK Flexibility Score: inf
ROOT
ATOM      1  C   UNL     1       0.059   5.976  17.381  1.00  0.00     0.000 C 
ENDROOT
BRANCH   1   2
ATOM      2  C   UNL     1       0.624   7.185  16.619  1.00  0.00     0.000 C 
BRANCH   2   3
ATOM      3  C   UNL     1       1.427   8.131  17.526  1.00  0.00     0.000 C 
BRANCH   3   4
ATOM      4  C   UNL     1       0.580   8.602  18.715  1.00  0.00     0.000 C 
BRANCH   4   5
ATOM      5  C   UNL     1       1.322   8.376  20.042  1.00  0.00     0.000 C 
BRANCH   5   6
ATOM      6  C   UNL     1       1.077   6.977  20.628  1.00  0.00     0.006 C 
BRANCH   6   7
ATOM      7  C   UNL     1      -0.314   6.838  21.262  1.00  0.00     0.053 C 
BRANCH   7   8
ATOM      8  C   UNL     1      -0.196   6.625  22.737  1.00  0.00     0.041 C 
ATOM      9  O   UNL     1       0.938   6.504  23.272  1.00  0.00    -0.550 OA
ATOM     10  O   UNL     1      -1.340   6.514  23.518  1.00  0.00    -0.550 OA
ENDBRANCH   7   8
ENDBRANCH   6   7
ENDBRANCH   5   6
ENDBRANCH   4   5
ENDBRANCH   3   4
ENDBRANCH   2   3
ENDBRANCH   1   2
BRANCH   1  11
ATOM     11  C   UNL     1      -0.492   4.891  16.442  1.00  0.00     0.000 C 
BRANCH  11  12
ATOM     12  C   UNL     1      -2.003   4.715  16.635  1.00  0.00    -0.000 C 
BRANCH  12  13
ATOM     13  C   UNL     1      -2.437   3.282  16.294  1.00  0.00    -0.000 C 
BRANCH  13  14
ATOM     14  C   UNL     1      -3.966   3.131  16.211  1.00  0.00    -0.000 C 
BRANCH  14  15
ATOM     15  C   UNL     1      -4.640   4.323  15.511  1.00  0.00    -0.000 C 
BRANCH  15  16
ATOM     16  C   UNL     1      -5.795   4.916  16.334  1.00  0.00    -0.000 C 
BRANCH  16  17
ATOM     17  C   UNL     1      -5.403   6.221  17.044  1.00  0.00    -0.003 C 
ATOM     18  C   UNL     1      -6.165   6.383  18.355  1.00  0.00     0.004 C 
ENDBRANCH  16  17
ENDBRANCH  15  16
ENDBRANCH  14  15
ENDBRANCH  13  14
ENDBRANCH  12  13
ENDBRANCH  11  12
ENDBRANCH   1  11
TORSDOF 14
ENDMDL
MODEL 4
REMARK VINA RESULT:    -4.730      3.477      7.502
REMARK INTER + INTRA:          -9.697
REMARK INTER:                  -7.892
REMARK INTRA:                  -1.804
REMARK UNBOUND:                -1.096
REMARK SMILES CCCCCCCCCCCCCCCC(=O)[O-]
REMARK SMILES IDX 9 1 10 2 11 3 12 4 13 5 14 6 15 7 16 8 17 9 18 10 8 11 7 12
REMARK SMILES IDX 6 13 5 14 4 15 3 16 2 17 1 18
REMARK H PARENT
REMARK Flexibility Score: inf
ROOT
ATOM      1  C   UNL     1      -5.362   5.406  17.362  1.00  0.00     0.000 C 
ENDROOT
BRANCH   1   2
ATOM      2  C   UNL     1      -5.558   4.327  16.286  1.00  0.00     0.000 C 
BRANCH   2   3
ATOM      3  C   UNL     1      -5.010   2.958  16.716  1.00  0.00     0.000 C 
BRANCH   3   4
ATOM      4  C   UNL     1      -3.478   2.934  16.648  1.00  0.00     0.000 C 
BRANCH   4   5
ATOM      5  C   UNL     1      -2.971   3.665  15.394  1.00  0.00     0.000 C 
BRANCH   5   6
ATOM      6  C   UNL     1      -1.810   4.624  15.696  1.00  0.00     0.006 C 
BRANCH   6   7
ATOM      7  C   UNL     1      -0.997   4.199  16.927  1.00  0.00     0.053 C 
BRANCH   7   8
ATOM      8  C   UNL     1      -0.201   5.352  17.451  1.00  0.00     0.041 C 
ATOM      9  O   UNL     1       0.424   6.104  16.657  1.00  0.00    -0.550 OA
ATOM     10  O   UNL     1      -0.110   5.569  18.820  1.00  0.00    -0.550 OA
ENDBRANCH   7   8
ENDBRANCH   6   7
ENDBRANCH   5   6
ENDBRANCH   4   5
ENDBRANCH   3   4
ENDBRANCH   2   3
ENDBRANCH   1   2
BRANCH   1  11
ATOM     11  C   UNL     1      -5.848   6.790  16.905  1.00  0.00     0.000 C 
BRANCH  11  12
ATOM     12  C   UNL     1      -7.377   6.824  16.790  1.00  0.00    -0.000 C 
BRANCH  12  13
ATOM     13  C   UNL     1      -7.813   7.174  15.359  1.00  0.00    -0.000 C 
BRANCH  13  14
ATOM     14  C   UNL     1      -8.423   5.973  14.617  1.00  0.00    -0.000 C 
BRANCH  14  15
ATOM     15  C   UNL     1      -7.760   5.722  13.251  1.00  0.00    -0.000 C 
BRANCH  15  16
ATOM     16  C   UNL     1      -6.312   6.232  13.195  1.00  0.00    -0.000 C 
BRANCH  16  17
ATOM     17  C   UNL     1      -5.406   5.341  12.332  1.00  0.00    -0.003 C 
ATOM     18  C   UNL     1      -5.615   3.866  12.657  1.00  0.00     0.004 C 
ENDBRANCH  16  17
ENDBRANCH  15  16
ENDBRANCH  14  15
ENDBRANCH  13  14
ENDBRANCH  12  13
ENDBRANCH  11  12
ENDBRANCH   1  11
TORSDOF 14
ENDMDL
MODEL 5
REMARK VINA RESULT:    -4.703      3.018      7.256
REMARK INTER + INTRA:          -9.648
REMARK INTER:                  -8.367
REMARK INTRA:                  -1.281
REMARK UNBOUND:                -1.096
REMARK SMILES CCCCCCCCCCCCCCCC(=O)[O-]
REMARK SMILES IDX 9 1 10 2 11 3 12 4 13 5 14 6 15 7 16 8 17 9 18 10 8 11 7 12
REMARK SMILES IDX 6 13 5 14 4 15 3 16 2 17 1 18
REMARK H PARENT
REMARK Flexibility Score: inf
ROOT
ATOM      1  C   UNL     1      -2.975   2.713  16.874  1.00  0.00     0.000 C 
ENDROOT
BRANCH   1   2
ATOM      2  C   UNL     1      -2.415   3.764  15.904  1.00  0.00     0.000 C 
BRANCH   2   3
ATOM      3  C   UNL     1      -1.891   5.015  16.627  1.00  0.00     0.000 C 
BRANCH   3   4
ATOM      4  C   UNL     1      -0.363   5.108  16.526  1.00  0.00     0.000 C 
BRANCH   4   5
ATOM      5  C   UNL     1       0.176   6.255  17.395  1.00  0.00     0.000 C 
BRANCH   5   6
ATOM      6  C   UNL     1      -0.204   6.105  18.877  1.00  0.00     0.006 C 
BRANCH   6   7
ATOM      7  C   UNL     1       0.204   7.323  19.718  1.00  0.00     0.053 C 
BRANCH   7   8
ATOM      8  C   UNL     1       0.483   6.913  21.128  1.00  0.00     0.041 C 
ATOM      9  O   UNL     1       1.670   6.766  21.524  1.00  0.00    -0.550 OA
ATOM     10  O   UNL     1      -0.569   6.648  21.997  1.00  0.00    -0.550 OA
ENDBRANCH   7   8
ENDBRANCH   6   7
ENDBRANCH   5   6
ENDBRANCH   4   5
ENDBRANCH   3   4
ENDBRANCH   2   3
ENDBRANCH   1   2
BRANCH   1  11
ATOM     11  C   UNL     1      -4.505   2.593  16.796  1.00  0.00     0.000 C 
BRANCH  11  12
ATOM     12  C   UNL     1      -5.054   3.363  15.588  1.00  0.00    -0.000 C 
BRANCH  12  13
ATOM     13  C   UNL     1      -6.076   4.422  16.030  1.00  0.00    -0.000 C 
BRANCH  13  14
ATOM     14  C   UNL     1      -7.053   4.804  14.906  1.00  0.00    -0.000 C 
BRANCH  14  15
ATOM     15  C   UNL     1      -6.791   6.214  14.348  1.00  0.00    -0.000 C 
BRANCH  15  16
ATOM     16  C   UNL     1      -5.966   7.085  15.308  1.00  0.00    -0.000 C 
BRANCH  16  17
ATOM     17  C   UNL     1      -4.740   7.713  14.629  1.00  0.00    -0.003 C 
ATOM     18  C   UNL     1      -3.983   6.681  13.799  1.00  0.00     0.004 C 
ENDBRANCH  16  17
ENDBRANCH  15  16
ENDBRANCH  14  15
ENDBRANCH  13  14
ENDBRANCH  12  13
ENDBRANCH  11  12
ENDBRANCH   1  11
TORSDOF 14
ENDMDL
MODEL 6
REMARK VINA RESULT:    -4.666      4.576      7.463
REMARK INTER + INTRA:          -9.580
REMARK INTER:                  -7.176
REMARK INTRA:                  -2.404
REMARK UNBOUND:                -1.096
REMARK SMILES CCCCCCCCCCCCCCCC(=O)[O-]
REMARK SMILES IDX 9 1 10 2 11 3 12 4 13 5 14 6 15 7 16 8 17 9 18 10 8 11 7 12
REMARK SMILES IDX 6 13 5 14 4 15 3 16 2 17 1 18
REMARK H PARENT
REMARK Flexibility Score: inf
ROOT
ATOM      1  C   UNL     1      -7.441   6.509  14.436  1.00  0.00     0.000 C 
ENDROOT
BRANCH   1   2
ATOM      2  C   UNL     1      -7.238   5.988  15.868  1.00  0.00     0.000 C 
BRANCH   2   3
ATOM      3  C   UNL     1      -6.029   6.630  16.564  1.00  0.00     0.000 C 
BRANCH   3   4
ATOM      4  C   UNL     1      -4.861   5.640  16.661  1.00  0.00     0.000 C 
BRANCH   4   5
ATOM      5  C   UNL     1      -5.367   4.222  16.972  1.00  0.00     0.000 C 
BRANCH   5   6
ATOM      6  C   UNL     1      -4.532   3.131  16.284  1.00  0.00     0.006 C 
BRANCH   6   7
ATOM      7  C   UNL     1      -3.338   3.702  15.507  1.00  0.00     0.053 C 
BRANCH   7   8
ATOM      8  C   UNL     1      -2.053   3.324  16.172  1.00  0.00     0.041 C 
ATOM      9  O   UNL     1      -2.010   2.337  16.953  1.00  0.00    -0.550 OA
ATOM     10  O   UNL     1      -0.911   4.088  15.966  1.00  0.00    -0.550 OA
ENDBRANCH   7   8
ENDBRANCH   6   7
ENDBRANCH   5   6
ENDBRANCH   4   5
ENDBRANCH   3   4
ENDBRANCH   2   3
ENDBRANCH   1   2
BRANCH   1  11
ATOM     11  C   UNL     1      -7.874   5.403  13.461  1.00  0.00     0.000 C 
BRANCH  11  12
ATOM     12  C   UNL     1      -7.005   4.151  13.631  1.00  0.00    -0.000 C 
BRANCH  12  13
ATOM     13  C   UNL     1      -5.906   4.095  12.559  1.00  0.00    -0.000 C 
BRANCH  13  14
ATOM     14  C   UNL     1      -6.181   5.046  11.381  1.00  0.00    -0.000 C 
BRANCH  14  15
ATOM     15  C   UNL     1      -4.947   5.876  10.991  1.00  0.00    -0.000 C 
BRANCH  15  16
ATOM     16  C   UNL     1      -4.874   7.216  11.741  1.00  0.00    -0.000 C 
BRANCH  16  17
ATOM     17  C   UNL     1      -4.136   7.101  13.083  1.00  0.00    -0.003 C 
ATOM     18  C   UNL     1      -4.192   8.416  13.855  1.00  0.00     0.004 C 
ENDBRANCH  16  17
ENDBRANCH  15  16
ENDBRANCH  14  15
ENDBRANCH  13  14
ENDBRANCH  12  13
ENDBRANCH  11  12
ENDBRANCH   1  11
TORSDOF 14
ENDMDL
MODEL 7
REMARK VINA RESULT:    -4.665      4.170      8.118
REMARK INTER + INTRA:          -9.579
REMARK INTER:                  -7.336
REMARK INTRA:                  -2.242
REMARK UNBOUND:                -1.096
REMARK SMILES CCCCCCCCCCCCCCCC(=O)[O-]
REMARK SMILES IDX 9 1 10 2 11 3 12 4 13 5 14 6 15 7 16 8 17 9 18 10 8 11 7 12
REMARK SMILES IDX 6 13 5 14 4 15 3 16 2 17 1 18
REMARK H PARENT
REMARK Flexibility Score: inf
ROOT
ATOM      1  C   UNL     1      -7.532   6.810  16.336  1.00  0.00     0.000 C 
ENDROOT
BRANCH   1   2
ATOM      2  C   UNL     1      -6.171   7.059  15.667  1.00  0.00     0.000 C 
BRANCH   2   3
ATOM      3  C   UNL     1      -5.108   6.035  16.091  1.00  0.00     0.000 C 
BRANCH   3   4
ATOM      4  C   UNL     1      -5.679   5.040  17.110  1.00  0.00     0.000 C 
BRANCH   4   5
ATOM      5  C   UNL     1      -5.298   3.597  16.743  1.00  0.00     0.000 C 
BRANCH   5   6
ATOM      6  C   UNL     1      -4.160   3.528  15.713  1.00  0.00     0.006 C 
BRANCH   6   7
ATOM      7  C   UNL     1      -2.891   2.876  16.278  1.00  0.00     0.053 C 
BRANCH   7   8
ATOM      8  C   UNL     1      -1.761   3.855  16.290  1.00  0.00     0.041 C 
ATOM      9  O   UNL     1      -1.613   4.665  15.336  1.00  0.00    -0.550 OA
ATOM     10  O   UNL     1      -0.841   3.844  17.332  1.00  0.00    -0.550 OA
ENDBRANCH   7   8
ENDBRANCH   6   7
ENDBRANCH   5   6
ENDBRANCH   4   5
ENDBRANCH   3   4
ENDBRANCH   2   3
ENDBRANCH   1   2
BRANCH   1  11
ATOM     11  C   UNL     1      -8.708   6.974  15.362  1.00  0.00     0.000 C 
BRANCH  11  12
ATOM     12  C   UNL     1      -8.253   6.762  13.912  1.00  0.00    -0.000 C 
BRANCH  12  13
ATOM     13  C   UNL     1      -8.775   5.426  13.362  1.00  0.00    -0.000 C 
BRANCH  13  14
ATOM     14  C   UNL     1      -7.821   4.255  13.654  1.00  0.00    -0.000 C 
BRANCH  14  15
ATOM     15  C   UNL     1      -6.504   4.354  12.866  1.00  0.00    -0.000 C 
BRANCH  15  16
ATOM     16  C   UNL     1      -6.730   4.536  11.357  1.00  0.00    -0.000 C 
BRANCH  16  17
ATOM     17  C   UNL     1      -6.014   5.775  10.798  1.00  0.00    -0.003 C 
ATOM     18  C   UNL     1      -5.079   6.385  11.838  1.00  0.00     0.004 C 
ENDBRANCH  16  17
ENDBRANCH  15  16
ENDBRANCH  14  15
ENDBRANCH  13  14
ENDBRANCH  12  13
ENDBRANCH  11  12
ENDBRANCH   1  11
TORSDOF 14
ENDMDL
MODEL 8
REMARK VINA RESULT:    -4.601      3.164      7.632
REMARK INTER + INTRA:          -9.463
REMARK INTER:                  -8.039
REMARK INTRA:                  -1.424
REMARK UNBOUND:                -1.096
REMARK SMILES CCCCCCCCCCCCCCCC(=O)[O-]
REMARK SMILES IDX 9 1 10 2 11 3 12 4 13 5 14 6 15 7 16 8 17 9 18 10 8 11 7 12
REMARK SMILES IDX 6 13 5 14 4 15 3 16 2 17 1 18
REMARK H PARENT
REMARK Flexibility Score: inf
ROOT
ATOM      1  C   UNL     1      -4.398   4.054  16.732  1.00  0.00     0.000 C 
ENDROOT
BRANCH   1   2
ATOM      2  C   UNL     1      -3.734   4.200  15.354  1.00  0.00     0.000 C 
BRANCH   2   3
ATOM      3  C   UNL     1      -2.449   5.041  15.403  1.00  0.00     0.000 C 
BRANCH   3   4
ATOM      4  C   UNL     1      -1.248   4.184  15.824  1.00  0.00     0.000 C 
BRANCH   4   5
ATOM      5  C   UNL     1      -0.842   4.482  17.276  1.00  0.00     0.000 C 
BRANCH   5   6
ATOM      6  C   UNL     1      -0.106   5.823  17.423  1.00  0.00     0.006 C 
BRANCH   6   7
ATOM      7  C   UNL     1      -0.093   6.335  18.870  1.00  0.00     0.053 C 
BRANCH   7   8
ATOM      8  C   UNL     1       0.539   7.688  18.939  1.00  0.00     0.041 C 
ATOM      9  O   UNL     1       0.554   8.326  20.025  1.00  0.00    -0.550 OA
ATOM     10  O   UNL     1       1.072   8.267  17.794  1.00  0.00    -0.550 OA
ENDBRANCH   7   8
ENDBRANCH   6   7
ENDBRANCH   5   6
ENDBRANCH   4   5
ENDBRANCH   3   4
ENDBRANCH   2   3
ENDBRANCH   1   2
BRANCH   1  11
ATOM     11  C   UNL     1      -5.738   4.800  16.823  1.00  0.00     0.000 C 
BRANCH  11  12
ATOM     12  C   UNL     1      -5.520   6.318  16.839  1.00  0.00    -0.000 C 
BRANCH  12  13
ATOM     13  C   UNL     1      -6.169   6.979  15.613  1.00  0.00    -0.000 C 
BRANCH  13  14
ATOM     14  C   UNL     1      -7.455   6.262  15.167  1.00  0.00    -0.000 C 
BRANCH  14  15
ATOM     15  C   UNL     1      -7.429   5.872  13.680  1.00  0.00    -0.000 C 
BRANCH  15  16
ATOM     16  C   UNL     1      -7.235   4.363  13.468  1.00  0.00    -0.000 C 
BRANCH  16  17
ATOM     17  C   UNL     1      -6.000   4.042  12.612  1.00  0.00    -0.003 C 
ATOM     18  C   UNL     1      -5.736   5.145  11.593  1.00  0.00     0.004 C 
ENDBRANCH  16  17
ENDBRANCH  15  16
ENDBRANCH  14  15
ENDBRANCH  13  14
ENDBRANCH  12  13
ENDBRANCH  11  12
ENDBRANCH   1  11
TORSDOF 14
ENDMDL
MODEL 9
REMARK VINA RESULT:    -4.488      5.216      7.803
REMARK INTER + INTRA:          -9.257
REMARK INTER:                  -6.557
REMARK INTRA:                  -2.701
REMARK UNBOUND:                -1.096
REMARK SMILES CCCCCCCCCCCCCCCC(=O)[O-]
REMARK SMILES IDX 9 1 10 2 11 3 12 4 13 5 14 6 15 7 16 8 17 9 18 10 8 11 7 12
REMARK SMILES IDX 6 13 5 14 4 15 3 16 2 17 1 18
REMARK H PARENT
REMARK Flexibility Score: inf
ROOT
ATOM      1  C   UNL     1      -8.709   6.117  11.943  1.00  0.00     0.000 C 
ENDROOT
BRANCH   1   2
ATOM      2  C   UNL     1      -8.765   5.252  13.212  1.00  0.00     0.000 C 
BRANCH   2   3
ATOM      3  C   UNL     1      -9.101   6.069  14.468  1.00  0.00     0.000 C 
BRANCH   3   4
ATOM      4  C   UNL     1      -7.974   5.974  15.504  1.00  0.00     0.000 C 
BRANCH   4   5
ATOM      5  C   UNL     1      -6.997   4.841  15.150  1.00  0.00     0.000 C 
BRANCH   5   6
ATOM      6  C   UNL     1      -5.654   4.964  15.887  1.00  0.00     0.006 C 
BRANCH   6   7
ATOM      7  C   UNL     1      -4.592   3.997  15.346  1.00  0.00     0.053 C 
BRANCH   7   8
ATOM      8  C   UNL     1      -4.300   2.928  16.348  1.00  0.00     0.041 C 
ATOM      9  O   UNL     1      -3.109   2.662  16.664  1.00  0.00    -0.550 OA
ATOM     10  O   UNL     1      -5.339   2.189  16.902  1.00  0.00    -0.550 OA
ENDBRANCH   7   8
ENDBRANCH   6   7
ENDBRANCH   5   6
ENDBRANCH   4   5
ENDBRANCH   3   4
ENDBRANCH   2   3
ENDBRANCH   1   2
BRANCH   1  11
ATOM     11  C   UNL     1      -7.745   5.554  10.887  1.00  0.00     0.000 C 
BRANCH  11  12
ATOM     12  C   UNL     1      -6.906   4.407  11.466  1.00  0.00    -0.000 C 
BRANCH  12  13
ATOM     13  C   UNL     1      -5.476   4.875  11.775  1.00  0.00    -0.000 C 
BRANCH  13  14
ATOM     14  C   UNL     1      -5.000   5.988  10.827  1.00  0.00    -0.000 C 
BRANCH  14  15
ATOM     15  C   UNL     1      -4.524   7.243  11.580  1.00  0.00    -0.000 C 
BRANCH  15  16
ATOM     16  C   UNL     1      -4.562   7.065  13.106  1.00  0.00    -0.000 C 
BRANCH  16  17
ATOM     17  C   UNL     1      -5.491   8.076  13.795  1.00  0.00    -0.003 C 
ATOM     18  C   UNL     1      -6.382   8.784  12.779  1.00  0.00     0.004 C 
ENDBRANCH  16  17
ENDBRANCH  15  16
ENDBRANCH  14  15
ENDBRANCH  13  14
ENDBRANCH  12  13
ENDBRANCH  11  12
ENDBRANCH   1  11
TORSDOF 14
ENDMDL
