MODEL 1
REMARK VINA RESULT:    -3.250      0.000      0.000
REMARK INTER + INTRA:          -3.861
REMARK INTER:                  -3.725
REMARK INTRA:                  -0.137
REMARK UNBOUND:                -0.137
REMARK SMILES O=C([O-])C=Cc1ccc(O)cc1
REMARK SMILES IDX 6 1 7 2 12 3 8 4 11 5 9 6 5 7 4 8 2 9 1 10 3 11 10 12
REMARK H PARENT 10 13
REMARK Flexibility Score: inf
ROOT
ATOM      1  C   UNL     1      -8.984   8.779  -0.362  1.00  0.00    -0.025 A 
ATOM      2  C   UNL     1      -7.709   8.995  -0.923  1.00  0.00     0.012 A 
ATOM      3  C   UNL     1     -10.066   8.513  -1.220  1.00  0.00     0.012 A 
ATOM      4  C   UNL     1      -7.524   8.921  -2.308  1.00  0.00     0.047 A 
ATOM      5  C   UNL     1      -9.876   8.440  -2.603  1.00  0.00     0.047 A 
ATOM      6  C   UNL     1      -8.603   8.642  -3.150  1.00  0.00     0.115 A 
ENDROOT
BRANCH   1   7
ATOM      7  C   UNL     1      -9.239   8.856   1.098  1.00  0.00     0.010 C 
ATOM      8  C   UNL     1      -9.157   7.805   1.925  1.00  0.00     0.025 C 
BRANCH   8   9
ATOM      9  C   UNL     1      -9.429   7.926   3.365  1.00  0.00     0.064 C 
ATOM     10  O   UNL     1     -10.124   8.888   3.788  1.00  0.00    -0.545 OA
ATOM     11  O   UNL     1      -8.933   6.994   4.271  1.00  0.00    -0.545 OA
ENDBRANCH   8   9
ENDBRANCH   1   7
BRANCH   6  12
ATOM     12  O   UNL     1      -8.402   8.571  -4.527  1.00  0.00    -0.508 OA
ATOM     13  H   UNL     1      -7.950   7.773  -4.956  1.00  0.00     0.293 HD
ENDBRANCH   6  12
TORSDOF 3
ENDMDL
MODEL 2
REMARK VINA RESULT:    -3.158     16.509     17.796
REMARK INTER + INTRA:          -3.756
REMARK INTER:                  -3.619
REMARK INTRA:                  -0.137
REMARK UNBOUND:                -0.137
REMARK SMILES O=C([O-])C=Cc1ccc(O)cc1
REMARK SMILES IDX 6 1 7 2 12 3 8 4 11 5 9 6 5 7 4 8 2 9 1 10 3 11 10 12
REMARK H PARENT 10 13
REMARK Flexibility Score: inf
ROOT
ATOM      1  C   UNL     1      -9.020  -8.746  -0.631  1.00  0.00    -0.025 A 
ATOM      2  C   UNL     1      -7.740  -8.916  -0.066  1.00  0.00     0.012 A 
ATOM      3  C   UNL     1     -10.125  -8.596   0.225  1.00  0.00     0.012 A 
ATOM      4  C   UNL     1      -7.575  -8.910   1.323  1.00  0.00     0.047 A 
ATOM      5  C   UNL     1      -9.954  -8.591   1.613  1.00  0.00     0.047 A 
ATOM      6  C   UNL     1      -8.677  -8.746   2.165  1.00  0.00     0.115 A 
ENDROOT
BRANCH   1   7
ATOM      7  C   UNL     1      -9.254  -8.756  -2.097  1.00  0.00     0.010 C 
ATOM      8  C   UNL     1      -9.568  -7.664  -2.808  1.00  0.00     0.025 C 
BRANCH   8   9
ATOM      9  C   UNL     1      -9.803  -7.723  -4.259  1.00  0.00     0.064 C 
ATOM     10  O   UNL     1      -9.737  -6.666  -4.942  1.00  0.00    -0.545 OA
ATOM     11  O   UNL     1     -10.095  -8.927  -4.892  1.00  0.00    -0.545 OA
ENDBRANCH   8   9
ENDBRANCH   1   7
BRANCH   6  12
ATOM     12  O   UNL     1      -8.496  -8.741   3.546  1.00  0.00    -0.508 OA
ATOM     13  H   UNL     1      -8.213  -9.576   4.046  1.00  0.00     0.293 HD
ENDBRANCH   6  12
TORSDOF 3
ENDMDL
MODEL 3
REMARK VINA RESULT:    -3.158     19.765     21.495
REMARK INTER + INTRA:          -3.756
REMARK INTER:                  -3.622
REMARK INTRA:                  -0.134
REMARK UNBOUND:                -0.137
REMARK SMILES O=C([O-])C=Cc1ccc(O)cc1
REMARK SMILES IDX 6 1 7 2 12 3 8 4 11 5 9 6 5 7 4 8 2 9 1 10 3 11 10 12
REMARK H PARENT 10 13
REMARK Flexibility Score: inf
ROOT
ATOM      1  C   UNL     1       1.137  -8.440   8.429  1.00  0.00    -0.025 A 
ATOM      2  C   UNL     1       2.013  -7.861   7.489  1.00  0.00     0.012 A 
ATOM      3  C   UNL     1       1.555  -9.585   9.130  1.00  0.00     0.012 A 
ATOM      4  C   UNL     1       3.284  -8.405   7.278  1.00  0.00     0.047 A 
ATOM      5  C   UNL     1       2.827 -10.125   8.915  1.00  0.00     0.047 A 
ATOM      6  C   UNL     1       3.695  -9.534   7.990  1.00  0.00     0.115 A 
ENDROOT
BRANCH   1   7
ATOM      7  C   UNL     1      -0.226  -7.910   8.684  1.00  0.00     0.010 C 
ATOM      8  C   UNL     1      -0.469  -6.754   9.317  1.00  0.00     0.025 C 
BRANCH   8   9
ATOM      9  C   UNL     1      -1.839  -6.273   9.558  1.00  0.00     0.064 C 
ATOM     10  O   UNL     1      -2.144  -5.090   9.253  1.00  0.00    -0.545 OA
ATOM     11  O   UNL     1      -2.805  -7.105  10.115  1.00  0.00    -0.545 OA
ENDBRANCH   8   9
ENDBRANCH   1   7
BRANCH   6  12
ATOM     12  O   UNL     1       4.964 -10.064   7.769  1.00  0.00    -0.508 OA
ATOM     13  H   UNL     1       5.235 -10.433   6.865  1.00  0.00     0.293 HD
ENDBRANCH   6  12
TORSDOF 3
ENDMDL
MODEL 4
REMARK VINA RESULT:    -3.136      1.735      5.724
REMARK INTER + INTRA:          -3.731
REMARK INTER:                  -3.593
REMARK INTRA:                  -0.138
REMARK UNBOUND:                -0.137
REMARK SMILES O=C([O-])C=Cc1ccc(O)cc1
REMARK SMILES IDX 6 1 7 2 12 3 8 4 11 5 9 6 5 7 4 8 2 9 1 10 3 11 10 12
REMARK H PARENT 10 13
REMARK Flexibility Score: inf
ROOT
ATOM      1  C   UNL     1      -8.396   8.645   0.626  1.00  0.00    -0.025 A 
ATOM      2  C   UNL     1      -7.815   7.717   1.514  1.00  0.00     0.012 A 
ATOM      3  C   UNL     1      -9.562   9.322   1.021  1.00  0.00     0.012 A 
ATOM      4  C   UNL     1      -8.380   7.496   2.775  1.00  0.00     0.047 A 
ATOM      5  C   UNL     1     -10.123   9.098   2.282  1.00  0.00     0.047 A 
ATOM      6  C   UNL     1      -9.531   8.185   3.163  1.00  0.00     0.115 A 
ENDROOT
BRANCH   1   7
ATOM      7  C   UNL     1      -7.845   8.909  -0.726  1.00  0.00     0.010 C 
ATOM      8  C   UNL     1      -6.609   9.379  -0.948  1.00  0.00     0.025 C 
BRANCH   8   9
ATOM      9  C   UNL     1      -6.108   9.637  -2.307  1.00  0.00     0.064 C 
ATOM     10  O   UNL     1      -6.923   9.724  -3.264  1.00  0.00    -0.545 OA
ATOM     11  O   UNL     1      -4.748   9.789  -2.554  1.00  0.00    -0.545 OA
ENDBRANCH   8   9
ENDBRANCH   1   7
BRANCH   6  12
ATOM     12  O   UNL     1     -10.081   7.954   4.421  1.00  0.00    -0.508 OA
ATOM     13  H   UNL     1     -11.083   7.967   4.572  1.00  0.00     0.293 HD
ENDBRANCH   6  12
TORSDOF 3
ENDMDL
MODEL 5
REMARK VINA RESULT:    -3.122     20.462     22.326
REMARK INTER + INTRA:          -3.715
REMARK INTER:                  -3.579
REMARK INTRA:                  -0.136
REMARK UNBOUND:                -0.137
REMARK SMILES O=C([O-])C=Cc1ccc(O)cc1
REMARK SMILES IDX 6 1 7 2 12 3 8 4 11 5 9 6 5 7 4 8 2 9 1 10 3 11 10 12
REMARK H PARENT 10 13
REMARK Flexibility Score: inf
ROOT
ATOM      1  C   UNL     1       0.841  -9.037   8.598  1.00  0.00    -0.025 A 
ATOM      2  C   UNL     1       0.267  -7.788   8.911  1.00  0.00     0.012 A 
ATOM      3  C   UNL     1      -0.009 -10.125   8.331  1.00  0.00     0.012 A 
ATOM      4  C   UNL     1      -1.123  -7.633   8.930  1.00  0.00     0.047 A 
ATOM      5  C   UNL     1      -1.398  -9.965   8.351  1.00  0.00     0.047 A 
ATOM      6  C   UNL     1      -1.958  -8.717   8.649  1.00  0.00     0.115 A 
ENDROOT
BRANCH   1   7
ATOM      7  C   UNL     1       2.307  -9.260   8.574  1.00  0.00     0.010 C 
ATOM      8  C   UNL     1       3.076  -9.048   7.497  1.00  0.00     0.025 C 
BRANCH   8   9
ATOM      9  C   UNL     1       4.526  -9.293   7.516  1.00  0.00     0.064 C 
ATOM     10  O   UNL     1       5.005 -10.125   8.331  1.00  0.00    -0.545 OA
ATOM     11  O   UNL     1       5.379  -8.623   6.645  1.00  0.00    -0.545 OA
ENDBRANCH   8   9
ENDBRANCH   1   7
BRANCH   6  12
ATOM     12  O   UNL     1      -3.340  -8.546   8.672  1.00  0.00    -0.508 OA
ATOM     13  H   UNL     1      -3.777  -7.712   8.297  1.00  0.00     0.293 HD
ENDBRANCH   6  12
TORSDOF 3
ENDMDL
MODEL 6
REMARK VINA RESULT:    -3.107     10.280     11.709
REMARK INTER + INTRA:          -3.698
REMARK INTER:                  -3.555
REMARK INTRA:                  -0.143
REMARK UNBOUND:                -0.137
REMARK SMILES O=C([O-])C=Cc1ccc(O)cc1
REMARK SMILES IDX 6 1 7 2 12 3 8 4 11 5 9 6 5 7 4 8 2 9 1 10 3 11 10 12
REMARK H PARENT 10 13
REMARK Flexibility Score: inf
ROOT
ATOM      1  C   UNL     1      -8.389   1.574   8.407  1.00  0.00    -0.025 A 
ATOM      2  C   UNL     1      -9.038   2.037   9.570  1.00  0.00     0.012 A 
ATOM      3  C   UNL     1      -7.439   2.403   7.786  1.00  0.00     0.012 A 
ATOM      4  C   UNL     1      -8.720   3.289  10.105  1.00  0.00     0.047 A 
ATOM      5  C   UNL     1      -7.125   3.654   8.325  1.00  0.00     0.047 A 
ATOM      6  C   UNL     1      -7.765   4.099   9.488  1.00  0.00     0.115 A 
ENDROOT
BRANCH   1   7
ATOM      7  C   UNL     1      -8.695   0.259   7.791  1.00  0.00     0.010 C 
ATOM      8  C   UNL     1      -9.044   0.102   6.506  1.00  0.00     0.025 C 
BRANCH   8   9
ATOM      9  C   UNL     1      -9.350  -1.221   5.940  1.00  0.00     0.064 C 
ATOM     10  O   UNL     1      -9.557  -1.335   4.703  1.00  0.00    -0.545 OA
ATOM     11  O   UNL     1      -9.412  -2.352   6.748  1.00  0.00    -0.545 OA
ENDBRANCH   8   9
ENDBRANCH   1   7
BRANCH   6  12
ATOM     12  O   UNL     1      -7.460   5.344  10.034  1.00  0.00    -0.508 OA
ATOM     13  H   UNL     1      -7.474   6.187   9.472  1.00  0.00     0.293 HD
ENDBRANCH   6  12
TORSDOF 3
ENDMDL
MODEL 7
REMARK VINA RESULT:    -3.069     16.707     17.221
REMARK INTER + INTRA:          -3.654
REMARK INTER:                  -3.517
REMARK INTRA:                  -0.137
REMARK UNBOUND:                -0.137
REMARK SMILES O=C([O-])C=Cc1ccc(O)cc1
REMARK SMILES IDX 6 1 7 2 12 3 8 4 11 5 9 6 5 7 4 8 2 9 1 10 3 11 10 12
REMARK H PARENT 10 13
REMARK Flexibility Score: inf
ROOT
ATOM      1  C   UNL     1      -8.486  -8.772  -1.240  1.00  0.00    -0.025 A 
ATOM      2  C   UNL     1      -9.638  -9.442  -1.700  1.00  0.00     0.012 A 
ATOM      3  C   UNL     1      -7.824  -7.888  -2.110  1.00  0.00     0.012 A 
ATOM      4  C   UNL     1     -10.125  -9.208  -2.990  1.00  0.00     0.047 A 
ATOM      5  C   UNL     1      -8.315  -7.658  -3.399  1.00  0.00     0.047 A 
ATOM      6  C   UNL     1      -9.468  -8.316  -3.841  1.00  0.00     0.115 A 
ENDROOT
BRANCH   1   7
ATOM      7  C   UNL     1      -7.921  -8.991   0.114  1.00  0.00     0.010 C 
ATOM      8  C   UNL     1      -8.540  -8.630   1.247  1.00  0.00     0.025 C 
BRANCH   8   9
ATOM      9  C   UNL     1      -7.936  -8.856   2.569  1.00  0.00     0.064 C 
ATOM     10  O   UNL     1      -7.119  -9.801   2.725  1.00  0.00    -0.545 OA
ATOM     11  O   UNL     1      -8.252  -8.042   3.652  1.00  0.00    -0.545 OA
ENDBRANCH   8   9
ENDBRANCH   1   7
BRANCH   6  12
ATOM     12  O   UNL     1      -9.966  -8.094  -5.123  1.00  0.00    -0.508 OA
ATOM     13  H   UNL     1      -9.506  -7.461  -5.768  1.00  0.00     0.293 HD
ENDBRANCH   6  12
TORSDOF 3
ENDMDL
MODEL 8
REMARK VINA RESULT:    -3.064     20.115     21.841
REMARK INTER + INTRA:          -3.648
REMARK INTER:                  -3.512
REMARK INTRA:                  -0.136
REMARK UNBOUND:                -0.137
REMARK SMILES O=C([O-])C=Cc1ccc(O)cc1
REMARK SMILES IDX 6 1 7 2 12 3 8 4 11 5 9 6 5 7 4 8 2 9 1 10 3 11 10 12
REMARK H PARENT 10 13
REMARK Flexibility Score: inf
ROOT
ATOM      1  C   UNL     1       1.117  -8.599   8.496  1.00  0.00    -0.025 A 
ATOM      2  C   UNL     1       1.663  -9.717   9.159  1.00  0.00     0.012 A 
ATOM      3  C   UNL     1       1.925  -7.886   7.592  1.00  0.00     0.012 A 
ATOM      4  C   UNL     1       2.977 -10.121   8.900  1.00  0.00     0.047 A 
ATOM      5  C   UNL     1       3.238  -8.294   7.338  1.00  0.00     0.047 A 
ATOM      6  C   UNL     1       3.766  -9.414   7.990  1.00  0.00     0.115 A 
ENDROOT
BRANCH   1   7
ATOM      7  C   UNL     1      -0.266  -8.121   8.740  1.00  0.00     0.010 C 
ATOM      8  C   UNL     1      -1.362  -8.845   8.476  1.00  0.00     0.025 C 
BRANCH   8   9
ATOM      9  C   UNL     1      -2.716  -8.326   8.725  1.00  0.00     0.064 C 
ATOM     10  O   UNL     1      -2.948  -7.675   9.778  1.00  0.00    -0.545 OA
ATOM     11  O   UNL     1      -3.745  -8.540   7.814  1.00  0.00    -0.545 OA
ENDBRANCH   8   9
ENDBRANCH   1   7
BRANCH   6  12
ATOM     12  O   UNL     1       5.073  -9.830   7.743  1.00  0.00    -0.508 OA
ATOM     13  H   UNL     1       5.364 -10.146   6.825  1.00  0.00     0.293 HD
ENDBRANCH   6  12
TORSDOF 3
ENDMDL
MODEL 9
REMARK VINA RESULT:    -3.042     11.645     13.871
REMARK INTER + INTRA:          -3.623
REMARK INTER:                  -3.488
REMARK INTRA:                  -0.135
REMARK UNBOUND:                -0.137
REMARK SMILES O=C([O-])C=Cc1ccc(O)cc1
REMARK SMILES IDX 6 1 7 2 12 3 8 4 11 5 9 6 5 7 4 8 2 9 1 10 3 11 10 12
REMARK H PARENT 10 13
REMARK Flexibility Score: inf
ROOT
ATOM      1  C   UNL     1       0.409   9.019  -9.382  1.00  0.00    -0.025 A 
ATOM      2  C   UNL     1      -0.393  10.125  -9.034  1.00  0.00     0.012 A 
ATOM      3  C   UNL     1      -0.218   7.806  -9.716  1.00  0.00     0.012 A 
ATOM      4  C   UNL     1      -1.788  10.019  -9.047  1.00  0.00     0.047 A 
ATOM      5  C   UNL     1      -1.612   7.706  -9.728  1.00  0.00     0.047 A 
ATOM      6  C   UNL     1      -2.401   8.813  -9.395  1.00  0.00     0.115 A 
ENDROOT
BRANCH   1   7
ATOM      7  C   UNL     1       1.892   9.073  -9.373  1.00  0.00     0.010 C 
ATOM      8  C   UNL     1       2.640   8.817  -8.291  1.00  0.00     0.025 C 
BRANCH   8   9
ATOM      9  C   UNL     1       4.109   8.894  -8.326  1.00  0.00     0.064 C 
ATOM     10  O   UNL     1       4.791   7.997  -7.763  1.00  0.00    -0.545 OA
ATOM     11  O   UNL     1       4.759   9.940  -8.972  1.00  0.00    -0.545 OA
ENDBRANCH   8   9
ENDBRANCH   1   7
BRANCH   6  12
ATOM     12  O   UNL     1      -3.791   8.724  -9.404  1.00  0.00    -0.508 OA
ATOM     13  H   UNL     1      -4.310   8.457  -8.577  1.00  0.00     0.293 HD
ENDBRANCH   6  12
TORSDOF 3
ENDMDL
