MODEL 1
REMARK VINA RESULT:    -4.375      0.000      0.000
REMARK INTER + INTRA:         -10.019
REMARK INTER:                  -7.955
REMARK INTRA:                  -2.064
REMARK UNBOUND:                -2.064
REMARK SMILES CCCCCCCCCCCCCCCC(=O)[O-]
REMARK SMILES IDX 9 1 10 2 11 3 12 4 13 5 14 6 15 7 16 8 17 9 18 10 8 11 7 12
REMARK SMILES IDX 6 13 5 14 4 15 3 16 2 17 1 18
REMARK H PARENT
REMARK Flexibility Score: inf
ROOT
ATOM      1  C   UNL     1     -34.284  20.316 -30.277  1.00  0.00     0.000 C 
ENDROOT
BRANCH   1   2
ATOM      2  C   UNL     1     -33.997  18.806 -30.232  1.00  0.00     0.000 C 
BRANCH   2   3
ATOM      3  C   UNL     1     -34.277  18.185 -28.850  1.00  0.00     0.000 C 
BRANCH   3   4
ATOM      4  C   UNL     1     -34.706  19.184 -27.756  1.00  0.00     0.000 C 
BRANCH   4   5
ATOM      5  C   UNL     1     -36.170  19.057 -27.289  1.00  0.00     0.000 C 
BRANCH   5   6
ATOM      6  C   UNL     1     -36.960  17.907 -27.940  1.00  0.00     0.006 C 
BRANCH   6   7
ATOM      7  C   UNL     1     -37.831  18.374 -29.113  1.00  0.00     0.053 C 
BRANCH   7   8
ATOM      8  C   UNL     1     -37.912  17.309 -30.160  1.00  0.00     0.041 C 
ATOM      9  O   UNL     1     -37.029  16.413 -30.222  1.00  0.00    -0.550 OA
ATOM     10  O   UNL     1     -38.936  17.332 -31.099  1.00  0.00    -0.550 OA
ENDBRANCH   7   8
ENDBRANCH   6   7
ENDBRANCH   5   6
ENDBRANCH   4   5
ENDBRANCH   3   4
ENDBRANCH   2   3
ENDBRANCH   1   2
BRANCH   1  11
ATOM     11  C   UNL     1     -35.568  20.661 -31.054  1.00  0.00     0.000 C 
BRANCH  11  12
ATOM     12  C   UNL     1     -36.244  21.986 -30.656  1.00  0.00    -0.000 C 
BRANCH  12  13
ATOM     13  C   UNL     1     -35.900  22.429 -29.224  1.00  0.00    -0.000 C 
BRANCH  13  14
ATOM     14  C   UNL     1     -37.153  22.728 -28.383  1.00  0.00    -0.000 C 
BRANCH  14  15
ATOM     15  C   UNL     1     -38.345  21.833 -28.759  1.00  0.00    -0.000 C 
BRANCH  15  16
ATOM     16  C   UNL     1     -39.650  22.642 -28.782  1.00  0.00    -0.000 C 
BRANCH  16  17
ATOM     17  C   UNL     1     -40.603  22.195 -29.901  1.00  0.00    -0.003 C 
ATOM     18  C   UNL     1     -41.837  23.089 -30.021  1.00  0.00     0.004 C 
ENDBRANCH  16  17
ENDBRANCH  15  16
ENDBRANCH  14  15
ENDBRANCH  13  14
ENDBRANCH  12  13
ENDBRANCH  11  12
ENDBRANCH   1  11
TORSDOF 14
ENDMDL
MODEL 2
REMARK VINA RESULT:    -4.352      2.130      4.758
REMARK INTER + INTRA:          -9.978
REMARK INTER:                  -7.637
REMARK INTRA:                  -2.341
REMARK UNBOUND:                -2.064
REMARK SMILES CCCCCCCCCCCCCCCC(=O)[O-]
REMARK SMILES IDX 9 1 10 2 11 3 12 4 13 5 14 6 15 7 16 8 17 9 18 10 8 11 7 12
REMARK SMILES IDX 6 13 5 14 4 15 3 16 2 17 1 18
REMARK H PARENT
REMARK Flexibility Score: inf
ROOT
ATOM      1  C   UNL     1     -35.442  21.928 -27.962  1.00  0.00     0.000 C 
ENDROOT
BRANCH   1   2
ATOM      2  C   UNL     1     -34.961  22.971 -28.984  1.00  0.00     0.000 C 
BRANCH   2   3
ATOM      3  C   UNL     1     -35.386  22.635 -30.426  1.00  0.00     0.000 C 
BRANCH   3   4
ATOM      4  C   UNL     1     -35.847  21.181 -30.653  1.00  0.00     0.000 C 
BRANCH   4   5
ATOM      5  C   UNL     1     -36.950  21.001 -31.716  1.00  0.00     0.000 C 
BRANCH   5   6
ATOM      6  C   UNL     1     -38.380  20.901 -31.156  1.00  0.00     0.006 C 
BRANCH   6   7
ATOM      7  C   UNL     1     -38.410  20.726 -29.632  1.00  0.00     0.053 C 
BRANCH   7   8
ATOM      8  C   UNL     1     -39.809  20.857 -29.118  1.00  0.00     0.041 C 
ATOM      9  O   UNL     1     -40.494  21.876 -29.398  1.00  0.00    -0.550 OA
ATOM     10  O   UNL     1     -40.340  19.875 -28.290  1.00  0.00    -0.550 OA
ENDBRANCH   7   8
ENDBRANCH   6   7
ENDBRANCH   5   6
ENDBRANCH   4   5
ENDBRANCH   3   4
ENDBRANCH   2   3
ENDBRANCH   1   2
BRANCH   1  11
ATOM     11  C   UNL     1     -34.283  21.172 -27.284  1.00  0.00     0.000 C 
BRANCH  11  12
ATOM     12  C   UNL     1     -34.393  19.637 -27.308  1.00  0.00    -0.000 C 
BRANCH  12  13
ATOM     13  C   UNL     1     -35.747  19.123 -26.790  1.00  0.00    -0.000 C 
BRANCH  13  14
ATOM     14  C   UNL     1     -36.490  18.268 -27.830  1.00  0.00    -0.000 C 
BRANCH  14  15
ATOM     15  C   UNL     1     -35.596  17.866 -29.013  1.00  0.00    -0.000 C 
BRANCH  15  16
ATOM     16  C   UNL     1     -36.441  17.553 -30.256  1.00  0.00    -0.000 C 
BRANCH  16  17
ATOM     17  C   UNL     1     -37.833  17.007 -29.901  1.00  0.00    -0.003 C 
ATOM     18  C   UNL     1     -38.871  17.279 -30.990  1.00  0.00     0.004 C 
ENDBRANCH  16  17
ENDBRANCH  15  16
ENDBRANCH  14  15
ENDBRANCH  13  14
ENDBRANCH  12  13
ENDBRANCH  11  12
ENDBRANCH   1  11
TORSDOF 14
ENDMDL
MODEL 3
REMARK VINA RESULT:    -4.257      2.951      5.482
REMARK INTER + INTRA:          -9.804
REMARK INTER:                  -7.587
REMARK INTRA:                  -2.217
REMARK UNBOUND:                -2.064
REMARK SMILES CCCCCCCCCCCCCCCC(=O)[O-]
REMARK SMILES IDX 9 1 10 2 11 3 12 4 13 5 14 6 15 7 16 8 17 9 18 10 8 11 7 12
REMARK SMILES IDX 6 13 5 14 4 15 3 16 2 17 1 18
REMARK H PARENT
REMARK Flexibility Score: inf
ROOT
ATOM      1  C   UNL     1     -37.813  17.099 -30.084  1.00  0.00     0.000 C 
ENDROOT
BRANCH   1   2
ATOM      2  C   UNL     1     -38.683  18.367 -30.102  1.00  0.00     0.000 C 
BRANCH   2   3
ATOM      3  C   UNL     1     -38.208  19.404 -31.136  1.00  0.00     0.000 C 
BRANCH   3   4
ATOM      4  C   UNL     1     -38.366  20.877 -30.710  1.00  0.00     0.000 C 
BRANCH   4   5
ATOM      5  C   UNL     1     -38.516  21.110 -29.193  1.00  0.00     0.000 C 
BRANCH   5   6
ATOM      6  C   UNL     1     -39.625  22.102 -28.797  1.00  0.00     0.006 C 
BRANCH   6   7
ATOM      7  C   UNL     1     -40.607  22.383 -29.941  1.00  0.00     0.053 C 
BRANCH   7   8
ATOM      8  C   UNL     1     -41.616  23.405 -29.524  1.00  0.00     0.041 C 
ATOM      9  O   UNL     1     -42.696  23.526 -30.160  1.00  0.00    -0.550 OA
ATOM     10  O   UNL     1     -41.343  24.260 -28.462  1.00  0.00    -0.550 OA
ENDBRANCH   7   8
ENDBRANCH   6   7
ENDBRANCH   5   6
ENDBRANCH   4   5
ENDBRANCH   3   4
ENDBRANCH   2   3
ENDBRANCH   1   2
BRANCH   1  11
ATOM     11  C   UNL     1     -36.864  17.038 -28.873  1.00  0.00     0.000 C 
BRANCH  11  12
ATOM     12  C   UNL     1     -37.239  17.955 -27.694  1.00  0.00    -0.000 C 
BRANCH  12  13
ATOM     13  C   UNL     1     -36.139  18.973 -27.351  1.00  0.00    -0.000 C 
BRANCH  13  14
ATOM     14  C   UNL     1     -35.148  19.182 -28.509  1.00  0.00    -0.000 C 
BRANCH  14  15
ATOM     15  C   UNL     1     -34.525  20.587 -28.506  1.00  0.00    -0.000 C 
BRANCH  15  16
ATOM     16  C   UNL     1     -34.866  21.339 -29.802  1.00  0.00    -0.000 C 
BRANCH  16  17
ATOM     17  C   UNL     1     -35.214  22.815 -29.554  1.00  0.00    -0.003 C 
ATOM     18  C   UNL     1     -35.667  23.083 -28.118  1.00  0.00     0.004 C 
ENDBRANCH  16  17
ENDBRANCH  15  16
ENDBRANCH  14  15
ENDBRANCH  13  14
ENDBRANCH  12  13
ENDBRANCH  11  12
ENDBRANCH   1  11
TORSDOF 14
ENDMDL
MODEL 4
REMARK VINA RESULT:    -4.188      1.499      2.879
REMARK INTER + INTRA:          -9.679
REMARK INTER:                  -7.558
REMARK INTRA:                  -2.121
REMARK UNBOUND:                -2.064
REMARK SMILES CCCCCCCCCCCCCCCC(=O)[O-]
REMARK SMILES IDX 9 1 10 2 11 3 12 4 13 5 14 6 15 7 16 8 17 9 18 10 8 11 7 12
REMARK SMILES IDX 6 13 5 14 4 15 3 16 2 17 1 18
REMARK H PARENT
REMARK Flexibility Score: inf
ROOT
ATOM      1  C   UNL     1     -36.174  21.114 -31.531  1.00  0.00     0.000 C 
ENDROOT
BRANCH   1   2
ATOM      2  C   UNL     1     -35.616  22.275 -30.692  1.00  0.00     0.000 C 
BRANCH   2   3
ATOM      3  C   UNL     1     -36.428  22.530 -29.408  1.00  0.00     0.000 C 
BRANCH   3   4
ATOM      4  C   UNL     1     -35.821  21.942 -28.119  1.00  0.00     0.000 C 
BRANCH   4   5
ATOM      5  C   UNL     1     -34.723  20.880 -28.334  1.00  0.00     0.000 C 
BRANCH   5   6
ATOM      6  C   UNL     1     -35.061  19.480 -27.789  1.00  0.00     0.006 C 
BRANCH   6   7
ATOM      7  C   UNL     1     -35.446  18.489 -28.895  1.00  0.00     0.053 C 
BRANCH   7   8
ATOM      8  C   UNL     1     -36.545  17.589 -28.430  1.00  0.00     0.041 C 
ATOM      9  O   UNL     1     -37.104  17.792 -27.320  1.00  0.00    -0.550 OA
ATOM     10  O   UNL     1     -36.921  16.494 -29.200  1.00  0.00    -0.550 OA
ENDBRANCH   7   8
ENDBRANCH   6   7
ENDBRANCH   5   6
ENDBRANCH   4   5
ENDBRANCH   3   4
ENDBRANCH   2   3
ENDBRANCH   1   2
BRANCH   1  11
ATOM     11  C   UNL     1     -37.682  20.889 -31.318  1.00  0.00     0.000 C 
BRANCH  11  12
ATOM     12  C   UNL     1     -38.122  19.417 -31.215  1.00  0.00    -0.000 C 
BRANCH  12  13
ATOM     13  C   UNL     1     -39.149  19.173 -30.096  1.00  0.00    -0.000 C 
BRANCH  13  14
ATOM     14  C   UNL     1     -39.015  20.182 -28.944  1.00  0.00    -0.000 C 
BRANCH  14  15
ATOM     15  C   UNL     1     -40.309  20.975 -28.698  1.00  0.00    -0.000 C 
BRANCH  15  16
ATOM     16  C   UNL     1     -40.172  22.417 -29.207  1.00  0.00    -0.000 C 
BRANCH  16  17
ATOM     17  C   UNL     1     -41.197  22.758 -30.300  1.00  0.00    -0.003 C 
ATOM     18  C   UNL     1     -42.554  23.173 -29.730  1.00  0.00     0.004 C 
ENDBRANCH  16  17
ENDBRANCH  15  16
ENDBRANCH  14  15
ENDBRANCH  13  14
ENDBRANCH  12  13
ENDBRANCH  11  12
ENDBRANCH   1  11
TORSDOF 14
ENDMDL
MODEL 5
REMARK VINA RESULT:    -4.158      1.637      2.514
REMARK INTER + INTRA:          -9.625
REMARK INTER:                  -7.485
REMARK INTRA:                  -2.140
REMARK UNBOUND:                -2.064
REMARK SMILES CCCCCCCCCCCCCCCC(=O)[O-]
REMARK SMILES IDX 9 1 10 2 11 3 12 4 13 5 14 6 15 7 16 8 17 9 18 10 8 11 7 12
REMARK SMILES IDX 6 13 5 14 4 15 3 16 2 17 1 18
REMARK H PARENT
REMARK Flexibility Score: inf
ROOT
ATOM      1  C   UNL     1     -35.451  22.253 -28.387  1.00  0.00     0.000 C 
ENDROOT
BRANCH   1   2
ATOM      2  C   UNL     1     -34.628  22.159 -27.092  1.00  0.00     0.000 C 
BRANCH   2   3
ATOM      3  C   UNL     1     -34.157  20.726 -26.785  1.00  0.00     0.000 C 
BRANCH   3   4
ATOM      4  C   UNL     1     -34.872  19.615 -27.581  1.00  0.00     0.000 C 
BRANCH   4   5
ATOM      5  C   UNL     1     -36.029  18.916 -26.839  1.00  0.00     0.000 C 
BRANCH   5   6
ATOM      6  C   UNL     1     -36.836  17.920 -27.690  1.00  0.00     0.006 C 
BRANCH   6   7
ATOM      7  C   UNL     1     -36.375  17.878 -29.153  1.00  0.00     0.053 C 
BRANCH   7   8
ATOM      8  C   UNL     1     -37.023  16.739 -29.873  1.00  0.00     0.041 C 
ATOM      9  O   UNL     1     -36.422  15.639 -29.991  1.00  0.00    -0.550 OA
ATOM     10  O   UNL     1     -38.273  16.907 -30.458  1.00  0.00    -0.550 OA
ENDBRANCH   7   8
ENDBRANCH   6   7
ENDBRANCH   5   6
ENDBRANCH   4   5
ENDBRANCH   3   4
ENDBRANCH   2   3
ENDBRANCH   1   2
BRANCH   1  11
ATOM     11  C   UNL     1     -34.720  23.014 -29.509  1.00  0.00     0.000 C 
BRANCH  11  12
ATOM     12  C   UNL     1     -35.051  22.556 -30.941  1.00  0.00    -0.000 C 
BRANCH  12  13
ATOM     13  C   UNL     1     -35.702  21.163 -30.991  1.00  0.00    -0.000 C 
BRANCH  13  14
ATOM     14  C   UNL     1     -36.980  21.140 -31.846  1.00  0.00    -0.000 C 
BRANCH  14  15
ATOM     15  C   UNL     1     -38.103  20.307 -31.208  1.00  0.00    -0.000 C 
BRANCH  15  16
ATOM     16  C   UNL     1     -38.963  21.172 -30.275  1.00  0.00    -0.000 C 
BRANCH  16  17
ATOM     17  C   UNL     1     -38.887  20.715 -28.809  1.00  0.00    -0.003 C 
ATOM     18  C   UNL     1     -39.983  19.713 -28.445  1.00  0.00     0.004 C 
ENDBRANCH  16  17
ENDBRANCH  15  16
ENDBRANCH  14  15
ENDBRANCH  13  14
ENDBRANCH  12  13
ENDBRANCH  11  12
ENDBRANCH   1  11
TORSDOF 14
ENDMDL
MODEL 6
REMARK VINA RESULT:    -4.151      2.714      4.841
REMARK INTER + INTRA:          -9.612
REMARK INTER:                  -7.541
REMARK INTRA:                  -2.071
REMARK UNBOUND:                -2.064
REMARK SMILES CCCCCCCCCCCCCCCC(=O)[O-]
REMARK SMILES IDX 9 1 10 2 11 3 12 4 13 5 14 6 15 7 16 8 17 9 18 10 8 11 7 12
REMARK SMILES IDX 6 13 5 14 4 15 3 16 2 17 1 18
REMARK H PARENT
REMARK Flexibility Score: inf
ROOT
ATOM      1  C   UNL     1     -36.828  16.819 -29.422  1.00  0.00     0.000 C 
ENDROOT
BRANCH   1   2
ATOM      2  C   UNL     1     -38.104  16.737 -30.276  1.00  0.00     0.000 C 
BRANCH   2   3
ATOM      3  C   UNL     1     -38.353  18.011 -31.105  1.00  0.00     0.000 C 
BRANCH   3   4
ATOM      4  C   UNL     1     -38.320  19.330 -30.307  1.00  0.00     0.000 C 
BRANCH   4   5
ATOM      5  C   UNL     1     -39.151  19.333 -29.008  1.00  0.00     0.000 C 
BRANCH   5   6
ATOM      6  C   UNL     1     -40.036  20.578 -28.809  1.00  0.00     0.006 C 
BRANCH   6   7
ATOM      7  C   UNL     1     -39.758  21.676 -29.844  1.00  0.00     0.053 C 
BRANCH   7   8
ATOM      8  C   UNL     1     -40.724  22.806 -29.679  1.00  0.00     0.041 C 
ATOM      9  O   UNL     1     -40.553  23.657 -28.767  1.00  0.00    -0.550 OA
ATOM     10  O   UNL     1     -41.840  22.892 -30.502  1.00  0.00    -0.550 OA
ENDBRANCH   7   8
ENDBRANCH   6   7
ENDBRANCH   5   6
ENDBRANCH   4   5
ENDBRANCH   3   4
ENDBRANCH   2   3
ENDBRANCH   1   2
BRANCH   1  11
ATOM     11  C   UNL     1     -35.546  16.942 -30.267  1.00  0.00     0.000 C 
BRANCH  11  12
ATOM     12  C   UNL     1     -34.556  18.028 -29.808  1.00  0.00    -0.000 C 
BRANCH  12  13
ATOM     13  C   UNL     1     -35.028  18.780 -28.552  1.00  0.00    -0.000 C 
BRANCH  13  14
ATOM     14  C   UNL     1     -34.664  20.273 -28.588  1.00  0.00    -0.000 C 
BRANCH  14  15
ATOM     15  C   UNL     1     -35.856  21.181 -28.244  1.00  0.00    -0.000 C 
BRANCH  15  16
ATOM     16  C   UNL     1     -36.152  22.154 -29.395  1.00  0.00    -0.000 C 
BRANCH  16  17
ATOM     17  C   UNL     1     -35.202  21.964 -30.588  1.00  0.00    -0.003 C 
ATOM     18  C   UNL     1     -35.936  21.583 -31.874  1.00  0.00     0.004 C 
ENDBRANCH  16  17
ENDBRANCH  15  16
ENDBRANCH  14  15
ENDBRANCH  13  14
ENDBRANCH  12  13
ENDBRANCH  11  12
ENDBRANCH   1  11
TORSDOF 14
ENDMDL
MODEL 7
REMARK VINA RESULT:    -4.146      2.584      5.327
REMARK INTER + INTRA:          -9.603
REMARK INTER:                  -7.541
REMARK INTRA:                  -2.062
REMARK UNBOUND:                -2.064
REMARK SMILES CCCCCCCCCCCCCCCC(=O)[O-]
REMARK SMILES IDX 9 1 10 2 11 3 12 4 13 5 14 6 15 7 16 8 17 9 18 10 8 11 7 12
REMARK SMILES IDX 6 13 5 14 4 15 3 16 2 17 1 18
REMARK H PARENT
REMARK Flexibility Score: inf
ROOT
ATOM      1  C   UNL     1     -34.907  22.814 -27.303  1.00  0.00     0.000 C 
ENDROOT
BRANCH   1   2
ATOM      2  C   UNL     1     -36.236  23.015 -28.049  1.00  0.00     0.000 C 
BRANCH   2   3
ATOM      3  C   UNL     1     -36.153  22.622 -29.536  1.00  0.00     0.000 C 
BRANCH   3   4
ATOM      4  C   UNL     1     -37.128  21.512 -29.977  1.00  0.00     0.000 C 
BRANCH   4   5
ATOM      5  C   UNL     1     -38.138  21.060 -28.904  1.00  0.00     0.000 C 
BRANCH   5   6
ATOM      6  C   UNL     1     -39.610  21.378 -29.226  1.00  0.00     0.006 C 
BRANCH   6   7
ATOM      7  C   UNL     1     -39.997  22.821 -28.878  1.00  0.00     0.053 C 
BRANCH   7   8
ATOM      8  C   UNL     1     -41.273  23.199 -29.560  1.00  0.00     0.041 C 
ATOM      9  O   UNL     1     -42.142  23.874 -28.948  1.00  0.00    -0.550 OA
ATOM     10  O   UNL     1     -41.524  22.765 -30.856  1.00  0.00    -0.550 OA
ENDBRANCH   7   8
ENDBRANCH   6   7
ENDBRANCH   5   6
ENDBRANCH   4   5
ENDBRANCH   3   4
ENDBRANCH   2   3
ENDBRANCH   1   2
BRANCH   1  11
ATOM     11  C   UNL     1     -34.238  21.463 -27.619  1.00  0.00     0.000 C 
BRANCH  11  12
ATOM     12  C   UNL     1     -34.630  20.300 -26.690  1.00  0.00    -0.000 C 
BRANCH  12  13
ATOM     13  C   UNL     1     -35.293  19.131 -27.438  1.00  0.00    -0.000 C 
BRANCH  13  14
ATOM     14  C   UNL     1     -34.476  18.673 -28.658  1.00  0.00    -0.000 C 
BRANCH  14  15
ATOM     15  C   UNL     1     -35.340  17.970 -29.718  1.00  0.00    -0.000 C 
BRANCH  15  16
ATOM     16  C   UNL     1     -36.767  17.746 -29.199  1.00  0.00    -0.000 C 
BRANCH  16  17
ATOM     17  C   UNL     1     -37.628  16.926 -30.173  1.00  0.00    -0.003 C 
ATOM     18  C   UNL     1     -38.744  17.751 -30.814  1.00  0.00     0.004 C 
ENDBRANCH  16  17
ENDBRANCH  15  16
ENDBRANCH  14  15
ENDBRANCH  13  14
ENDBRANCH  12  13
ENDBRANCH  11  12
ENDBRANCH   1  11
TORSDOF 14
ENDMDL
MODEL 8
REMARK VINA RESULT:    -4.088     15.157     17.622
REMARK INTER + INTRA:          -9.498
REMARK INTER:                  -6.848
REMARK INTRA:                  -2.650
REMARK UNBOUND:                -2.064
REMARK SMILES CCCCCCCCCCCCCCCC(=O)[O-]
REMARK SMILES IDX 9 1 10 2 11 3 12 4 13 5 14 6 15 7 16 8 17 9 18 10 8 11 7 12
REMARK SMILES IDX 6 13 5 14 4 15 3 16 2 17 1 18
REMARK H PARENT
REMARK Flexibility Score: inf
ROOT
ATOM      1  C   UNL     1     -47.718   8.307 -32.486  1.00  0.00     0.000 C 
ENDROOT
BRANCH   1   2
ATOM      2  C   UNL     1     -48.925   8.896 -33.235  1.00  0.00     0.000 C 
BRANCH   2   3
ATOM      3  C   UNL     1     -49.627  10.018 -32.448  1.00  0.00     0.000 C 
BRANCH   3   4
ATOM      4  C   UNL     1     -51.123  10.211 -32.772  1.00  0.00     0.000 C 
BRANCH   4   5
ATOM      5  C   UNL     1     -51.980  10.763 -31.615  1.00  0.00     0.000 C 
BRANCH   5   6
ATOM      6  C   UNL     1     -51.497  10.369 -30.207  1.00  0.00     0.006 C 
BRANCH   6   7
ATOM      7  C   UNL     1     -51.332  11.578 -29.276  1.00  0.00     0.053 C 
BRANCH   7   8
ATOM      8  C   UNL     1     -49.988  12.205 -29.468  1.00  0.00     0.041 C 
ATOM      9  O   UNL     1     -49.863  13.227 -30.193  1.00  0.00    -0.550 OA
ATOM     10  O   UNL     1     -48.863  11.632 -28.887  1.00  0.00    -0.550 OA
ENDBRANCH   7   8
ENDBRANCH   6   7
ENDBRANCH   5   6
ENDBRANCH   4   5
ENDBRANCH   3   4
ENDBRANCH   2   3
ENDBRANCH   1   2
BRANCH   1  11
ATOM     11  C   UNL     1     -47.351   9.101 -31.219  1.00  0.00     0.000 C 
BRANCH  11  12
ATOM     12  C   UNL     1     -47.411   8.306 -29.902  1.00  0.00    -0.000 C 
BRANCH  12  13
ATOM     13  C   UNL     1     -48.842   8.147 -29.362  1.00  0.00    -0.000 C 
BRANCH  13  14
ATOM     14  C   UNL     1     -49.423   6.749 -29.634  1.00  0.00    -0.000 C 
BRANCH  14  15
ATOM     15  C   UNL     1     -50.864   6.800 -30.166  1.00  0.00    -0.000 C 
BRANCH  15  16
ATOM     16  C   UNL     1     -50.938   6.251 -31.599  1.00  0.00    -0.000 C 
BRANCH  16  17
ATOM     17  C   UNL     1     -52.182   6.741 -32.356  1.00  0.00    -0.003 C 
ATOM     18  C   UNL     1     -51.992   6.739 -33.873  1.00  0.00     0.004 C 
ENDBRANCH  16  17
ENDBRANCH  15  16
ENDBRANCH  14  15
ENDBRANCH  13  14
ENDBRANCH  12  13
ENDBRANCH  11  12
ENDBRANCH   1  11
TORSDOF 14
ENDMDL
MODEL 9
REMARK VINA RESULT:    -4.064     15.211     17.674
REMARK INTER + INTRA:          -9.454
REMARK INTER:                  -7.025
REMARK INTRA:                  -2.429
REMARK UNBOUND:                -2.064
REMARK SMILES CCCCCCCCCCCCCCCC(=O)[O-]
REMARK SMILES IDX 9 1 10 2 11 3 12 4 13 5 14 6 15 7 16 8 17 9 18 10 8 11 7 12
REMARK SMILES IDX 6 13 5 14 4 15 3 16 2 17 1 18
REMARK H PARENT
REMARK Flexibility Score: inf
ROOT
ATOM      1  C   UNL     1     -49.378   9.321 -32.950  1.00  0.00     0.000 C 
ENDROOT
BRANCH   1   2
ATOM      2  C   UNL     1     -50.680   8.504 -32.907  1.00  0.00     0.000 C 
BRANCH   2   3
ATOM      3  C   UNL     1     -51.772   9.163 -32.043  1.00  0.00     0.000 C 
BRANCH   3   4
ATOM      4  C   UNL     1     -51.912   8.595 -30.616  1.00  0.00     0.000 C 
BRANCH   4   5
ATOM      5  C   UNL     1     -52.957   9.301 -29.728  1.00  0.00     0.000 C 
BRANCH   5   6
ATOM      6  C   UNL     1     -53.050  10.825 -29.924  1.00  0.00     0.006 C 
BRANCH   6   7
ATOM      7  C   UNL     1     -52.057  11.598 -29.046  1.00  0.00     0.053 C 
BRANCH   7   8
ATOM      8  C   UNL     1     -51.370  12.660 -29.844  1.00  0.00     0.041 C 
ATOM      9  O   UNL     1     -51.431  13.864 -29.481  1.00  0.00    -0.550 OA
ATOM     10  O   UNL     1     -50.703  12.327 -31.017  1.00  0.00    -0.550 OA
ENDBRANCH   7   8
ENDBRANCH   6   7
ENDBRANCH   5   6
ENDBRANCH   4   5
ENDBRANCH   3   4
ENDBRANCH   2   3
ENDBRANCH   1   2
BRANCH   1  11
ATOM     11  C   UNL     1     -48.132   8.453 -33.202  1.00  0.00     0.000 C 
BRANCH  11  12
ATOM     12  C   UNL     1     -48.351   6.933 -33.083  1.00  0.00    -0.000 C 
BRANCH  12  13
ATOM     13  C   UNL     1     -47.728   6.333 -31.811  1.00  0.00    -0.000 C 
BRANCH  13  14
ATOM     14  C   UNL     1     -48.757   6.142 -30.685  1.00  0.00    -0.000 C 
BRANCH  14  15
ATOM     15  C   UNL     1     -48.677   7.244 -29.617  1.00  0.00    -0.000 C 
BRANCH  15  16
ATOM     16  C   UNL     1     -47.276   7.874 -29.585  1.00  0.00    -0.000 C 
BRANCH  16  17
ATOM     17  C   UNL     1     -47.315   9.405 -29.704  1.00  0.00    -0.003 C 
ATOM     18  C   UNL     1     -48.671   9.996 -29.318  1.00  0.00     0.004 C 
ENDBRANCH  16  17
ENDBRANCH  15  16
ENDBRANCH  14  15
ENDBRANCH  13  14
ENDBRANCH  12  13
ENDBRANCH  11  12
ENDBRANCH   1  11
TORSDOF 14
ENDMDL
