MODEL 1
REMARK VINA RESULT:    -3.774      0.000      0.000
REMARK INTER + INTRA:          -6.785
REMARK INTER:                  -5.981
REMARK INTRA:                  -0.805
REMARK UNBOUND:                -0.805
REMARK SMILES CCCCCCCCCCCC(=O)[O-]
REMARK SMILES IDX 7 1 8 2 9 3 10 4 11 5 12 6 13 7 14 8 6 9 5 10 4 11 3 12 2 13
REMARK SMILES IDX 1 14
REMARK H PARENT
REMARK Flexibility Score: inf
ROOT
ATOM      1  C   UNL     1     -20.411  -1.339   8.821  1.00  0.00     0.000 C 
ENDROOT
BRANCH   1   2
ATOM      2  C   UNL     1     -19.493  -2.419   9.423  1.00  0.00     0.000 C 
BRANCH   2   3
ATOM      3  C   UNL     1     -19.282  -2.239  10.935  1.00  0.00     0.000 C 
BRANCH   3   4
ATOM      4  C   UNL     1     -20.342  -1.334  11.579  1.00  0.00     0.006 C 
BRANCH   4   5
ATOM      5  C   UNL     1     -20.690  -1.817  12.991  1.00  0.00     0.053 C 
BRANCH   5   6
ATOM      6  C   UNL     1     -21.224  -0.689  13.815  1.00  0.00     0.041 C 
ATOM      7  O   UNL     1     -21.267   0.478  13.341  1.00  0.00    -0.550 OA
ATOM      8  O   UNL     1     -21.627  -0.914  15.125  1.00  0.00    -0.550 OA
ENDBRANCH   5   6
ENDBRANCH   4   5
ENDBRANCH   3   4
ENDBRANCH   2   3
ENDBRANCH   1   2
BRANCH   1   9
ATOM      9  C   UNL     1     -20.346  -1.297   7.286  1.00  0.00     0.000 C 
BRANCH   9  10
ATOM     10  C   UNL     1     -20.433   0.136   6.730  1.00  0.00    -0.000 C 
BRANCH  10  11
ATOM     11  C   UNL     1     -20.083   1.200   7.784  1.00  0.00    -0.000 C 
BRANCH  11  12
ATOM     12  C   UNL     1     -20.951   2.465   7.657  1.00  0.00    -0.000 C 
BRANCH  12  13
ATOM     13  C   UNL     1     -21.618   2.855   8.987  1.00  0.00    -0.003 C 
ATOM     14  C   UNL     1     -21.520   1.757  10.044  1.00  0.00     0.004 C 
ENDBRANCH  12  13
ENDBRANCH  11  12
ENDBRANCH  10  11
ENDBRANCH   9  10
ENDBRANCH   1   9
TORSDOF 10
ENDMDL
MODEL 2
REMARK VINA RESULT:    -3.681      1.054      3.652
REMARK INTER + INTRA:          -6.638
REMARK INTER:                  -5.740
REMARK INTRA:                  -0.897
REMARK UNBOUND:                -0.805
REMARK SMILES CCCCCCCCCCCC(=O)[O-]
REMARK SMILES IDX 7 1 8 2 9 3 10 4 11 5 12 6 13 7 14 8 6 9 5 10 4 11 3 12 2 13
REMARK SMILES IDX 1 14
REMARK H PARENT
REMARK Flexibility Score: inf
ROOT
ATOM      1  C   UNL     1     -21.151   2.389   8.122  1.00  0.00     0.000 C 
ENDROOT
BRANCH   1   2
ATOM      2  C   UNL     1     -21.907   2.387   9.464  1.00  0.00     0.000 C 
BRANCH   2   3
ATOM      3  C   UNL     1     -21.014   1.970  10.644  1.00  0.00     0.000 C 
BRANCH   3   4
ATOM      4  C   UNL     1     -21.732   1.037  11.631  1.00  0.00     0.006 C 
BRANCH   4   5
ATOM      5  C   UNL     1     -21.119   1.146  13.031  1.00  0.00     0.053 C 
BRANCH   5   6
ATOM      6  C   UNL     1     -21.053  -0.200  13.681  1.00  0.00     0.041 C 
ATOM      7  O   UNL     1     -21.347  -0.330  14.898  1.00  0.00    -0.550 OA
ATOM      8  O   UNL     1     -20.618  -1.301  12.956  1.00  0.00    -0.550 OA
ENDBRANCH   5   6
ENDBRANCH   4   5
ENDBRANCH   3   4
ENDBRANCH   2   3
ENDBRANCH   1   2
BRANCH   1   9
ATOM      9  C   UNL     1     -20.076   1.292   8.048  1.00  0.00     0.000 C 
BRANCH   9  10
ATOM     10  C   UNL     1     -20.435   0.181   7.046  1.00  0.00    -0.000 C 
BRANCH  10  11
ATOM     11  C   UNL     1     -20.368  -1.223   7.672  1.00  0.00    -0.000 C 
BRANCH  11  12
ATOM     12  C   UNL     1     -20.289  -1.181   9.208  1.00  0.00    -0.000 C 
BRANCH  12  13
ATOM     13  C   UNL     1     -19.565  -2.406   9.793  1.00  0.00    -0.003 C 
ATOM     14  C   UNL     1     -19.291  -3.487   8.748  1.00  0.00     0.004 C 
ENDBRANCH  12  13
ENDBRANCH  11  12
ENDBRANCH  10  11
ENDBRANCH   9  10
ENDBRANCH   1   9
TORSDOF 10
ENDMDL
MODEL 3
REMARK VINA RESULT:    -3.645      0.717      1.343
REMARK INTER + INTRA:          -6.581
REMARK INTER:                  -5.659
REMARK INTRA:                  -0.922
REMARK UNBOUND:                -0.805
REMARK SMILES CCCCCCCCCCCC(=O)[O-]
REMARK SMILES IDX 7 1 8 2 9 3 10 4 11 5 12 6 13 7 14 8 6 9 5 10 4 11 3 12 2 13
REMARK SMILES IDX 1 14
REMARK H PARENT
REMARK Flexibility Score: inf
ROOT
ATOM      1  C   UNL     1     -19.692  -2.363   7.913  1.00  0.00     0.000 C 
ENDROOT
BRANCH   1   2
ATOM      2  C   UNL     1     -19.266  -2.610   9.372  1.00  0.00     0.000 C 
BRANCH   2   3
ATOM      3  C   UNL     1     -20.417  -2.393  10.368  1.00  0.00     0.000 C 
BRANCH   3   4
ATOM      4  C   UNL     1     -20.014  -1.510  11.558  1.00  0.00     0.006 C 
BRANCH   4   5
ATOM      5  C   UNL     1     -20.743  -1.945  12.833  1.00  0.00     0.053 C 
BRANCH   5   6
ATOM      6  C   UNL     1     -21.170  -0.750  13.627  1.00  0.00     0.041 C 
ATOM      7  O   UNL     1     -21.511  -0.879  14.833  1.00  0.00    -0.550 OA
ATOM      8  O   UNL     1     -21.239   0.498  13.022  1.00  0.00    -0.550 OA
ENDBRANCH   5   6
ENDBRANCH   4   5
ENDBRANCH   3   4
ENDBRANCH   2   3
ENDBRANCH   1   2
BRANCH   1   9
ATOM      9  C   UNL     1     -20.703  -1.212   7.780  1.00  0.00     0.000 C 
BRANCH   9  10
ATOM     10  C   UNL     1     -20.123  -0.001   7.027  1.00  0.00    -0.000 C 
BRANCH  10  11
ATOM     11  C   UNL     1     -20.412   1.331   7.740  1.00  0.00    -0.000 C 
BRANCH  11  12
ATOM     12  C   UNL     1     -20.742   1.143   9.231  1.00  0.00    -0.000 C 
BRANCH  12  13
ATOM     13  C   UNL     1     -21.785   2.155   9.734  1.00  0.00    -0.003 C 
ATOM     14  C   UNL     1     -21.749   3.475   8.965  1.00  0.00     0.004 C 
ENDBRANCH  12  13
ENDBRANCH  11  12
ENDBRANCH  10  11
ENDBRANCH   9  10
ENDBRANCH   1   9
TORSDOF 10
ENDMDL
MODEL 4
REMARK VINA RESULT:    -3.599      2.186      4.796
REMARK INTER + INTRA:          -6.507
REMARK INTER:                  -6.000
REMARK INTRA:                  -0.508
REMARK UNBOUND:                -0.805
REMARK SMILES CCCCCCCCCCCC(=O)[O-]
REMARK SMILES IDX 7 1 8 2 9 3 10 4 11 5 12 6 13 7 14 8 6 9 5 10 4 11 3 12 2 13
REMARK SMILES IDX 1 14
REMARK H PARENT
REMARK Flexibility Score: inf
ROOT
ATOM      1  C   UNL     1     -21.084   2.440   7.947  1.00  0.00     0.000 C 
ENDROOT
BRANCH   1   2
ATOM      2  C   UNL     1     -20.065   1.289   7.860  1.00  0.00     0.000 C 
BRANCH   2   3
ATOM      3  C   UNL     1     -20.498   0.190   6.876  1.00  0.00     0.000 C 
BRANCH   3   4
ATOM      4  C   UNL     1     -20.425  -1.217   7.488  1.00  0.00     0.006 C 
BRANCH   4   5
ATOM      5  C   UNL     1     -20.476  -1.152   9.018  1.00  0.00     0.053 C 
BRANCH   5   6
ATOM      6  C   UNL     1     -19.600  -2.206   9.617  1.00  0.00     0.041 C 
ATOM      7  O   UNL     1     -19.103  -2.041  10.763  1.00  0.00    -0.550 OA
ATOM      8  O   UNL     1     -19.293  -3.350   8.893  1.00  0.00    -0.550 OA
ENDBRANCH   5   6
ENDBRANCH   4   5
ENDBRANCH   3   4
ENDBRANCH   2   3
ENDBRANCH   1   2
BRANCH   1   9
ATOM      9  C   UNL     1     -21.798   2.494   9.308  1.00  0.00     0.000 C 
BRANCH   9  10
ATOM     10  C   UNL     1     -21.063   1.690  10.394  1.00  0.00    -0.000 C 
BRANCH  10  11
ATOM     11  C   UNL     1     -21.941   1.424  11.628  1.00  0.00    -0.000 C 
BRANCH  11  12
ATOM     12  C   UNL     1     -21.117   1.299  12.923  1.00  0.00    -0.000 C 
BRANCH  12  13
ATOM     13  C   UNL     1     -21.255  -0.087  13.575  1.00  0.00    -0.003 C 
ATOM     14  C   UNL     1     -20.570  -0.171  14.939  1.00  0.00     0.004 C 
ENDBRANCH  12  13
ENDBRANCH  11  12
ENDBRANCH  10  11
ENDBRANCH   9  10
ENDBRANCH   1   9
TORSDOF 10
ENDMDL
MODEL 5
REMARK VINA RESULT:    -3.520      1.858      4.767
REMARK INTER + INTRA:          -6.382
REMARK INTER:                  -5.994
REMARK INTRA:                  -0.389
REMARK UNBOUND:                -0.805
REMARK SMILES CCCCCCCCCCCC(=O)[O-]
REMARK SMILES IDX 7 1 8 2 9 3 10 4 11 5 12 6 13 7 14 8 6 9 5 10 4 11 3 12 2 13
REMARK SMILES IDX 1 14
REMARK H PARENT
REMARK Flexibility Score: inf
ROOT
ATOM      1  C   UNL     1     -19.857  -2.288   7.636  1.00  0.00     0.000 C 
ENDROOT
BRANCH   1   2
ATOM      2  C   UNL     1     -20.814  -1.087   7.517  1.00  0.00     0.000 C 
BRANCH   2   3
ATOM      3  C   UNL     1     -20.183   0.100   6.771  1.00  0.00     0.000 C 
BRANCH   3   4
ATOM      4  C   UNL     1     -20.434   1.443   7.473  1.00  0.00     0.006 C 
BRANCH   4   5
ATOM      5  C   UNL     1     -20.706   1.237   8.966  1.00  0.00     0.053 C 
BRANCH   5   6
ATOM      6  C   UNL     1     -21.710   2.232   9.458  1.00  0.00     0.041 C 
ATOM      7  O   UNL     1     -21.813   3.357   8.901  1.00  0.00    -0.550 OA
ATOM      8  O   UNL     1     -22.497   1.937  10.563  1.00  0.00    -0.550 OA
ENDBRANCH   5   6
ENDBRANCH   4   5
ENDBRANCH   3   4
ENDBRANCH   2   3
ENDBRANCH   1   2
BRANCH   1   9
ATOM      9  C   UNL     1     -19.607  -2.702   9.095  1.00  0.00     0.000 C 
BRANCH   9  10
ATOM     10  C   UNL     1     -20.075  -1.634  10.100  1.00  0.00    -0.000 C 
BRANCH  10  11
ATOM     11  C   UNL     1     -19.597  -1.923  11.533  1.00  0.00    -0.000 C 
BRANCH  11  12
ATOM     12  C   UNL     1     -20.752  -1.938  12.550  1.00  0.00    -0.000 C 
BRANCH  12  13
ATOM     13  C   UNL     1     -20.776  -0.678  13.431  1.00  0.00    -0.003 C 
ATOM     14  C   UNL     1     -21.659  -0.836  14.669  1.00  0.00     0.004 C 
ENDBRANCH  12  13
ENDBRANCH  11  12
ENDBRANCH  10  11
ENDBRANCH   9  10
ENDBRANCH   1   9
TORSDOF 10
ENDMDL
MODEL 6
REMARK VINA RESULT:    -3.280      3.310      4.306
REMARK INTER + INTRA:          -6.002
REMARK INTER:                  -5.481
REMARK INTRA:                  -0.521
REMARK UNBOUND:                -0.805
REMARK SMILES CCCCCCCCCCCC(=O)[O-]
REMARK SMILES IDX 7 1 8 2 9 3 10 4 11 5 12 6 13 7 14 8 6 9 5 10 4 11 3 12 2 13
REMARK SMILES IDX 1 14
REMARK H PARENT
REMARK Flexibility Score: inf
ROOT
ATOM      1  C   UNL     1     -19.817  -0.659   6.726  1.00  0.00     0.000 C 
ENDROOT
BRANCH   1   2
ATOM      2  C   UNL     1     -20.321  -1.843   7.572  1.00  0.00     0.000 C 
BRANCH   2   3
ATOM      3  C   UNL     1     -19.992  -1.684   9.065  1.00  0.00     0.000 C 
BRANCH   3   4
ATOM      4  C   UNL     1     -19.497  -2.989   9.706  1.00  0.00     0.006 C 
BRANCH   4   5
ATOM      5  C   UNL     1     -18.794  -3.874   8.672  1.00  0.00     0.053 C 
BRANCH   5   6
ATOM      6  C   UNL     1     -19.398  -5.243   8.656  1.00  0.00     0.041 C 
ATOM      7  O   UNL     1     -18.883  -6.155   7.956  1.00  0.00    -0.550 OA
ATOM      8  O   UNL     1     -20.558  -5.499   9.374  1.00  0.00    -0.550 OA
ENDBRANCH   5   6
ENDBRANCH   4   5
ENDBRANCH   3   4
ENDBRANCH   2   3
ENDBRANCH   1   2
BRANCH   1   9
ATOM      9  C   UNL     1     -20.815   0.510   6.691  1.00  0.00     0.000 C 
BRANCH   9  10
ATOM     10  C   UNL     1     -20.309   1.742   7.463  1.00  0.00    -0.000 C 
BRANCH  10  11
ATOM     11  C   UNL     1     -21.246   2.143   8.614  1.00  0.00    -0.000 C 
BRANCH  11  12
ATOM     12  C   UNL     1     -21.096   1.231   9.844  1.00  0.00    -0.000 C 
BRANCH  12  13
ATOM     13  C   UNL     1     -21.967   1.690  11.026  1.00  0.00    -0.003 C 
ATOM     14  C   UNL     1     -21.355   1.342  12.383  1.00  0.00     0.004 C 
ENDBRANCH  12  13
ENDBRANCH  11  12
ENDBRANCH  10  11
ENDBRANCH   9  10
ENDBRANCH   1   9
TORSDOF 10
ENDMDL
MODEL 7
REMARK VINA RESULT:    -3.070      2.559      5.620
REMARK INTER + INTRA:          -5.669
REMARK INTER:                  -5.285
REMARK INTRA:                  -0.384
REMARK UNBOUND:                -0.805
REMARK SMILES CCCCCCCCCCCC(=O)[O-]
REMARK SMILES IDX 7 1 8 2 9 3 10 4 11 5 12 6 13 7 14 8 6 9 5 10 4 11 3 12 2 13
REMARK SMILES IDX 1 14
REMARK H PARENT
REMARK Flexibility Score: inf
ROOT
ATOM      1  C   UNL     1     -20.101  -1.919   7.402  1.00  0.00     0.000 C 
ENDROOT
BRANCH   1   2
ATOM      2  C   UNL     1     -19.623  -0.591   6.787  1.00  0.00     0.000 C 
BRANCH   2   3
ATOM      3  C   UNL     1     -20.768   0.417   6.596  1.00  0.00     0.000 C 
BRANCH   3   4
ATOM      4  C   UNL     1     -20.645   1.637   7.521  1.00  0.00     0.006 C 
BRANCH   4   5
ATOM      5  C   UNL     1     -20.802   1.229   8.989  1.00  0.00     0.053 C 
BRANCH   5   6
ATOM      6  C   UNL     1     -21.700   2.187   9.707  1.00  0.00     0.041 C 
ATOM      7  O   UNL     1     -22.280   1.837  10.769  1.00  0.00    -0.550 OA
ATOM      8  O   UNL     1     -21.935   3.449   9.178  1.00  0.00    -0.550 OA
ENDBRANCH   5   6
ENDBRANCH   4   5
ENDBRANCH   3   4
ENDBRANCH   2   3
ENDBRANCH   1   2
BRANCH   1   9
ATOM      9  C   UNL     1     -20.083  -1.899   8.939  1.00  0.00     0.000 C 
BRANCH   9  10
ATOM     10  C   UNL     1     -19.448  -3.166   9.539  1.00  0.00    -0.000 C 
BRANCH  10  11
ATOM     11  C   UNL     1     -18.923  -4.130   8.462  1.00  0.00    -0.000 C 
BRANCH  11  12
ATOM     12  C   UNL     1     -19.592  -5.515   8.531  1.00  0.00    -0.000 C 
BRANCH  12  13
ATOM     13  C   UNL     1     -20.727  -5.568   9.568  1.00  0.00    -0.003 C 
ATOM     14  C   UNL     1     -21.835  -6.547   9.184  1.00  0.00     0.004 C 
ENDBRANCH  12  13
ENDBRANCH  11  12
ENDBRANCH  10  11
ENDBRANCH   9  10
ENDBRANCH   1   9
TORSDOF 10
ENDMDL
MODEL 8
REMARK VINA RESULT:    -2.974      2.872      5.386
REMARK INTER + INTRA:          -5.518
REMARK INTER:                  -4.809
REMARK INTRA:                  -0.709
REMARK UNBOUND:                -0.805
REMARK SMILES CCCCCCCCCCCC(=O)[O-]
REMARK SMILES IDX 7 1 8 2 9 3 10 4 11 5 12 6 13 7 14 8 6 9 5 10 4 11 3 12 2 13
REMARK SMILES IDX 1 14
REMARK H PARENT
REMARK Flexibility Score: inf
ROOT
ATOM      1  C   UNL     1     -20.364   0.323   6.847  1.00  0.00     0.000 C 
ENDROOT
BRANCH   1   2
ATOM      2  C   UNL     1     -20.399   1.626   7.666  1.00  0.00     0.000 C 
BRANCH   2   3
ATOM      3  C   UNL     1     -21.067   1.443   9.038  1.00  0.00     0.000 C 
BRANCH   3   4
ATOM      4  C   UNL     1     -21.443   2.778   9.698  1.00  0.00     0.006 C 
BRANCH   4   5
ATOM      5  C   UNL     1     -21.985   3.767   8.661  1.00  0.00     0.053 C 
BRANCH   5   6
ATOM      6  C   UNL     1     -21.609   5.168   9.026  1.00  0.00     0.041 C 
ATOM      7  O   UNL     1     -22.183   6.143   8.472  1.00  0.00    -0.550 OA
ATOM      8  O   UNL     1     -20.592   5.400   9.942  1.00  0.00    -0.550 OA
ENDBRANCH   5   6
ENDBRANCH   4   5
ENDBRANCH   3   4
ENDBRANCH   2   3
ENDBRANCH   1   2
BRANCH   1   9
ATOM      9  C   UNL     1     -20.818  -0.900   7.662  1.00  0.00     0.000 C 
BRANCH   9  10
ATOM     10  C   UNL     1     -19.787  -2.042   7.637  1.00  0.00    -0.000 C 
BRANCH  10  11
ATOM     11  C   UNL     1     -19.579  -2.680   9.021  1.00  0.00    -0.000 C 
BRANCH  11  12
ATOM     12  C   UNL     1     -19.964  -1.733  10.172  1.00  0.00    -0.000 C 
BRANCH  12  13
ATOM     13  C   UNL     1     -20.607  -2.477  11.354  1.00  0.00    -0.003 C 
ATOM     14  C   UNL     1     -20.428  -1.745  12.684  1.00  0.00     0.004 C 
ENDBRANCH  12  13
ENDBRANCH  11  12
ENDBRANCH  10  11
ENDBRANCH   9  10
ENDBRANCH   1   9
TORSDOF 10
ENDMDL
MODEL 9
REMARK VINA RESULT:    -2.802      1.392      2.306
REMARK INTER + INTRA:          -5.244
REMARK INTER:                  -4.639
REMARK INTRA:                  -0.605
REMARK UNBOUND:                -0.805
REMARK SMILES CCCCCCCCCCCC(=O)[O-]
REMARK SMILES IDX 7 1 8 2 9 3 10 4 11 5 12 6 13 7 14 8 6 9 5 10 4 11 3 12 2 13
REMARK SMILES IDX 1 14
REMARK H PARENT
REMARK Flexibility Score: inf
ROOT
ATOM      1  C   UNL     1     -20.043  -1.585  10.203  1.00  0.00     0.000 C 
ENDROOT
BRANCH   1   2
ATOM      2  C   UNL     1     -19.557  -1.978  11.610  1.00  0.00     0.000 C 
BRANCH   2   3
ATOM      3  C   UNL     1     -20.707  -2.090  12.623  1.00  0.00     0.000 C 
BRANCH   3   4
ATOM      4  C   UNL     1     -20.645  -1.011  13.715  1.00  0.00     0.006 C 
BRANCH   4   5
ATOM      5  C   UNL     1     -21.813  -0.030  13.581  1.00  0.00     0.053 C 
BRANCH   5   6
ATOM      6  C   UNL     1     -21.374   1.216  12.879  1.00  0.00     0.041 C 
ATOM      7  O   UNL     1     -21.558   1.343  11.639  1.00  0.00    -0.550 OA
ATOM      8  O   UNL     1     -20.717   2.216  13.582  1.00  0.00    -0.550 OA
ENDBRANCH   5   6
ENDBRANCH   4   5
ENDBRANCH   3   4
ENDBRANCH   2   3
ENDBRANCH   1   2
BRANCH   1   9
ATOM      9  C   UNL     1     -19.603  -2.588   9.124  1.00  0.00     0.000 C 
BRANCH   9  10
ATOM     10  C   UNL     1     -20.003  -2.143   7.706  1.00  0.00    -0.000 C 
BRANCH  10  11
ATOM     11  C   UNL     1     -20.756  -0.801   7.699  1.00  0.00    -0.000 C 
BRANCH  11  12
ATOM     12  C   UNL     1     -20.126   0.224   6.739  1.00  0.00    -0.000 C 
BRANCH  12  13
ATOM     13  C   UNL     1     -20.244   1.666   7.260  1.00  0.00    -0.003 C 
ATOM     14  C   UNL     1     -21.008   1.759   8.580  1.00  0.00     0.004 C 
ENDBRANCH  12  13
ENDBRANCH  11  12
ENDBRANCH  10  11
ENDBRANCH   9  10
ENDBRANCH   1   9
TORSDOF 10
ENDMDL
