MODEL 1
REMARK VINA RESULT:    -4.854      0.000      0.000
REMARK INTER + INTRA:         -11.230
REMARK INTER:                  -9.110
REMARK INTRA:                  -2.120
REMARK UNBOUND:                -2.120
REMARK SMILES CCCCCCCCC=CCCCCCCCC(=O)[O-]
REMARK SMILES IDX 10 1 9 2 11 3 12 4 13 5 14 6 15 7 16 8 17 9 18 10 19 11
REMARK SMILES IDX 20 12 8 13 7 14 6 15 5 16 4 17 3 18 2 19 1 20
REMARK H PARENT
REMARK Flexibility Score: inf
ROOT
ATOM      1  C   UNL     1      -5.977  65.691  29.494  1.00  0.00    -0.031 C 
ATOM      2  C   UNL     1      -4.699  65.275  29.583  1.00  0.00    -0.031 C 
ENDROOT
BRANCH   1   3
ATOM      3  C   UNL     1      -6.426  67.037  28.973  1.00  0.00     0.027 C 
BRANCH   3   4
ATOM      4  C   UNL     1      -7.914  67.033  28.584  1.00  0.00     0.004 C 
BRANCH   4   5
ATOM      5  C   UNL     1      -8.775  66.019  29.359  1.00  0.00     0.000 C 
BRANCH   5   6
ATOM      6  C   UNL     1     -10.199  65.894  28.799  1.00  0.00     0.000 C 
BRANCH   6   7
ATOM      7  C   UNL     1     -11.048  67.111  29.185  1.00  0.00     0.000 C 
BRANCH   7   8
ATOM      8  C   UNL     1     -12.314  66.682  29.939  1.00  0.00     0.006 C 
BRANCH   8   9
ATOM      9  C   UNL     1     -11.970  66.145  31.332  1.00  0.00     0.053 C 
BRANCH   9  10
ATOM     10  C   UNL     1     -12.862  64.998  31.687  1.00  0.00     0.041 C 
ATOM     11  O   UNL     1     -13.328  64.255  30.784  1.00  0.00    -0.550 OA
ATOM     12  O   UNL     1     -13.132  64.715  33.021  1.00  0.00    -0.550 OA
ENDBRANCH   9  10
ENDBRANCH   8   9
ENDBRANCH   7   8
ENDBRANCH   6   7
ENDBRANCH   5   6
ENDBRANCH   4   5
ENDBRANCH   3   4
ENDBRANCH   1   3
BRANCH   2  13
ATOM     13  C   UNL     1      -3.488  66.095  29.211  1.00  0.00     0.027 C 
BRANCH  13  14
ATOM     14  C   UNL     1      -2.852  66.753  30.442  1.00  0.00     0.004 C 
BRANCH  14  15
ATOM     15  C   UNL     1      -3.288  68.219  30.566  1.00  0.00     0.000 C 
BRANCH  15  16
ATOM     16  C   UNL     1      -4.333  68.436  31.672  1.00  0.00     0.000 C 
BRANCH  16  17
ATOM     17  C   UNL     1      -4.114  67.510  32.883  1.00  0.00    -0.000 C 
BRANCH  17  18
ATOM     18  C   UNL     1      -5.396  67.340  33.726  1.00  0.00    -0.000 C 
BRANCH  18  19
ATOM     19  C   UNL     1      -6.426  66.390  33.091  1.00  0.00    -0.003 C 
ATOM     20  C   UNL     1      -7.706  67.099  32.656  1.00  0.00     0.004 C 
ENDBRANCH  18  19
ENDBRANCH  17  18
ENDBRANCH  16  17
ENDBRANCH  15  16
ENDBRANCH  14  15
ENDBRANCH  13  14
ENDBRANCH   2  13
TORSDOF 15
ENDMDL
MODEL 2
REMARK VINA RESULT:    -4.812      1.793      4.000
REMARK INTER + INTRA:         -11.151
REMARK INTER:                  -7.860
REMARK INTRA:                  -3.292
REMARK UNBOUND:                -2.120
REMARK SMILES CCCCCCCCC=CCCCCCCCC(=O)[O-]
REMARK SMILES IDX 10 1 9 2 11 3 12 4 13 5 14 6 15 7 16 8 17 9 18 10 19 11
REMARK SMILES IDX 20 12 8 13 7 14 6 15 5 16 4 17 3 18 2 19 1 20
REMARK H PARENT
REMARK Flexibility Score: inf
ROOT
ATOM      1  C   UNL     1      -4.354  68.505  31.671  1.00  0.00    -0.031 C 
ATOM      2  C   UNL     1      -4.296  67.543  32.613  1.00  0.00    -0.031 C 
ENDROOT
BRANCH   1   3
ATOM      3  C   UNL     1      -5.379  69.614  31.613  1.00  0.00     0.027 C 
BRANCH   3   4
ATOM      4  C   UNL     1      -6.196  69.570  30.310  1.00  0.00     0.004 C 
BRANCH   4   5
ATOM      5  C   UNL     1      -7.700  69.852  30.489  1.00  0.00     0.000 C 
BRANCH   5   6
ATOM      6  C   UNL     1      -8.504  69.637  29.199  1.00  0.00     0.000 C 
BRANCH   6   7
ATOM      7  C   UNL     1      -9.791  68.851  29.479  1.00  0.00     0.000 C 
BRANCH   7   8
ATOM      8  C   UNL     1     -10.066  67.831  28.366  1.00  0.00     0.006 C 
BRANCH   8   9
ATOM      9  C   UNL     1     -10.697  66.556  28.933  1.00  0.00     0.053 C 
BRANCH   9  10
ATOM     10  C   UNL     1     -12.175  66.725  29.088  1.00  0.00     0.041 C 
ATOM     11  O   UNL     1     -12.848  67.278  28.179  1.00  0.00    -0.550 OA
ATOM     12  O   UNL     1     -12.819  66.220  30.211  1.00  0.00    -0.550 OA
ENDBRANCH   9  10
ENDBRANCH   8   9
ENDBRANCH   7   8
ENDBRANCH   6   7
ENDBRANCH   5   6
ENDBRANCH   4   5
ENDBRANCH   3   4
ENDBRANCH   1   3
BRANCH   2  13
ATOM     13  C   UNL     1      -5.268  67.384  33.756  1.00  0.00     0.027 C 
BRANCH  13  14
ATOM     14  C   UNL     1      -6.318  66.306  33.458  1.00  0.00     0.004 C 
BRANCH  14  15
ATOM     15  C   UNL     1      -7.638  66.939  32.998  1.00  0.00     0.000 C 
BRANCH  15  16
ATOM     16  C   UNL     1      -8.169  66.323  31.694  1.00  0.00     0.000 C 
BRANCH  16  17
ATOM     17  C   UNL     1      -7.074  65.590  30.897  1.00  0.00    -0.000 C 
BRANCH  17  18
ATOM     18  C   UNL     1      -6.953  66.116  29.452  1.00  0.00    -0.000 C 
BRANCH  18  19
ATOM     19  C   UNL     1      -5.499  66.257  28.969  1.00  0.00    -0.003 C 
ATOM     20  C   UNL     1      -4.543  65.287  29.658  1.00  0.00     0.004 C 
ENDBRANCH  18  19
ENDBRANCH  17  18
ENDBRANCH  16  17
ENDBRANCH  15  16
ENDBRANCH  14  15
ENDBRANCH  13  14
ENDBRANCH   2  13
TORSDOF 15
ENDMDL
MODEL 3
REMARK VINA RESULT:    -4.793      1.730      3.097
REMARK INTER + INTRA:         -11.115
REMARK INTER:                  -8.041
REMARK INTRA:                  -3.074
REMARK UNBOUND:                -2.120
REMARK SMILES CCCCCCCCC=CCCCCCCCC(=O)[O-]
REMARK SMILES IDX 10 1 9 2 11 3 12 4 13 5 14 6 15 7 16 8 17 9 18 10 19 11
REMARK SMILES IDX 20 12 8 13 7 14 6 15 5 16 4 17 3 18 2 19 1 20
REMARK H PARENT
REMARK Flexibility Score: inf
ROOT
ATOM      1  C   UNL     1      -6.129  67.594  28.502  1.00  0.00    -0.031 C 
ATOM      2  C   UNL     1      -6.040  66.356  29.025  1.00  0.00    -0.031 C 
ENDROOT
BRANCH   1   3
ATOM      3  C   UNL     1      -7.349  68.484  28.560  1.00  0.00     0.027 C 
BRANCH   3   4
ATOM      4  C   UNL     1      -7.348  69.375  29.814  1.00  0.00     0.004 C 
BRANCH   4   5
ATOM      5  C   UNL     1      -8.748  69.759  30.326  1.00  0.00     0.000 C 
BRANCH   5   6
ATOM      6  C   UNL     1      -9.805  68.682  30.038  1.00  0.00     0.000 C 
BRANCH   6   7
ATOM      7  C   UNL     1     -10.527  68.266  31.325  1.00  0.00     0.000 C 
BRANCH   7   8
ATOM      8  C   UNL     1     -10.888  66.775  31.296  1.00  0.00     0.006 C 
BRANCH   8   9
ATOM      9  C   UNL     1     -10.764  66.207  29.879  1.00  0.00     0.053 C 
BRANCH   9  10
ATOM     10  C   UNL     1     -12.104  65.788  29.362  1.00  0.00     0.041 C 
ATOM     11  O   UNL     1     -12.728  64.842  29.911  1.00  0.00    -0.550 OA
ATOM     12  O   UNL     1     -12.690  66.480  28.309  1.00  0.00    -0.550 OA
ENDBRANCH   9  10
ENDBRANCH   8   9
ENDBRANCH   7   8
ENDBRANCH   6   7
ENDBRANCH   5   6
ENDBRANCH   4   5
ENDBRANCH   3   4
ENDBRANCH   1   3
BRANCH   2  13
ATOM     13  C   UNL     1      -7.155  65.626  29.732  1.00  0.00     0.027 C 
BRANCH  13  14
ATOM     14  C   UNL     1      -6.782  65.298  31.184  1.00  0.00     0.004 C 
BRANCH  14  15
ATOM     15  C   UNL     1      -7.310  66.375  32.142  1.00  0.00     0.000 C 
BRANCH  15  16
ATOM     16  C   UNL     1      -6.635  66.323  33.522  1.00  0.00     0.000 C 
BRANCH  16  17
ATOM     17  C   UNL     1      -5.280  67.054  33.547  1.00  0.00    -0.000 C 
BRANCH  17  18
ATOM     18  C   UNL     1      -5.353  68.441  32.874  1.00  0.00    -0.000 C 
BRANCH  18  19
ATOM     19  C   UNL     1      -4.346  68.620  31.725  1.00  0.00    -0.003 C 
ATOM     20  C   UNL     1      -3.461  67.395  31.508  1.00  0.00     0.004 C 
ENDBRANCH  18  19
ENDBRANCH  17  18
ENDBRANCH  16  17
ENDBRANCH  15  16
ENDBRANCH  14  15
ENDBRANCH  13  14
ENDBRANCH   2  13
TORSDOF 15
ENDMDL
MODEL 4
REMARK VINA RESULT:    -4.789      1.054      2.970
REMARK INTER + INTRA:         -11.109
REMARK INTER:                  -8.622
REMARK INTRA:                  -2.487
REMARK UNBOUND:                -2.120
REMARK SMILES CCCCCCCCC=CCCCCCCCC(=O)[O-]
REMARK SMILES IDX 10 1 9 2 11 3 12 4 13 5 14 6 15 7 16 8 17 9 18 10 19 11
REMARK SMILES IDX 20 12 8 13 7 14 6 15 5 16 4 17 3 18 2 19 1 20
REMARK H PARENT
REMARK Flexibility Score: inf
ROOT
ATOM      1  C   UNL     1      -8.212  66.880  31.421  1.00  0.00    -0.031 C 
ATOM      2  C   UNL     1      -7.672  67.124  32.631  1.00  0.00    -0.031 C 
ENDROOT
BRANCH   1   3
ATOM      3  C   UNL     1      -7.995  65.628  30.601  1.00  0.00     0.027 C 
BRANCH   3   4
ATOM      4  C   UNL     1      -8.885  65.605  29.346  1.00  0.00     0.004 C 
BRANCH   4   5
ATOM      5  C   UNL     1      -9.130  66.986  28.711  1.00  0.00     0.000 C 
BRANCH   5   6
ATOM      6  C   UNL     1     -10.608  67.401  28.738  1.00  0.00     0.000 C 
BRANCH   6   7
ATOM      7  C   UNL     1     -11.504  66.212  29.105  1.00  0.00     0.000 C 
BRANCH   7   8
ATOM      8  C   UNL     1     -12.456  66.573  30.253  1.00  0.00     0.006 C 
BRANCH   8   9
ATOM      9  C   UNL     1     -11.964  65.989  31.580  1.00  0.00     0.053 C 
BRANCH   9  10
ATOM     10  C   UNL     1     -12.992  65.073  32.164  1.00  0.00     0.041 C 
ATOM     11  O   UNL     1     -13.046  64.893  33.409  1.00  0.00    -0.550 OA
ATOM     12  O   UNL     1     -13.929  64.464  31.339  1.00  0.00    -0.550 OA
ENDBRANCH   9  10
ENDBRANCH   8   9
ENDBRANCH   7   8
ENDBRANCH   6   7
ENDBRANCH   5   6
ENDBRANCH   4   5
ENDBRANCH   3   4
ENDBRANCH   1   3
BRANCH   2  13
ATOM     13  C   UNL     1      -6.727  66.205  33.365  1.00  0.00     0.027 C 
BRANCH  13  14
ATOM     14  C   UNL     1      -5.384  66.889  33.650  1.00  0.00     0.004 C 
BRANCH  14  15
ATOM     15  C   UNL     1      -5.378  68.328  33.116  1.00  0.00     0.000 C 
BRANCH  15  16
ATOM     16  C   UNL     1      -4.462  68.505  31.895  1.00  0.00     0.000 C 
BRANCH  16  17
ATOM     17  C   UNL     1      -3.869  67.172  31.402  1.00  0.00    -0.000 C 
BRANCH  17  18
ATOM     18  C   UNL     1      -4.531  66.687  30.095  1.00  0.00    -0.000 C 
BRANCH  18  19
ATOM     19  C   UNL     1      -5.294  67.793  29.346  1.00  0.00    -0.003 C 
ATOM     20  C   UNL     1      -5.447  67.510  27.854  1.00  0.00     0.004 C 
ENDBRANCH  18  19
ENDBRANCH  17  18
ENDBRANCH  16  17
ENDBRANCH  15  16
ENDBRANCH  14  15
ENDBRANCH  13  14
ENDBRANCH   2  13
TORSDOF 15
ENDMDL
MODEL 5
REMARK VINA RESULT:    -4.782      2.995      6.777
REMARK INTER + INTRA:         -11.096
REMARK INTER:                  -8.091
REMARK INTRA:                  -3.005
REMARK UNBOUND:                -2.120
REMARK SMILES CCCCCCCCC=CCCCCCCCC(=O)[O-]
REMARK SMILES IDX 10 1 9 2 11 3 12 4 13 5 14 6 15 7 16 8 17 9 18 10 19 11
REMARK SMILES IDX 20 12 8 13 7 14 6 15 5 16 4 17 3 18 2 19 1 20
REMARK H PARENT
REMARK Flexibility Score: inf
ROOT
ATOM      1  C   UNL     1      -9.383  69.739  30.146  1.00  0.00    -0.031 C 
ATOM      2  C   UNL     1     -10.094  69.027  31.042  1.00  0.00    -0.031 C 
ENDROOT
BRANCH   1   3
ATOM      3  C   UNL     1      -7.962  69.443  29.722  1.00  0.00     0.027 C 
BRANCH   3   4
ATOM      4  C   UNL     1      -7.913  68.630  28.416  1.00  0.00     0.004 C 
BRANCH   4   5
ATOM      5  C   UNL     1      -7.801  67.107  28.616  1.00  0.00     0.000 C 
BRANCH   5   6
ATOM      6  C   UNL     1      -6.394  66.664  29.043  1.00  0.00     0.000 C 
BRANCH   6   7
ATOM      7  C   UNL     1      -6.377  66.242  30.517  1.00  0.00     0.000 C 
BRANCH   7   8
ATOM      8  C   UNL     1      -5.334  67.044  31.308  1.00  0.00     0.006 C 
BRANCH   8   9
ATOM      9  C   UNL     1      -5.993  67.832  32.444  1.00  0.00     0.053 C 
BRANCH   9  10
ATOM     10  C   UNL     1      -6.024  67.017  33.698  1.00  0.00     0.041 C 
ATOM     11  O   UNL     1      -7.122  66.614  34.164  1.00  0.00    -0.550 OA
ATOM     12  O   UNL     1      -4.836  66.655  34.322  1.00  0.00    -0.550 OA
ENDBRANCH   9  10
ENDBRANCH   8   9
ENDBRANCH   7   8
ENDBRANCH   6   7
ENDBRANCH   5   6
ENDBRANCH   4   5
ENDBRANCH   3   4
ENDBRANCH   1   3
BRANCH   2  13
ATOM     13  C   UNL     1      -9.585  67.830  31.806  1.00  0.00     0.027 C 
BRANCH  13  14
ATOM     14  C   UNL     1     -10.168  66.522  31.257  1.00  0.00     0.004 C 
BRANCH  14  15
ATOM     15  C   UNL     1     -11.661  66.404  31.594  1.00  0.00     0.000 C 
BRANCH  15  16
ATOM     16  C   UNL     1     -12.528  66.119  30.357  1.00  0.00     0.000 C 
BRANCH  16  17
ATOM     17  C   UNL     1     -11.748  66.275  29.039  1.00  0.00    -0.000 C 
BRANCH  17  18
ATOM     18  C   UNL     1     -12.323  67.398  28.151  1.00  0.00    -0.000 C 
BRANCH  18  19
ATOM     19  C   UNL     1     -11.324  67.930  27.109  1.00  0.00    -0.003 C 
ATOM     20  C   UNL     1     -11.320  69.453  27.008  1.00  0.00     0.004 C 
ENDBRANCH  18  19
ENDBRANCH  17  18
ENDBRANCH  16  17
ENDBRANCH  15  16
ENDBRANCH  14  15
ENDBRANCH  13  14
ENDBRANCH   2  13
TORSDOF 15
ENDMDL
MODEL 6
REMARK VINA RESULT:    -4.782      1.654      4.090
REMARK INTER + INTRA:         -11.095
REMARK INTER:                  -8.312
REMARK INTRA:                  -2.783
REMARK UNBOUND:                -2.120
REMARK SMILES CCCCCCCCC=CCCCCCCCC(=O)[O-]
REMARK SMILES IDX 10 1 9 2 11 3 12 4 13 5 14 6 15 7 16 8 17 9 18 10 19 11
REMARK SMILES IDX 20 12 8 13 7 14 6 15 5 16 4 17 3 18 2 19 1 20
REMARK H PARENT
REMARK Flexibility Score: inf
ROOT
ATOM      1  C   UNL     1      -3.986  67.570  32.558  1.00  0.00    -0.031 C 
ATOM      2  C   UNL     1      -4.006  68.712  31.842  1.00  0.00    -0.031 C 
ENDROOT
BRANCH   1   3
ATOM      3  C   UNL     1      -4.977  67.194  33.635  1.00  0.00     0.027 C 
BRANCH   3   4
ATOM      4  C   UNL     1      -6.140  66.357  33.076  1.00  0.00     0.004 C 
BRANCH   4   5
ATOM      5  C   UNL     1      -7.539  66.849  33.490  1.00  0.00     0.000 C 
BRANCH   5   6
ATOM      6  C   UNL     1      -8.318  67.478  32.325  1.00  0.00     0.000 C 
BRANCH   6   7
ATOM      7  C   UNL     1      -8.998  66.398  31.475  1.00  0.00     0.000 C 
BRANCH   7   8
ATOM      8  C   UNL     1      -9.610  67.003  30.204  1.00  0.00     0.006 C 
BRANCH   8   9
ATOM      9  C   UNL     1      -9.981  65.909  29.198  1.00  0.00     0.053 C 
BRANCH   9  10
ATOM     10  C   UNL     1     -11.462  65.694  29.179  1.00  0.00     0.041 C 
ATOM     11  O   UNL     1     -11.931  64.528  29.113  1.00  0.00    -0.550 OA
ATOM     12  O   UNL     1     -12.323  66.779  29.293  1.00  0.00    -0.550 OA
ENDBRANCH   9  10
ENDBRANCH   8   9
ENDBRANCH   7   8
ENDBRANCH   6   7
ENDBRANCH   5   6
ENDBRANCH   4   5
ENDBRANCH   3   4
ENDBRANCH   1   3
BRANCH   2  13
ATOM     13  C   UNL     1      -5.004  69.831  32.014  1.00  0.00     0.027 C 
BRANCH  13  14
ATOM     14  C   UNL     1      -5.799  70.079  30.727  1.00  0.00     0.004 C 
BRANCH  14  15
ATOM     15  C   UNL     1      -6.216  68.753  30.075  1.00  0.00     0.000 C 
BRANCH  15  16
ATOM     16  C   UNL     1      -5.690  68.608  28.638  1.00  0.00     0.000 C 
BRANCH  16  17
ATOM     17  C   UNL     1      -5.612  67.139  28.181  1.00  0.00    -0.000 C 
BRANCH  17  18
ATOM     18  C   UNL     1      -6.016  66.158  29.301  1.00  0.00    -0.000 C 
BRANCH  18  19
ATOM     19  C   UNL     1      -4.888  65.196  29.712  1.00  0.00    -0.003 C 
ATOM     20  C   UNL     1      -3.509  65.656  29.245  1.00  0.00     0.004 C 
ENDBRANCH  18  19
ENDBRANCH  17  18
ENDBRANCH  16  17
ENDBRANCH  15  16
ENDBRANCH  14  15
ENDBRANCH  13  14
ENDBRANCH   2  13
TORSDOF 15
ENDMDL
MODEL 7
REMARK VINA RESULT:    -4.715      2.932      6.374
REMARK INTER + INTRA:         -10.969
REMARK INTER:                  -8.294
REMARK INTRA:                  -2.675
REMARK UNBOUND:                -2.120
REMARK SMILES CCCCCCCCC=CCCCCCCCC(=O)[O-]
REMARK SMILES IDX 10 1 9 2 11 3 12 4 13 5 14 6 15 7 16 8 17 9 18 10 19 11
REMARK SMILES IDX 20 12 8 13 7 14 6 15 5 16 4 17 3 18 2 19 1 20
REMARK H PARENT
REMARK Flexibility Score: inf
ROOT
ATOM      1  C   UNL     1      -7.526  69.709  29.271  1.00  0.00    -0.031 C 
ATOM      2  C   UNL     1      -8.384  70.094  30.237  1.00  0.00    -0.031 C 
ENDROOT
BRANCH   1   3
ATOM      3  C   UNL     1      -7.695  68.500  28.380  1.00  0.00     0.027 C 
BRANCH   3   4
ATOM      4  C   UNL     1      -6.342  67.966  27.878  1.00  0.00     0.004 C 
BRANCH   4   5
ATOM      5  C   UNL     1      -5.827  66.724  28.630  1.00  0.00     0.000 C 
BRANCH   5   6
ATOM      6  C   UNL     1      -6.853  66.162  29.625  1.00  0.00     0.000 C 
BRANCH   6   7
ATOM      7  C   UNL     1      -6.252  66.059  31.032  1.00  0.00     0.000 C 
BRANCH   7   8
ATOM      8  C   UNL     1      -5.301  67.230  31.312  1.00  0.00     0.006 C 
BRANCH   8   9
ATOM      9  C   UNL     1      -5.777  68.051  32.514  1.00  0.00     0.053 C 
BRANCH   9  10
ATOM     10  C   UNL     1      -5.941  67.176  33.716  1.00  0.00     0.041 C 
ATOM     11  O   UNL     1      -4.931  66.693  34.290  1.00  0.00    -0.550 OA
ATOM     12  O   UNL     1      -7.208  66.940  34.235  1.00  0.00    -0.550 OA
ENDBRANCH   9  10
ENDBRANCH   8   9
ENDBRANCH   7   8
ENDBRANCH   6   7
ENDBRANCH   5   6
ENDBRANCH   4   5
ENDBRANCH   3   4
ENDBRANCH   1   3
BRANCH   2  13
ATOM     13  C   UNL     1      -9.647  69.363  30.622  1.00  0.00     0.027 C 
BRANCH  13  14
ATOM     14  C   UNL     1      -9.366  68.251  31.640  1.00  0.00     0.004 C 
BRANCH  14  15
ATOM     15  C   UNL     1     -10.114  66.964  31.265  1.00  0.00     0.000 C 
BRANCH  15  16
ATOM     16  C   UNL     1     -10.593  66.961  29.804  1.00  0.00     0.000 C 
BRANCH  16  17
ATOM     17  C   UNL     1     -11.001  65.558  29.317  1.00  0.00    -0.000 C 
BRANCH  17  18
ATOM     18  C   UNL     1     -12.528  65.342  29.375  1.00  0.00    -0.000 C 
BRANCH  18  19
ATOM     19  C   UNL     1     -12.986  64.509  30.584  1.00  0.00    -0.003 C 
ATOM     20  C   UNL     1     -13.469  65.364  31.753  1.00  0.00     0.004 C 
ENDBRANCH  18  19
ENDBRANCH  17  18
ENDBRANCH  16  17
ENDBRANCH  15  16
ENDBRANCH  14  15
ENDBRANCH  13  14
ENDBRANCH   2  13
TORSDOF 15
ENDMDL
MODEL 8
REMARK VINA RESULT:    -4.708      1.132      3.281
REMARK INTER + INTRA:         -10.956
REMARK INTER:                  -9.157
REMARK INTRA:                  -1.799
REMARK UNBOUND:                -2.120
REMARK SMILES CCCCCCCCC=CCCCCCCCC(=O)[O-]
REMARK SMILES IDX 10 1 9 2 11 3 12 4 13 5 14 6 15 7 16 8 17 9 18 10 19 11
REMARK SMILES IDX 20 12 8 13 7 14 6 15 5 16 4 17 3 18 2 19 1 20
REMARK H PARENT
REMARK Flexibility Score: inf
ROOT
ATOM      1  C   UNL     1      -6.880  66.438  33.637  1.00  0.00    -0.031 C 
ATOM      2  C   UNL     1      -5.901  67.327  33.897  1.00  0.00    -0.031 C 
ENDROOT
BRANCH   1   3
ATOM      3  C   UNL     1      -7.377  66.061  32.260  1.00  0.00     0.027 C 
BRANCH   3   4
ATOM      4  C   UNL     1      -8.824  66.527  32.026  1.00  0.00     0.004 C 
BRANCH   4   5
ATOM      5  C   UNL     1      -8.957  67.994  31.575  1.00  0.00     0.000 C 
BRANCH   5   6
ATOM      6  C   UNL     1     -10.381  68.352  31.126  1.00  0.00     0.000 C 
BRANCH   6   7
ATOM      7  C   UNL     1     -10.561  68.102  29.624  1.00  0.00     0.000 C 
BRANCH   7   8
ATOM      8  C   UNL     1     -11.282  66.772  29.369  1.00  0.00     0.006 C 
BRANCH   8   9
ATOM      9  C   UNL     1     -12.624  66.724  30.106  1.00  0.00     0.053 C 
BRANCH   9  10
ATOM     10  C   UNL     1     -12.705  65.507  30.972  1.00  0.00     0.041 C 
ATOM     11  O   UNL     1     -12.444  65.585  32.201  1.00  0.00    -0.550 OA
ATOM     12  O   UNL     1     -13.123  64.297  30.432  1.00  0.00    -0.550 OA
ENDBRANCH   9  10
ENDBRANCH   8   9
ENDBRANCH   7   8
ENDBRANCH   6   7
ENDBRANCH   5   6
ENDBRANCH   4   5
ENDBRANCH   3   4
ENDBRANCH   1   3
BRANCH   2  13
ATOM     13  C   UNL     1      -5.152  68.128  32.859  1.00  0.00     0.027 C 
BRANCH  13  14
ATOM     14  C   UNL     1      -3.772  67.523  32.569  1.00  0.00     0.004 C 
BRANCH  14  15
ATOM     15  C   UNL     1      -3.192  68.084  31.264  1.00  0.00     0.000 C 
BRANCH  15  16
ATOM     16  C   UNL     1      -2.291  67.076  30.534  1.00  0.00     0.000 C 
BRANCH  16  17
ATOM     17  C   UNL     1      -2.886  66.611  29.192  1.00  0.00    -0.000 C 
BRANCH  17  18
ATOM     18  C   UNL     1      -3.569  65.231  29.304  1.00  0.00    -0.000 C 
BRANCH  18  19
ATOM     19  C   UNL     1      -5.053  65.311  29.698  1.00  0.00    -0.003 C 
ATOM     20  C   UNL     1      -5.799  66.445  29.000  1.00  0.00     0.004 C 
ENDBRANCH  18  19
ENDBRANCH  17  18
ENDBRANCH  16  17
ENDBRANCH  15  16
ENDBRANCH  14  15
ENDBRANCH  13  14
ENDBRANCH   2  13
TORSDOF 15
ENDMDL
MODEL 9
REMARK VINA RESULT:    -4.699      3.140      4.632
REMARK INTER + INTRA:         -10.940
REMARK INTER:                  -7.867
REMARK INTRA:                  -3.073
REMARK UNBOUND:                -2.120
REMARK SMILES CCCCCCCCC=CCCCCCCCC(=O)[O-]
REMARK SMILES IDX 10 1 9 2 11 3 12 4 13 5 14 6 15 7 16 8 17 9 18 10 19 11
REMARK SMILES IDX 20 12 8 13 7 14 6 15 5 16 4 17 3 18 2 19 1 20
REMARK H PARENT
REMARK Flexibility Score: inf
ROOT
ATOM      1  C   UNL     1      -9.875  69.736  30.219  1.00  0.00    -0.031 C 
ATOM      2  C   UNL     1      -8.906  69.888  29.295  1.00  0.00    -0.031 C 
ENDROOT
BRANCH   1   3
ATOM      3  C   UNL     1      -9.791  68.845  31.437  1.00  0.00     0.027 C 
BRANCH   3   4
ATOM      4  C   UNL     1     -10.799  67.685  31.368  1.00  0.00     0.004 C 
BRANCH   4   5
ATOM      5  C   UNL     1     -10.250  66.399  30.722  1.00  0.00     0.000 C 
BRANCH   5   6
ATOM      6  C   UNL     1     -10.991  66.017  29.432  1.00  0.00     0.000 C 
BRANCH   6   7
ATOM      7  C   UNL     1     -12.341  66.737  29.342  1.00  0.00     0.000 C 
BRANCH   7   8
ATOM      8  C   UNL     1     -12.499  67.444  27.989  1.00  0.00     0.006 C 
BRANCH   8   9
ATOM      9  C   UNL     1     -11.141  67.644  27.311  1.00  0.00     0.053 C 
BRANCH   9  10
ATOM     10  C   UNL     1     -11.190  68.805  26.369  1.00  0.00     0.041 C 
ATOM     11  O   UNL     1     -11.076  68.620  25.129  1.00  0.00    -0.550 OA
ATOM     12  O   UNL     1     -11.420  70.086  26.856  1.00  0.00    -0.550 OA
ENDBRANCH   9  10
ENDBRANCH   8   9
ENDBRANCH   7   8
ENDBRANCH   6   7
ENDBRANCH   5   6
ENDBRANCH   4   5
ENDBRANCH   3   4
ENDBRANCH   1   3
BRANCH   2  13
ATOM     13  C   UNL     1      -7.579  69.169  29.296  1.00  0.00     0.027 C 
BRANCH  13  14
ATOM     14  C   UNL     1      -7.610  67.930  28.392  1.00  0.00     0.004 C 
BRANCH  14  15
ATOM     15  C   UNL     1      -6.188  67.468  28.046  1.00  0.00     0.000 C 
BRANCH  15  16
ATOM     16  C   UNL     1      -5.679  66.361  28.984  1.00  0.00     0.000 C 
BRANCH  16  17
ATOM     17  C   UNL     1      -6.825  65.574  29.648  1.00  0.00    -0.000 C 
BRANCH  17  18
ATOM     18  C   UNL     1      -6.617  65.416  31.169  1.00  0.00    -0.000 C 
BRANCH  18  19
ATOM     19  C   UNL     1      -6.734  66.738  31.946  1.00  0.00    -0.003 C 
ATOM     20  C   UNL     1      -7.310  66.559  33.348  1.00  0.00     0.004 C 
ENDBRANCH  18  19
ENDBRANCH  17  18
ENDBRANCH  16  17
ENDBRANCH  15  16
ENDBRANCH  14  15
ENDBRANCH  13  14
ENDBRANCH   2  13
TORSDOF 15
ENDMDL
