MODEL 1
REMARK VINA RESULT:    -8.477      0.000      0.000
REMARK INTER + INTRA:         -10.543
REMARK INTER:                 -10.211
REMARK INTRA:                  -0.332
REMARK UNBOUND:                -0.332
REMARK SMILES Oc1cc(O)c2cc(O)c(-c3ccc(O)c(O)c3)[o+]c2c1.[Cl-]
REMARK SMILES IDX 10 1 19 2 20 3 21 4 2 5 3 6 4 7 6 8 7 9 8 10 11 11 12 12
REMARK SMILES IDX 13 13 14 14 18 15 16 16 15 17 17 19 9 21 1 23 5 25
REMARK H PARENT 15 18 17 20 9 22 1 24 5 26
REMARK Flexibility Score: inf
ROOT
ATOM      1  C   UNL     1     -30.845  16.734  57.352  1.00  0.00     0.402 A 
ATOM      2  O   UNL     1     -31.453  15.900  58.191  1.00  0.00    -0.202 OA
ATOM      3  C   UNL     1     -32.641  15.356  57.946  1.00  0.00     0.368 A 
ATOM      4  C   UNL     1     -33.202  14.492  58.892  1.00  0.00     0.162 A 
ATOM      5  C   UNL     1     -34.451  13.909  58.660  1.00  0.00     0.128 A 
ATOM      6  C   UNL     1     -35.142  14.191  57.480  1.00  0.00     0.093 A 
ATOM      7  C   UNL     1     -34.603  15.054  56.519  1.00  0.00     0.136 A 
ATOM      8  C   UNL     1     -33.333  15.646  56.747  1.00  0.00     0.125 A 
ATOM      9  C   UNL     1     -32.710  16.512  55.833  1.00  0.00     0.078 A 
ATOM     10  C   UNL     1     -31.455  17.054  56.125  1.00  0.00     0.223 A 
ENDROOT
BRANCH   1  11
ATOM     11  C   UNL     1     -29.526  17.283  57.744  1.00  0.00     0.087 A 
ATOM     12  C   UNL     1     -28.328  16.706  57.286  1.00  0.00     0.022 A 
ATOM     13  C   UNL     1     -27.096  17.255  57.651  1.00  0.00     0.051 A 
ATOM     14  C   UNL     1     -27.042  18.393  58.466  1.00  0.00     0.157 A 
ATOM     15  C   UNL     1     -29.467  18.436  58.544  1.00  0.00     0.068 A 
ATOM     16  C   UNL     1     -28.235  18.988  58.911  1.00  0.00     0.158 A 
BRANCH  14  17
ATOM     17  O   UNL     1     -25.811  18.938  58.829  1.00  0.00    -0.504 OA
ATOM     18  H   UNL     1     -25.746  19.733  59.455  1.00  0.00     0.293 HD
ENDBRANCH  14  17
BRANCH  16  19
ATOM     19  O   UNL     1     -28.216  20.126  59.717  1.00  0.00    -0.504 OA
ATOM     20  H   UNL     1     -27.622  20.196  60.535  1.00  0.00     0.293 HD
ENDBRANCH  16  19
ENDBRANCH   1  11
BRANCH  10  21
ATOM     21  O   UNL     1     -30.813  17.873  55.197  1.00  0.00    -0.500 OA
ATOM     22  H   UNL     1     -31.326  18.356  54.468  1.00  0.00     0.294 HD
ENDBRANCH  10  21
BRANCH   5  23
ATOM     23  O   UNL     1     -35.015  13.046  59.598  1.00  0.00    -0.507 OA
ATOM     24  H   UNL     1     -35.635  13.385  60.325  1.00  0.00     0.293 HD
ENDBRANCH   5  23
BRANCH   7  25
ATOM     25  O   UNL     1     -35.360  15.288  55.367  1.00  0.00    -0.507 OA
ATOM     26  H   UNL     1     -35.496  16.196  54.948  1.00  0.00     0.293 HD
ENDBRANCH   7  25
TORSDOF 6
ENDMDL
MODEL 2
REMARK VINA RESULT:    -8.353      2.512      3.286
REMARK INTER + INTRA:         -10.394
REMARK INTER:                 -10.105
REMARK INTRA:                  -0.289
REMARK UNBOUND:                -0.332
REMARK SMILES Oc1cc(O)c2cc(O)c(-c3ccc(O)c(O)c3)[o+]c2c1.[Cl-]
REMARK SMILES IDX 10 1 19 2 20 3 21 4 2 5 3 6 4 7 6 8 7 9 8 10 11 11 12 12
REMARK SMILES IDX 13 13 14 14 18 15 16 16 15 17 17 19 9 21 1 23 5 25
REMARK H PARENT 15 18 17 20 9 22 1 24 5 26
REMARK Flexibility Score: inf
ROOT
ATOM      1  C   UNL     1     -31.368  17.261  56.979  1.00  0.00     0.402 A 
ATOM      2  O   UNL     1     -32.653  17.075  56.690  1.00  0.00    -0.202 OA
ATOM      3  C   UNL     1     -33.164  15.894  56.362  1.00  0.00     0.368 A 
ATOM      4  C   UNL     1     -34.528  15.799  56.072  1.00  0.00     0.162 A 
ATOM      5  C   UNL     1     -35.091  14.568  55.722  1.00  0.00     0.128 A 
ATOM      6  C   UNL     1     -34.286  13.428  55.660  1.00  0.00     0.093 A 
ATOM      7  C   UNL     1     -32.917  13.497  55.944  1.00  0.00     0.136 A 
ATOM      8  C   UNL     1     -32.342  14.744  56.304  1.00  0.00     0.125 A 
ATOM      9  C   UNL     1     -30.982  14.904  56.619  1.00  0.00     0.078 A 
ATOM     10  C   UNL     1     -30.488  16.164  56.969  1.00  0.00     0.223 A 
ENDROOT
BRANCH   1  11
ATOM     11  C   UNL     1     -30.918  18.630  57.320  1.00  0.00     0.087 A 
ATOM     12  C   UNL     1     -30.636  18.999  58.647  1.00  0.00     0.022 A 
ATOM     13  C   UNL     1     -30.190  20.290  58.942  1.00  0.00     0.051 A 
ATOM     14  C   UNL     1     -30.008  21.227  57.917  1.00  0.00     0.157 A 
ATOM     15  C   UNL     1     -30.713  19.567  56.293  1.00  0.00     0.068 A 
ATOM     16  C   UNL     1     -30.268  20.861  56.585  1.00  0.00     0.158 A 
BRANCH  14  17
ATOM     17  O   UNL     1     -29.565  22.514  58.214  1.00  0.00    -0.504 OA
ATOM     18  H   UNL     1     -29.705  22.926  59.130  1.00  0.00     0.293 HD
ENDBRANCH  14  17
BRANCH  16  19
ATOM     19  O   UNL     1     -30.089  21.767  55.540  1.00  0.00    -0.504 OA
ATOM     20  H   UNL     1     -29.583  22.636  55.662  1.00  0.00     0.293 HD
ENDBRANCH  16  19
ENDBRANCH   1  11
BRANCH  10  21
ATOM     21  O   UNL     1     -29.149  16.314  57.330  1.00  0.00    -0.500 OA
ATOM     22  H   UNL     1     -28.678  15.640  57.923  1.00  0.00     0.294 HD
ENDBRANCH  10  21
BRANCH   5  23
ATOM     23  O   UNL     1     -36.450  14.466  55.433  1.00  0.00    -0.507 OA
ATOM     24  H   UNL     1     -36.780  14.023  54.582  1.00  0.00     0.293 HD
ENDBRANCH   5  23
BRANCH   7  25
ATOM     25  O   UNL     1     -32.181  12.311  55.855  1.00  0.00    -0.507 OA
ATOM     26  H   UNL     1     -31.214  12.260  55.569  1.00  0.00     0.293 HD
ENDBRANCH   7  25
TORSDOF 6
ENDMDL
MODEL 3
REMARK VINA RESULT:    -8.290      2.482      3.346
REMARK INTER + INTRA:         -10.318
REMARK INTER:                  -9.986
REMARK INTRA:                  -0.332
REMARK UNBOUND:                -0.332
REMARK SMILES Oc1cc(O)c2cc(O)c(-c3ccc(O)c(O)c3)[o+]c2c1.[Cl-]
REMARK SMILES IDX 10 1 19 2 20 3 21 4 2 5 3 6 4 7 6 8 7 9 8 10 11 11 12 12
REMARK SMILES IDX 13 13 14 14 18 15 16 16 15 17 17 19 9 21 1 23 5 25
REMARK H PARENT 15 18 17 20 9 22 1 24 5 26
REMARK Flexibility Score: inf
ROOT
ATOM      1  C   UNL     1     -30.979  16.773  56.499  1.00  0.00     0.402 A 
ATOM      2  O   UNL     1     -31.329  15.655  55.867  1.00  0.00    -0.202 OA
ATOM      3  C   UNL     1     -32.152  14.751  56.386  1.00  0.00     0.368 A 
ATOM      4  C   UNL     1     -32.458  13.605  55.646  1.00  0.00     0.162 A 
ATOM      5  C   UNL     1     -33.320  12.637  56.169  1.00  0.00     0.128 A 
ATOM      6  C   UNL     1     -33.877  12.815  57.437  1.00  0.00     0.093 A 
ATOM      7  C   UNL     1     -33.586  13.952  58.199  1.00  0.00     0.136 A 
ATOM      8  C   UNL     1     -32.714  14.940  57.671  1.00  0.00     0.125 A 
ATOM      9  C   UNL     1     -32.376  16.119  58.357  1.00  0.00     0.078 A 
ATOM     10  C   UNL     1     -31.514  17.049  57.771  1.00  0.00     0.223 A 
ENDROOT
BRANCH   1  11
ATOM     11  C   UNL     1     -30.043  17.698  55.819  1.00  0.00     0.087 A 
ATOM     12  C   UNL     1     -30.509  18.815  55.105  1.00  0.00     0.022 A 
ATOM     13  C   UNL     1     -29.606  19.687  54.490  1.00  0.00     0.051 A 
ATOM     14  C   UNL     1     -28.227  19.464  54.591  1.00  0.00     0.157 A 
ATOM     15  C   UNL     1     -28.659  17.490  55.935  1.00  0.00     0.068 A 
ATOM     16  C   UNL     1     -27.752  18.361  55.321  1.00  0.00     0.158 A 
BRANCH  14  17
ATOM     17  O   UNL     1     -27.329  20.334  53.976  1.00  0.00    -0.504 OA
ATOM     18  H   UNL     1     -26.843  20.081  53.123  1.00  0.00     0.293 HD
ENDBRANCH  14  17
BRANCH  16  19
ATOM     19  O   UNL     1     -26.385  18.114  55.446  1.00  0.00    -0.504 OA
ATOM     20  H   UNL     1     -25.925  17.365  54.942  1.00  0.00     0.293 HD
ENDBRANCH  16  19
ENDBRANCH   1  11
BRANCH  10  21
ATOM     21  O   UNL     1     -31.218  18.242  58.430  1.00  0.00    -0.500 OA
ATOM     22  H   UNL     1     -31.579  18.442  59.355  1.00  0.00     0.294 HD
ENDBRANCH  10  21
BRANCH   5  23
ATOM     23  O   UNL     1     -33.630  11.493  55.436  1.00  0.00    -0.507 OA
ATOM     24  H   UNL     1     -33.886  11.544  54.457  1.00  0.00     0.293 HD
ENDBRANCH   5  23
BRANCH   7  25
ATOM     25  O   UNL     1     -34.181  14.052  59.460  1.00  0.00    -0.507 OA
ATOM     26  H   UNL     1     -34.755  14.827  59.761  1.00  0.00     0.293 HD
ENDBRANCH   7  25
TORSDOF 6
ENDMDL
MODEL 4
REMARK VINA RESULT:    -8.179      2.553      7.203
REMARK INTER + INTRA:         -10.185
REMARK INTER:                  -9.847
REMARK INTRA:                  -0.338
REMARK UNBOUND:                -0.332
REMARK SMILES Oc1cc(O)c2cc(O)c(-c3ccc(O)c(O)c3)[o+]c2c1.[Cl-]
REMARK SMILES IDX 10 1 19 2 20 3 21 4 2 5 3 6 4 7 6 8 7 9 8 10 11 11 12 12
REMARK SMILES IDX 13 13 14 14 18 15 16 16 15 17 17 19 9 21 1 23 5 25
REMARK H PARENT 15 18 17 20 9 22 1 24 5 26
REMARK Flexibility Score: inf
ROOT
ATOM      1  C   UNL     1     -31.411  16.386  56.573  1.00  0.00     0.402 A 
ATOM      2  O   UNL     1     -30.609  16.931  55.662  1.00  0.00    -0.202 OA
ATOM      3  C   UNL     1     -29.902  18.034  55.879  1.00  0.00     0.368 A 
ATOM      4  C   UNL     1     -29.089  18.534  54.858  1.00  0.00     0.162 A 
ATOM      5  C   UNL     1     -28.337  19.695  55.059  1.00  0.00     0.128 A 
ATOM      6  C   UNL     1     -28.400  20.360  56.285  1.00  0.00     0.093 A 
ATOM      7  C   UNL     1     -29.207  19.882  57.323  1.00  0.00     0.136 A 
ATOM      8  C   UNL     1     -29.970  18.701  57.125  1.00  0.00     0.125 A 
ATOM      9  C   UNL     1     -30.797  18.141  58.114  1.00  0.00     0.078 A 
ATOM     10  C   UNL     1     -31.515  16.972  57.847  1.00  0.00     0.223 A 
ENDROOT
BRANCH   1  11
ATOM     11  C   UNL     1     -32.155  15.158  56.206  1.00  0.00     0.087 A 
ATOM     12  C   UNL     1     -33.508  15.207  55.831  1.00  0.00     0.022 A 
ATOM     13  C   UNL     1     -34.182  14.038  55.467  1.00  0.00     0.051 A 
ATOM     14  C   UNL     1     -33.513  12.808  55.460  1.00  0.00     0.157 A 
ATOM     15  C   UNL     1     -31.482  13.925  56.177  1.00  0.00     0.068 A 
ATOM     16  C   UNL     1     -32.154  12.753  55.814  1.00  0.00     0.158 A 
BRANCH  14  17
ATOM     17  O   UNL     1     -34.188  11.644  55.098  1.00  0.00    -0.504 OA
ATOM     18  H   UNL     1     -33.752  10.732  55.171  1.00  0.00     0.293 HD
ENDBRANCH  14  17
BRANCH  16  19
ATOM     19  O   UNL     1     -31.456  11.546  55.810  1.00  0.00    -0.504 OA
ATOM     20  H   UNL     1     -30.642  11.397  55.226  1.00  0.00     0.293 HD
ENDBRANCH  16  19
ENDBRANCH   1  11
BRANCH  10  21
ATOM     21  O   UNL     1     -32.296  16.388  58.844  1.00  0.00    -0.500 OA
ATOM     22  H   UNL     1     -32.525  15.401  58.832  1.00  0.00     0.294 HD
ENDBRANCH  10  21
BRANCH   5  23
ATOM     23  O   UNL     1     -27.523  20.197  54.045  1.00  0.00    -0.507 OA
ATOM     24  H   UNL     1     -26.573  19.869  53.915  1.00  0.00     0.293 HD
ENDBRANCH   5  23
BRANCH   7  25
ATOM     25  O   UNL     1     -29.218  20.608  58.518  1.00  0.00    -0.507 OA
ATOM     26  H   UNL     1     -29.329  21.610  58.576  1.00  0.00     0.293 HD
ENDBRANCH   7  25
TORSDOF 6
ENDMDL
MODEL 5
REMARK VINA RESULT:    -8.020      1.718      7.033
REMARK INTER + INTRA:          -9.994
REMARK INTER:                  -9.656
REMARK INTRA:                  -0.338
REMARK UNBOUND:                -0.332
REMARK SMILES Oc1cc(O)c2cc(O)c(-c3ccc(O)c(O)c3)[o+]c2c1.[Cl-]
REMARK SMILES IDX 10 1 19 2 20 3 21 4 2 5 3 6 4 7 6 8 7 9 8 10 11 11 12 12
REMARK SMILES IDX 13 13 14 14 18 15 16 16 15 17 17 19 9 21 1 23 5 25
REMARK H PARENT 15 18 17 20 9 22 1 24 5 26
REMARK Flexibility Score: inf
ROOT
ATOM      1  C   UNL     1     -31.429  16.876  57.307  1.00  0.00     0.402 A 
ATOM      2  O   UNL     1     -31.522  18.182  57.546  1.00  0.00    -0.202 OA
ATOM      3  C   UNL     1     -30.472  18.995  57.569  1.00  0.00     0.368 A 
ATOM      4  C   UNL     1     -30.670  20.354  57.833  1.00  0.00     0.162 A 
ATOM      5  C   UNL     1     -29.582  21.232  57.866  1.00  0.00     0.128 A 
ATOM      6  C   UNL     1     -28.292  20.749  57.637  1.00  0.00     0.093 A 
ATOM      7  C   UNL     1     -28.067  19.393  57.372  1.00  0.00     0.136 A 
ATOM      8  C   UNL     1     -29.169  18.498  57.334  1.00  0.00     0.125 A 
ATOM      9  C   UNL     1     -29.040  17.126  57.063  1.00  0.00     0.078 A 
ATOM     10  C   UNL     1     -30.172  16.306  57.037  1.00  0.00     0.223 A 
ENDROOT
BRANCH   1  11
ATOM     11  C   UNL     1     -32.674  16.072  57.318  1.00  0.00     0.087 A 
ATOM     12  C   UNL     1     -33.489  15.971  56.177  1.00  0.00     0.022 A 
ATOM     13  C   UNL     1     -34.646  15.188  56.204  1.00  0.00     0.051 A 
ATOM     14  C   UNL     1     -34.999  14.486  57.364  1.00  0.00     0.157 A 
ATOM     15  C   UNL     1     -33.020  15.349  58.471  1.00  0.00     0.068 A 
ATOM     16  C   UNL     1     -34.178  14.565  58.502  1.00  0.00     0.158 A 
BRANCH  14  17
ATOM     17  O   UNL     1     -36.154  13.707  57.388  1.00  0.00    -0.504 OA
ATOM     18  H   UNL     1     -36.854  13.818  58.113  1.00  0.00     0.293 HD
ENDBRANCH  14  17
BRANCH  16  19
ATOM     19  O   UNL     1     -34.496  13.872  59.670  1.00  0.00    -0.504 OA
ATOM     20  H   UNL     1     -34.320  12.880  59.773  1.00  0.00     0.293 HD
ENDBRANCH  16  19
ENDBRANCH   1  11
BRANCH  10  21
ATOM     21  O   UNL     1     -30.050  14.954  56.719  1.00  0.00    -0.500 OA
ATOM     22  H   UNL     1     -29.213  14.582  56.285  1.00  0.00     0.294 HD
ENDBRANCH  10  21
BRANCH   5  23
ATOM     23  O   UNL     1     -29.773  22.587  58.127  1.00  0.00    -0.507 OA
ATOM     24  H   UNL     1     -29.124  23.289  57.789  1.00  0.00     0.293 HD
ENDBRANCH   5  23
BRANCH   7  25
ATOM     25  O   UNL     1     -26.746  18.989  57.158  1.00  0.00    -0.507 OA
ATOM     26  H   UNL     1     -26.051  19.543  56.679  1.00  0.00     0.293 HD
ENDBRANCH   7  25
TORSDOF 6
ENDMDL
MODEL 6
REMARK VINA RESULT:    -7.949      1.611      6.660
REMARK INTER + INTRA:          -9.908
REMARK INTER:                  -9.559
REMARK INTRA:                  -0.349
REMARK UNBOUND:                -0.332
REMARK SMILES Oc1cc(O)c2cc(O)c(-c3ccc(O)c(O)c3)[o+]c2c1.[Cl-]
REMARK SMILES IDX 10 1 19 2 20 3 21 4 2 5 3 6 4 7 6 8 7 9 8 10 11 11 12 12
REMARK SMILES IDX 13 13 14 14 18 15 16 16 15 17 17 19 9 21 1 23 5 25
REMARK H PARENT 15 18 17 20 9 22 1 24 5 26
REMARK Flexibility Score: inf
ROOT
ATOM      1  C   UNL     1     -31.066  16.323  57.084  1.00  0.00     0.402 A 
ATOM      2  O   UNL     1     -29.955  16.502  57.794  1.00  0.00    -0.202 OA
ATOM      3  C   UNL     1     -29.100  17.494  57.574  1.00  0.00     0.368 A 
ATOM      4  C   UNL     1     -27.957  17.598  58.371  1.00  0.00     0.162 A 
ATOM      5  C   UNL     1     -27.040  18.631  58.159  1.00  0.00     0.128 A 
ATOM      6  C   UNL     1     -27.265  19.563  57.144  1.00  0.00     0.093 A 
ATOM      7  C   UNL     1     -28.401  19.481  56.330  1.00  0.00     0.136 A 
ATOM      8  C   UNL     1     -29.338  18.436  56.544  1.00  0.00     0.125 A 
ATOM      9  C   UNL     1     -30.511  18.283  55.786  1.00  0.00     0.078 A 
ATOM     10  C   UNL     1     -31.389  17.230  56.059  1.00  0.00     0.223 A 
ENDROOT
BRANCH   1  11
ATOM     11  C   UNL     1     -31.935  15.171  57.421  1.00  0.00     0.087 A 
ATOM     12  C   UNL     1     -31.855  13.961  56.710  1.00  0.00     0.022 A 
ATOM     13  C   UNL     1     -32.668  12.881  57.061  1.00  0.00     0.051 A 
ATOM     14  C   UNL     1     -33.563  12.988  58.134  1.00  0.00     0.157 A 
ATOM     15  C   UNL     1     -32.819  15.267  58.509  1.00  0.00     0.068 A 
ATOM     16  C   UNL     1     -33.635  14.188  58.863  1.00  0.00     0.158 A 
BRANCH  14  17
ATOM     17  O   UNL     1     -34.375  11.910  58.480  1.00  0.00    -0.504 OA
ATOM     18  H   UNL     1     -35.157  12.017  59.117  1.00  0.00     0.293 HD
ENDBRANCH  14  17
BRANCH  16  19
ATOM     19  O   UNL     1     -34.510  14.325  59.940  1.00  0.00    -0.504 OA
ATOM     20  H   UNL     1     -34.184  14.350  60.899  1.00  0.00     0.293 HD
ENDBRANCH  16  19
ENDBRANCH   1  11
BRANCH  10  21
ATOM     21  O   UNL     1     -32.579  17.108  55.340  1.00  0.00    -0.500 OA
ATOM     22  H   UNL     1     -32.664  16.470  54.557  1.00  0.00     0.294 HD
ENDBRANCH  10  21
BRANCH   5  23
ATOM     23  O   UNL     1     -25.899  18.741  58.951  1.00  0.00    -0.507 OA
ATOM     24  H   UNL     1     -25.653  19.610  59.411  1.00  0.00     0.293 HD
ENDBRANCH   5  23
BRANCH   7  25
ATOM     25  O   UNL     1     -28.551  20.450  55.334  1.00  0.00    -0.507 OA
ATOM     26  H   UNL     1     -28.072  20.434  54.445  1.00  0.00     0.293 HD
ENDBRANCH   7  25
TORSDOF 6
ENDMDL
MODEL 7
REMARK VINA RESULT:    -7.663      1.607      2.456
REMARK INTER + INTRA:          -9.563
REMARK INTER:                  -9.211
REMARK INTRA:                  -0.353
REMARK UNBOUND:                -0.332
REMARK SMILES Oc1cc(O)c2cc(O)c(-c3ccc(O)c(O)c3)[o+]c2c1.[Cl-]
REMARK SMILES IDX 10 1 19 2 20 3 21 4 2 5 3 6 4 7 6 8 7 9 8 10 11 11 12 12
REMARK SMILES IDX 13 13 14 14 18 15 16 16 15 17 17 19 9 21 1 23 5 25
REMARK H PARENT 15 18 17 20 9 22 1 24 5 26
REMARK Flexibility Score: inf
ROOT
ATOM      1  C   UNL     1     -32.703  16.091  57.176  1.00  0.00     0.402 A 
ATOM      2  O   UNL     1     -33.133  15.345  58.190  1.00  0.00    -0.202 OA
ATOM      3  C   UNL     1     -34.254  14.633  58.149  1.00  0.00     0.368 A 
ATOM      4  C   UNL     1     -34.626  13.883  59.268  1.00  0.00     0.162 A 
ATOM      5  C   UNL     1     -35.802  13.128  59.252  1.00  0.00     0.128 A 
ATOM      6  C   UNL     1     -36.610  13.123  58.113  1.00  0.00     0.093 A 
ATOM      7  C   UNL     1     -36.261  13.867  56.979  1.00  0.00     0.136 A 
ATOM      8  C   UNL     1     -35.065  14.633  56.989  1.00  0.00     0.125 A 
ATOM      9  C   UNL     1     -34.629  15.398  55.895  1.00  0.00     0.078 A 
ATOM     10  C   UNL     1     -33.438  16.124  55.977  1.00  0.00     0.223 A 
ENDROOT
BRANCH   1  11
ATOM     11  C   UNL     1     -31.441  16.847  57.349  1.00  0.00     0.087 A 
ATOM     12  C   UNL     1     -31.444  18.194  57.750  1.00  0.00     0.022 A 
ATOM     13  C   UNL     1     -30.241  18.881  57.929  1.00  0.00     0.051 A 
ATOM     14  C   UNL     1     -29.017  18.230  57.722  1.00  0.00     0.157 A 
ATOM     15  C   UNL     1     -30.211  16.193  57.163  1.00  0.00     0.068 A 
ATOM     16  C   UNL     1     -29.004  16.877  57.340  1.00  0.00     0.158 A 
BRANCH  14  17
ATOM     17  O   UNL     1     -27.818  18.918  57.900  1.00  0.00    -0.504 OA
ATOM     18  H   UNL     1     -27.040  18.801  57.261  1.00  0.00     0.293 HD
ENDBRANCH  14  17
BRANCH  16  19
ATOM     19  O   UNL     1     -27.804  16.198  57.134  1.00  0.00    -0.504 OA
ATOM     20  H   UNL     1     -27.139  16.041  57.882  1.00  0.00     0.293 HD
ENDBRANCH  16  19
ENDBRANCH   1  11
BRANCH  10  21
ATOM     21  O   UNL     1     -32.979  16.843  54.873  1.00  0.00    -0.500 OA
ATOM     22  H   UNL     1     -33.236  16.588  53.927  1.00  0.00     0.294 HD
ENDBRANCH  10  21
BRANCH   5  23
ATOM     23  O   UNL     1     -36.178  12.377  60.364  1.00  0.00    -0.507 OA
ATOM     24  H   UNL     1     -35.649  11.564  60.659  1.00  0.00     0.293 HD
ENDBRANCH   5  23
BRANCH   7  25
ATOM     25  O   UNL     1     -37.125  13.812  55.882  1.00  0.00    -0.507 OA
ATOM     26  H   UNL     1     -38.132  13.843  55.946  1.00  0.00     0.293 HD
ENDBRANCH   7  25
TORSDOF 6
ENDMDL
MODEL 8
REMARK VINA RESULT:    -7.511      2.021      3.578
REMARK INTER + INTRA:          -9.380
REMARK INTER:                  -9.112
REMARK INTRA:                  -0.268
REMARK UNBOUND:                -0.332
REMARK SMILES Oc1cc(O)c2cc(O)c(-c3ccc(O)c(O)c3)[o+]c2c1.[Cl-]
REMARK SMILES IDX 10 1 19 2 20 3 21 4 2 5 3 6 4 7 6 8 7 9 8 10 11 11 12 12
REMARK SMILES IDX 13 13 14 14 18 15 16 16 15 17 17 19 9 21 1 23 5 25
REMARK H PARENT 15 18 17 20 9 22 1 24 5 26
REMARK Flexibility Score: inf
ROOT
ATOM      1  C   UNL     1     -32.746  15.239  57.546  1.00  0.00     0.402 A 
ATOM      2  O   UNL     1     -33.224  14.726  56.415  1.00  0.00    -0.202 OA
ATOM      3  C   UNL     1     -34.211  13.837  56.377  1.00  0.00     0.368 A 
ATOM      4  C   UNL     1     -34.643  13.352  55.139  1.00  0.00     0.162 A 
ATOM      5  C   UNL     1     -35.677  12.414  55.071  1.00  0.00     0.128 A 
ATOM      6  C   UNL     1     -36.280  11.958  56.244  1.00  0.00     0.093 A 
ATOM      7  C   UNL     1     -35.865  12.426  57.497  1.00  0.00     0.136 A 
ATOM      8  C   UNL     1     -34.818  13.381  57.571  1.00  0.00     0.125 A 
ATOM      9  C   UNL     1     -34.346  13.916  58.781  1.00  0.00     0.078 A 
ATOM     10  C   UNL     1     -33.312  14.858  58.776  1.00  0.00     0.223 A 
ENDROOT
BRANCH   1  11
ATOM     11  C   UNL     1     -31.636  16.215  57.458  1.00  0.00     0.087 A 
ATOM     12  C   UNL     1     -30.332  15.813  57.123  1.00  0.00     0.022 A 
ATOM     13  C   UNL     1     -29.306  16.756  57.023  1.00  0.00     0.051 A 
ATOM     14  C   UNL     1     -29.569  18.114  57.243  1.00  0.00     0.157 A 
ATOM     15  C   UNL     1     -31.899  17.581  57.657  1.00  0.00     0.068 A 
ATOM     16  C   UNL     1     -30.874  18.528  57.559  1.00  0.00     0.158 A 
BRANCH  14  17
ATOM     17  O   UNL     1     -28.543  19.052  57.144  1.00  0.00    -0.504 OA
ATOM     18  H   UNL     1     -28.552  19.908  57.688  1.00  0.00     0.293 HD
ENDBRANCH  14  17
BRANCH  16  19
ATOM     19  O   UNL     1     -31.172  19.873  57.777  1.00  0.00    -0.504 OA
ATOM     20  H   UNL     1     -31.034  20.577  57.062  1.00  0.00     0.293 HD
ENDBRANCH  16  19
ENDBRANCH   1  11
BRANCH  10  21
ATOM     21  O   UNL     1     -32.878  15.426  59.973  1.00  0.00    -0.500 OA
ATOM     22  H   UNL     1     -31.905  15.663  60.128  1.00  0.00     0.294 HD
ENDBRANCH  10  21
BRANCH   5  23
ATOM     23  O   UNL     1     -36.113  11.928  53.840  1.00  0.00    -0.507 OA
ATOM     24  H   UNL     1     -35.537  11.311  53.279  1.00  0.00     0.293 HD
ENDBRANCH   5  23
BRANCH   7  25
ATOM     25  O   UNL     1     -36.518  11.916  58.623  1.00  0.00    -0.507 OA
ATOM     26  H   UNL     1     -36.821  10.958  58.722  1.00  0.00     0.293 HD
ENDBRANCH   7  25
TORSDOF 6
ENDMDL
MODEL 9
REMARK VINA RESULT:    -7.456      2.418      3.448
REMARK INTER + INTRA:          -9.313
REMARK INTER:                  -8.964
REMARK INTRA:                  -0.349
REMARK UNBOUND:                -0.332
REMARK SMILES Oc1cc(O)c2cc(O)c(-c3ccc(O)c(O)c3)[o+]c2c1.[Cl-]
REMARK SMILES IDX 10 1 19 2 20 3 21 4 2 5 3 6 4 7 6 8 7 9 8 10 11 11 12 12
REMARK SMILES IDX 13 13 14 14 18 15 16 16 15 17 17 19 9 21 1 23 5 25
REMARK H PARENT 15 18 17 20 9 22 1 24 5 26
REMARK Flexibility Score: inf
ROOT
ATOM      1  C   UNL     1     -31.498  16.836  56.477  1.00  0.00     0.402 A 
ATOM      2  O   UNL     1     -32.637  16.751  55.795  1.00  0.00    -0.202 OA
ATOM      3  C   UNL     1     -33.442  15.696  55.848  1.00  0.00     0.368 A 
ATOM      4  C   UNL     1     -34.617  15.698  55.091  1.00  0.00     0.162 A 
ATOM      5  C   UNL     1     -35.481  14.600  55.126  1.00  0.00     0.128 A 
ATOM      6  C   UNL     1     -35.168  13.495  55.921  1.00  0.00     0.093 A 
ATOM      7  C   UNL     1     -33.997  13.467  56.687  1.00  0.00     0.136 A 
ATOM      8  C   UNL     1     -33.118  14.582  56.657  1.00  0.00     0.125 A 
ATOM      9  C   UNL     1     -31.929  14.648  57.403  1.00  0.00     0.078 A 
ATOM     10  C   UNL     1     -31.115  15.781  57.326  1.00  0.00     0.223 A 
ENDROOT
BRANCH   1  11
ATOM     11  C   UNL     1     -30.680  18.062  56.326  1.00  0.00     0.087 A 
ATOM     12  C   UNL     1     -30.867  19.174  57.165  1.00  0.00     0.022 A 
ATOM     13  C   UNL     1     -30.068  20.311  57.018  1.00  0.00     0.051 A 
ATOM     14  C   UNL     1     -29.065  20.350  56.041  1.00  0.00     0.157 A 
ATOM     15  C   UNL     1     -29.659  18.098  55.361  1.00  0.00     0.068 A 
ATOM     16  C   UNL     1     -28.858  19.235  55.211  1.00  0.00     0.158 A 
BRANCH  14  17
ATOM     17  O   UNL     1     -28.271  21.486  55.895  1.00  0.00    -0.504 OA
ATOM     18  H   UNL     1     -27.435  21.625  56.452  1.00  0.00     0.293 HD
ENDBRANCH  14  17
BRANCH  16  19
ATOM     19  O   UNL     1     -27.863  19.238  54.234  1.00  0.00    -0.504 OA
ATOM     20  H   UNL     1     -28.075  19.351  53.250  1.00  0.00     0.293 HD
ENDBRANCH  16  19
ENDBRANCH   1  11
BRANCH  10  21
ATOM     21  O   UNL     1     -29.961  15.868  58.104  1.00  0.00    -0.500 OA
ATOM     22  H   UNL     1     -29.825  16.617  58.773  1.00  0.00     0.294 HD
ENDBRANCH  10  21
BRANCH   5  23
ATOM     23  O   UNL     1     -36.654  14.596  54.375  1.00  0.00    -0.507 OA
ATOM     24  H   UNL     1     -36.654  14.352  53.391  1.00  0.00     0.293 HD
ENDBRANCH   5  23
BRANCH   7  25
ATOM     25  O   UNL     1     -33.755  12.322  57.452  1.00  0.00    -0.507 OA
ATOM     26  H   UNL     1     -33.154  11.562  57.167  1.00  0.00     0.293 HD
ENDBRANCH   7  25
TORSDOF 6
ENDMDL
