MODEL 1
REMARK VINA RESULT:    -6.005      0.000      0.000
REMARK INTER + INTRA:          -6.180
REMARK INTER:                  -6.180
REMARK INTRA:                   0.000
REMARK UNBOUND:                 0.000
REMARK SMILES O=c1ccc2ccc(O)cc2o1
REMARK SMILES IDX 6 1 7 2 8 3 10 4 11 5 5 6 4 7 3 8 2 9 1 10 12 11 9 12
REMARK H PARENT 9 13
REMARK Flexibility Score: inf
ROOT
ATOM      1  C   UNL     1      12.131  10.263  13.637  1.00  0.00     0.016 A 
ATOM      2  C   UNL     1      12.734  11.261  14.408  1.00  0.00     0.047 A 
ATOM      3  C   UNL     1      11.981  11.997  15.331  1.00  0.00     0.119 A 
ATOM      4  C   UNL     1      10.612  11.733  15.484  1.00  0.00     0.094 A 
ATOM      5  C   UNL     1       9.998  10.736  14.718  1.00  0.00     0.142 A 
ATOM      6  C   UNL     1      10.763   9.996  13.787  1.00  0.00     0.018 A 
ATOM      7  C   UNL     1      10.122   9.006  13.036  1.00  0.00     0.019 A 
ATOM      8  C   UNL     1       8.758   8.779  13.224  1.00  0.00     0.094 A 
ATOM      9  C   UNL     1       8.066   9.550  14.163  1.00  0.00     0.336 A 
ATOM     10  O   UNL     1       6.835   9.361  14.346  1.00  0.00    -0.246 OA
ATOM     11  O   UNL     1       8.700  10.487  14.865  1.00  0.00    -0.423 OA
ENDROOT
BRANCH   3  12
ATOM     12  O   UNL     1      12.601  12.987  16.089  1.00  0.00    -0.508 OA
ATOM     13  H   UNL     1      12.595  12.960  17.103  1.00  0.00     0.293 HD
ENDBRANCH   3  12
TORSDOF 1
ENDMDL
MODEL 2
REMARK VINA RESULT:    -5.877      1.209      4.254
REMARK INTER + INTRA:          -6.049
REMARK INTER:                  -6.049
REMARK INTRA:                   0.000
REMARK UNBOUND:                 0.000
REMARK SMILES O=c1ccc2ccc(O)cc2o1
REMARK SMILES IDX 6 1 7 2 8 3 10 4 11 5 5 6 4 7 3 8 2 9 1 10 12 11 9 12
REMARK H PARENT 9 13
REMARK Flexibility Score: inf
ROOT
ATOM      1  C   UNL     1       9.420   8.955  12.446  1.00  0.00     0.016 A 
ATOM      2  C   UNL     1       8.110   8.897  12.932  1.00  0.00     0.047 A 
ATOM      3  C   UNL     1       7.789   9.459  14.173  1.00  0.00     0.119 A 
ATOM      4  C   UNL     1       8.786  10.086  14.936  1.00  0.00     0.094 A 
ATOM      5  C   UNL     1      10.100  10.150  14.458  1.00  0.00     0.142 A 
ATOM      6  C   UNL     1      10.419   9.580  13.205  1.00  0.00     0.018 A 
ATOM      7  C   UNL     1      11.740   9.660  12.753  1.00  0.00     0.019 A 
ATOM      8  C   UNL     1      12.697  10.293  13.547  1.00  0.00     0.094 A 
ATOM      9  C   UNL     1      12.309  10.834  14.777  1.00  0.00     0.336 A 
ATOM     10  O   UNL     1      13.157  11.409  15.507  1.00  0.00    -0.246 OA
ATOM     11  O   UNL     1      11.044  10.745  15.183  1.00  0.00    -0.423 OA
ENDROOT
BRANCH   3  12
ATOM     12  O   UNL     1       6.478   9.390  14.640  1.00  0.00    -0.508 OA
ATOM     13  H   UNL     1       6.170   9.937  15.437  1.00  0.00     0.293 HD
ENDBRANCH   3  12
TORSDOF 1
ENDMDL
MODEL 3
REMARK VINA RESULT:    -5.572      1.922      4.830
REMARK INTER + INTRA:          -5.735
REMARK INTER:                  -5.735
REMARK INTRA:                   0.000
REMARK UNBOUND:                 0.000
REMARK SMILES O=c1ccc2ccc(O)cc2o1
REMARK SMILES IDX 6 1 7 2 8 3 10 4 11 5 5 6 4 7 3 8 2 9 1 10 12 11 9 12
REMARK H PARENT 9 13
REMARK Flexibility Score: inf
ROOT
ATOM      1  C   UNL     1       8.895   9.995  14.780  1.00  0.00     0.016 A 
ATOM      2  C   UNL     1       8.079   9.343  13.849  1.00  0.00     0.047 A 
ATOM      3  C   UNL     1       8.617   8.864  12.649  1.00  0.00     0.119 A 
ATOM      4  C   UNL     1       9.983   9.037  12.376  1.00  0.00     0.094 A 
ATOM      5  C   UNL     1      10.807   9.687  13.301  1.00  0.00     0.142 A 
ATOM      6  C   UNL     1      10.260  10.170  14.511  1.00  0.00     0.018 A 
ATOM      7  C   UNL     1      11.108  10.815  15.416  1.00  0.00     0.019 A 
ATOM      8  C   UNL     1      12.459  10.963  15.101  1.00  0.00     0.094 A 
ATOM      9  C   UNL     1      12.931  10.460  13.884  1.00  0.00     0.336 A 
ATOM     10  O   UNL     1      14.146  10.585  13.581  1.00  0.00    -0.246 OA
ATOM     11  O   UNL     1      12.102   9.850  13.040  1.00  0.00    -0.423 OA
ENDROOT
BRANCH   3  12
ATOM     12  O   UNL     1       7.788   8.218  11.735  1.00  0.00    -0.508 OA
ATOM     13  H   UNL     1       6.800   8.085  11.917  1.00  0.00     0.293 HD
ENDBRANCH   3  12
TORSDOF 1
ENDMDL
MODEL 4
REMARK VINA RESULT:    -5.465      1.853      2.450
REMARK INTER + INTRA:          -5.625
REMARK INTER:                  -5.625
REMARK INTRA:                   0.000
REMARK UNBOUND:                 0.000
REMARK SMILES O=c1ccc2ccc(O)cc2o1
REMARK SMILES IDX 6 1 7 2 8 3 10 4 11 5 5 6 4 7 3 8 2 9 1 10 12 11 9 12
REMARK H PARENT 9 13
REMARK Flexibility Score: inf
ROOT
ATOM      1  C   UNL     1      11.180  10.815  15.432  1.00  0.00     0.016 A 
ATOM      2  C   UNL     1      12.549  10.952  15.178  1.00  0.00     0.047 A 
ATOM      3  C   UNL     1      13.107  10.435  14.004  1.00  0.00     0.119 A 
ATOM      4  C   UNL     1      12.291   9.774  13.073  1.00  0.00     0.094 A 
ATOM      5  C   UNL     1      10.921   9.632  13.316  1.00  0.00     0.142 A 
ATOM      6  C   UNL     1      10.361  10.156  14.504  1.00  0.00     0.018 A 
ATOM      7  C   UNL     1       8.988   9.998  14.720  1.00  0.00     0.019 A 
ATOM      8  C   UNL     1       8.217   9.335  13.766  1.00  0.00     0.094 A 
ATOM      9  C   UNL     1       8.839   8.843  12.614  1.00  0.00     0.336 A 
ATOM     10  O   UNL     1       8.161   8.241  11.741  1.00  0.00    -0.246 OA
ATOM     11  O   UNL     1      10.148   9.006  12.433  1.00  0.00    -0.423 OA
ENDROOT
BRANCH   3  12
ATOM     12  O   UNL     1      14.473  10.582  13.770  1.00  0.00    -0.508 OA
ATOM     13  H   UNL     1      14.978   9.945  13.164  1.00  0.00     0.293 HD
ENDBRANCH   3  12
TORSDOF 1
ENDMDL
MODEL 5
REMARK VINA RESULT:    -5.407      2.180      3.981
REMARK INTER + INTRA:          -5.565
REMARK INTER:                  -5.565
REMARK INTRA:                   0.000
REMARK UNBOUND:                 0.000
REMARK SMILES O=c1ccc2ccc(O)cc2o1
REMARK SMILES IDX 6 1 7 2 8 3 10 4 11 5 5 6 4 7 3 8 2 9 1 10 12 11 9 12
REMARK H PARENT 9 13
REMARK Flexibility Score: inf
ROOT
ATOM      1  C   UNL     1       9.482   9.234  13.680  1.00  0.00     0.016 A 
ATOM      2  C   UNL     1       9.146   9.327  15.034  1.00  0.00     0.047 A 
ATOM      3  C   UNL     1      10.025   9.926  15.943  1.00  0.00     0.119 A 
ATOM      4  C   UNL     1      11.253  10.438  15.495  1.00  0.00     0.094 A 
ATOM      5  C   UNL     1      11.598  10.351  14.143  1.00  0.00     0.142 A 
ATOM      6  C   UNL     1      10.707   9.744  13.228  1.00  0.00     0.018 A 
ATOM      7  C   UNL     1      11.080   9.672  11.882  1.00  0.00     0.019 A 
ATOM      8  C   UNL     1      12.310  10.195  11.484  1.00  0.00     0.094 A 
ATOM      9  C   UNL     1      13.141  10.781  12.444  1.00  0.00     0.336 A 
ATOM     10  O   UNL     1      14.255  11.258  12.105  1.00  0.00    -0.246 OA
ATOM     11  O   UNL     1      12.762  10.837  13.719  1.00  0.00    -0.423 OA
ENDROOT
BRANCH   3  12
ATOM     12  O   UNL     1       9.672  10.009  17.288  1.00  0.00    -0.508 OA
ATOM     13  H   UNL     1       9.533  10.903  17.746  1.00  0.00     0.293 HD
ENDBRANCH   3  12
TORSDOF 1
ENDMDL
MODEL 6
REMARK VINA RESULT:    -5.397      2.302      4.269
REMARK INTER + INTRA:          -5.555
REMARK INTER:                  -5.555
REMARK INTRA:                   0.000
REMARK UNBOUND:                 0.000
REMARK SMILES O=c1ccc2ccc(O)cc2o1
REMARK SMILES IDX 6 1 7 2 8 3 10 4 11 5 5 6 4 7 3 8 2 9 1 10 12 11 9 12
REMARK H PARENT 9 13
REMARK Flexibility Score: inf
ROOT
ATOM      1  C   UNL     1      10.615   9.828  15.394  1.00  0.00     0.016 A 
ATOM      2  C   UNL     1       9.248   9.649  15.629  1.00  0.00     0.047 A 
ATOM      3  C   UNL     1       8.375   9.384  14.568  1.00  0.00     0.119 A 
ATOM      4  C   UNL     1       8.872   9.296  13.258  1.00  0.00     0.094 A 
ATOM      5  C   UNL     1      10.238   9.473  13.013  1.00  0.00     0.142 A 
ATOM      6  C   UNL     1      11.116   9.742  14.087  1.00  0.00     0.018 A 
ATOM      7  C   UNL     1      12.476   9.914  13.811  1.00  0.00     0.019 A 
ATOM      8  C   UNL     1      12.923   9.817  12.493  1.00  0.00     0.094 A 
ATOM      9  C   UNL     1      11.997   9.549  11.480  1.00  0.00     0.336 A 
ATOM     10  O   UNL     1      12.381   9.459  10.285  1.00  0.00    -0.246 OA
ATOM     11  O   UNL     1      10.708   9.390  11.770  1.00  0.00    -0.423 OA
ENDROOT
BRANCH   3  12
ATOM     12  O   UNL     1       7.017   9.209  14.823  1.00  0.00    -0.508 OA
ATOM     13  H   UNL     1       6.318   9.379  14.109  1.00  0.00     0.293 HD
ENDBRANCH   3  12
TORSDOF 1
ENDMDL
MODEL 7
REMARK VINA RESULT:    -5.087      2.231      3.030
REMARK INTER + INTRA:          -5.236
REMARK INTER:                  -5.236
REMARK INTRA:                   0.000
REMARK UNBOUND:                 0.000
REMARK SMILES O=c1ccc2ccc(O)cc2o1
REMARK SMILES IDX 6 1 7 2 8 3 10 4 11 5 5 6 4 7 3 8 2 9 1 10 12 11 9 12
REMARK H PARENT 9 13
REMARK Flexibility Score: inf
ROOT
ATOM      1  C   UNL     1      12.634   9.892  14.002  1.00  0.00     0.016 A 
ATOM      2  C   UNL     1      13.218   9.868  12.732  1.00  0.00     0.047 A 
ATOM      3  C   UNL     1      12.425   9.708  11.590  1.00  0.00     0.119 A 
ATOM      4  C   UNL     1      11.034   9.571  11.718  1.00  0.00     0.094 A 
ATOM      5  C   UNL     1      10.440   9.594  12.984  1.00  0.00     0.142 A 
ATOM      6  C   UNL     1      11.245   9.755  14.135  1.00  0.00     0.018 A 
ATOM      7  C   UNL     1      10.622   9.774  15.387  1.00  0.00     0.019 A 
ATOM      8  C   UNL     1       9.236   9.635  15.463  1.00  0.00     0.094 A 
ATOM      9  C   UNL     1       8.504   9.479  14.283  1.00  0.00     0.336 A 
ATOM     10  O   UNL     1       7.252   9.351  14.331  1.00  0.00    -0.246 OA
ATOM     11  O   UNL     1       9.121   9.464  13.103  1.00  0.00    -0.423 OA
ENDROOT
BRANCH   3  12
ATOM     12  O   UNL     1      13.026   9.687  10.333  1.00  0.00    -0.508 OA
ATOM     13  H   UNL     1      12.781  10.360   9.617  1.00  0.00     0.293 HD
ENDBRANCH   3  12
TORSDOF 1
ENDMDL
MODEL 8
REMARK VINA RESULT:    -5.031      2.150      2.871
REMARK INTER + INTRA:          -5.178
REMARK INTER:                  -5.178
REMARK INTRA:                   0.000
REMARK UNBOUND:                 0.000
REMARK SMILES O=c1ccc2ccc(O)cc2o1
REMARK SMILES IDX 6 1 7 2 8 3 10 4 11 5 5 6 4 7 3 8 2 9 1 10 12 11 9 12
REMARK H PARENT 9 13
REMARK Flexibility Score: inf
ROOT
ATOM      1  C   UNL     1      11.133   9.726  11.777  1.00  0.00     0.016 A 
ATOM      2  C   UNL     1      12.435  10.119  11.452  1.00  0.00     0.047 A 
ATOM      3  C   UNL     1      13.341  10.472  12.458  1.00  0.00     0.119 A 
ATOM      4  C   UNL     1      12.944  10.431  13.804  1.00  0.00     0.094 A 
ATOM      5  C   UNL     1      11.644  10.038  14.140  1.00  0.00     0.142 A 
ATOM      6  C   UNL     1      10.731   9.684  13.120  1.00  0.00     0.018 A 
ATOM      7  C   UNL     1       9.439   9.295  13.486  1.00  0.00     0.019 A 
ATOM      8  C   UNL     1       9.090   9.270  14.837  1.00  0.00     0.094 A 
ATOM      9  C   UNL     1      10.045   9.634  15.791  1.00  0.00     0.336 A 
ATOM     10  O   UNL     1       9.748   9.618  17.015  1.00  0.00    -0.246 OA
ATOM     11  O   UNL     1      11.268  10.000  15.416  1.00  0.00    -0.423 OA
ENDROOT
BRANCH   3  12
ATOM     12  O   UNL     1      14.634  10.862  12.113  1.00  0.00    -0.508 OA
ATOM     13  H   UNL     1      15.378  10.183  11.994  1.00  0.00     0.293 HD
ENDBRANCH   3  12
TORSDOF 1
ENDMDL
MODEL 9
REMARK VINA RESULT:    -4.925      2.846      4.562
REMARK INTER + INTRA:          -5.069
REMARK INTER:                  -5.069
REMARK INTRA:                   0.000
REMARK UNBOUND:                 0.000
REMARK SMILES O=c1ccc2ccc(O)cc2o1
REMARK SMILES IDX 6 1 7 2 8 3 10 4 11 5 5 6 4 7 3 8 2 9 1 10 12 11 9 12
REMARK H PARENT 9 13
REMARK Flexibility Score: inf
ROOT
ATOM      1  C   UNL     1      10.929  12.038  14.686  1.00  0.00     0.016 A 
ATOM      2  C   UNL     1      10.442  10.971  15.447  1.00  0.00     0.047 A 
ATOM      3  C   UNL     1      10.761   9.652  15.105  1.00  0.00     0.119 A 
ATOM      4  C   UNL     1      11.574   9.396  13.990  1.00  0.00     0.094 A 
ATOM      5  C   UNL     1      12.066  10.456  13.222  1.00  0.00     0.142 A 
ATOM      6  C   UNL     1      11.742  11.787  13.571  1.00  0.00     0.018 A 
ATOM      7  C   UNL     1      12.249  12.826  12.784  1.00  0.00     0.019 A 
ATOM      8  C   UNL     1      13.053  12.521  11.685  1.00  0.00     0.094 A 
ATOM      9  C   UNL     1      13.333  11.181  11.400  1.00  0.00     0.336 A 
ATOM     10  O   UNL     1      14.056  10.887  10.413  1.00  0.00    -0.246 OA
ATOM     11  O   UNL     1      12.837  10.211  12.165  1.00  0.00    -0.423 OA
ENDROOT
BRANCH   3  12
ATOM     12  O   UNL     1      10.266   8.603  15.876  1.00  0.00    -0.508 OA
ATOM     13  H   UNL     1      10.791   7.746  16.005  1.00  0.00     0.293 HD
ENDBRANCH   3  12
TORSDOF 1
ENDMDL
