MODEL 1
REMARK VINA RESULT:    -5.285      0.000      0.000
REMARK INTER + INTRA:         -10.496
REMARK INTER:                  -9.611
REMARK INTRA:                  -0.885
REMARK UNBOUND:                -0.885
REMARK SMILES CCCCCCCCCCCCCCCC(=O)[O-]
REMARK SMILES IDX 9 1 10 2 11 3 12 4 13 5 14 6 15 7 16 8 17 9 18 10 8 11 7 12
REMARK SMILES IDX 6 13 5 14 4 15 3 16 2 17 1 18
REMARK H PARENT
REMARK Flexibility Score: inf
ROOT
ATOM      1  C   UNL     1       7.327   0.787  18.635  1.00  0.00     0.000 C 
ENDROOT
BRANCH   1   2
ATOM      2  C   UNL     1       6.282   1.693  17.960  1.00  0.00     0.000 C 
BRANCH   2   3
ATOM      3  C   UNL     1       6.829   3.097  17.654  1.00  0.00     0.000 C 
BRANCH   3   4
ATOM      4  C   UNL     1       8.217   3.338  18.272  1.00  0.00     0.000 C 
BRANCH   4   5
ATOM      5  C   UNL     1       8.160   4.307  19.473  1.00  0.00     0.000 C 
BRANCH   5   6
ATOM      6  C   UNL     1       7.949   3.600  20.823  1.00  0.00     0.006 C 
BRANCH   6   7
ATOM      7  C   UNL     1       8.428   4.434  22.016  1.00  0.00     0.053 C 
BRANCH   7   8
ATOM      8  C   UNL     1       7.268   5.090  22.695  1.00  0.00     0.041 C 
ATOM      9  O   UNL     1       6.709   6.089  22.171  1.00  0.00    -0.550 OA
ATOM     10  O   UNL     1       6.834   4.629  23.931  1.00  0.00    -0.550 OA
ENDBRANCH   7   8
ENDBRANCH   6   7
ENDBRANCH   5   6
ENDBRANCH   4   5
ENDBRANCH   3   4
ENDBRANCH   2   3
ENDBRANCH   1   2
BRANCH   1  11
ATOM     11  C   UNL     1       7.328  -0.641  18.064  1.00  0.00     0.000 C 
BRANCH  11  12
ATOM     12  C   UNL     1       7.527  -0.667  16.540  1.00  0.00    -0.000 C 
BRANCH  12  13
ATOM     13  C   UNL     1       8.060  -2.021  16.044  1.00  0.00    -0.000 C 
BRANCH  13  14
ATOM     14  C   UNL     1       8.719  -2.842  17.167  1.00  0.00    -0.000 C 
BRANCH  14  15
ATOM     15  C   UNL     1       8.966  -4.306  16.746  1.00  0.00    -0.000 C 
BRANCH  15  16
ATOM     16  C   UNL     1      10.453  -4.698  16.728  1.00  0.00    -0.000 C 
BRANCH  16  17
ATOM     17  C   UNL     1      11.260  -3.935  15.669  1.00  0.00    -0.003 C 
ATOM     18  C   UNL     1      12.760  -4.136  15.871  1.00  0.00     0.004 C 
ENDBRANCH  16  17
ENDBRANCH  15  16
ENDBRANCH  14  15
ENDBRANCH  13  14
ENDBRANCH  12  13
ENDBRANCH  11  12
ENDBRANCH   1  11
TORSDOF 14
ENDMDL
MODEL 2
REMARK VINA RESULT:    -5.188     10.756     13.207
REMARK INTER + INTRA:         -10.319
REMARK INTER:                  -8.832
REMARK INTRA:                  -1.487
REMARK UNBOUND:                -0.885
REMARK SMILES CCCCCCCCCCCCCCCC(=O)[O-]
REMARK SMILES IDX 9 1 10 2 11 3 12 4 13 5 14 6 15 7 16 8 17 9 18 10 8 11 7 12
REMARK SMILES IDX 6 13 5 14 4 15 3 16 2 17 1 18
REMARK H PARENT
REMARK Flexibility Score: inf
ROOT
ATOM      1  C   UNL     1      15.270  -2.299   9.177  1.00  0.00     0.000 C 
ENDROOT
BRANCH   1   2
ATOM      2  C   UNL     1      15.530  -2.768   7.735  1.00  0.00     0.000 C 
BRANCH   2   3
ATOM      3  C   UNL     1      14.304  -3.452   7.107  1.00  0.00     0.000 C 
BRANCH   3   4
ATOM      4  C   UNL     1      13.075  -2.529   7.053  1.00  0.00     0.000 C 
BRANCH   4   5
ATOM      5  C   UNL     1      11.810  -3.271   6.567  1.00  0.00     0.000 C 
BRANCH   5   6
ATOM      6  C   UNL     1      10.740  -3.439   7.659  1.00  0.00     0.006 C 
BRANCH   6   7
ATOM      7  C   UNL     1      10.452  -2.140   8.420  1.00  0.00     0.053 C 
BRANCH   7   8
ATOM      8  C   UNL     1       9.256  -2.306   9.303  1.00  0.00     0.041 C 
ATOM      9  O   UNL     1       9.200  -3.262  10.120  1.00  0.00    -0.550 OA
ATOM     10  O   UNL     1       8.181  -1.433   9.189  1.00  0.00    -0.550 OA
ENDBRANCH   7   8
ENDBRANCH   6   7
ENDBRANCH   5   6
ENDBRANCH   4   5
ENDBRANCH   3   4
ENDBRANCH   2   3
ENDBRANCH   1   2
BRANCH   1  11
ATOM     11  C   UNL     1      15.514  -0.793   9.363  1.00  0.00     0.000 C 
BRANCH  11  12
ATOM     12  C   UNL     1      15.566  -0.382  10.844  1.00  0.00    -0.000 C 
BRANCH  12  13
ATOM     13  C   UNL     1      15.791   1.128  11.023  1.00  0.00    -0.000 C 
BRANCH  13  14
ATOM     14  C   UNL     1      15.865   1.876   9.681  1.00  0.00    -0.000 C 
BRANCH  14  15
ATOM     15  C   UNL     1      14.627   2.768   9.445  1.00  0.00    -0.000 C 
BRANCH  15  16
ATOM     16  C   UNL     1      14.246   2.911   7.962  1.00  0.00    -0.000 C 
BRANCH  16  17
ATOM     17  C   UNL     1      13.707   1.609   7.354  1.00  0.00    -0.003 C 
ATOM     18  C   UNL     1      12.551   1.052   8.182  1.00  0.00     0.004 C 
ENDBRANCH  16  17
ENDBRANCH  15  16
ENDBRANCH  14  15
ENDBRANCH  13  14
ENDBRANCH  12  13
ENDBRANCH  11  12
ENDBRANCH   1  11
TORSDOF 14
ENDMDL
MODEL 3
REMARK VINA RESULT:    -5.026      2.296      3.572
REMARK INTER + INTRA:         -10.025
REMARK INTER:                  -8.749
REMARK INTRA:                  -1.276
REMARK UNBOUND:                -0.885
REMARK SMILES CCCCCCCCCCCCCCCC(=O)[O-]
REMARK SMILES IDX 9 1 10 2 11 3 12 4 13 5 14 6 15 7 16 8 17 9 18 10 8 11 7 12
REMARK SMILES IDX 6 13 5 14 4 15 3 16 2 17 1 18
REMARK H PARENT
REMARK Flexibility Score: inf
ROOT
ATOM      1  C   UNL     1       5.904   1.672  17.754  1.00  0.00     0.000 C 
ENDROOT
BRANCH   1   2
ATOM      2  C   UNL     1       6.012   3.121  17.248  1.00  0.00     0.000 C 
BRANCH   2   3
ATOM      3  C   UNL     1       7.401   3.731  17.497  1.00  0.00     0.000 C 
BRANCH   3   4
ATOM      4  C   UNL     1       7.432   5.250  17.258  1.00  0.00     0.000 C 
BRANCH   4   5
ATOM      5  C   UNL     1       7.401   6.048  18.580  1.00  0.00     0.000 C 
BRANCH   5   6
ATOM      6  C   UNL     1       7.673   5.186  19.824  1.00  0.00     0.006 C 
BRANCH   6   7
ATOM      7  C   UNL     1       7.399   5.927  21.137  1.00  0.00     0.053 C 
BRANCH   7   8
ATOM      8  C   UNL     1       8.077   5.237  22.279  1.00  0.00     0.041 C 
ATOM      9  O   UNL     1       7.395   4.723  23.204  1.00  0.00    -0.550 OA
ATOM     10  O   UNL     1       9.464   5.205  22.347  1.00  0.00    -0.550 OA
ENDBRANCH   7   8
ENDBRANCH   6   7
ENDBRANCH   5   6
ENDBRANCH   4   5
ENDBRANCH   3   4
ENDBRANCH   2   3
ENDBRANCH   1   2
BRANCH   1  11
ATOM     11  C   UNL     1       7.234   1.138  18.311  1.00  0.00     0.000 C 
BRANCH  11  12
ATOM     12  C   UNL     1       7.189  -0.371  18.601  1.00  0.00    -0.000 C 
BRANCH  12  13
ATOM     13  C   UNL     1       8.353  -1.127  17.940  1.00  0.00    -0.000 C 
BRANCH  13  14
ATOM     14  C   UNL     1       8.420  -0.894  16.420  1.00  0.00    -0.000 C 
BRANCH  14  15
ATOM     15  C   UNL     1       7.425  -1.789  15.651  1.00  0.00    -0.000 C 
BRANCH  15  16
ATOM     16  C   UNL     1       6.701  -1.061  14.506  1.00  0.00    -0.000 C 
BRANCH  16  17
ATOM     17  C   UNL     1       5.176  -1.220  14.566  1.00  0.00    -0.003 C 
ATOM     18  C   UNL     1       4.499   0.097  14.936  1.00  0.00     0.004 C 
ENDBRANCH  16  17
ENDBRANCH  15  16
ENDBRANCH  14  15
ENDBRANCH  13  14
ENDBRANCH  12  13
ENDBRANCH  11  12
ENDBRANCH   1  11
TORSDOF 14
ENDMDL
MODEL 4
REMARK VINA RESULT:    -5.016     11.780     14.222
REMARK INTER + INTRA:         -10.006
REMARK INTER:                  -7.578
REMARK INTRA:                  -2.428
REMARK UNBOUND:                -0.885
REMARK SMILES CCCCCCCCCCCCCCCC(=O)[O-]
REMARK SMILES IDX 9 1 10 2 11 3 12 4 13 5 14 6 15 7 16 8 17 9 18 10 8 11 7 12
REMARK SMILES IDX 6 13 5 14 4 15 3 16 2 17 1 18
REMARK H PARENT
REMARK Flexibility Score: inf
ROOT
ATOM      1  C   UNL     1      19.042  -4.592  23.068  1.00  0.00     0.000 C 
ENDROOT
BRANCH   1   2
ATOM      2  C   UNL     1      19.781  -4.127  24.336  1.00  0.00     0.000 C 
BRANCH   2   3
ATOM      3  C   UNL     1      21.232  -3.708  24.051  1.00  0.00     0.000 C 
BRANCH   3   4
ATOM      4  C   UNL     1      21.375  -2.194  23.816  1.00  0.00     0.000 C 
BRANCH   4   5
ATOM      5  C   UNL     1      22.269  -1.876  22.598  1.00  0.00     0.000 C 
BRANCH   5   6
ATOM      6  C   UNL     1      22.211  -2.949  21.497  1.00  0.00     0.006 C 
BRANCH   6   7
ATOM      7  C   UNL     1      21.112  -2.685  20.462  1.00  0.00     0.053 C 
BRANCH   7   8
ATOM      8  C   UNL     1      21.696  -2.615  19.086  1.00  0.00     0.041 C 
ATOM      9  O   UNL     1      22.928  -2.807  18.910  1.00  0.00    -0.550 OA
ATOM     10  O   UNL     1      20.889  -2.288  18.004  1.00  0.00    -0.550 OA
ENDBRANCH   7   8
ENDBRANCH   6   7
ENDBRANCH   5   6
ENDBRANCH   4   5
ENDBRANCH   3   4
ENDBRANCH   2   3
ENDBRANCH   1   2
BRANCH   1  11
ATOM     11  C   UNL     1      17.528  -4.332  23.138  1.00  0.00     0.000 C 
BRANCH  11  12
ATOM     12  C   UNL     1      17.035  -4.096  24.576  1.00  0.00    -0.000 C 
BRANCH  12  13
ATOM     13  C   UNL     1      16.121  -2.864  24.684  1.00  0.00    -0.000 C 
BRANCH  13  14
ATOM     14  C   UNL     1      16.761  -1.725  25.497  1.00  0.00    -0.000 C 
BRANCH  14  15
ATOM     15  C   UNL     1      17.832  -0.965  24.686  1.00  0.00    -0.000 C 
BRANCH  15  16
ATOM     16  C   UNL     1      17.354  -0.527  23.292  1.00  0.00    -0.000 C 
BRANCH  16  17
ATOM     17  C   UNL     1      18.356  -0.867  22.181  1.00  0.00    -0.003 C 
ATOM     18  C   UNL     1      19.281   0.313  21.895  1.00  0.00     0.004 C 
ENDBRANCH  16  17
ENDBRANCH  15  16
ENDBRANCH  14  15
ENDBRANCH  13  14
ENDBRANCH  12  13
ENDBRANCH  11  12
ENDBRANCH   1  11
TORSDOF 14
ENDMDL
MODEL 5
REMARK VINA RESULT:    -4.989      2.011      4.400
REMARK INTER + INTRA:          -9.957
REMARK INTER:                  -8.268
REMARK INTRA:                  -1.689
REMARK UNBOUND:                -0.885
REMARK SMILES CCCCCCCCCCCCCCCC(=O)[O-]
REMARK SMILES IDX 9 1 10 2 11 3 12 4 13 5 14 6 15 7 16 8 17 9 18 10 8 11 7 12
REMARK SMILES IDX 6 13 5 14 4 15 3 16 2 17 1 18
REMARK H PARENT
REMARK Flexibility Score: inf
ROOT
ATOM      1  C   UNL     1       9.306  -0.848  17.574  1.00  0.00     0.000 C 
ENDROOT
BRANCH   1   2
ATOM      2  C   UNL     1       8.748   0.117  18.635  1.00  0.00     0.000 C 
BRANCH   2   3
ATOM      3  C   UNL     1       7.249   0.400  18.444  1.00  0.00     0.000 C 
BRANCH   3   4
ATOM      4  C   UNL     1       6.891   1.877  18.686  1.00  0.00     0.000 C 
BRANCH   4   5
ATOM      5  C   UNL     1       8.069   2.822  18.361  1.00  0.00     0.000 C 
BRANCH   5   6
ATOM      6  C   UNL     1       8.492   3.706  19.546  1.00  0.00     0.006 C 
BRANCH   6   7
ATOM      7  C   UNL     1       7.394   3.853  20.605  1.00  0.00     0.053 C 
BRANCH   7   8
ATOM      8  C   UNL     1       7.657   5.045  21.469  1.00  0.00     0.041 C 
ATOM      9  O   UNL     1       7.287   6.190  21.098  1.00  0.00    -0.550 OA
ATOM     10  O   UNL     1       8.354   4.899  22.662  1.00  0.00    -0.550 OA
ENDBRANCH   7   8
ENDBRANCH   6   7
ENDBRANCH   5   6
ENDBRANCH   4   5
ENDBRANCH   3   4
ENDBRANCH   2   3
ENDBRANCH   1   2
BRANCH   1  11
ATOM     11  C   UNL     1       8.488  -2.145  17.464  1.00  0.00     0.000 C 
BRANCH  11  12
ATOM     12  C   UNL     1       7.813  -2.301  16.091  1.00  0.00    -0.000 C 
BRANCH  12  13
ATOM     13  C   UNL     1       8.206  -1.179  15.116  1.00  0.00    -0.000 C 
BRANCH  13  14
ATOM     14  C   UNL     1       7.018  -0.691  14.269  1.00  0.00    -0.000 C 
BRANCH  14  15
ATOM     15  C   UNL     1       6.208   0.410  14.986  1.00  0.00    -0.000 C 
BRANCH  15  16
ATOM     16  C   UNL     1       4.862  -0.082  15.545  1.00  0.00    -0.000 C 
BRANCH  16  17
ATOM     17  C   UNL     1       4.082   1.017  16.280  1.00  0.00    -0.003 C 
ATOM     18  C   UNL     1       3.106   0.417  17.289  1.00  0.00     0.004 C 
ENDBRANCH  16  17
ENDBRANCH  15  16
ENDBRANCH  14  15
ENDBRANCH  13  14
ENDBRANCH  12  13
ENDBRANCH  11  12
ENDBRANCH   1  11
TORSDOF 14
ENDMDL
MODEL 6
REMARK VINA RESULT:    -4.953     11.833     14.377
REMARK INTER + INTRA:          -9.892
REMARK INTER:                  -7.423
REMARK INTRA:                  -2.469
REMARK UNBOUND:                -0.885
REMARK SMILES CCCCCCCCCCCCCCCC(=O)[O-]
REMARK SMILES IDX 9 1 10 2 11 3 12 4 13 5 14 6 15 7 16 8 17 9 18 10 8 11 7 12
REMARK SMILES IDX 6 13 5 14 4 15 3 16 2 17 1 18
REMARK H PARENT
REMARK Flexibility Score: inf
ROOT
ATOM      1  C   UNL     1      18.559  -3.761  24.632  1.00  0.00     0.000 C 
ENDROOT
BRANCH   1   2
ATOM      2  C   UNL     1      18.313  -4.274  23.201  1.00  0.00     0.000 C 
BRANCH   2   3
ATOM      3  C   UNL     1      19.565  -4.915  22.582  1.00  0.00     0.000 C 
BRANCH   3   4
ATOM      4  C   UNL     1      20.849  -4.578  23.359  1.00  0.00     0.000 C 
BRANCH   4   5
ATOM      5  C   UNL     1      22.049  -4.328  22.421  1.00  0.00     0.000 C 
BRANCH   5   6
ATOM      6  C   UNL     1      21.670  -4.309  20.930  1.00  0.00     0.006 C 
BRANCH   6   7
ATOM      7  C   UNL     1      22.136  -3.039  20.210  1.00  0.00     0.053 C 
BRANCH   7   8
ATOM      8  C   UNL     1      21.255  -2.750  19.037  1.00  0.00     0.041 C 
ATOM      9  O   UNL     1      20.062  -2.388  19.214  1.00  0.00    -0.550 OA
ATOM     10  O   UNL     1      21.735  -2.929  17.746  1.00  0.00    -0.550 OA
ENDBRANCH   7   8
ENDBRANCH   6   7
ENDBRANCH   5   6
ENDBRANCH   4   5
ENDBRANCH   3   4
ENDBRANCH   2   3
ENDBRANCH   1   2
BRANCH   1  11
ATOM     11  C   UNL     1      17.258  -3.366  25.350  1.00  0.00     0.000 C 
BRANCH  11  12
ATOM     12  C   UNL     1      17.169  -1.854  25.618  1.00  0.00    -0.000 C 
BRANCH  12  13
ATOM     13  C   UNL     1      16.770  -1.062  24.362  1.00  0.00    -0.000 C 
BRANCH  13  14
ATOM     14  C   UNL     1      17.922  -0.197  23.820  1.00  0.00    -0.000 C 
BRANCH  14  15
ATOM     15  C   UNL     1      18.420  -0.690  22.444  1.00  0.00    -0.000 C 
BRANCH  15  16
ATOM     16  C   UNL     1      19.935  -0.945  22.393  1.00  0.00    -0.000 C 
BRANCH  16  17
ATOM     17  C   UNL     1      20.615  -0.785  23.760  1.00  0.00    -0.003 C 
ATOM     18  C   UNL     1      22.135  -0.866  23.631  1.00  0.00     0.004 C 
ENDBRANCH  16  17
ENDBRANCH  15  16
ENDBRANCH  14  15
ENDBRANCH  13  14
ENDBRANCH  12  13
ENDBRANCH  11  12
ENDBRANCH   1  11
TORSDOF 14
ENDMDL
MODEL 7
REMARK VINA RESULT:    -4.953     11.363     13.985
REMARK INTER + INTRA:          -9.891
REMARK INTER:                  -8.220
REMARK INTRA:                  -1.671
REMARK UNBOUND:                -0.885
REMARK SMILES CCCCCCCCCCCCCCCC(=O)[O-]
REMARK SMILES IDX 9 1 10 2 11 3 12 4 13 5 14 6 15 7 16 8 17 9 18 10 8 11 7 12
REMARK SMILES IDX 6 13 5 14 4 15 3 16 2 17 1 18
REMARK H PARENT
REMARK Flexibility Score: inf
ROOT
ATOM      1  C   UNL     1      16.076   2.540  11.800  1.00  0.00     0.000 C 
ENDROOT
BRANCH   1   2
ATOM      2  C   UNL     1      15.561   1.247  11.144  1.00  0.00     0.000 C 
BRANCH   2   3
ATOM      3  C   UNL     1      15.995   1.118   9.675  1.00  0.00     0.000 C 
BRANCH   3   4
ATOM      4  C   UNL     1      14.815   1.245   8.696  1.00  0.00     0.000 C 
BRANCH   4   5
ATOM      5  C   UNL     1      14.586  -0.052   7.889  1.00  0.00     0.000 C 
BRANCH   5   6
ATOM      6  C   UNL     1      15.612  -1.156   8.197  1.00  0.00     0.006 C 
BRANCH   6   7
ATOM      7  C   UNL     1      14.963  -2.459   8.678  1.00  0.00     0.053 C 
BRANCH   7   8
ATOM      8  C   UNL     1      15.622  -3.639   8.037  1.00  0.00     0.041 C 
ATOM      9  O   UNL     1      16.622  -4.178   8.579  1.00  0.00    -0.550 OA
ATOM     10  O   UNL     1      15.162  -4.113   6.815  1.00  0.00    -0.550 OA
ENDBRANCH   7   8
ENDBRANCH   6   7
ENDBRANCH   5   6
ENDBRANCH   4   5
ENDBRANCH   3   4
ENDBRANCH   2   3
ENDBRANCH   1   2
BRANCH   1  11
ATOM     11  C   UNL     1      15.138   3.736  11.566  1.00  0.00     0.000 C 
BRANCH  11  12
ATOM     12  C   UNL     1      13.653   3.344  11.637  1.00  0.00    -0.000 C 
BRANCH  12  13
ATOM     13  C   UNL     1      12.863   3.827  10.410  1.00  0.00    -0.000 C 
BRANCH  13  14
ATOM     14  C   UNL     1      13.593   4.941   9.640  1.00  0.00    -0.000 C 
BRANCH  14  15
ATOM     15  C   UNL     1      13.007   5.150   8.227  1.00  0.00    -0.000 C 
BRANCH  15  16
ATOM     16  C   UNL     1      12.380   3.880   7.627  1.00  0.00    -0.000 C 
BRANCH  16  17
ATOM     17  C   UNL     1      13.116   3.383   6.376  1.00  0.00    -0.003 C 
ATOM     18  C   UNL     1      14.390   4.188   6.130  1.00  0.00     0.004 C 
ENDBRANCH  16  17
ENDBRANCH  15  16
ENDBRANCH  14  15
ENDBRANCH  13  14
ENDBRANCH  12  13
ENDBRANCH  11  12
ENDBRANCH   1  11
TORSDOF 14
ENDMDL
MODEL 8
REMARK VINA RESULT:    -4.909     11.914     14.434
REMARK INTER + INTRA:          -9.812
REMARK INTER:                  -7.273
REMARK INTRA:                  -2.539
REMARK UNBOUND:                -0.885
REMARK SMILES CCCCCCCCCCCCCCCC(=O)[O-]
REMARK SMILES IDX 9 1 10 2 11 3 12 4 13 5 14 6 15 7 16 8 17 9 18 10 8 11 7 12
REMARK SMILES IDX 6 13 5 14 4 15 3 16 2 17 1 18
REMARK H PARENT
REMARK Flexibility Score: inf
ROOT
ATOM      1  C   UNL     1      21.799  -3.629  22.653  1.00  0.00     0.000 C 
ENDROOT
BRANCH   1   2
ATOM      2  C   UNL     1      21.279  -3.867  24.082  1.00  0.00     0.000 C 
BRANCH   2   3
ATOM      3  C   UNL     1      19.944  -4.627  24.104  1.00  0.00     0.000 C 
BRANCH   3   4
ATOM      4  C   UNL     1      19.562  -5.193  22.725  1.00  0.00     0.000 C 
BRANCH   4   5
ATOM      5  C   UNL     1      18.217  -4.630  22.217  1.00  0.00     0.000 C 
BRANCH   5   6
ATOM      6  C   UNL     1      18.205  -4.337  20.707  1.00  0.00     0.006 C 
BRANCH   6   7
ATOM      7  C   UNL     1      18.777  -2.958  20.360  1.00  0.00     0.053 C 
BRANCH   7   8
ATOM      8  C   UNL     1      19.916  -3.091  19.400  1.00  0.00     0.041 C 
ATOM      9  O   UNL     1      20.353  -4.230  19.088  1.00  0.00    -0.550 OA
ATOM     10  O   UNL     1      20.528  -1.954  18.886  1.00  0.00    -0.550 OA
ENDBRANCH   7   8
ENDBRANCH   6   7
ENDBRANCH   5   6
ENDBRANCH   4   5
ENDBRANCH   3   4
ENDBRANCH   2   3
ENDBRANCH   1   2
BRANCH   1  11
ATOM     11  C   UNL     1      21.958  -2.136  22.322  1.00  0.00     0.000 C 
BRANCH  11  12
ATOM     12  C   UNL     1      22.045  -1.258  23.582  1.00  0.00    -0.000 C 
BRANCH  12  13
ATOM     13  C   UNL     1      21.021  -0.112  23.566  1.00  0.00    -0.000 C 
BRANCH  13  14
ATOM     14  C   UNL     1      19.613  -0.585  23.165  1.00  0.00    -0.000 C 
BRANCH  14  15
ATOM     15  C   UNL     1      18.670  -0.700  24.382  1.00  0.00    -0.000 C 
BRANCH  15  16
ATOM     16  C   UNL     1      17.555  -1.743  24.200  1.00  0.00    -0.000 C 
BRANCH  16  17
ATOM     17  C   UNL     1      17.084  -2.354  25.527  1.00  0.00    -0.003 C 
ATOM     18  C   UNL     1      16.397  -3.698  25.301  1.00  0.00     0.004 C 
ENDBRANCH  16  17
ENDBRANCH  15  16
ENDBRANCH  14  15
ENDBRANCH  13  14
ENDBRANCH  12  13
ENDBRANCH  11  12
ENDBRANCH   1  11
TORSDOF 14
ENDMDL
MODEL 9
REMARK VINA RESULT:    -4.904     10.490     13.415
REMARK INTER + INTRA:          -9.802
REMARK INTER:                  -7.332
REMARK INTRA:                  -2.470
REMARK UNBOUND:                -0.885
REMARK SMILES CCCCCCCCCCCCCCCC(=O)[O-]
REMARK SMILES IDX 9 1 10 2 11 3 12 4 13 5 14 6 15 7 16 8 17 9 18 10 8 11 7 12
REMARK SMILES IDX 6 13 5 14 4 15 3 16 2 17 1 18
REMARK H PARENT
REMARK Flexibility Score: inf
ROOT
ATOM      1  C   UNL     1      19.528  -3.859  24.207  1.00  0.00     0.000 C 
ENDROOT
BRANCH   1   2
ATOM      2  C   UNL     1      18.242  -3.747  25.044  1.00  0.00     0.000 C 
BRANCH   2   3
ATOM      3  C   UNL     1      16.986  -4.140  24.251  1.00  0.00     0.000 C 
BRANCH   3   4
ATOM      4  C   UNL     1      15.967  -2.991  24.149  1.00  0.00     0.000 C 
BRANCH   4   5
ATOM      5  C   UNL     1      15.842  -2.451  22.707  1.00  0.00     0.000 C 
BRANCH   5   6
ATOM      6  C   UNL     1      16.391  -3.414  21.641  1.00  0.00     0.006 C 
BRANCH   6   7
ATOM      7  C   UNL     1      17.289  -2.718  20.612  1.00  0.00     0.053 C 
BRANCH   7   8
ATOM      8  C   UNL     1      17.578  -3.635  19.466  1.00  0.00     0.041 C 
ATOM      9  O   UNL     1      16.793  -4.583  19.199  1.00  0.00    -0.550 OA
ATOM     10  O   UNL     1      18.740  -3.473  18.722  1.00  0.00    -0.550 OA
ENDBRANCH   7   8
ENDBRANCH   6   7
ENDBRANCH   5   6
ENDBRANCH   4   5
ENDBRANCH   3   4
ENDBRANCH   2   3
ENDBRANCH   1   2
BRANCH   1  11
ATOM     11  C   UNL     1      19.433  -4.941  23.118  1.00  0.00     0.000 C 
BRANCH  11  12
ATOM     12  C   UNL     1      20.324  -4.635  21.903  1.00  0.00    -0.000 C 
BRANCH  12  13
ATOM     13  C   UNL     1      21.697  -4.077  22.312  1.00  0.00    -0.000 C 
BRANCH  13  14
ATOM     14  C   UNL     1      21.983  -2.699  21.690  1.00  0.00    -0.000 C 
BRANCH  14  15
ATOM     15  C   UNL     1      22.455  -1.674  22.742  1.00  0.00    -0.000 C 
BRANCH  15  16
ATOM     16  C   UNL     1      21.372  -0.657  23.139  1.00  0.00    -0.000 C 
BRANCH  16  17
ATOM     17  C   UNL     1      20.104  -0.767  22.282  1.00  0.00    -0.003 C 
ATOM     18  C   UNL     1      18.864  -0.379  23.082  1.00  0.00     0.004 C 
ENDBRANCH  16  17
ENDBRANCH  15  16
ENDBRANCH  14  15
ENDBRANCH  13  14
ENDBRANCH  12  13
ENDBRANCH  11  12
ENDBRANCH   1  11
TORSDOF 14
ENDMDL
