MODEL 1
REMARK VINA RESULT:    -3.585      0.000      0.000
REMARK INTER + INTRA:          -8.925
REMARK INTER:                  -6.520
REMARK INTRA:                  -2.406
REMARK UNBOUND:                -2.406
REMARK SMILES CCCCCCCCCCCCCCCC(=O)[O-]
REMARK SMILES IDX 9 1 10 2 11 3 12 4 13 5 14 6 15 7 16 8 17 9 18 10 8 11 7 12
REMARK SMILES IDX 6 13 5 14 4 15 3 16 2 17 1 18
REMARK H PARENT
REMARK Flexibility Score: inf
ROOT
ATOM      1  C   UNL     1     136.947 134.511 148.900  1.00  0.00     0.000 C 
ENDROOT
BRANCH   1   2
ATOM      2  C   UNL     1     138.320 135.189 148.992  1.00  0.00     0.000 C 
BRANCH   2   3
ATOM      3  C   UNL     1     139.042 134.796 150.289  1.00  0.00     0.000 C 
BRANCH   3   4
ATOM      4  C   UNL     1     140.487 135.322 150.355  1.00  0.00     0.000 C 
BRANCH   4   5
ATOM      5  C   UNL     1     141.572 134.308 149.943  1.00  0.00     0.000 C 
BRANCH   5   6
ATOM      6  C   UNL     1     142.526 134.778 148.830  1.00  0.00     0.006 C 
BRANCH   6   7
ATOM      7  C   UNL     1     141.835 135.580 147.712  1.00  0.00     0.053 C 
BRANCH   7   8
ATOM      8  C   UNL     1     142.343 136.987 147.619  1.00  0.00     0.041 C 
ATOM      9  O   UNL     1     142.298 137.746 148.623  1.00  0.00    -0.550 OA
ATOM     10  O   UNL     1     142.900 137.450 146.433  1.00  0.00    -0.550 OA
ENDBRANCH   7   8
ENDBRANCH   6   7
ENDBRANCH   5   6
ENDBRANCH   4   5
ENDBRANCH   3   4
ENDBRANCH   2   3
ENDBRANCH   1   2
BRANCH   1  11
ATOM     11  C   UNL     1     136.860 133.311 149.855  1.00  0.00     0.000 C 
BRANCH  11  12
ATOM     12  C   UNL     1     136.078 132.131 149.256  1.00  0.00    -0.000 C 
BRANCH  12  13
ATOM     13  C   UNL     1     135.488 132.455 147.873  1.00  0.00    -0.000 C 
BRANCH  13  14
ATOM     14  C   UNL     1     135.769 131.354 146.838  1.00  0.00    -0.000 C 
BRANCH  14  15
ATOM     15  C   UNL     1     137.272 131.165 146.562  1.00  0.00    -0.000 C 
BRANCH  15  16
ATOM     16  C   UNL     1     137.924 132.442 145.992  1.00  0.00    -0.000 C 
BRANCH  16  17
ATOM     17  C   UNL     1     139.328 132.719 146.555  1.00  0.00    -0.003 C 
ATOM     18  C   UNL     1     139.653 131.884 147.792  1.00  0.00     0.004 C 
ENDBRANCH  16  17
ENDBRANCH  15  16
ENDBRANCH  14  15
ENDBRANCH  13  14
ENDBRANCH  12  13
ENDBRANCH  11  12
ENDBRANCH   1  11
TORSDOF 14
ENDMDL
MODEL 2
REMARK VINA RESULT:    -3.344      1.630      2.999
REMARK INTER + INTRA:          -8.487
REMARK INTER:                  -7.248
REMARK INTRA:                  -1.239
REMARK UNBOUND:                -2.406
REMARK SMILES CCCCCCCCCCCCCCCC(=O)[O-]
REMARK SMILES IDX 9 1 10 2 11 3 12 4 13 5 14 6 15 7 16 8 17 9 18 10 8 11 7 12
REMARK SMILES IDX 6 13 5 14 4 15 3 16 2 17 1 18
REMARK H PARENT
REMARK Flexibility Score: inf
ROOT
ATOM      1  C   UNL     1     139.326 134.991 150.236  1.00  0.00     0.000 C 
ENDROOT
BRANCH   1   2
ATOM      2  C   UNL     1     140.795 135.432 150.266  1.00  0.00     0.000 C 
BRANCH   2   3
ATOM      3  C   UNL     1     141.702 134.372 149.627  1.00  0.00     0.000 C 
BRANCH   3   4
ATOM      4  C   UNL     1     142.652 134.955 148.566  1.00  0.00     0.000 C 
BRANCH   4   5
ATOM      5  C   UNL     1     142.415 136.438 148.219  1.00  0.00     0.000 C 
BRANCH   5   6
ATOM      6  C   UNL     1     143.190 136.961 146.995  1.00  0.00     0.006 C 
BRANCH   6   7
ATOM      7  C   UNL     1     144.564 136.297 146.794  1.00  0.00     0.053 C 
BRANCH   7   8
ATOM      8  C   UNL     1     145.670 137.300 146.659  1.00  0.00     0.041 C 
ATOM      9  O   UNL     1     145.450 138.420 146.127  1.00  0.00    -0.550 OA
ATOM     10  O   UNL     1     146.936 137.011 147.152  1.00  0.00    -0.550 OA
ENDBRANCH   7   8
ENDBRANCH   6   7
ENDBRANCH   5   6
ENDBRANCH   4   5
ENDBRANCH   3   4
ENDBRANCH   2   3
ENDBRANCH   1   2
BRANCH   1  11
ATOM     11  C   UNL     1     138.766 135.039 148.806  1.00  0.00     0.000 C 
BRANCH  11  12
ATOM     12  C   UNL     1     137.265 134.711 148.744  1.00  0.00    -0.000 C 
BRANCH  12  13
ATOM     13  C   UNL     1     136.865 133.595 149.723  1.00  0.00    -0.000 C 
BRANCH  13  14
ATOM     14  C   UNL     1     136.365 132.330 149.007  1.00  0.00    -0.000 C 
BRANCH  14  15
ATOM     15  C   UNL     1     135.285 132.631 147.951  1.00  0.00    -0.000 C 
BRANCH  15  16
ATOM     16  C   UNL     1     135.619 132.001 146.582  1.00  0.00    -0.000 C 
BRANCH  16  17
ATOM     17  C   UNL     1     137.127 131.936 146.286  1.00  0.00    -0.003 C 
ATOM     18  C   UNL     1     137.613 133.080 145.399  1.00  0.00     0.004 C 
ENDBRANCH  16  17
ENDBRANCH  15  16
ENDBRANCH  14  15
ENDBRANCH  13  14
ENDBRANCH  12  13
ENDBRANCH  11  12
ENDBRANCH   1  11
TORSDOF 14
ENDMDL
MODEL 3
REMARK VINA RESULT:    -3.270      4.399      8.866
REMARK INTER + INTRA:          -8.352
REMARK INTER:                  -6.836
REMARK INTRA:                  -1.515
REMARK UNBOUND:                -2.406
REMARK SMILES CCCCCCCCCCCCCCCC(=O)[O-]
REMARK SMILES IDX 9 1 10 2 11 3 12 4 13 5 14 6 15 7 16 8 17 9 18 10 8 11 7 12
REMARK SMILES IDX 6 13 5 14 4 15 3 16 2 17 1 18
REMARK H PARENT
REMARK Flexibility Score: inf
ROOT
ATOM      1  C   UNL     1     143.979 136.639 144.869  1.00  0.00     0.000 C 
ENDROOT
BRANCH   1   2
ATOM      2  C   UNL     1     143.088 135.789 145.785  1.00  0.00     0.000 C 
BRANCH   2   3
ATOM      3  C   UNL     1     142.125 136.673 146.590  1.00  0.00     0.000 C 
BRANCH   3   4
ATOM      4  C   UNL     1     142.275 136.493 148.111  1.00  0.00     0.000 C 
BRANCH   4   5
ATOM      5  C   UNL     1     142.787 135.110 148.559  1.00  0.00     0.000 C 
BRANCH   5   6
ATOM      6  C   UNL     1     141.942 134.413 149.642  1.00  0.00     0.006 C 
BRANCH   6   7
ATOM      7  C   UNL     1     140.721 135.229 150.104  1.00  0.00     0.053 C 
BRANCH   7   8
ATOM      8  C   UNL     1     139.436 134.709 149.535  1.00  0.00     0.041 C 
ATOM      9  O   UNL     1     138.335 135.026 150.059  1.00  0.00    -0.550 OA
ATOM     10  O   UNL     1     139.450 133.903 148.403  1.00  0.00    -0.550 OA
ENDBRANCH   7   8
ENDBRANCH   6   7
ENDBRANCH   5   6
ENDBRANCH   4   5
ENDBRANCH   3   4
ENDBRANCH   2   3
ENDBRANCH   1   2
BRANCH   1  11
ATOM     11  C   UNL     1     144.754 137.691 145.677  1.00  0.00     0.000 C 
BRANCH  11  12
ATOM     12  C   UNL     1     145.935 137.088 146.457  1.00  0.00    -0.000 C 
BRANCH  12  13
ATOM     13  C   UNL     1     146.890 138.162 147.004  1.00  0.00    -0.000 C 
BRANCH  13  14
ATOM     14  C   UNL     1     148.244 138.175 146.278  1.00  0.00    -0.000 C 
BRANCH  14  15
ATOM     15  C   UNL     1     148.606 139.563 145.717  1.00  0.00    -0.000 C 
BRANCH  15  16
ATOM     16  C   UNL     1     147.816 139.895 144.433  1.00  0.00    -0.000 C 
BRANCH  16  17
ATOM     17  C   UNL     1     147.892 138.793 143.363  1.00  0.00    -0.003 C 
ATOM     18  C   UNL     1     146.602 138.650 142.558  1.00  0.00     0.004 C 
ENDBRANCH  16  17
ENDBRANCH  15  16
ENDBRANCH  14  15
ENDBRANCH  13  14
ENDBRANCH  12  13
ENDBRANCH  11  12
ENDBRANCH   1  11
TORSDOF 14
ENDMDL
MODEL 4
REMARK VINA RESULT:    -3.263      2.971      5.262
REMARK INTER + INTRA:          -8.339
REMARK INTER:                  -7.449
REMARK INTRA:                  -0.890
REMARK UNBOUND:                -2.406
REMARK SMILES CCCCCCCCCCCCCCCC(=O)[O-]
REMARK SMILES IDX 9 1 10 2 11 3 12 4 13 5 14 6 15 7 16 8 17 9 18 10 8 11 7 12
REMARK SMILES IDX 6 13 5 14 4 15 3 16 2 17 1 18
REMARK H PARENT
REMARK Flexibility Score: inf
ROOT
ATOM      1  C   UNL     1     141.821 137.078 148.837  1.00  0.00     0.000 C 
ENDROOT
BRANCH   1   2
ATOM      2  C   UNL     1     142.787 137.164 147.648  1.00  0.00     0.000 C 
BRANCH   2   3
ATOM      3  C   UNL     1     143.525 135.834 147.441  1.00  0.00     0.000 C 
BRANCH   3   4
ATOM      4  C   UNL     1     144.423 135.834 146.191  1.00  0.00     0.000 C 
BRANCH   4   5
ATOM      5  C   UNL     1     144.267 137.062 145.273  1.00  0.00     0.000 C 
BRANCH   5   6
ATOM      6  C   UNL     1     145.418 138.084 145.336  1.00  0.00     0.006 C 
BRANCH   6   7
ATOM      7  C   UNL     1     146.514 137.729 146.357  1.00  0.00     0.053 C 
BRANCH   7   8
ATOM      8  C   UNL     1     147.708 138.629 146.251  1.00  0.00     0.041 C 
ATOM      9  O   UNL     1     147.563 139.880 146.276  1.00  0.00    -0.550 OA
ATOM     10  O   UNL     1     148.984 138.088 146.162  1.00  0.00    -0.550 OA
ENDBRANCH   7   8
ENDBRANCH   6   7
ENDBRANCH   5   6
ENDBRANCH   4   5
ENDBRANCH   3   4
ENDBRANCH   2   3
ENDBRANCH   1   2
BRANCH   1  11
ATOM     11  C   UNL     1     141.439 135.619 149.131  1.00  0.00     0.000 C 
BRANCH  11  12
ATOM     12  C   UNL     1     140.605 135.470 150.414  1.00  0.00    -0.000 C 
BRANCH  12  13
ATOM     13  C   UNL     1     139.233 134.826 150.154  1.00  0.00    -0.000 C 
BRANCH  13  14
ATOM     14  C   UNL     1     138.704 135.110 148.739  1.00  0.00    -0.000 C 
BRANCH  14  15
ATOM     15  C   UNL     1     137.194 134.841 148.602  1.00  0.00    -0.000 C 
BRANCH  15  16
ATOM     16  C   UNL     1     136.712 133.730 149.558  1.00  0.00    -0.000 C 
BRANCH  16  17
ATOM     17  C   UNL     1     136.513 132.370 148.870  1.00  0.00    -0.003 C 
ATOM     18  C   UNL     1     135.568 132.436 147.672  1.00  0.00     0.004 C 
ENDBRANCH  16  17
ENDBRANCH  15  16
ENDBRANCH  14  15
ENDBRANCH  13  14
ENDBRANCH  12  13
ENDBRANCH  11  12
ENDBRANCH   1  11
TORSDOF 14
ENDMDL
MODEL 5
REMARK VINA RESULT:    -3.241     11.751     12.866
REMARK INTER + INTRA:          -8.299
REMARK INTER:                  -6.907
REMARK INTRA:                  -1.392
REMARK UNBOUND:                -2.406
REMARK SMILES CCCCCCCCCCCCCCCC(=O)[O-]
REMARK SMILES IDX 9 1 10 2 11 3 12 4 13 5 14 6 15 7 16 8 17 9 18 10 8 11 7 12
REMARK SMILES IDX 6 13 5 14 4 15 3 16 2 17 1 18
REMARK H PARENT
REMARK Flexibility Score: inf
ROOT
ATOM      1  C   UNL     1     132.877 140.102 138.176  1.00  0.00     0.000 C 
ENDROOT
BRANCH   1   2
ATOM      2  C   UNL     1     134.083 140.587 137.361  1.00  0.00     0.000 C 
BRANCH   2   3
ATOM      3  C   UNL     1     135.254 140.962 138.281  1.00  0.00     0.000 C 
BRANCH   3   4
ATOM      4  C   UNL     1     135.296 140.124 139.571  1.00  0.00     0.000 C 
BRANCH   4   5
ATOM      5  C   UNL     1     136.542 140.339 140.452  1.00  0.00     0.000 C 
BRANCH   5   6
ATOM      6  C   UNL     1     136.628 141.709 141.150  1.00  0.00     0.006 C 
BRANCH   6   7
ATOM      7  C   UNL     1     137.404 141.684 142.480  1.00  0.00     0.053 C 
BRANCH   7   8
ATOM      8  C   UNL     1     137.810 143.055 142.931  1.00  0.00     0.041 C 
ATOM      9  O   UNL     1     136.935 143.900 143.261  1.00  0.00    -0.550 OA
ATOM     10  O   UNL     1     139.155 143.389 143.022  1.00  0.00    -0.550 OA
ENDBRANCH   7   8
ENDBRANCH   6   7
ENDBRANCH   5   6
ENDBRANCH   4   5
ENDBRANCH   3   4
ENDBRANCH   2   3
ENDBRANCH   1   2
BRANCH   1  11
ATOM     11  C   UNL     1     131.615 140.905 137.821  1.00  0.00     0.000 C 
BRANCH  11  12
ATOM     12  C   UNL     1     130.489 140.726 138.853  1.00  0.00    -0.000 C 
BRANCH  12  13
ATOM     13  C   UNL     1     129.556 139.552 138.510  1.00  0.00    -0.000 C 
BRANCH  13  14
ATOM     14  C   UNL     1     128.972 139.655 137.093  1.00  0.00    -0.000 C 
BRANCH  14  15
ATOM     15  C   UNL     1     129.284 138.420 136.228  1.00  0.00    -0.000 C 
BRANCH  15  16
ATOM     16  C   UNL     1     130.112 137.367 136.996  1.00  0.00    -0.000 C 
BRANCH  16  17
ATOM     17  C   UNL     1     131.482 137.078 136.358  1.00  0.00    -0.003 C 
ATOM     18  C   UNL     1     131.818 138.023 135.206  1.00  0.00     0.004 C 
ENDBRANCH  16  17
ENDBRANCH  15  16
ENDBRANCH  14  15
ENDBRANCH  13  14
ENDBRANCH  12  13
ENDBRANCH  11  12
ENDBRANCH   1  11
TORSDOF 14
ENDMDL
MODEL 6
REMARK VINA RESULT:    -3.234     11.564     13.593
REMARK INTER + INTRA:          -8.286
REMARK INTER:                  -7.186
REMARK INTRA:                  -1.100
REMARK UNBOUND:                -2.406
REMARK SMILES CCCCCCCCCCCCCCCC(=O)[O-]
REMARK SMILES IDX 9 1 10 2 11 3 12 4 13 5 14 6 15 7 16 8 17 9 18 10 8 11 7 12
REMARK SMILES IDX 6 13 5 14 4 15 3 16 2 17 1 18
REMARK H PARENT
REMARK Flexibility Score: inf
ROOT
ATOM      1  C   UNL     1     134.753 140.619 137.177  1.00  0.00     0.000 C 
ENDROOT
BRANCH   1   2
ATOM      2  C   UNL     1     133.519 139.828 137.630  1.00  0.00     0.000 C 
BRANCH   2   3
ATOM      3  C   UNL     1     132.242 140.666 137.479  1.00  0.00     0.000 C 
BRANCH   3   4
ATOM      4  C   UNL     1     131.466 140.821 138.799  1.00  0.00     0.000 C 
BRANCH   4   5
ATOM      5  C   UNL     1     129.935 140.692 138.678  1.00  0.00     0.000 C 
BRANCH   5   6
ATOM      6  C   UNL     1     129.436 139.451 137.914  1.00  0.00     0.006 C 
BRANCH   6   7
ATOM      7  C   UNL     1     129.073 138.262 138.823  1.00  0.00     0.053 C 
BRANCH   7   8
ATOM      8  C   UNL     1     129.774 136.999 138.421  1.00  0.00     0.041 C 
ATOM      9  O   UNL     1     129.954 136.078 139.261  1.00  0.00    -0.550 OA
ATOM     10  O   UNL     1     130.197 136.824 137.109  1.00  0.00    -0.550 OA
ENDBRANCH   7   8
ENDBRANCH   6   7
ENDBRANCH   5   6
ENDBRANCH   4   5
ENDBRANCH   3   4
ENDBRANCH   2   3
ENDBRANCH   1   2
BRANCH   1  11
ATOM     11  C   UNL     1     135.605 141.047 138.382  1.00  0.00     0.000 C 
BRANCH  11  12
ATOM     12  C   UNL     1     135.531 140.047 139.547  1.00  0.00    -0.000 C 
BRANCH  12  13
ATOM     13  C   UNL     1     135.195 140.724 140.886  1.00  0.00    -0.000 C 
BRANCH  13  14
ATOM     14  C   UNL     1     136.444 141.237 141.620  1.00  0.00    -0.000 C 
BRANCH  14  15
ATOM     15  C   UNL     1     137.686 140.365 141.362  1.00  0.00    -0.000 C 
BRANCH  15  16
ATOM     16  C   UNL     1     137.800 139.203 142.372  1.00  0.00    -0.000 C 
BRANCH  16  17
ATOM     17  C   UNL     1     137.248 139.543 143.766  1.00  0.00    -0.003 C 
ATOM     18  C   UNL     1     136.611 138.345 144.467  1.00  0.00     0.004 C 
ENDBRANCH  16  17
ENDBRANCH  15  16
ENDBRANCH  14  15
ENDBRANCH  13  14
ENDBRANCH  12  13
ENDBRANCH  11  12
ENDBRANCH   1  11
TORSDOF 14
ENDMDL
MODEL 7
REMARK VINA RESULT:    -3.173      3.642      6.314
REMARK INTER + INTRA:          -8.175
REMARK INTER:                  -6.190
REMARK INTRA:                  -1.985
REMARK UNBOUND:                -2.406
REMARK SMILES CCCCCCCCCCCCCCCC(=O)[O-]
REMARK SMILES IDX 9 1 10 2 11 3 12 4 13 5 14 6 15 7 16 8 17 9 18 10 8 11 7 12
REMARK SMILES IDX 6 13 5 14 4 15 3 16 2 17 1 18
REMARK H PARENT
REMARK Flexibility Score: inf
ROOT
ATOM      1  C   UNL     1     137.091 134.356 148.706  1.00  0.00     0.000 C 
ENDROOT
BRANCH   1   2
ATOM      2  C   UNL     1     136.828 133.359 149.842  1.00  0.00     0.000 C 
BRANCH   2   3
ATOM      3  C   UNL     1     136.144 132.090 149.313  1.00  0.00     0.000 C 
BRANCH   3   4
ATOM      4  C   UNL     1     135.480 132.294 147.940  1.00  0.00     0.000 C 
BRANCH   4   5
ATOM      5  C   UNL     1     135.777 131.196 146.900  1.00  0.00     0.000 C 
BRANCH   5   6
ATOM      6  C   UNL     1     136.833 131.559 145.840  1.00  0.00     0.006 C 
BRANCH   6   7
ATOM      7  C   UNL     1     136.351 132.592 144.805  1.00  0.00     0.053 C 
BRANCH   7   8
ATOM      8  C   UNL     1     135.327 132.027 143.867  1.00  0.00     0.041 C 
ATOM      9  O   UNL     1     135.537 130.931 143.284  1.00  0.00    -0.550 OA
ATOM     10  O   UNL     1     134.125 132.693 143.664  1.00  0.00    -0.550 OA
ENDBRANCH   7   8
ENDBRANCH   6   7
ENDBRANCH   5   6
ENDBRANCH   4   5
ENDBRANCH   3   4
ENDBRANCH   2   3
ENDBRANCH   1   2
BRANCH   1  11
ATOM     11  C   UNL     1     138.357 135.182 148.981  1.00  0.00     0.000 C 
BRANCH  11  12
ATOM     12  C   UNL     1     139.001 134.847 150.336  1.00  0.00    -0.000 C 
BRANCH  12  13
ATOM     13  C   UNL     1     140.446 135.362 150.446  1.00  0.00    -0.000 C 
BRANCH  13  14
ATOM     14  C   UNL     1     141.057 135.705 149.079  1.00  0.00    -0.000 C 
BRANCH  14  15
ATOM     15  C   UNL     1     142.299 134.857 148.751  1.00  0.00    -0.000 C 
BRANCH  15  16
ATOM     16  C   UNL     1     141.965 133.354 148.642  1.00  0.00    -0.000 C 
BRANCH  16  17
ATOM     17  C   UNL     1     141.023 133.017 147.475  1.00  0.00    -0.003 C 
ATOM     18  C   UNL     1     139.922 132.030 147.859  1.00  0.00     0.004 C 
ENDBRANCH  16  17
ENDBRANCH  15  16
ENDBRANCH  14  15
ENDBRANCH  13  14
ENDBRANCH  12  13
ENDBRANCH  11  12
ENDBRANCH   1  11
TORSDOF 14
ENDMDL
MODEL 8
REMARK VINA RESULT:    -3.146      1.877      3.567
REMARK INTER + INTRA:          -8.126
REMARK INTER:                  -7.055
REMARK INTRA:                  -1.071
REMARK UNBOUND:                -2.406
REMARK SMILES CCCCCCCCCCCCCCCC(=O)[O-]
REMARK SMILES IDX 9 1 10 2 11 3 12 4 13 5 14 6 15 7 16 8 17 9 18 10 8 11 7 12
REMARK SMILES IDX 6 13 5 14 4 15 3 16 2 17 1 18
REMARK H PARENT
REMARK Flexibility Score: inf
ROOT
ATOM      1  C   UNL     1     140.135 135.317 150.079  1.00  0.00     0.000 C 
ENDROOT
BRANCH   1   2
ATOM      2  C   UNL     1     141.158 134.355 149.459  1.00  0.00     0.000 C 
BRANCH   2   3
ATOM      3  C   UNL     1     142.325 135.126 148.827  1.00  0.00     0.000 C 
BRANCH   3   4
ATOM      4  C   UNL     1     142.024 136.624 148.640  1.00  0.00     0.000 C 
BRANCH   4   5
ATOM      5  C   UNL     1     142.740 137.292 147.449  1.00  0.00     0.000 C 
BRANCH   5   6
ATOM      6  C   UNL     1     142.853 136.429 146.179  1.00  0.00     0.006 C 
BRANCH   6   7
ATOM      7  C   UNL     1     144.279 135.925 145.892  1.00  0.00     0.053 C 
BRANCH   7   8
ATOM      8  C   UNL     1     145.300 137.021 145.971  1.00  0.00     0.041 C 
ATOM      9  O   UNL     1     145.282 137.966 145.139  1.00  0.00    -0.550 OA
ATOM     10  O   UNL     1     146.249 137.017 146.985  1.00  0.00    -0.550 OA
ENDBRANCH   7   8
ENDBRANCH   6   7
ENDBRANCH   5   6
ENDBRANCH   4   5
ENDBRANCH   3   4
ENDBRANCH   2   3
ENDBRANCH   1   2
BRANCH   1  11
ATOM     11  C   UNL     1     138.723 134.710 150.051  1.00  0.00     0.000 C 
BRANCH  11  12
ATOM     12  C   UNL     1     137.921 135.132 148.809  1.00  0.00    -0.000 C 
BRANCH  12  13
ATOM     13  C   UNL     1     136.626 134.320 148.639  1.00  0.00    -0.000 C 
BRANCH  13  14
ATOM     14  C   UNL     1     136.814 133.090 147.737  1.00  0.00    -0.000 C 
BRANCH  14  15
ATOM     15  C   UNL     1     136.047 131.855 148.246  1.00  0.00    -0.000 C 
BRANCH  15  16
ATOM     16  C   UNL     1     136.857 131.058 149.291  1.00  0.00    -0.000 C 
BRANCH  16  17
ATOM     17  C   UNL     1     136.421 131.325 150.741  1.00  0.00    -0.003 C 
ATOM     18  C   UNL     1     134.906 131.282 150.929  1.00  0.00     0.004 C 
ENDBRANCH  16  17
ENDBRANCH  15  16
ENDBRANCH  14  15
ENDBRANCH  13  14
ENDBRANCH  12  13
ENDBRANCH  11  12
ENDBRANCH   1  11
TORSDOF 14
ENDMDL
MODEL 9
REMARK VINA RESULT:    -3.110     11.525     12.731
REMARK INTER + INTRA:          -8.061
REMARK INTER:                  -6.802
REMARK INTRA:                  -1.259
REMARK UNBOUND:                -2.406
REMARK SMILES CCCCCCCCCCCCCCCC(=O)[O-]
REMARK SMILES IDX 9 1 10 2 11 3 12 4 13 5 14 6 15 7 16 8 17 9 18 10 8 11 7 12
REMARK SMILES IDX 6 13 5 14 4 15 3 16 2 17 1 18
REMARK H PARENT
REMARK Flexibility Score: inf
ROOT
ATOM      1  C   UNL     1     133.890 139.527 137.699  1.00  0.00     0.000 C 
ENDROOT
BRANCH   1   2
ATOM      2  C   UNL     1     134.293 140.737 138.551  1.00  0.00     0.000 C 
BRANCH   2   3
ATOM      3  C   UNL     1     135.601 140.467 139.308  1.00  0.00     0.000 C 
BRANCH   3   4
ATOM      4  C   UNL     1     135.616 141.080 140.719  1.00  0.00     0.000 C 
BRANCH   4   5
ATOM      5  C   UNL     1     136.463 140.316 141.756  1.00  0.00     0.000 C 
BRANCH   5   6
ATOM      6  C   UNL     1     137.340 141.194 142.668  1.00  0.00     0.006 C 
BRANCH   6   7
ATOM      7  C   UNL     1     137.136 142.706 142.464  1.00  0.00     0.053 C 
BRANCH   7   8
ATOM      8  C   UNL     1     138.325 143.364 141.832  1.00  0.00     0.041 C 
ATOM      9  O   UNL     1     139.301 143.727 142.541  1.00  0.00    -0.550 OA
ATOM     10  O   UNL     1     138.373 143.543 140.455  1.00  0.00    -0.550 OA
ENDBRANCH   7   8
ENDBRANCH   6   7
ENDBRANCH   5   6
ENDBRANCH   4   5
ENDBRANCH   3   4
ENDBRANCH   2   3
ENDBRANCH   1   2
BRANCH   1  11
ATOM     11  C   UNL     1     133.144 139.971 136.431  1.00  0.00     0.000 C 
BRANCH  11  12
ATOM     12  C   UNL     1     132.974 138.832 135.412  1.00  0.00    -0.000 C 
BRANCH  12  13
ATOM     13  C   UNL     1     131.810 137.893 135.766  1.00  0.00    -0.000 C 
BRANCH  13  14
ATOM     14  C   UNL     1     130.465 138.629 135.865  1.00  0.00    -0.000 C 
BRANCH  14  15
ATOM     15  C   UNL     1     129.597 138.131 137.036  1.00  0.00    -0.000 C 
BRANCH  15  16
ATOM     16  C   UNL     1     129.999 138.784 138.376  1.00  0.00    -0.000 C 
BRANCH  16  17
ATOM     17  C   UNL     1     129.760 140.303 138.415  1.00  0.00    -0.003 C 
ATOM     18  C   UNL     1     130.843 141.060 139.182  1.00  0.00     0.004 C 
ENDBRANCH  16  17
ENDBRANCH  15  16
ENDBRANCH  14  15
ENDBRANCH  13  14
ENDBRANCH  12  13
ENDBRANCH  11  12
ENDBRANCH   1  11
TORSDOF 14
ENDMDL
