MODEL 1
REMARK VINA RESULT:    -7.263      0.000      0.000
REMARK INTER + INTRA:          -8.819
REMARK INTER:                  -8.537
REMARK INTRA:                  -0.282
REMARK UNBOUND:                -0.282
REMARK SMILES O=c1c(O)c(-c2ccc(O)cc2)oc2cc(O)cc(O)c12
REMARK SMILES IDX 5 1 3 2 2 3 1 4 21 5 19 6 18 7 16 8 15 9 14 10 13 11 6 12
REMARK SMILES IDX 7 13 8 14 9 15 12 16 11 17 10 18 4 20 20 22 17 24
REMARK H PARENT 10 19 4 21 20 23 17 25
REMARK Flexibility Score: inf
ROOT
ATOM      1  C   UNL     1      31.323   4.468  18.328  1.00  0.00     0.180 A 
ATOM      2  C   UNL     1      30.939   4.457  19.680  1.00  0.00     0.208 A 
ATOM      3  C   UNL     1      30.554   5.663  20.289  1.00  0.00     0.238 A 
ATOM      4  O   UNL     1      30.264   5.655  21.514  1.00  0.00    -0.285 OA
ATOM      5  C   UNL     1      30.543   6.861  19.535  1.00  0.00     0.111 A 
ATOM      6  C   UNL     1      30.133   8.131  20.039  1.00  0.00     0.134 A 
ATOM      7  C   UNL     1      30.287   9.273  19.242  1.00  0.00     0.093 A 
ATOM      8  C   UNL     1      30.775   9.179  17.936  1.00  0.00     0.123 A 
ATOM      9  C   UNL     1      31.122   7.935  17.415  1.00  0.00     0.094 A 
ATOM     10  C   UNL     1      31.014   6.783  18.198  1.00  0.00     0.146 A 
ATOM     11  O   UNL     1      31.365   5.619  17.666  1.00  0.00    -0.452 OA
ENDROOT
BRANCH   1  12
ATOM     12  C   UNL     1      31.718   3.235  17.610  1.00  0.00     0.021 A 
ATOM     13  C   UNL     1      33.080   2.963  17.397  1.00  0.00     0.016 A 
ATOM     14  C   UNL     1      33.472   1.816  16.702  1.00  0.00     0.047 A 
ATOM     15  C   UNL     1      32.512   0.934  16.198  1.00  0.00     0.115 A 
ATOM     16  C   UNL     1      30.755   2.354  17.083  1.00  0.00     0.016 A 
ATOM     17  C   UNL     1      31.151   1.208  16.388  1.00  0.00     0.047 A 
BRANCH  15  18
ATOM     18  O   UNL     1      32.918  -0.205  15.508  1.00  0.00    -0.508 OA
ATOM     19  H   UNL     1      33.084  -0.188  14.508  1.00  0.00     0.293 HD
ENDBRANCH  15  18
ENDBRANCH   1  12
BRANCH   2  20
ATOM     20  O   UNL     1      30.978   3.267  20.411  1.00  0.00    -0.502 OA
ATOM     21  H   UNL     1      30.980   2.356  19.968  1.00  0.00     0.293 HD
ENDBRANCH   2  20
BRANCH   6  22
ATOM     22  O   UNL     1      29.548   8.322  21.294  1.00  0.00    -0.507 OA
ATOM     23  H   UNL     1      29.467   9.213  21.760  1.00  0.00     0.293 HD
ENDBRANCH   6  22
BRANCH   8  24
ATOM     24  O   UNL     1      30.911  10.317  17.144  1.00  0.00    -0.508 OA
ATOM     25  H   UNL     1      30.864  11.248  17.542  1.00  0.00     0.293 HD
ENDBRANCH   8  24
TORSDOF 5
ENDMDL
MODEL 2
REMARK VINA RESULT:    -7.169      4.040      6.749
REMARK INTER + INTRA:          -8.709
REMARK INTER:                  -8.415
REMARK INTRA:                  -0.294
REMARK UNBOUND:                -0.282
REMARK SMILES O=c1c(O)c(-c2ccc(O)cc2)oc2cc(O)cc(O)c12
REMARK SMILES IDX 5 1 3 2 2 3 1 4 21 5 19 6 18 7 16 8 15 9 14 10 13 11 6 12
REMARK SMILES IDX 7 13 8 14 9 15 12 16 11 17 10 18 4 20 20 22 17 24
REMARK H PARENT 10 19 4 21 20 23 17 25
REMARK Flexibility Score: inf
ROOT
ATOM      1  C   UNL     1      28.462   2.341  20.291  1.00  0.00     0.180 A 
ATOM      2  C   UNL     1      29.368   3.298  20.781  1.00  0.00     0.208 A 
ATOM      3  C   UNL     1      30.511   3.604  20.025  1.00  0.00     0.238 A 
ATOM      4  O   UNL     1      31.345   4.421  20.495  1.00  0.00    -0.285 OA
ATOM      5  C   UNL     1      30.725   2.963  18.781  1.00  0.00     0.111 A 
ATOM      6  C   UNL     1      31.827   3.226  17.914  1.00  0.00     0.134 A 
ATOM      7  C   UNL     1      32.010   2.438  16.770  1.00  0.00     0.093 A 
ATOM      8  C   UNL     1      31.091   1.441  16.429  1.00  0.00     0.123 A 
ATOM      9  C   UNL     1      29.981   1.218  17.238  1.00  0.00     0.094 A 
ATOM     10  C   UNL     1      29.792   1.962  18.405  1.00  0.00     0.146 A 
ATOM     11  O   UNL     1      28.725   1.709  19.153  1.00  0.00    -0.452 OA
ENDROOT
BRANCH   1  12
ATOM     12  C   UNL     1      27.223   1.983  21.019  1.00  0.00     0.021 A 
ATOM     13  C   UNL     1      27.201   0.830  21.822  1.00  0.00     0.016 A 
ATOM     14  C   UNL     1      26.035   0.462  22.499  1.00  0.00     0.047 A 
ATOM     15  C   UNL     1      24.873   1.229  22.371  1.00  0.00     0.115 A 
ATOM     16  C   UNL     1      26.045   2.740  20.878  1.00  0.00     0.016 A 
ATOM     17  C   UNL     1      24.881   2.368  21.555  1.00  0.00     0.047 A 
BRANCH  15  18
ATOM     18  O   UNL     1      23.719   0.850  23.052  1.00  0.00    -0.508 OA
ATOM     19  H   UNL     1      23.620   0.999  24.050  1.00  0.00     0.293 HD
ENDBRANCH  15  18
ENDBRANCH   1  12
BRANCH   2  20
ATOM     20  O   UNL     1      29.148   3.902  22.022  1.00  0.00    -0.502 OA
ATOM     21  H   UNL     1      28.769   3.396  22.814  1.00  0.00     0.293 HD
ENDBRANCH   2  20
BRANCH   6  22
ATOM     22  O   UNL     1      32.749   4.257  18.113  1.00  0.00    -0.507 OA
ATOM     23  H   UNL     1      32.555   5.238  17.972  1.00  0.00     0.293 HD
ENDBRANCH   6  22
BRANCH   8  24
ATOM     24  O   UNL     1      31.271   0.673  15.281  1.00  0.00    -0.508 OA
ATOM     25  H   UNL     1      31.951   0.928  14.573  1.00  0.00     0.293 HD
ENDBRANCH   8  24
TORSDOF 5
ENDMDL
MODEL 3
REMARK VINA RESULT:    -7.018      1.827      6.896
REMARK INTER + INTRA:          -8.531
REMARK INTER:                  -8.231
REMARK INTRA:                  -0.300
REMARK UNBOUND:                -0.282
REMARK SMILES O=c1c(O)c(-c2ccc(O)cc2)oc2cc(O)cc(O)c12
REMARK SMILES IDX 5 1 3 2 2 3 1 4 21 5 19 6 18 7 16 8 15 9 14 10 13 11 6 12
REMARK SMILES IDX 7 13 8 14 9 15 12 16 11 17 10 18 4 20 20 22 17 24
REMARK H PARENT 10 19 4 21 20 23 17 25
REMARK Flexibility Score: inf
ROOT
ATOM      1  C   UNL     1      31.366   5.586  18.345  1.00  0.00     0.180 A 
ATOM      2  C   UNL     1      32.574   5.202  17.736  1.00  0.00     0.208 A 
ATOM      3  C   UNL     1      32.693   3.902  17.220  1.00  0.00     0.238 A 
ATOM      4  O   UNL     1      33.795   3.547  16.725  1.00  0.00    -0.285 OA
ATOM      5  C   UNL     1      31.599   3.007  17.304  1.00  0.00     0.111 A 
ATOM      6  C   UNL     1      31.596   1.680  16.779  1.00  0.00     0.134 A 
ATOM      7  C   UNL     1      30.505   0.839  17.035  1.00  0.00     0.093 A 
ATOM      8  C   UNL     1      29.391   1.300  17.741  1.00  0.00     0.123 A 
ATOM      9  C   UNL     1      29.360   2.612  18.205  1.00  0.00     0.094 A 
ATOM     10  C   UNL     1      30.448   3.463  17.998  1.00  0.00     0.146 A 
ATOM     11  O   UNL     1      30.382   4.703  18.467  1.00  0.00    -0.452 OA
ENDROOT
BRANCH   1  12
ATOM     12  C   UNL     1      31.156   6.947  18.891  1.00  0.00     0.021 A 
ATOM     13  C   UNL     1      31.420   7.196  20.248  1.00  0.00     0.016 A 
ATOM     14  C   UNL     1      31.206   8.468  20.787  1.00  0.00     0.047 A 
ATOM     15  C   UNL     1      30.713   9.501  19.985  1.00  0.00     0.115 A 
ATOM     16  C   UNL     1      30.641   7.985  18.092  1.00  0.00     0.016 A 
ATOM     17  C   UNL     1      30.427   9.255  18.636  1.00  0.00     0.047 A 
BRANCH  15  18
ATOM     18  O   UNL     1      30.506  10.762  20.537  1.00  0.00    -0.508 OA
ATOM     19  H   UNL     1      31.240  11.248  21.039  1.00  0.00     0.293 HD
ENDBRANCH  15  18
ENDBRANCH   1  12
BRANCH   2  20
ATOM     20  O   UNL     1      33.649   6.094  17.684  1.00  0.00    -0.502 OA
ATOM     21  H   UNL     1      33.522   7.091  17.555  1.00  0.00     0.293 HD
ENDBRANCH   2  20
BRANCH   6  22
ATOM     22  O   UNL     1      32.616   1.153  15.983  1.00  0.00    -0.507 OA
ATOM     23  H   UNL     1      33.271   1.704  15.448  1.00  0.00     0.293 HD
ENDBRANCH   6  22
BRANCH   8  24
ATOM     24  O   UNL     1      28.303   0.461  17.978  1.00  0.00    -0.508 OA
ATOM     25  H   UNL     1      28.309  -0.212  18.735  1.00  0.00     0.293 HD
ENDBRANCH   8  24
TORSDOF 5
ENDMDL
MODEL 4
REMARK VINA RESULT:    -6.974      4.365      7.091
REMARK INTER + INTRA:          -8.480
REMARK INTER:                  -8.189
REMARK INTRA:                  -0.291
REMARK UNBOUND:                -0.282
REMARK SMILES O=c1c(O)c(-c2ccc(O)cc2)oc2cc(O)cc(O)c12
REMARK SMILES IDX 5 1 3 2 2 3 1 4 21 5 19 6 18 7 16 8 15 9 14 10 13 11 6 12
REMARK SMILES IDX 7 13 8 14 9 15 12 16 11 17 10 18 4 20 20 22 17 24
REMARK H PARENT 10 19 4 21 20 23 17 25
REMARK Flexibility Score: inf
ROOT
ATOM      1  C   UNL     1      29.307   3.187  20.788  1.00  0.00     0.180 A 
ATOM      2  C   UNL     1      29.797   1.873  20.888  1.00  0.00     0.208 A 
ATOM      3  C   UNL     1      28.895   0.828  21.145  1.00  0.00     0.238 A 
ATOM      4  O   UNL     1      29.347  -0.338  21.287  1.00  0.00    -0.285 OA
ATOM      5  C   UNL     1      27.515   1.107  21.284  1.00  0.00     0.111 A 
ATOM      6  C   UNL     1      26.508   0.120  21.506  1.00  0.00     0.134 A 
ATOM      7  C   UNL     1      25.190   0.523  21.758  1.00  0.00     0.093 A 
ATOM      8  C   UNL     1      24.832   1.874  21.730  1.00  0.00     0.123 A 
ATOM      9  C   UNL     1      25.797   2.839  21.455  1.00  0.00     0.094 A 
ATOM     10  C   UNL     1      27.126   2.471  21.236  1.00  0.00     0.146 A 
ATOM     11  O   UNL     1      28.016   3.425  20.988  1.00  0.00    -0.452 OA
ENDROOT
BRANCH   1  12
ATOM     12  C   UNL     1      30.192   4.338  20.494  1.00  0.00     0.021 A 
ATOM     13  C   UNL     1      30.636   5.156  21.547  1.00  0.00     0.016 A 
ATOM     14  C   UNL     1      31.453   6.260  21.289  1.00  0.00     0.047 A 
ATOM     15  C   UNL     1      31.823   6.572  19.977  1.00  0.00     0.115 A 
ATOM     16  C   UNL     1      30.551   4.668  19.174  1.00  0.00     0.016 A 
ATOM     17  C   UNL     1      31.366   5.775  18.920  1.00  0.00     0.047 A 
BRANCH  15  18
ATOM     18  O   UNL     1      32.637   7.675  19.735  1.00  0.00    -0.508 OA
ATOM     19  H   UNL     1      32.990   8.249  20.493  1.00  0.00     0.293 HD
ENDBRANCH  15  18
ENDBRANCH   1  12
BRANCH   2  20
ATOM     20  O   UNL     1      31.167   1.624  20.770  1.00  0.00    -0.502 OA
ATOM     21  H   UNL     1      31.759   1.444  21.573  1.00  0.00     0.293 HD
ENDBRANCH   2  20
BRANCH   6  22
ATOM     22  O   UNL     1      26.741  -1.257  21.462  1.00  0.00    -0.507 OA
ATOM     23  H   UNL     1      27.224  -1.735  20.716  1.00  0.00     0.293 HD
ENDBRANCH   6  22
BRANCH   8  24
ATOM     24  O   UNL     1      23.516   2.265  21.967  1.00  0.00    -0.508 OA
ATOM     25  H   UNL     1      22.907   2.560  21.212  1.00  0.00     0.293 HD
ENDBRANCH   8  24
TORSDOF 5
ENDMDL
MODEL 5
REMARK VINA RESULT:    -6.869      3.318      7.086
REMARK INTER + INTRA:          -8.356
REMARK INTER:                  -8.064
REMARK INTRA:                  -0.292
REMARK UNBOUND:                -0.282
REMARK SMILES O=c1c(O)c(-c2ccc(O)cc2)oc2cc(O)cc(O)c12
REMARK SMILES IDX 5 1 3 2 2 3 1 4 21 5 19 6 18 7 16 8 15 9 14 10 13 11 6 12
REMARK SMILES IDX 7 13 8 14 9 15 12 16 11 17 10 18 4 20 20 22 17 24
REMARK H PARENT 10 19 4 21 20 23 17 25
REMARK Flexibility Score: inf
ROOT
ATOM      1  C   UNL     1      30.024   3.525  19.694  1.00  0.00     0.180 A 
ATOM      2  C   UNL     1      30.911   2.488  19.353  1.00  0.00     0.208 A 
ATOM      3  C   UNL     1      30.395   1.208  19.094  1.00  0.00     0.238 A 
ATOM      4  O   UNL     1      31.199   0.273  18.842  1.00  0.00    -0.285 OA
ATOM      5  C   UNL     1      28.999   0.984  19.163  1.00  0.00     0.111 A 
ATOM      6  C   UNL     1      28.365  -0.263  18.881  1.00  0.00     0.134 A 
ATOM      7  C   UNL     1      26.990  -0.405  19.109  1.00  0.00     0.093 A 
ATOM      8  C   UNL     1      26.217   0.674  19.546  1.00  0.00     0.123 A 
ATOM      9  C   UNL     1      26.818   1.911  19.766  1.00  0.00     0.094 A 
ATOM     10  C   UNL     1      28.193   2.074  19.583  1.00  0.00     0.146 A 
ATOM     11  O   UNL     1      28.727   3.267  19.815  1.00  0.00    -0.452 OA
ENDROOT
BRANCH   1  12
ATOM     12  C   UNL     1      30.489   4.906  19.957  1.00  0.00     0.021 A 
ATOM     13  C   UNL     1      30.847   5.278  21.264  1.00  0.00     0.016 A 
ATOM     14  C   UNL     1      31.266   6.583  21.537  1.00  0.00     0.047 A 
ATOM     15  C   UNL     1      31.320   7.536  20.515  1.00  0.00     0.115 A 
ATOM     16  C   UNL     1      30.526   5.874  18.936  1.00  0.00     0.016 A 
ATOM     17  C   UNL     1      30.945   7.178  19.214  1.00  0.00     0.047 A 
BRANCH  15  18
ATOM     18  O   UNL     1      31.740   8.832  20.803  1.00  0.00    -0.508 OA
ATOM     19  H   UNL     1      31.077   9.587  20.933  1.00  0.00     0.293 HD
ENDBRANCH  15  18
ENDBRANCH   1  12
BRANCH   2  20
ATOM     20  O   UNL     1      32.287   2.727  19.311  1.00  0.00    -0.502 OA
ATOM     21  H   UNL     1      32.684   3.649  19.451  1.00  0.00     0.293 HD
ENDBRANCH   2  20
BRANCH   6  22
ATOM     22  O   UNL     1      29.027  -1.375  18.355  1.00  0.00    -0.507 OA
ATOM     23  H   UNL     1      28.687  -1.937  17.587  1.00  0.00     0.293 HD
ENDBRANCH   6  22
BRANCH   8  24
ATOM     24  O   UNL     1      24.847   0.528  19.755  1.00  0.00    -0.508 OA
ATOM     25  H   UNL     1      24.440   0.617  20.679  1.00  0.00     0.293 HD
ENDBRANCH   8  24
TORSDOF 5
ENDMDL
MODEL 6
REMARK VINA RESULT:    -6.831      5.080      7.232
REMARK INTER + INTRA:          -8.311
REMARK INTER:                  -8.011
REMARK INTRA:                  -0.300
REMARK UNBOUND:                -0.282
REMARK SMILES O=c1c(O)c(-c2ccc(O)cc2)oc2cc(O)cc(O)c12
REMARK SMILES IDX 5 1 3 2 2 3 1 4 21 5 19 6 18 7 16 8 15 9 14 10 13 11 6 12
REMARK SMILES IDX 7 13 8 14 9 15 12 16 11 17 10 18 4 20 20 22 17 24
REMARK H PARENT 10 19 4 21 20 23 17 25
REMARK Flexibility Score: inf
ROOT
ATOM      1  C   UNL     1      29.171   0.336  19.502  1.00  0.00     0.180 A 
ATOM      2  C   UNL     1      29.358   1.045  20.702  1.00  0.00     0.208 A 
ATOM      3  C   UNL     1      28.365   0.978  21.693  1.00  0.00     0.238 A 
ATOM      4  O   UNL     1      28.513   1.657  22.742  1.00  0.00    -0.285 OA
ATOM      5  C   UNL     1      27.208   0.192  21.479  1.00  0.00     0.111 A 
ATOM      6  C   UNL     1      26.158   0.021  22.431  1.00  0.00     0.134 A 
ATOM      7  C   UNL     1      24.998  -0.673  22.063  1.00  0.00     0.093 A 
ATOM      8  C   UNL     1      24.879  -1.257  20.799  1.00  0.00     0.123 A 
ATOM      9  C   UNL     1      25.924  -1.146  19.885  1.00  0.00     0.094 A 
ATOM     10  C   UNL     1      27.077  -0.429  20.209  1.00  0.00     0.146 A 
ATOM     11  O   UNL     1      28.045  -0.339  19.305  1.00  0.00    -0.452 OA
ENDROOT
BRANCH   1  12
ATOM     12  C   UNL     1      30.183   0.338  18.420  1.00  0.00     0.021 A 
ATOM     13  C   UNL     1      30.064   1.256  17.363  1.00  0.00     0.016 A 
ATOM     14  C   UNL     1      30.995   1.258  16.320  1.00  0.00     0.047 A 
ATOM     15  C   UNL     1      32.047   0.336  16.311  1.00  0.00     0.115 A 
ATOM     16  C   UNL     1      31.231  -0.601  18.396  1.00  0.00     0.016 A 
ATOM     17  C   UNL     1      32.160  -0.596  17.351  1.00  0.00     0.047 A 
BRANCH  15  18
ATOM     18  O   UNL     1      32.967   0.351  15.267  1.00  0.00    -0.508 OA
ATOM     19  H   UNL     1      32.841   0.951  14.459  1.00  0.00     0.293 HD
ENDBRANCH  15  18
ENDBRANCH   1  12
BRANCH   2  20
ATOM     20  O   UNL     1      30.498   1.832  20.883  1.00  0.00    -0.502 OA
ATOM     21  H   UNL     1      31.163   1.663  21.629  1.00  0.00     0.293 HD
ENDBRANCH   2  20
BRANCH   6  22
ATOM     22  O   UNL     1      26.215   0.484  23.748  1.00  0.00    -0.507 OA
ATOM     23  H   UNL     1      26.831   1.214  24.075  1.00  0.00     0.293 HD
ENDBRANCH   6  22
BRANCH   8  24
ATOM     24  O   UNL     1      23.729  -1.959  20.446  1.00  0.00    -0.508 OA
ATOM     25  H   UNL     1      22.971  -1.514  19.941  1.00  0.00     0.293 HD
ENDBRANCH   8  24
TORSDOF 5
ENDMDL
MODEL 7
REMARK VINA RESULT:    -6.818      3.136      4.645
REMARK INTER + INTRA:          -8.297
REMARK INTER:                  -7.996
REMARK INTRA:                  -0.300
REMARK UNBOUND:                -0.282
REMARK SMILES O=c1c(O)c(-c2ccc(O)cc2)oc2cc(O)cc(O)c12
REMARK SMILES IDX 5 1 3 2 2 3 1 4 21 5 19 6 18 7 16 8 15 9 14 10 13 11 6 12
REMARK SMILES IDX 7 13 8 14 9 15 12 16 11 17 10 18 4 20 20 22 17 24
REMARK H PARENT 10 19 4 21 20 23 17 25
REMARK Flexibility Score: inf
ROOT
ATOM      1  C   UNL     1      29.596   3.536  19.308  1.00  0.00     0.180 A 
ATOM      2  C   UNL     1      30.356   3.501  18.126  1.00  0.00     0.208 A 
ATOM      3  C   UNL     1      31.295   4.517  17.890  1.00  0.00     0.238 A 
ATOM      4  O   UNL     1      31.933   4.510  16.805  1.00  0.00    -0.285 OA
ATOM      5  C   UNL     1      31.474   5.547  18.845  1.00  0.00     0.111 A 
ATOM      6  C   UNL     1      32.426   6.604  18.726  1.00  0.00     0.134 A 
ATOM      7  C   UNL     1      32.426   7.641  19.668  1.00  0.00     0.093 A 
ATOM      8  C   UNL     1      31.552   7.624  20.759  1.00  0.00     0.123 A 
ATOM      9  C   UNL     1      30.661   6.565  20.914  1.00  0.00     0.094 A 
ATOM     10  C   UNL     1      30.612   5.535  19.972  1.00  0.00     0.146 A 
ATOM     11  O   UNL     1      29.741   4.551  20.153  1.00  0.00    -0.452 OA
ENDROOT
BRANCH   1  12
ATOM     12  C   UNL     1      28.604   2.488  19.640  1.00  0.00     0.021 A 
ATOM     13  C   UNL     1      27.257   2.672  19.284  1.00  0.00     0.016 A 
ATOM     14  C   UNL     1      26.301   1.705  19.608  1.00  0.00     0.047 A 
ATOM     15  C   UNL     1      26.674   0.550  20.303  1.00  0.00     0.115 A 
ATOM     16  C   UNL     1      28.970   1.333  20.357  1.00  0.00     0.016 A 
ATOM     17  C   UNL     1      28.011   0.369  20.680  1.00  0.00     0.047 A 
BRANCH  15  18
ATOM     18  O   UNL     1      25.710  -0.405  20.618  1.00  0.00    -0.508 OA
ATOM     19  H   UNL     1      24.723  -0.227  20.477  1.00  0.00     0.293 HD
ENDBRANCH  15  18
ENDBRANCH   1  12
BRANCH   2  20
ATOM     20  O   UNL     1      30.147   2.487  17.187  1.00  0.00    -0.502 OA
ATOM     21  H   UNL     1      30.743   2.364  16.377  1.00  0.00     0.293 HD
ENDBRANCH   2  20
BRANCH   6  22
ATOM     22  O   UNL     1      33.402   6.669  17.728  1.00  0.00    -0.507 OA
ATOM     23  H   UNL     1      34.126   7.370  17.677  1.00  0.00     0.293 HD
ENDBRANCH   6  22
BRANCH   8  24
ATOM     24  O   UNL     1      31.569   8.652  21.699  1.00  0.00    -0.508 OA
ATOM     25  H   UNL     1      32.430   9.120  21.956  1.00  0.00     0.293 HD
ENDBRANCH   8  24
TORSDOF 5
ENDMDL
MODEL 8
REMARK VINA RESULT:    -6.724      4.392      6.441
REMARK INTER + INTRA:          -8.185
REMARK INTER:                  -7.890
REMARK INTRA:                  -0.295
REMARK UNBOUND:                -0.282
REMARK SMILES O=c1c(O)c(-c2ccc(O)cc2)oc2cc(O)cc(O)c12
REMARK SMILES IDX 5 1 3 2 2 3 1 4 21 5 19 6 18 7 16 8 15 9 14 10 13 11 6 12
REMARK SMILES IDX 7 13 8 14 9 15 12 16 11 17 10 18 4 20 20 22 17 24
REMARK H PARENT 10 19 4 21 20 23 17 25
REMARK Flexibility Score: inf
ROOT
ATOM      1  C   UNL     1      28.099   2.257  20.272  1.00  0.00     0.180 A 
ATOM      2  C   UNL     1      28.367   1.648  19.033  1.00  0.00     0.208 A 
ATOM      3  C   UNL     1      29.379   2.180  18.218  1.00  0.00     0.238 A 
ATOM      4  O   UNL     1      29.577   1.663  17.087  1.00  0.00    -0.285 OA
ATOM      5  C   UNL     1      30.122   3.302  18.658  1.00  0.00     0.111 A 
ATOM      6  C   UNL     1      31.196   3.897  17.931  1.00  0.00     0.134 A 
ATOM      7  C   UNL     1      31.773   5.084  18.400  1.00  0.00     0.093 A 
ATOM      8  C   UNL     1      31.358   5.660  19.604  1.00  0.00     0.123 A 
ATOM      9  C   UNL     1      30.351   5.052  20.350  1.00  0.00     0.094 A 
ATOM     10  C   UNL     1      29.731   3.889  19.890  1.00  0.00     0.146 A 
ATOM     11  O   UNL     1      28.768   3.348  20.627  1.00  0.00    -0.452 OA
ENDROOT
BRANCH   1  12
ATOM     12  C   UNL     1      27.065   1.741  21.197  1.00  0.00     0.021 A 
ATOM     13  C   UNL     1      25.754   2.241  21.119  1.00  0.00     0.016 A 
ATOM     14  C   UNL     1      24.769   1.784  21.999  1.00  0.00     0.047 A 
ATOM     15  C   UNL     1      25.081   0.833  22.976  1.00  0.00     0.115 A 
ATOM     16  C   UNL     1      27.379   0.799  22.195  1.00  0.00     0.016 A 
ATOM     17  C   UNL     1      26.390   0.345  23.074  1.00  0.00     0.047 A 
BRANCH  15  18
ATOM     18  O   UNL     1      24.089   0.387  23.844  1.00  0.00    -0.508 OA
ATOM     19  H   UNL     1      23.264   0.944  24.037  1.00  0.00     0.293 HD
ENDBRANCH  15  18
ENDBRANCH   1  12
BRANCH   2  20
ATOM     20  O   UNL     1      27.607   0.555  18.610  1.00  0.00    -0.502 OA
ATOM     21  H   UNL     1      26.594   0.547  18.652  1.00  0.00     0.293 HD
ENDBRANCH   2  20
BRANCH   6  22
ATOM     22  O   UNL     1      31.747   3.354  16.767  1.00  0.00    -0.507 OA
ATOM     23  H   UNL     1      31.504   3.638  15.829  1.00  0.00     0.293 HD
ENDBRANCH   6  22
BRANCH   8  24
ATOM     24  O   UNL     1      31.948   6.832  20.072  1.00  0.00    -0.508 OA
ATOM     25  H   UNL     1      32.190   7.590  19.445  1.00  0.00     0.293 HD
ENDBRANCH   8  24
TORSDOF 5
ENDMDL
MODEL 9
REMARK VINA RESULT:    -6.665      5.568      8.279
REMARK INTER + INTRA:          -8.117
REMARK INTER:                  -7.837
REMARK INTRA:                  -0.280
REMARK UNBOUND:                -0.282
REMARK SMILES O=c1c(O)c(-c2ccc(O)cc2)oc2cc(O)cc(O)c12
REMARK SMILES IDX 5 1 3 2 2 3 1 4 21 5 19 6 18 7 16 8 15 9 14 10 13 11 6 12
REMARK SMILES IDX 7 13 8 14 9 15 12 16 11 17 10 18 4 20 20 22 17 24
REMARK H PARENT 10 19 4 21 20 23 17 25
REMARK Flexibility Score: inf
ROOT
ATOM      1  C   UNL     1      28.391   1.839  21.040  1.00  0.00     0.180 A 
ATOM      2  C   UNL     1      27.467   1.558  20.018  1.00  0.00     0.208 A 
ATOM      3  C   UNL     1      26.413   0.668  20.279  1.00  0.00     0.238 A 
ATOM      4  O   UNL     1      25.621   0.378  19.344  1.00  0.00    -0.285 OA
ATOM      5  C   UNL     1      26.286   0.084  21.562  1.00  0.00     0.111 A 
ATOM      6  C   UNL     1      25.234  -0.800  21.949  1.00  0.00     0.134 A 
ATOM      7  C   UNL     1      25.280  -1.422  23.203  1.00  0.00     0.093 A 
ATOM      8  C   UNL     1      26.307  -1.140  24.109  1.00  0.00     0.123 A 
ATOM      9  C   UNL     1      27.305  -0.233  23.763  1.00  0.00     0.094 A 
ATOM     10  C   UNL     1      27.306   0.375  22.505  1.00  0.00     0.146 A 
ATOM     11  O   UNL     1      28.282   1.225  22.212  1.00  0.00    -0.452 OA
ENDROOT
BRANCH   1  12
ATOM     12  C   UNL     1      29.514   2.785  20.848  1.00  0.00     0.021 A 
ATOM     13  C   UNL     1      30.722   2.323  20.298  1.00  0.00     0.016 A 
ATOM     14  C   UNL     1      31.802   3.195  20.131  1.00  0.00     0.047 A 
ATOM     15  C   UNL     1      31.696   4.533  20.524  1.00  0.00     0.115 A 
ATOM     16  C   UNL     1      29.420   4.128  21.260  1.00  0.00     0.016 A 
ATOM     17  C   UNL     1      30.503   4.996  21.092  1.00  0.00     0.047 A 
BRANCH  15  18
ATOM     18  O   UNL     1      32.780   5.389  20.350  1.00  0.00    -0.508 OA
ATOM     19  H   UNL     1      33.734   5.045  20.362  1.00  0.00     0.293 HD
ENDBRANCH  15  18
ENDBRANCH   1  12
BRANCH   2  20
ATOM     20  O   UNL     1      27.625   2.129  18.752  1.00  0.00    -0.502 OA
ATOM     21  H   UNL     1      28.069   3.029  18.613  1.00  0.00     0.293 HD
ENDBRANCH   2  20
BRANCH   6  22
ATOM     22  O   UNL     1      24.116  -1.078  21.157  1.00  0.00    -0.507 OA
ATOM     23  H   UNL     1      23.626  -1.960  21.144  1.00  0.00     0.293 HD
ENDBRANCH   6  22
BRANCH   8  24
ATOM     24  O   UNL     1      26.337  -1.751  25.361  1.00  0.00    -0.508 OA
ATOM     25  H   UNL     1      25.856  -1.350  26.158  1.00  0.00     0.293 HD
ENDBRANCH   8  24
TORSDOF 5
ENDMDL
