MODEL 1
REMARK VINA RESULT:    -6.213      0.000      0.000
REMARK INTER + INTRA:         -10.526
REMARK INTER:                  -8.937
REMARK INTRA:                  -1.589
REMARK UNBOUND:                -1.589
REMARK SMILES O=c1c(O[C@H]2O[C@H](CO)[C@@H](O)[C@@H](O)[C@@H]2O)c(-c2ccc(O)cc2)oc2cc(O)cc(O)c12
REMARK SMILES IDX 4 1 3 2 16 3 24 4 2 5 25 6 1 7 32 8 26 9 30 10 27 11 29 12
REMARK SMILES IDX 17 13 18 14 19 15 20 16 23 17 22 18 21 19 31 21 28 23 5 25
REMARK SMILES IDX 14 26 6 27 12 28 7 29 10 30 15 31 13 33 8 35 9 36 11 38
REMARK H PARENT 21 20 31 22 28 24 15 32 13 34 9 37 11 39
REMARK Flexibility Score: inf
ROOT
ATOM      1  O   UNL     1      34.062   5.094 -21.598  1.00  0.00    -0.454 OA
ENDROOT
BRANCH   1   2
ATOM      2  C   UNL     1      34.872   3.958 -21.813  1.00  0.00     0.214 A 
ATOM      3  C   UNL     1      34.361   2.698 -21.440  1.00  0.00     0.180 A 
ATOM      4  O   UNL     1      35.109   1.606 -21.559  1.00  0.00    -0.452 OA
ATOM      5  C   UNL     1      36.180   4.012 -22.353  1.00  0.00     0.239 A 
ATOM      6  C   UNL     1      36.340   1.616 -22.050  1.00  0.00     0.146 A 
ATOM      7  O   UNL     1      36.677   5.110 -22.715  1.00  0.00    -0.285 OA
ATOM      8  C   UNL     1      36.933   2.824 -22.480  1.00  0.00     0.111 A 
ATOM      9  C   UNL     1      37.044   0.411 -22.140  1.00  0.00     0.094 A 
ATOM     10  C   UNL     1      38.249   2.793 -23.007  1.00  0.00     0.134 A 
ATOM     11  C   UNL     1      38.339   0.386 -22.659  1.00  0.00     0.123 A 
ATOM     12  C   UNL     1      38.937   1.574 -23.091  1.00  0.00     0.093 A 
BRANCH   3  13
ATOM     13  C   UNL     1      32.999   2.546 -20.891  1.00  0.00     0.021 A 
ATOM     14  C   UNL     1      32.768   2.782 -19.526  1.00  0.00     0.016 A 
ATOM     15  C   UNL     1      31.487   2.625 -18.989  1.00  0.00     0.047 A 
ATOM     16  C   UNL     1      30.427   2.213 -19.805  1.00  0.00     0.115 A 
ATOM     17  C   UNL     1      31.937   2.109 -21.701  1.00  0.00     0.016 A 
ATOM     18  C   UNL     1      30.657   1.953 -21.162  1.00  0.00     0.047 A 
BRANCH  16  19
ATOM     19  O   UNL     1      29.156   2.063 -19.257  1.00  0.00    -0.508 OA
ATOM     20  H   UNL     1      28.336   1.957 -19.843  1.00  0.00     0.293 HD
ENDBRANCH  16  19
ENDBRANCH   3  13
BRANCH  10  21
ATOM     21  O   UNL     1      38.875   3.961 -23.446  1.00  0.00    -0.507 OA
ATOM     22  H   UNL     1      39.183   4.073 -24.405  1.00  0.00     0.293 HD
ENDBRANCH  10  21
BRANCH  11  23
ATOM     23  O   UNL     1      39.022  -0.825 -22.741  1.00  0.00    -0.508 OA
ATOM     24  H   UNL     1      39.264  -1.354 -21.912  1.00  0.00     0.293 HD
ENDBRANCH  11  23
ENDBRANCH   1   2
BRANCH   1  25
ATOM     25  C   UNL     1      33.139   5.687 -22.519  1.00  0.00     0.339 C 
ATOM     26  C   UNL     1      33.472   7.180 -22.734  1.00  0.00     0.214 C 
ATOM     27  O   UNL     1      31.796   5.511 -22.094  1.00  0.00    -0.332 OA
ATOM     28  C   UNL     1      33.101   8.033 -21.500  1.00  0.00     0.180 C 
ATOM     29  C   UNL     1      31.555   6.141 -20.846  1.00  0.00     0.179 C 
ATOM     30  C   UNL     1      31.697   7.675 -20.981  1.00  0.00     0.177 C 
BRANCH  26  31
ATOM     31  O   UNL     1      32.840   7.676 -23.890  1.00  0.00    -0.384 OA
ATOM     32  H   UNL     1      33.028   8.648 -23.952  1.00  0.00     0.211 HD
ENDBRANCH  26  31
BRANCH  28  33
ATOM     33  O   UNL     1      34.044   7.834 -20.478  1.00  0.00    -0.387 OA
ATOM     34  H   UNL     1      33.826   6.965 -20.048  1.00  0.00     0.211 HD
ENDBRANCH  28  33
BRANCH  29  35
ATOM     35  C   UNL     1      30.144   5.756 -20.379  1.00  0.00     0.191 C 
BRANCH  35  36
ATOM     36  O   UNL     1      29.188   6.604 -20.956  1.00  0.00    -0.394 OA
ATOM     37  H   UNL     1      29.505   7.534 -20.806  1.00  0.00     0.210 HD
ENDBRANCH  35  36
ENDBRANCH  29  35
BRANCH  30  38
ATOM     38  O   UNL     1      31.495   8.299 -19.736  1.00  0.00    -0.387 OA
ATOM     39  H   UNL     1      31.905   9.201 -19.790  1.00  0.00     0.211 HD
ENDBRANCH  30  38
ENDBRANCH   1  25
TORSDOF 11
ENDMDL
MODEL 2
REMARK VINA RESULT:    -5.939      1.923      2.234
REMARK INTER + INTRA:         -10.132
REMARK INTER:                  -8.754
REMARK INTRA:                  -1.378
REMARK UNBOUND:                -1.589
REMARK SMILES O=c1c(O[C@H]2O[C@H](CO)[C@@H](O)[C@@H](O)[C@@H]2O)c(-c2ccc(O)cc2)oc2cc(O)cc(O)c12
REMARK SMILES IDX 4 1 3 2 16 3 24 4 2 5 25 6 1 7 32 8 26 9 30 10 27 11 29 12
REMARK SMILES IDX 17 13 18 14 19 15 20 16 23 17 22 18 21 19 31 21 28 23 5 25
REMARK SMILES IDX 14 26 6 27 12 28 7 29 10 30 15 31 13 33 8 35 9 36 11 38
REMARK H PARENT 21 20 31 22 28 24 15 32 13 34 9 37 11 39
REMARK Flexibility Score: inf
ROOT
ATOM      1  O   UNL     1      34.479   5.804 -21.175  1.00  0.00    -0.454 OA
ENDROOT
BRANCH   1   2
ATOM      2  C   UNL     1      35.716   5.150 -21.356  1.00  0.00     0.214 A 
ATOM      3  C   UNL     1      35.914   3.914 -20.708  1.00  0.00     0.180 A 
ATOM      4  O   UNL     1      37.085   3.290 -20.791  1.00  0.00    -0.452 OA
ATOM      5  C   UNL     1      36.782   5.676 -22.126  1.00  0.00     0.239 A 
ATOM      6  C   UNL     1      38.110   3.754 -21.492  1.00  0.00     0.146 A 
ATOM      7  O   UNL     1      36.651   6.769 -22.736  1.00  0.00    -0.285 OA
ATOM      8  C   UNL     1      38.002   4.970 -22.203  1.00  0.00     0.111 A 
ATOM      9  C   UNL     1      39.299   3.019 -21.522  1.00  0.00     0.094 A 
ATOM     10  C   UNL     1      39.117   5.430 -22.949  1.00  0.00     0.134 A 
ATOM     11  C   UNL     1      40.393   3.476 -22.257  1.00  0.00     0.123 A 
ATOM     12  C   UNL     1      40.301   4.677 -22.968  1.00  0.00     0.093 A 
BRANCH   3  13
ATOM     13  C   UNL     1      34.850   3.280 -19.905  1.00  0.00     0.021 A 
ATOM     14  C   UNL     1      34.965   3.239 -18.505  1.00  0.00     0.016 A 
ATOM     15  C   UNL     1      33.974   2.626 -17.733  1.00  0.00     0.047 A 
ATOM     16  C   UNL     1      32.866   2.034 -18.349  1.00  0.00     0.115 A 
ATOM     17  C   UNL     1      33.749   2.663 -20.521  1.00  0.00     0.016 A 
ATOM     18  C   UNL     1      32.758   2.052 -19.747  1.00  0.00     0.047 A 
BRANCH  16  19
ATOM     19  O   UNL     1      31.885   1.430 -17.568  1.00  0.00    -0.508 OA
ATOM     20  H   UNL     1      31.945   1.419 -16.557  1.00  0.00     0.293 HD
ENDBRANCH  16  19
ENDBRANCH   3  13
BRANCH  10  21
ATOM     21  O   UNL     1      39.059   6.624 -23.668  1.00  0.00    -0.507 OA
ATOM     22  H   UNL     1      38.202   6.942 -24.107  1.00  0.00     0.293 HD
ENDBRANCH  10  21
BRANCH  11  23
ATOM     23  O   UNL     1      41.568   2.728 -22.275  1.00  0.00    -0.508 OA
ATOM     24  H   UNL     1      42.477   3.171 -22.343  1.00  0.00     0.293 HD
ENDBRANCH  11  23
ENDBRANCH   1   2
BRANCH   1  25
ATOM     25  C   UNL     1      33.472   6.043 -22.165  1.00  0.00     0.339 C 
ATOM     26  C   UNL     1      33.314   7.558 -22.423  1.00  0.00     0.214 C 
ATOM     27  O   UNL     1      32.234   5.449 -21.802  1.00  0.00    -0.332 OA
ATOM     28  C   UNL     1      32.612   8.270 -21.245  1.00  0.00     0.180 C 
ATOM     29  C   UNL     1      31.727   5.993 -20.595  1.00  0.00     0.179 C 
ATOM     30  C   UNL     1      31.371   7.485 -20.784  1.00  0.00     0.177 C 
BRANCH  26  31
ATOM     31  O   UNL     1      32.628   7.796 -23.629  1.00  0.00    -0.384 OA
ATOM     32  H   UNL     1      32.403   8.761 -23.672  1.00  0.00     0.211 HD
ENDBRANCH  26  31
BRANCH  28  33
ATOM     33  O   UNL     1      33.504   8.412 -20.169  1.00  0.00    -0.387 OA
ATOM     34  H   UNL     1      34.422   8.364 -20.546  1.00  0.00     0.211 HD
ENDBRANCH  28  33
BRANCH  29  35
ATOM     35  C   UNL     1      30.490   5.178 -20.185  1.00  0.00     0.191 C 
BRANCH  35  36
ATOM     36  O   UNL     1      29.317   5.884 -20.486  1.00  0.00    -0.394 OA
ATOM     37  H   UNL     1      29.516   6.845 -20.333  1.00  0.00     0.210 HD
ENDBRANCH  35  36
ENDBRANCH  29  35
BRANCH  30  38
ATOM     38  O   UNL     1      30.901   8.036 -19.578  1.00  0.00    -0.387 OA
ATOM     39  H   UNL     1      31.117   7.391 -18.856  1.00  0.00     0.211 HD
ENDBRANCH  30  38
ENDBRANCH   1  25
TORSDOF 11
ENDMDL
MODEL 3
REMARK VINA RESULT:    -5.917      2.731      7.319
REMARK INTER + INTRA:         -10.101
REMARK INTER:                  -9.055
REMARK INTRA:                  -1.046
REMARK UNBOUND:                -1.589
REMARK SMILES O=c1c(O[C@H]2O[C@H](CO)[C@@H](O)[C@@H](O)[C@@H]2O)c(-c2ccc(O)cc2)oc2cc(O)cc(O)c12
REMARK SMILES IDX 4 1 3 2 16 3 24 4 2 5 25 6 1 7 32 8 26 9 30 10 27 11 29 12
REMARK SMILES IDX 17 13 18 14 19 15 20 16 23 17 22 18 21 19 31 21 28 23 5 25
REMARK SMILES IDX 14 26 6 27 12 28 7 29 10 30 15 31 13 33 8 35 9 36 11 38
REMARK H PARENT 21 20 31 22 28 24 15 32 13 34 9 37 11 39
REMARK Flexibility Score: inf
ROOT
ATOM      1  O   UNL     1      36.398   6.110 -20.384  1.00  0.00    -0.454 OA
ENDROOT
BRANCH   1   2
ATOM      2  C   UNL     1      35.086   6.026 -20.899  1.00  0.00     0.214 A 
ATOM      3  C   UNL     1      34.823   5.059 -21.890  1.00  0.00     0.180 A 
ATOM      4  O   UNL     1      33.623   4.984 -22.456  1.00  0.00    -0.452 OA
ATOM      5  C   UNL     1      34.026   6.876 -20.501  1.00  0.00     0.239 A 
ATOM      6  C   UNL     1      32.608   5.768 -22.119  1.00  0.00     0.146 A 
ATOM      7  O   UNL     1      34.205   7.746 -19.609  1.00  0.00    -0.285 OA
ATOM      8  C   UNL     1      32.761   6.750 -21.115  1.00  0.00     0.111 A 
ATOM      9  C   UNL     1      31.381   5.606 -22.770  1.00  0.00     0.094 A 
ATOM     10  C   UNL     1      31.650   7.563 -20.776  1.00  0.00     0.134 A 
ATOM     11  C   UNL     1      30.291   6.409 -22.433  1.00  0.00     0.123 A 
ATOM     12  C   UNL     1      30.427   7.383 -21.438  1.00  0.00     0.093 A 
BRANCH   3  13
ATOM     13  C   UNL     1      35.862   4.115 -22.348  1.00  0.00     0.021 A 
ATOM     14  C   UNL     1      37.106   4.605 -22.778  1.00  0.00     0.016 A 
ATOM     15  C   UNL     1      38.094   3.725 -23.231  1.00  0.00     0.047 A 
ATOM     16  C   UNL     1      37.843   2.349 -23.275  1.00  0.00     0.115 A 
ATOM     17  C   UNL     1      35.607   2.736 -22.418  1.00  0.00     0.016 A 
ATOM     18  C   UNL     1      36.595   1.857 -22.871  1.00  0.00     0.047 A 
BRANCH  16  19
ATOM     19  O   UNL     1      38.836   1.483 -23.726  1.00  0.00    -0.508 OA
ATOM     20  H   UNL     1      39.669   1.301 -23.178  1.00  0.00     0.293 HD
ENDBRANCH  16  19
ENDBRANCH   3  13
BRANCH  10  21
ATOM     21  O   UNL     1      31.752   8.545 -19.790  1.00  0.00    -0.507 OA
ATOM     22  H   UNL     1      32.329   9.369 -19.915  1.00  0.00     0.293 HD
ENDBRANCH  10  21
BRANCH  11  23
ATOM     23  O   UNL     1      29.077   6.231 -23.092  1.00  0.00    -0.508 OA
ATOM     24  H   UNL     1      28.508   7.019 -23.375  1.00  0.00     0.293 HD
ENDBRANCH  11  23
ENDBRANCH   1   2
BRANCH   1  25
ATOM     25  C   UNL     1      36.814   5.880 -19.033  1.00  0.00     0.339 C 
ATOM     26  C   UNL     1      38.156   6.592 -18.752  1.00  0.00     0.214 C 
ATOM     27  O   UNL     1      36.893   4.492 -18.742  1.00  0.00    -0.332 OA
ATOM     28  C   UNL     1      39.339   5.883 -19.450  1.00  0.00     0.180 C 
ATOM     29  C   UNL     1      37.852   3.840 -19.559  1.00  0.00     0.179 C 
ATOM     30  C   UNL     1      39.273   4.360 -19.241  1.00  0.00     0.177 C 
BRANCH  26  31
ATOM     31  O   UNL     1      38.389   6.700 -17.368  1.00  0.00    -0.384 OA
ATOM     32  H   UNL     1      39.362   6.592 -17.208  1.00  0.00     0.211 HD
ENDBRANCH  26  31
BRANCH  28  33
ATOM     33  O   UNL     1      39.324   6.169 -20.826  1.00  0.00    -0.387 OA
ATOM     34  H   UNL     1      39.681   7.089 -20.934  1.00  0.00     0.211 HD
ENDBRANCH  28  33
BRANCH  29  35
ATOM     35  C   UNL     1      37.748   2.329 -19.307  1.00  0.00     0.191 C 
BRANCH  35  36
ATOM     36  O   UNL     1      38.655   1.934 -18.314  1.00  0.00    -0.394 OA
ATOM     37  H   UNL     1      38.348   2.350 -17.466  1.00  0.00     0.210 HD
ENDBRANCH  35  36
ENDBRANCH  29  35
BRANCH  30  38
ATOM     38  O   UNL     1      40.222   3.741 -20.075  1.00  0.00    -0.387 OA
ATOM     39  H   UNL     1      39.921   3.874 -21.012  1.00  0.00     0.211 HD
ENDBRANCH  30  38
ENDBRANCH   1  25
TORSDOF 11
ENDMDL
MODEL 4
REMARK VINA RESULT:    -5.908      1.815      2.931
REMARK INTER + INTRA:         -10.087
REMARK INTER:                  -8.821
REMARK INTRA:                  -1.267
REMARK UNBOUND:                -1.589
REMARK SMILES O=c1c(O[C@H]2O[C@H](CO)[C@@H](O)[C@@H](O)[C@@H]2O)c(-c2ccc(O)cc2)oc2cc(O)cc(O)c12
REMARK SMILES IDX 4 1 3 2 16 3 24 4 2 5 25 6 1 7 32 8 26 9 30 10 27 11 29 12
REMARK SMILES IDX 17 13 18 14 19 15 20 16 23 17 22 18 21 19 31 21 28 23 5 25
REMARK SMILES IDX 14 26 6 27 12 28 7 29 10 30 15 31 13 33 8 35 9 36 11 38
REMARK H PARENT 21 20 31 22 28 24 15 32 13 34 9 37 11 39
REMARK Flexibility Score: inf
ROOT
ATOM      1  O   UNL     1      33.049   5.556 -21.284  1.00  0.00    -0.454 OA
ENDROOT
BRANCH   1   2
ATOM      2  C   UNL     1      34.206   4.869 -21.711  1.00  0.00     0.214 A 
ATOM      3  C   UNL     1      34.066   3.529 -22.127  1.00  0.00     0.180 A 
ATOM      4  O   UNL     1      35.134   2.817 -22.474  1.00  0.00    -0.452 OA
ATOM      5  C   UNL     1      35.503   5.435 -21.717  1.00  0.00     0.239 A 
ATOM      6  C   UNL     1      36.365   3.307 -22.484  1.00  0.00     0.146 A 
ATOM      7  O   UNL     1      35.680   6.632 -21.369  1.00  0.00    -0.285 OA
ATOM      8  C   UNL     1      36.607   4.649 -22.112  1.00  0.00     0.111 A 
ATOM      9  C   UNL     1      37.422   2.478 -22.871  1.00  0.00     0.094 A 
ATOM     10  C   UNL     1      37.937   5.140 -22.144  1.00  0.00     0.134 A 
ATOM     11  C   UNL     1      38.729   2.966 -22.900  1.00  0.00     0.123 A 
ATOM     12  C   UNL     1      38.984   4.293 -22.538  1.00  0.00     0.093 A 
BRANCH   3  13
ATOM     13  C   UNL     1      32.748   2.865 -22.175  1.00  0.00     0.021 A 
ATOM     14  C   UNL     1      32.026   2.839 -23.378  1.00  0.00     0.016 A 
ATOM     15  C   UNL     1      30.769   2.230 -23.435  1.00  0.00     0.047 A 
ATOM     16  C   UNL     1      30.213   1.655 -22.287  1.00  0.00     0.115 A 
ATOM     17  C   UNL     1      32.176   2.308 -21.019  1.00  0.00     0.016 A 
ATOM     18  C   UNL     1      30.919   1.699 -21.078  1.00  0.00     0.047 A 
BRANCH  16  19
ATOM     19  O   UNL     1      28.962   1.048 -22.358  1.00  0.00    -0.508 OA
ATOM     20  H   UNL     1      28.668   0.359 -21.677  1.00  0.00     0.293 HD
ENDBRANCH  16  19
ENDBRANCH   3  13
BRANCH  10  21
ATOM     21  O   UNL     1      38.226   6.457 -21.787  1.00  0.00    -0.507 OA
ATOM     22  H   UNL     1      37.537   7.196 -21.870  1.00  0.00     0.293 HD
ENDBRANCH  10  21
BRANCH  11  23
ATOM     23  O   UNL     1      39.767   2.124 -23.290  1.00  0.00    -0.508 OA
ATOM     24  H   UNL     1      40.584   1.986 -22.708  1.00  0.00     0.293 HD
ENDBRANCH  11  23
ENDBRANCH   1   2
BRANCH   1  25
ATOM     25  C   UNL     1      32.639   6.877 -21.656  1.00  0.00     0.339 C 
ATOM     26  C   UNL     1      31.332   7.263 -20.928  1.00  0.00     0.214 C 
ATOM     27  O   UNL     1      32.504   7.003 -23.063  1.00  0.00    -0.332 OA
ATOM     28  C   UNL     1      30.113   6.506 -21.499  1.00  0.00     0.180 C 
ATOM     29  C   UNL     1      31.509   6.131 -23.574  1.00  0.00     0.179 C 
ATOM     30  C   UNL     1      30.115   6.532 -23.038  1.00  0.00     0.177 C 
BRANCH  26  31
ATOM     31  O   UNL     1      31.121   8.654 -20.975  1.00  0.00    -0.384 OA
ATOM     32  H   UNL     1      31.937   9.102 -20.631  1.00  0.00     0.211 HD
ENDBRANCH  26  31
BRANCH  28  33
ATOM     33  O   UNL     1      30.123   5.174 -21.053  1.00  0.00    -0.387 OA
ATOM     34  H   UNL     1      29.527   4.660 -21.659  1.00  0.00     0.211 HD
ENDBRANCH  28  33
BRANCH  29  35
ATOM     35  C   UNL     1      31.552   6.200 -25.108  1.00  0.00     0.191 C 
BRANCH  35  36
ATOM     36  O   UNL     1      30.711   5.227 -25.666  1.00  0.00    -0.394 OA
ATOM     37  H   UNL     1      30.107   4.922 -24.939  1.00  0.00     0.210 HD
ENDBRANCH  35  36
ENDBRANCH  29  35
BRANCH  30  38
ATOM     38  O   UNL     1      29.131   5.647 -23.514  1.00  0.00    -0.387 OA
ATOM     39  H   UNL     1      29.449   5.295 -24.386  1.00  0.00     0.211 HD
ENDBRANCH  30  38
ENDBRANCH   1  25
TORSDOF 11
ENDMDL
MODEL 5
REMARK VINA RESULT:    -5.893      2.089      6.035
REMARK INTER + INTRA:         -10.066
REMARK INTER:                  -8.672
REMARK INTRA:                  -1.394
REMARK UNBOUND:                -1.589
REMARK SMILES O=c1c(O[C@H]2O[C@H](CO)[C@@H](O)[C@@H](O)[C@@H]2O)c(-c2ccc(O)cc2)oc2cc(O)cc(O)c12
REMARK SMILES IDX 4 1 3 2 16 3 24 4 2 5 25 6 1 7 32 8 26 9 30 10 27 11 29 12
REMARK SMILES IDX 17 13 18 14 19 15 20 16 23 17 22 18 21 19 31 21 28 23 5 25
REMARK SMILES IDX 14 26 6 27 12 28 7 29 10 30 15 31 13 33 8 35 9 36 11 38
REMARK H PARENT 21 20 31 22 28 24 15 32 13 34 9 37 11 39
REMARK Flexibility Score: inf
ROOT
ATOM      1  O   UNL     1      32.599   4.138 -21.170  1.00  0.00    -0.454 OA
ENDROOT
BRANCH   1   2
ATOM      2  C   UNL     1      31.908   3.126 -20.471  1.00  0.00     0.214 A 
ATOM      3  C   UNL     1      32.240   1.783 -20.747  1.00  0.00     0.180 A 
ATOM      4  O   UNL     1      31.573   0.792 -20.166  1.00  0.00    -0.452 OA
ATOM      5  C   UNL     1      30.881   3.376 -19.530  1.00  0.00     0.239 A 
ATOM      6  C   UNL     1      30.598   0.984 -19.289  1.00  0.00     0.146 A 
ATOM      7  O   UNL     1      30.556   4.556 -19.237  1.00  0.00    -0.285 OA
ATOM      8  C   UNL     1      30.211   2.292 -18.922  1.00  0.00     0.111 A 
ATOM      9  C   UNL     1      29.961  -0.127 -18.728  1.00  0.00     0.094 A 
ATOM     10  C   UNL     1      29.170   2.458 -17.973  1.00  0.00     0.134 A 
ATOM     11  C   UNL     1      28.937   0.042 -17.796  1.00  0.00     0.123 A 
ATOM     12  C   UNL     1      28.544   1.331 -17.420  1.00  0.00     0.093 A 
BRANCH   3  13
ATOM     13  C   UNL     1      33.315   1.430 -21.696  1.00  0.00     0.021 A 
ATOM     14  C   UNL     1      34.636   1.308 -21.236  1.00  0.00     0.016 A 
ATOM     15  C   UNL     1      35.668   0.991 -22.125  1.00  0.00     0.047 A 
ATOM     16  C   UNL     1      35.393   0.809 -23.485  1.00  0.00     0.115 A 
ATOM     17  C   UNL     1      33.048   1.270 -23.066  1.00  0.00     0.016 A 
ATOM     18  C   UNL     1      34.080   0.953 -23.953  1.00  0.00     0.047 A 
BRANCH  16  19
ATOM     19  O   UNL     1      36.429   0.491 -24.360  1.00  0.00    -0.508 OA
ATOM     20  H   UNL     1      36.374   0.710 -25.347  1.00  0.00     0.293 HD
ENDBRANCH  16  19
ENDBRANCH   3  13
BRANCH  10  21
ATOM     21  O   UNL     1      28.753   3.730 -17.578  1.00  0.00    -0.507 OA
ATOM     22  H   UNL     1      28.845   4.535 -18.187  1.00  0.00     0.293 HD
ENDBRANCH  10  21
BRANCH  11  23
ATOM     23  O   UNL     1      28.316  -1.078 -17.248  1.00  0.00    -0.508 OA
ATOM     24  H   UNL     1      27.825  -1.031 -16.363  1.00  0.00     0.293 HD
ENDBRANCH  11  23
ENDBRANCH   1   2
BRANCH   1  25
ATOM     25  C   UNL     1      32.103   4.942 -22.246  1.00  0.00     0.339 C 
ATOM     26  C   UNL     1      33.230   5.249 -23.257  1.00  0.00     0.214 C 
ATOM     27  O   UNL     1      31.497   6.134 -21.768  1.00  0.00    -0.332 OA
ATOM     28  C   UNL     1      34.243   6.270 -22.694  1.00  0.00     0.180 C 
ATOM     29  C   UNL     1      32.426   6.950 -21.072  1.00  0.00     0.179 C 
ATOM     30  C   UNL     1      33.522   7.460 -22.036  1.00  0.00     0.177 C 
BRANCH  26  31
ATOM     31  O   UNL     1      32.699   5.697 -24.482  1.00  0.00    -0.384 OA
ATOM     32  H   UNL     1      33.455   5.961 -25.068  1.00  0.00     0.211 HD
ENDBRANCH  26  31
BRANCH  28  33
ATOM     33  O   UNL     1      35.078   5.648 -21.751  1.00  0.00    -0.387 OA
ATOM     34  H   UNL     1      35.905   5.377 -22.231  1.00  0.00     0.211 HD
ENDBRANCH  28  33
BRANCH  29  35
ATOM     35  C   UNL     1      31.656   8.120 -20.442  1.00  0.00     0.191 C 
BRANCH  35  36
ATOM     36  O   UNL     1      30.625   7.643 -19.620  1.00  0.00    -0.394 OA
ATOM     37  H   UNL     1      30.031   8.417 -19.432  1.00  0.00     0.210 HD
ENDBRANCH  35  36
ENDBRANCH  29  35
BRANCH  30  38
ATOM     38  O   UNL     1      34.464   8.240 -21.341  1.00  0.00    -0.387 OA
ATOM     39  H   UNL     1      35.214   8.421 -21.965  1.00  0.00     0.211 HD
ENDBRANCH  30  38
ENDBRANCH   1  25
TORSDOF 11
ENDMDL
MODEL 6
REMARK VINA RESULT:    -5.871      2.132      7.054
REMARK INTER + INTRA:         -10.035
REMARK INTER:                  -8.295
REMARK INTRA:                  -1.740
REMARK UNBOUND:                -1.589
REMARK SMILES O=c1c(O[C@H]2O[C@H](CO)[C@@H](O)[C@@H](O)[C@@H]2O)c(-c2ccc(O)cc2)oc2cc(O)cc(O)c12
REMARK SMILES IDX 4 1 3 2 16 3 24 4 2 5 25 6 1 7 32 8 26 9 30 10 27 11 29 12
REMARK SMILES IDX 17 13 18 14 19 15 20 16 23 17 22 18 21 19 31 21 28 23 5 25
REMARK SMILES IDX 14 26 6 27 12 28 7 29 10 30 15 31 13 33 8 35 9 36 11 38
REMARK H PARENT 21 20 31 22 28 24 15 32 13 34 9 37 11 39
REMARK Flexibility Score: inf
ROOT
ATOM      1  O   UNL     1      36.506   5.507 -21.937  1.00  0.00    -0.454 OA
ENDROOT
BRANCH   1   2
ATOM      2  C   UNL     1      35.118   5.552 -21.686  1.00  0.00     0.214 A 
ATOM      3  C   UNL     1      34.434   4.330 -21.517  1.00  0.00     0.180 A 
ATOM      4  O   UNL     1      33.117   4.314 -21.345  1.00  0.00    -0.452 OA
ATOM      5  C   UNL     1      34.365   6.749 -21.624  1.00  0.00     0.239 A 
ATOM      6  C   UNL     1      32.375   5.411 -21.293  1.00  0.00     0.146 A 
ATOM      7  O   UNL     1      34.929   7.866 -21.755  1.00  0.00    -0.285 OA
ATOM      8  C   UNL     1      32.969   6.687 -21.422  1.00  0.00     0.111 A 
ATOM      9  C   UNL     1      30.995   5.289 -21.103  1.00  0.00     0.094 A 
ATOM     10  C   UNL     1      32.144   7.838 -21.351  1.00  0.00     0.134 A 
ATOM     11  C   UNL     1      30.188   6.424 -21.034  1.00  0.00     0.123 A 
ATOM     12  C   UNL     1      30.762   7.694 -21.157  1.00  0.00     0.093 A 
BRANCH   3  13
ATOM     13  C   UNL     1      35.143   3.035 -21.542  1.00  0.00     0.021 A 
ATOM     14  C   UNL     1      35.523   2.426 -20.334  1.00  0.00     0.016 A 
ATOM     15  C   UNL     1      36.210   1.209 -20.342  1.00  0.00     0.047 A 
ATOM     16  C   UNL     1      36.540   0.595 -21.555  1.00  0.00     0.115 A 
ATOM     17  C   UNL     1      35.498   2.427 -22.757  1.00  0.00     0.016 A 
ATOM     18  C   UNL     1      36.185   1.210 -22.763  1.00  0.00     0.047 A 
BRANCH  16  19
ATOM     19  O   UNL     1      37.222  -0.619 -21.549  1.00  0.00    -0.508 OA
ATOM     20  H   UNL     1      37.540  -1.044 -20.686  1.00  0.00     0.293 HD
ENDBRANCH  16  19
ENDBRANCH   3  13
BRANCH  10  21
ATOM     21  O   UNL     1      32.685   9.118 -21.472  1.00  0.00    -0.507 OA
ATOM     22  H   UNL     1      33.255   9.384 -22.266  1.00  0.00     0.293 HD
ENDBRANCH  10  21
BRANCH  11  23
ATOM     23  O   UNL     1      28.816   6.281 -20.843  1.00  0.00    -0.508 OA
ATOM     24  H   UNL     1      28.324   6.796 -20.122  1.00  0.00     0.293 HD
ENDBRANCH  11  23
ENDBRANCH   1   2
BRANCH   1  25
ATOM     25  C   UNL     1      37.564   5.674 -20.986  1.00  0.00     0.339 C 
ATOM     26  C   UNL     1      38.467   6.862 -21.384  1.00  0.00     0.214 C 
ATOM     27  O   UNL     1      38.317   4.480 -20.831  1.00  0.00    -0.332 OA
ATOM     28  C   UNL     1      39.348   6.527 -22.609  1.00  0.00     0.180 C 
ATOM     29  C   UNL     1      38.944   4.095 -22.044  1.00  0.00     0.179 C 
ATOM     30  C   UNL     1      40.003   5.143 -22.458  1.00  0.00     0.177 C 
BRANCH  26  31
ATOM     31  O   UNL     1      39.261   7.277 -20.298  1.00  0.00    -0.384 OA
ATOM     32  H   UNL     1      39.597   8.190 -20.491  1.00  0.00     0.211 HD
ENDBRANCH  26  31
BRANCH  28  33
ATOM     33  O   UNL     1      38.572   6.554 -23.779  1.00  0.00    -0.387 OA
ATOM     34  H   UNL     1      38.502   5.617 -24.102  1.00  0.00     0.211 HD
ENDBRANCH  28  33
BRANCH  29  35
ATOM     35  C   UNL     1      39.584   2.715 -21.836  1.00  0.00     0.191 C 
BRANCH  35  36
ATOM     36  O   UNL     1      39.699   2.039 -23.059  1.00  0.00    -0.394 OA
ATOM     37  H   UNL     1      39.462   2.693 -23.769  1.00  0.00     0.210 HD
ENDBRANCH  35  36
ENDBRANCH  29  35
BRANCH  30  38
ATOM     38  O   UNL     1      40.601   4.782 -23.679  1.00  0.00    -0.387 OA
ATOM     39  H   UNL     1      39.869   4.541 -24.305  1.00  0.00     0.211 HD
ENDBRANCH  30  38
ENDBRANCH   1  25
TORSDOF 11
ENDMDL
MODEL 7
REMARK VINA RESULT:    -5.761      1.836      5.518
REMARK INTER + INTRA:          -9.877
REMARK INTER:                  -8.423
REMARK INTRA:                  -1.453
REMARK UNBOUND:                -1.589
REMARK SMILES O=c1c(O[C@H]2O[C@H](CO)[C@@H](O)[C@@H](O)[C@@H]2O)c(-c2ccc(O)cc2)oc2cc(O)cc(O)c12
REMARK SMILES IDX 4 1 3 2 16 3 24 4 2 5 25 6 1 7 32 8 26 9 30 10 27 11 29 12
REMARK SMILES IDX 17 13 18 14 19 15 20 16 23 17 22 18 21 19 31 21 28 23 5 25
REMARK SMILES IDX 14 26 6 27 12 28 7 29 10 30 15 31 13 33 8 35 9 36 11 38
REMARK H PARENT 21 20 31 22 28 24 15 32 13 34 9 37 11 39
REMARK Flexibility Score: inf
ROOT
ATOM      1  O   UNL     1      33.005   4.719 -21.027  1.00  0.00    -0.454 OA
ENDROOT
BRANCH   1   2
ATOM      2  C   UNL     1      32.862   3.512 -20.310  1.00  0.00     0.214 A 
ATOM      3  C   UNL     1      33.908   2.570 -20.382  1.00  0.00     0.180 A 
ATOM      4  O   UNL     1      33.794   1.390 -19.781  1.00  0.00    -0.452 OA
ATOM      5  C   UNL     1      31.716   3.177 -19.549  1.00  0.00     0.239 A 
ATOM      6  C   UNL     1      32.734   1.035 -19.068  1.00  0.00     0.146 A 
ATOM      7  O   UNL     1      30.761   3.989 -19.442  1.00  0.00    -0.285 OA
ATOM      8  C   UNL     1      31.644   1.920 -18.911  1.00  0.00     0.111 A 
ATOM      9  C   UNL     1      32.712  -0.228 -18.469  1.00  0.00     0.094 A 
ATOM     10  C   UNL     1      30.532   1.507 -18.134  1.00  0.00     0.134 A 
ATOM     11  C   UNL     1      31.616  -0.630 -17.706  1.00  0.00     0.123 A 
ATOM     12  C   UNL     1      30.530   0.237 -17.539  1.00  0.00     0.093 A 
BRANCH   3  13
ATOM     13  C   UNL     1      35.149   2.844 -21.132  1.00  0.00     0.021 A 
ATOM     14  C   UNL     1      35.321   2.301 -22.416  1.00  0.00     0.016 A 
ATOM     15  C   UNL     1      36.498   2.538 -23.132  1.00  0.00     0.047 A 
ATOM     16  C   UNL     1      37.523   3.305 -22.568  1.00  0.00     0.115 A 
ATOM     17  C   UNL     1      36.191   3.593 -20.560  1.00  0.00     0.016 A 
ATOM     18  C   UNL     1      37.367   3.829 -21.277  1.00  0.00     0.047 A 
BRANCH  16  19
ATOM     19  O   UNL     1      38.689   3.536 -23.292  1.00  0.00    -0.508 OA
ATOM     20  H   UNL     1      38.671   4.007 -24.189  1.00  0.00     0.293 HD
ENDBRANCH  16  19
ENDBRANCH   3  13
BRANCH  10  21
ATOM     21  O   UNL     1      29.433   2.347 -17.949  1.00  0.00    -0.507 OA
ATOM     22  H   UNL     1      29.450   3.109 -17.282  1.00  0.00     0.293 HD
ENDBRANCH  10  21
BRANCH  11  23
ATOM     23  O   UNL     1      31.614  -1.892 -17.116  1.00  0.00    -0.508 OA
ATOM     24  H   UNL     1      30.983  -2.121 -16.357  1.00  0.00     0.293 HD
ENDBRANCH  11  23
ENDBRANCH   1   2
BRANCH   1  25
ATOM     25  C   UNL     1      32.558   4.995 -22.359  1.00  0.00     0.339 C 
ATOM     26  C   UNL     1      33.488   6.024 -23.040  1.00  0.00     0.214 C 
ATOM     27  O   UNL     1      31.207   5.430 -22.374  1.00  0.00    -0.332 OA
ATOM     28  C   UNL     1      33.292   7.444 -22.464  1.00  0.00     0.180 C 
ATOM     29  C   UNL     1      31.037   6.638 -21.651  1.00  0.00     0.179 C 
ATOM     30  C   UNL     1      31.798   7.792 -22.345  1.00  0.00     0.177 C 
BRANCH  26  31
ATOM     31  O   UNL     1      33.304   6.023 -24.436  1.00  0.00    -0.384 OA
ATOM     32  H   UNL     1      34.001   6.602 -24.840  1.00  0.00     0.211 HD
ENDBRANCH  26  31
BRANCH  28  33
ATOM     33  O   UNL     1      33.898   7.536 -21.200  1.00  0.00    -0.387 OA
ATOM     34  H   UNL     1      33.267   8.028 -20.612  1.00  0.00     0.211 HD
ENDBRANCH  28  33
BRANCH  29  35
ATOM     35  C   UNL     1      29.534   6.940 -21.568  1.00  0.00     0.191 C 
BRANCH  35  36
ATOM     36  O   UNL     1      28.933   6.165 -20.566  1.00  0.00    -0.394 OA
ATOM     37  H   UNL     1      29.176   6.584 -19.698  1.00  0.00     0.210 HD
ENDBRANCH  35  36
ENDBRANCH  29  35
BRANCH  30  38
ATOM     38  O   UNL     1      31.661   8.984 -21.610  1.00  0.00    -0.387 OA
ATOM     39  H   UNL     1      32.513   9.485 -21.702  1.00  0.00     0.211 HD
ENDBRANCH  30  38
ENDBRANCH   1  25
TORSDOF 11
ENDMDL
MODEL 8
REMARK VINA RESULT:    -5.618      2.615      3.322
REMARK INTER + INTRA:          -9.670
REMARK INTER:                  -8.034
REMARK INTRA:                  -1.637
REMARK UNBOUND:                -1.589
REMARK SMILES O=c1c(O[C@H]2O[C@H](CO)[C@@H](O)[C@@H](O)[C@@H]2O)c(-c2ccc(O)cc2)oc2cc(O)cc(O)c12
REMARK SMILES IDX 4 1 3 2 16 3 24 4 2 5 25 6 1 7 32 8 26 9 30 10 27 11 29 12
REMARK SMILES IDX 17 13 18 14 19 15 20 16 23 17 22 18 21 19 31 21 28 23 5 25
REMARK SMILES IDX 14 26 6 27 12 28 7 29 10 30 15 31 13 33 8 35 9 36 11 38
REMARK H PARENT 21 20 31 22 28 24 15 32 13 34 9 37 11 39
REMARK Flexibility Score: inf
ROOT
ATOM      1  O   UNL     1      33.118   5.501 -20.854  1.00  0.00    -0.454 OA
ENDROOT
BRANCH   1   2
ATOM      2  C   UNL     1      34.301   4.801 -20.530  1.00  0.00     0.214 A 
ATOM      3  C   UNL     1      34.393   3.445 -20.905  1.00  0.00     0.180 A 
ATOM      4  O   UNL     1      35.456   2.724 -20.565  1.00  0.00    -0.452 OA
ATOM      5  C   UNL     1      35.387   5.372 -19.824  1.00  0.00     0.239 A 
ATOM      6  C   UNL     1      36.488   3.217 -19.896  1.00  0.00     0.146 A 
ATOM      7  O   UNL     1      35.360   6.582 -19.479  1.00  0.00    -0.285 OA
ATOM      8  C   UNL     1      36.505   4.574 -19.499  1.00  0.00     0.111 A 
ATOM      9  C   UNL     1      37.563   2.377 -19.591  1.00  0.00     0.094 A 
ATOM     10  C   UNL     1      37.631   5.067 -18.793  1.00  0.00     0.134 A 
ATOM     11  C   UNL     1      38.668   2.867 -18.895  1.00  0.00     0.123 A 
ATOM     12  C   UNL     1      38.701   4.209 -18.498  1.00  0.00     0.093 A 
BRANCH   3  13
ATOM     13  C   UNL     1      33.318   2.776 -21.664  1.00  0.00     0.021 A 
ATOM     14  C   UNL     1      33.434   2.635 -23.057  1.00  0.00     0.016 A 
ATOM     15  C   UNL     1      32.417   2.019 -23.792  1.00  0.00     0.047 A 
ATOM     16  C   UNL     1      31.267   1.552 -23.147  1.00  0.00     0.115 A 
ATOM     17  C   UNL     1      32.151   2.328 -21.025  1.00  0.00     0.016 A 
ATOM     18  C   UNL     1      31.135   1.712 -21.761  1.00  0.00     0.047 A 
BRANCH  16  19
ATOM     19  O   UNL     1      30.262   0.938 -23.890  1.00  0.00    -0.508 OA
ATOM     20  H   UNL     1      29.681   0.208 -23.494  1.00  0.00     0.293 HD
ENDBRANCH  16  19
ENDBRANCH   3  13
BRANCH  10  21
ATOM     21  O   UNL     1      37.695   6.399 -18.381  1.00  0.00    -0.507 OA
ATOM     22  H   UNL     1      38.559   6.817 -18.058  1.00  0.00     0.293 HD
ENDBRANCH  10  21
BRANCH  11  23
ATOM     23  O   UNL     1      39.729   2.014 -18.602  1.00  0.00    -0.508 OA
ATOM     24  H   UNL     1      40.651   2.161 -18.995  1.00  0.00     0.293 HD
ENDBRANCH  11  23
ENDBRANCH   1   2
BRANCH   1  25
ATOM     25  C   UNL     1      32.981   6.593 -21.771  1.00  0.00     0.339 C 
ATOM     26  C   UNL     1      32.217   7.762 -21.110  1.00  0.00     0.214 C 
ATOM     27  O   UNL     1      32.356   6.183 -22.978  1.00  0.00    -0.332 OA
ATOM     28  C   UNL     1      30.713   7.445 -20.947  1.00  0.00     0.180 C 
ATOM     29  C   UNL     1      31.041   5.701 -22.749  1.00  0.00     0.179 C 
ATOM     30  C   UNL     1      30.132   6.843 -22.239  1.00  0.00     0.177 C 
BRANCH  26  31
ATOM     31  O   UNL     1      32.399   8.955 -21.834  1.00  0.00    -0.384 OA
ATOM     32  H   UNL     1      33.373   9.096 -21.959  1.00  0.00     0.211 HD
ENDBRANCH  26  31
BRANCH  28  33
ATOM     33  O   UNL     1      30.525   6.547 -19.884  1.00  0.00    -0.387 OA
ATOM     34  H   UNL     1      30.426   5.643 -20.282  1.00  0.00     0.211 HD
ENDBRANCH  28  33
BRANCH  29  35
ATOM     35  C   UNL     1      30.509   5.119 -24.067  1.00  0.00     0.191 C 
BRANCH  35  36
ATOM     36  O   UNL     1      29.342   4.376 -23.838  1.00  0.00    -0.394 OA
ATOM     37  H   UNL     1      29.067   4.001 -24.716  1.00  0.00     0.210 HD
ENDBRANCH  35  36
ENDBRANCH  29  35
BRANCH  30  38
ATOM     38  O   UNL     1      28.837   6.360 -21.977  1.00  0.00    -0.387 OA
ATOM     39  H   UNL     1      28.282   7.137 -21.705  1.00  0.00     0.211 HD
ENDBRANCH  30  38
ENDBRANCH   1  25
TORSDOF 11
ENDMDL
MODEL 9
REMARK VINA RESULT:    -5.611      2.623      6.678
REMARK INTER + INTRA:          -9.660
REMARK INTER:                  -8.015
REMARK INTRA:                  -1.644
REMARK UNBOUND:                -1.589
REMARK SMILES O=c1c(O[C@H]2O[C@H](CO)[C@@H](O)[C@@H](O)[C@@H]2O)c(-c2ccc(O)cc2)oc2cc(O)cc(O)c12
REMARK SMILES IDX 4 1 3 2 16 3 24 4 2 5 25 6 1 7 32 8 26 9 30 10 27 11 29 12
REMARK SMILES IDX 17 13 18 14 19 15 20 16 23 17 22 18 21 19 31 21 28 23 5 25
REMARK SMILES IDX 14 26 6 27 12 28 7 29 10 30 15 31 13 33 8 35 9 36 11 38
REMARK H PARENT 21 20 31 22 28 24 15 32 13 34 9 37 11 39
REMARK Flexibility Score: inf
ROOT
ATOM      1  O   UNL     1      34.136   3.810 -19.770  1.00  0.00    -0.454 OA
ENDROOT
BRANCH   1   2
ATOM      2  C   UNL     1      32.900   3.147 -19.613  1.00  0.00     0.214 A 
ATOM      3  C   UNL     1      31.807   3.590 -20.387  1.00  0.00     0.180 A 
ATOM      4  O   UNL     1      30.605   3.045 -20.229  1.00  0.00    -0.452 OA
ATOM      5  C   UNL     1      32.683   2.084 -18.704  1.00  0.00     0.239 A 
ATOM      6  C   UNL     1      30.360   2.056 -19.382  1.00  0.00     0.146 A 
ATOM      7  O   UNL     1      33.629   1.642 -18.001  1.00  0.00    -0.285 OA
ATOM      8  C   UNL     1      31.394   1.521 -18.582  1.00  0.00     0.111 A 
ATOM      9  C   UNL     1      29.061   1.545 -19.293  1.00  0.00     0.094 A 
ATOM     10  C   UNL     1      31.094   0.457 -17.694  1.00  0.00     0.134 A 
ATOM     11  C   UNL     1      28.771   0.499 -18.418  1.00  0.00     0.123 A 
ATOM     12  C   UNL     1      29.786  -0.043 -17.622  1.00  0.00     0.093 A 
BRANCH   3  13
ATOM     13  C   UNL     1      31.947   4.676 -21.377  1.00  0.00     0.021 A 
ATOM     14  C   UNL     1      32.250   4.365 -22.713  1.00  0.00     0.016 A 
ATOM     15  C   UNL     1      32.403   5.384 -23.658  1.00  0.00     0.047 A 
ATOM     16  C   UNL     1      32.273   6.724 -23.276  1.00  0.00     0.115 A 
ATOM     17  C   UNL     1      31.841   6.024 -20.993  1.00  0.00     0.016 A 
ATOM     18  C   UNL     1      31.995   7.041 -21.940  1.00  0.00     0.047 A 
BRANCH  16  19
ATOM     19  O   UNL     1      32.425   7.729 -24.228  1.00  0.00    -0.508 OA
ATOM     20  H   UNL     1      32.546   7.514 -25.210  1.00  0.00     0.293 HD
ENDBRANCH  16  19
ENDBRANCH   3  13
BRANCH  10  21
ATOM     21  O   UNL     1      32.083  -0.105 -16.885  1.00  0.00    -0.507 OA
ATOM     22  H   UNL     1      32.393  -1.062 -17.007  1.00  0.00     0.293 HD
ENDBRANCH  10  21
BRANCH  11  23
ATOM     23  O   UNL     1      27.471   0.004 -18.346  1.00  0.00    -0.508 OA
ATOM     24  H   UNL     1      26.918  -0.155 -19.179  1.00  0.00     0.293 HD
ENDBRANCH  11  23
ENDBRANCH   1   2
BRANCH   1  25
ATOM     25  C   UNL     1      35.310   3.311 -20.420  1.00  0.00     0.339 C 
ATOM     26  C   UNL     1      36.516   3.334 -19.454  1.00  0.00     0.214 C 
ATOM     27  O   UNL     1      35.589   4.029 -21.613  1.00  0.00    -0.332 OA
ATOM     28  C   UNL     1      37.021   4.773 -19.202  1.00  0.00     0.180 C 
ATOM     29  C   UNL     1      35.844   5.399 -21.351  1.00  0.00     0.179 C 
ATOM     30  C   UNL     1      37.139   5.557 -20.521  1.00  0.00     0.177 C 
BRANCH  26  31
ATOM     31  O   UNL     1      37.558   2.517 -19.929  1.00  0.00    -0.384 OA
ATOM     32  H   UNL     1      38.028   2.128 -19.146  1.00  0.00     0.211 HD
ENDBRANCH  26  31
BRANCH  28  33
ATOM     33  O   UNL     1      36.143   5.444 -18.334  1.00  0.00    -0.387 OA
ATOM     34  H   UNL     1      35.221   5.242 -18.641  1.00  0.00     0.211 HD
ENDBRANCH  28  33
BRANCH  29  35
ATOM     35  C   UNL     1      35.959   6.130 -22.697  1.00  0.00     0.191 C 
BRANCH  35  36
ATOM     36  O   UNL     1      37.289   6.137 -23.140  1.00  0.00    -0.394 OA
ATOM     37  H   UNL     1      37.642   7.050 -22.969  1.00  0.00     0.210 HD
ENDBRANCH  35  36
ENDBRANCH  29  35
BRANCH  30  38
ATOM     38  O   UNL     1      37.375   6.912 -20.230  1.00  0.00    -0.387 OA
ATOM     39  H   UNL     1      36.703   7.443 -20.732  1.00  0.00     0.211 HD
ENDBRANCH  30  38
ENDBRANCH   1  25
TORSDOF 11
ENDMDL
