MODEL 1
REMARK VINA RESULT:    -5.321      0.000      0.000
REMARK INTER + INTRA:          -6.550
REMARK INTER:                  -6.254
REMARK INTRA:                  -0.296
REMARK UNBOUND:                -0.296
REMARK SMILES O=c1cc(-c2ccc(O)c(O)c2)oc2cc(O)cc(O)c12
REMARK SMILES IDX 4 1 3 2 2 3 1 4 21 5 19 6 18 7 16 8 15 9 14 10 13 11 5 12
REMARK SMILES IDX 6 13 7 14 8 15 12 16 10 17 9 18 11 20 20 22 17 24
REMARK H PARENT 9 19 11 21 20 23 17 25
REMARK Flexibility Score: inf
ROOT
ATOM      1  C   UNL     1      -9.338   7.742   6.259  1.00  0.00     0.138 A 
ATOM      2  C   UNL     1      -8.954   6.594   6.966  1.00  0.00     0.100 A 
ATOM      3  C   UNL     1      -9.868   5.555   7.145  1.00  0.00     0.197 A 
ATOM      4  O   UNL     1      -9.515   4.564   7.837  1.00  0.00    -0.289 OA
ATOM      5  C   UNL     1     -11.165   5.654   6.585  1.00  0.00     0.107 A 
ATOM      6  C   UNL     1     -12.165   4.641   6.668  1.00  0.00     0.134 A 
ATOM      7  C   UNL     1     -13.451   4.898   6.177  1.00  0.00     0.093 A 
ATOM      8  C   UNL     1     -13.754   6.108   5.552  1.00  0.00     0.123 A 
ATOM      9  C   UNL     1     -12.768   7.086   5.417  1.00  0.00     0.094 A 
ATOM     10  C   UNL     1     -11.486   6.872   5.928  1.00  0.00     0.146 A 
ATOM     11  O   UNL     1     -10.578   7.834   5.791  1.00  0.00    -0.456 OA
ENDROOT
BRANCH   1  12
ATOM     12  C   UNL     1      -8.405   8.876   6.039  1.00  0.00     0.021 A 
ATOM     13  C   UNL     1      -8.767   9.907   5.156  1.00  0.00     0.016 A 
ATOM     14  C   UNL     1      -7.904  10.981   4.926  1.00  0.00     0.051 A 
ATOM     15  C   UNL     1      -6.662  11.040   5.564  1.00  0.00     0.157 A 
ATOM     16  C   UNL     1      -7.147   8.933   6.670  1.00  0.00     0.062 A 
ATOM     17  C   UNL     1      -6.279  10.009   6.438  1.00  0.00     0.158 A 
BRANCH  15  18
ATOM     18  O   UNL     1      -5.823  12.125   5.316  1.00  0.00    -0.504 OA
ATOM     19  H   UNL     1      -4.843  12.118   5.573  1.00  0.00     0.293 HD
ENDBRANCH  15  18
BRANCH  17  20
ATOM     20  O   UNL     1      -5.036  10.057   7.069  1.00  0.00    -0.504 OA
ATOM     21  H   UNL     1      -4.270  10.601   6.691  1.00  0.00     0.293 HD
ENDBRANCH  17  20
ENDBRANCH   1  12
BRANCH   6  22
ATOM     22  O   UNL     1     -11.944   3.366   7.198  1.00  0.00    -0.507 OA
ATOM     23  H   UNL     1     -11.550   2.590   6.688  1.00  0.00     0.293 HD
ENDBRANCH   6  22
BRANCH   8  24
ATOM     24  O   UNL     1     -15.040   6.324   5.060  1.00  0.00    -0.508 OA
ATOM     25  H   UNL     1     -15.310   7.212   4.654  1.00  0.00     0.293 HD
ENDBRANCH   8  24
TORSDOF 5
ENDMDL
MODEL 2
REMARK VINA RESULT:    -5.212      1.560      2.978
REMARK INTER + INTRA:          -6.422
REMARK INTER:                  -6.159
REMARK INTRA:                  -0.263
REMARK UNBOUND:                -0.296
REMARK SMILES O=c1cc(-c2ccc(O)c(O)c2)oc2cc(O)cc(O)c12
REMARK SMILES IDX 4 1 3 2 2 3 1 4 21 5 19 6 18 7 16 8 15 9 14 10 13 11 5 12
REMARK SMILES IDX 6 13 7 14 8 15 12 16 10 17 9 18 11 20 20 22 17 24
REMARK H PARENT 9 19 11 21 20 23 17 25
REMARK Flexibility Score: inf
ROOT
ATOM      1  C   UNL     1      -8.871   9.222   5.885  1.00  0.00     0.138 A 
ATOM      2  C   UNL     1     -10.115   9.860   5.779  1.00  0.00     0.100 A 
ATOM      3  C   UNL     1     -11.278   9.095   5.693  1.00  0.00     0.197 A 
ATOM      4  O   UNL     1     -12.374   9.694   5.536  1.00  0.00    -0.289 OA
ATOM      5  C   UNL     1     -11.198   7.682   5.746  1.00  0.00     0.107 A 
ATOM      6  C   UNL     1     -12.320   6.802   5.709  1.00  0.00     0.134 A 
ATOM      7  C   UNL     1     -12.111   5.419   5.650  1.00  0.00     0.093 A 
ATOM      8  C   UNL     1     -10.824   4.883   5.688  1.00  0.00     0.123 A 
ATOM      9  C   UNL     1      -9.720   5.732   5.779  1.00  0.00     0.094 A 
ATOM     10  C   UNL     1      -9.895   7.118   5.804  1.00  0.00     0.146 A 
ATOM     11  O   UNL     1      -8.818   7.893   5.877  1.00  0.00    -0.456 OA
ENDROOT
BRANCH   1  12
ATOM     12  C   UNL     1      -7.603   9.987   5.980  1.00  0.00     0.021 A 
ATOM     13  C   UNL     1      -6.876  10.268   4.811  1.00  0.00     0.016 A 
ATOM     14  C   UNL     1      -5.676  10.980   4.874  1.00  0.00     0.051 A 
ATOM     15  C   UNL     1      -5.175  11.415   6.104  1.00  0.00     0.157 A 
ATOM     16  C   UNL     1      -7.089  10.417   7.218  1.00  0.00     0.062 A 
ATOM     17  C   UNL     1      -5.882  11.130   7.283  1.00  0.00     0.158 A 
BRANCH  15  18
ATOM     18  O   UNL     1      -3.976  12.125   6.135  1.00  0.00    -0.504 OA
ATOM     19  H   UNL     1      -3.738  12.747   6.898  1.00  0.00     0.293 HD
ENDBRANCH  15  18
BRANCH  17  20
ATOM     20  O   UNL     1      -5.382  11.552   8.515  1.00  0.00    -0.504 OA
ATOM     21  H   UNL     1      -5.989  11.692   9.314  1.00  0.00     0.293 HD
ENDBRANCH  17  20
ENDBRANCH   1  12
BRANCH   6  22
ATOM     22  O   UNL     1     -13.650   7.230   5.752  1.00  0.00    -0.507 OA
ATOM     23  H   UNL     1     -14.142   7.500   6.590  1.00  0.00     0.293 HD
ENDBRANCH   6  22
BRANCH   8  24
ATOM     24  O   UNL     1     -10.654   3.500   5.644  1.00  0.00    -0.508 OA
ATOM     25  H   UNL     1     -11.137   2.929   4.962  1.00  0.00     0.293 HD
ENDBRANCH   8  24
TORSDOF 5
ENDMDL
MODEL 3
REMARK VINA RESULT:    -3.815      4.834      7.611
REMARK INTER + INTRA:          -4.779
REMARK INTER:                  -4.472
REMARK INTRA:                  -0.307
REMARK UNBOUND:                -0.296
REMARK SMILES O=c1cc(-c2ccc(O)c(O)c2)oc2cc(O)cc(O)c12
REMARK SMILES IDX 4 1 3 2 2 3 1 4 21 5 19 6 18 7 16 8 15 9 14 10 13 11 5 12
REMARK SMILES IDX 6 13 7 14 8 15 12 16 10 17 9 18 11 20 20 22 17 24
REMARK H PARENT 9 19 11 21 20 23 17 25
REMARK Flexibility Score: inf
ROOT
ATOM      1  C   UNL     1     -10.641  11.630   5.135  1.00  0.00     0.138 A 
ATOM      2  C   UNL     1     -10.897  11.914   6.484  1.00  0.00     0.100 A 
ATOM      3  C   UNL     1      -9.843  11.929   7.398  1.00  0.00     0.197 A 
ATOM      4  O   UNL     1     -10.112  12.125   8.612  1.00  0.00    -0.289 OA
ATOM      5  C   UNL     1      -8.521  11.687   6.953  1.00  0.00     0.107 A 
ATOM      6  C   UNL     1      -7.364  11.717   7.787  1.00  0.00     0.134 A 
ATOM      7  C   UNL     1      -6.121  11.348   7.258  1.00  0.00     0.093 A 
ATOM      8  C   UNL     1      -5.984  11.010   5.912  1.00  0.00     0.123 A 
ATOM      9  C   UNL     1      -7.099  11.029   5.073  1.00  0.00     0.094 A 
ATOM     10  C   UNL     1      -8.358  11.359   5.580  1.00  0.00     0.146 A 
ATOM     11  O   UNL     1      -9.398  11.353   4.752  1.00  0.00    -0.456 OA
ENDROOT
BRANCH   1  12
ATOM     12  C   UNL     1     -11.725  11.603   4.120  1.00  0.00     0.021 A 
ATOM     13  C   UNL     1     -13.033  11.275   4.516  1.00  0.00     0.016 A 
ATOM     14  C   UNL     1     -14.069  11.235   3.579  1.00  0.00     0.051 A 
ATOM     15  C   UNL     1     -13.817  11.510   2.233  1.00  0.00     0.157 A 
ATOM     16  C   UNL     1     -11.473  11.868   2.761  1.00  0.00     0.062 A 
ATOM     17  C   UNL     1     -12.512  11.826   1.820  1.00  0.00     0.158 A 
BRANCH  15  18
ATOM     18  O   UNL     1     -14.871  11.464   1.322  1.00  0.00    -0.504 OA
ATOM     19  H   UNL     1     -15.404  10.619   1.157  1.00  0.00     0.293 HD
ENDBRANCH  15  18
BRANCH  17  20
ATOM     20  O   UNL     1     -12.252  12.092   0.476  1.00  0.00    -0.504 OA
ATOM     21  H   UNL     1     -11.687  12.883   0.191  1.00  0.00     0.293 HD
ENDBRANCH  17  20
ENDBRANCH   1  12
BRANCH   6  22
ATOM     22  O   UNL     1      -7.376  12.122   9.125  1.00  0.00    -0.507 OA
ATOM     23  H   UNL     1      -6.765  12.818   9.523  1.00  0.00     0.293 HD
ENDBRANCH   6  22
BRANCH   8  24
ATOM     24  O   UNL     1      -4.729  10.662   5.415  1.00  0.00    -0.508 OA
ATOM     25  H   UNL     1      -4.202  11.291   4.820  1.00  0.00     0.293 HD
ENDBRANCH   8  24
TORSDOF 5
ENDMDL
MODEL 4
REMARK VINA RESULT:    -3.603     17.003     18.174
REMARK INTER + INTRA:          -4.530
REMARK INTER:                  -4.235
REMARK INTRA:                  -0.295
REMARK UNBOUND:                -0.296
REMARK SMILES O=c1cc(-c2ccc(O)c(O)c2)oc2cc(O)cc(O)c12
REMARK SMILES IDX 4 1 3 2 2 3 1 4 21 5 19 6 18 7 16 8 15 9 14 10 13 11 5 12
REMARK SMILES IDX 6 13 7 14 8 15 12 16 10 17 9 18 11 20 20 22 17 24
REMARK H PARENT 9 19 11 21 20 23 17 25
REMARK Flexibility Score: inf
ROOT
ATOM      1  C   UNL     1     -11.912   0.184  -9.657  1.00  0.00     0.138 A 
ATOM      2  C   UNL     1     -10.627  -0.377  -9.626  1.00  0.00     0.100 A 
ATOM      3  C   UNL     1     -10.461  -1.737  -9.891  1.00  0.00     0.197 A 
ATOM      4  O   UNL     1      -9.304  -2.224  -9.795  1.00  0.00    -0.289 OA
ATOM      5  C   UNL     1     -11.585  -2.533 -10.217  1.00  0.00     0.107 A 
ATOM      6  C   UNL     1     -11.531  -3.921 -10.544  1.00  0.00     0.134 A 
ATOM      7  C   UNL     1     -12.721  -4.632 -10.736  1.00  0.00     0.093 A 
ATOM      8  C   UNL     1     -13.960  -3.994 -10.673  1.00  0.00     0.123 A 
ATOM      9  C   UNL     1     -14.023  -2.625 -10.407  1.00  0.00     0.094 A 
ATOM     10  C   UNL     1     -12.854  -1.896 -10.176  1.00  0.00     0.146 A 
ATOM     11  O   UNL     1     -12.957  -0.597  -9.912  1.00  0.00    -0.456 OA
ENDROOT
BRANCH   1  12
ATOM     12  C   UNL     1     -12.145   1.625  -9.385  1.00  0.00     0.021 A 
ATOM     13  C   UNL     1     -13.407   2.182  -9.651  1.00  0.00     0.016 A 
ATOM     14  C   UNL     1     -13.650   3.537  -9.411  1.00  0.00     0.051 A 
ATOM     15  C   UNL     1     -12.637   4.360  -8.912  1.00  0.00     0.157 A 
ATOM     16  C   UNL     1     -11.123   2.460  -8.895  1.00  0.00     0.062 A 
ATOM     17  C   UNL     1     -11.365   3.821  -8.656  1.00  0.00     0.158 A 
BRANCH  15  18
ATOM     18  O   UNL     1     -12.910   5.707  -8.681  1.00  0.00    -0.504 OA
ATOM     19  H   UNL     1     -13.221   6.047  -7.779  1.00  0.00     0.293 HD
ENDBRANCH  15  18
BRANCH  17  20
ATOM     20  O   UNL     1     -10.347   4.639  -8.169  1.00  0.00    -0.504 OA
ATOM     21  H   UNL     1     -10.190   4.755  -7.174  1.00  0.00     0.293 HD
ENDBRANCH  17  20
ENDBRANCH   1  12
BRANCH   6  22
ATOM     22  O   UNL     1     -10.342  -4.637 -10.715  1.00  0.00    -0.507 OA
ATOM     23  H   UNL     1      -9.636  -4.761 -10.006  1.00  0.00     0.293 HD
ENDBRANCH   6  22
BRANCH   8  24
ATOM     24  O   UNL     1     -15.124  -4.730 -10.885  1.00  0.00    -0.508 OA
ATOM     25  H   UNL     1     -15.412  -5.461 -10.246  1.00  0.00     0.293 HD
ENDBRANCH   8  24
TORSDOF 5
ENDMDL
MODEL 5
REMARK VINA RESULT:    -3.573      3.786      6.390
REMARK INTER + INTRA:          -4.495
REMARK INTER:                  -4.214
REMARK INTRA:                  -0.281
REMARK UNBOUND:                -0.296
REMARK SMILES O=c1cc(-c2ccc(O)c(O)c2)oc2cc(O)cc(O)c12
REMARK SMILES IDX 4 1 3 2 2 3 1 4 21 5 19 6 18 7 16 8 15 9 14 10 13 11 5 12
REMARK SMILES IDX 6 13 7 14 8 15 12 16 10 17 9 18 11 20 20 22 17 24
REMARK H PARENT 9 19 11 21 20 23 17 25
REMARK Flexibility Score: inf
ROOT
ATOM      1  C   UNL     1     -12.590   7.709   5.770  1.00  0.00     0.138 A 
ATOM      2  C   UNL     1     -12.782   8.944   6.404  1.00  0.00     0.100 A 
ATOM      3  C   UNL     1     -13.287  10.023   5.676  1.00  0.00     0.197 A 
ATOM      4  O   UNL     1     -13.389  11.135   6.257  1.00  0.00    -0.289 OA
ATOM      5  C   UNL     1     -13.630   9.853   4.314  1.00  0.00     0.107 A 
ATOM      6  C   UNL     1     -14.192  10.870   3.485  1.00  0.00     0.134 A 
ATOM      7  C   UNL     1     -14.383  10.621   2.120  1.00  0.00     0.093 A 
ATOM      8  C   UNL     1     -14.090   9.374   1.568  1.00  0.00     0.123 A 
ATOM      9  C   UNL     1     -13.592   8.355   2.380  1.00  0.00     0.094 A 
ATOM     10  C   UNL     1     -13.358   8.584   3.738  1.00  0.00     0.146 A 
ATOM     11  O   UNL     1     -12.869   7.591   4.475  1.00  0.00    -0.456 OA
ENDROOT
BRANCH   1  12
ATOM     12  C   UNL     1     -12.057   6.529   6.496  1.00  0.00     0.021 A 
ATOM     13  C   UNL     1     -12.608   5.260   6.251  1.00  0.00     0.016 A 
ATOM     14  C   UNL     1     -12.129   4.135   6.927  1.00  0.00     0.051 A 
ATOM     15  C   UNL     1     -11.102   4.257   7.866  1.00  0.00     0.157 A 
ATOM     16  C   UNL     1     -11.030   6.650   7.452  1.00  0.00     0.062 A 
ATOM     17  C   UNL     1     -10.551   5.522   8.133  1.00  0.00     0.158 A 
BRANCH  15  18
ATOM     18  O   UNL     1     -10.643   3.117   8.523  1.00  0.00    -0.504 OA
ATOM     19  H   UNL     1     -11.240   2.570   9.131  1.00  0.00     0.293 HD
ENDBRANCH  15  18
BRANCH  17  20
ATOM     20  O   UNL     1      -9.532   5.652   9.076  1.00  0.00    -0.504 OA
ATOM     21  H   UNL     1      -8.561   5.494   8.834  1.00  0.00     0.293 HD
ENDBRANCH  17  20
ENDBRANCH   1  12
BRANCH   6  22
ATOM     22  O   UNL     1     -14.597  12.123   3.953  1.00  0.00    -0.507 OA
ATOM     23  H   UNL     1     -14.689  12.950   3.382  1.00  0.00     0.293 HD
ENDBRANCH   6  22
BRANCH   8  24
ATOM     24  O   UNL     1     -14.308   9.156   0.209  1.00  0.00    -0.508 OA
ATOM     25  H   UNL     1     -14.664   9.888  -0.394  1.00  0.00     0.293 HD
ENDBRANCH   8  24
TORSDOF 5
ENDMDL
MODEL 6
REMARK VINA RESULT:    -3.165      3.976      6.335
REMARK INTER + INTRA:          -4.015
REMARK INTER:                  -3.723
REMARK INTRA:                  -0.293
REMARK UNBOUND:                -0.296
REMARK SMILES O=c1cc(-c2ccc(O)c(O)c2)oc2cc(O)cc(O)c12
REMARK SMILES IDX 4 1 3 2 2 3 1 4 21 5 19 6 18 7 16 8 15 9 14 10 13 11 5 12
REMARK SMILES IDX 6 13 7 14 8 15 12 16 10 17 9 18 11 20 20 22 17 24
REMARK H PARENT 9 19 11 21 20 23 17 25
REMARK Flexibility Score: inf
ROOT
ATOM      1  C   UNL     1     -12.632   6.617   5.264  1.00  0.00     0.138 A 
ATOM      2  C   UNL     1     -12.832   6.210   3.938  1.00  0.00     0.100 A 
ATOM      3  C   UNL     1     -13.414   7.090   3.025  1.00  0.00     0.197 A 
ATOM      4  O   UNL     1     -13.638   6.675   1.858  1.00  0.00    -0.289 OA
ATOM      5  C   UNL     1     -13.770   8.397   3.437  1.00  0.00     0.107 A 
ATOM      6  C   UNL     1     -14.332   9.393   2.584  1.00  0.00     0.134 A 
ATOM      7  C   UNL     1     -14.752  10.612   3.130  1.00  0.00     0.093 A 
ATOM      8  C   UNL     1     -14.575  10.894   4.484  1.00  0.00     0.123 A 
ATOM      9  C   UNL     1     -13.977   9.949   5.318  1.00  0.00     0.094 A 
ATOM     10  C   UNL     1     -13.579   8.710   4.810  1.00  0.00     0.146 A 
ATOM     11  O   UNL     1     -13.025   7.831   5.639  1.00  0.00    -0.456 OA
ENDROOT
BRANCH   1  12
ATOM     12  C   UNL     1     -12.016   5.721   6.275  1.00  0.00     0.021 A 
ATOM     13  C   UNL     1     -12.430   4.381   6.353  1.00  0.00     0.016 A 
ATOM     14  C   UNL     1     -11.871   3.519   7.300  1.00  0.00     0.051 A 
ATOM     15  C   UNL     1     -10.900   3.981   8.192  1.00  0.00     0.157 A 
ATOM     16  C   UNL     1     -11.046   6.186   7.183  1.00  0.00     0.062 A 
ATOM     17  C   UNL     1     -10.486   5.322   8.136  1.00  0.00     0.158 A 
BRANCH  15  18
ATOM     18  O   UNL     1     -10.359   3.098   9.125  1.00  0.00    -0.504 OA
ATOM     19  H   UNL     1      -9.557   3.339   9.693  1.00  0.00     0.293 HD
ENDBRANCH  15  18
BRANCH  17  20
ATOM     20  O   UNL     1      -9.525   5.793   9.030  1.00  0.00    -0.504 OA
ATOM     21  H   UNL     1      -8.673   5.275   9.214  1.00  0.00     0.293 HD
ENDBRANCH  17  20
ENDBRANCH   1  12
BRANCH   6  22
ATOM     22  O   UNL     1     -14.477   9.246   1.201  1.00  0.00    -0.507 OA
ATOM     23  H   UNL     1     -14.999   9.871   0.606  1.00  0.00     0.293 HD
ENDBRANCH   6  22
BRANCH   8  24
ATOM     24  O   UNL     1     -14.991  12.125   4.990  1.00  0.00    -0.508 OA
ATOM     25  H   UNL     1     -14.436  12.633   5.668  1.00  0.00     0.293 HD
ENDBRANCH   8  24
TORSDOF 5
ENDMDL
MODEL 7
REMARK VINA RESULT:    -2.982      1.533      7.430
REMARK INTER + INTRA:          -3.801
REMARK INTER:                  -3.510
REMARK INTRA:                  -0.290
REMARK UNBOUND:                -0.296
REMARK SMILES O=c1cc(-c2ccc(O)c(O)c2)oc2cc(O)cc(O)c12
REMARK SMILES IDX 4 1 3 2 2 3 1 4 21 5 19 6 18 7 16 8 15 9 14 10 13 11 5 12
REMARK SMILES IDX 6 13 7 14 8 15 12 16 10 17 9 18 11 20 20 22 17 24
REMARK H PARENT 9 19 11 21 20 23 17 25
REMARK Flexibility Score: inf
ROOT
ATOM      1  C   UNL     1      -9.644   7.806   6.505  1.00  0.00     0.138 A 
ATOM      2  C   UNL     1     -10.285   8.795   5.746  1.00  0.00     0.100 A 
ATOM      3  C   UNL     1      -9.569   9.918   5.329  1.00  0.00     0.197 A 
ATOM      4  O   UNL     1     -10.187  10.818   4.702  1.00  0.00    -0.289 OA
ATOM      5  C   UNL     1      -8.195  10.035   5.648  1.00  0.00     0.107 A 
ATOM      6  C   UNL     1      -7.355  11.114   5.241  1.00  0.00     0.134 A 
ATOM      7  C   UNL     1      -6.039  11.182   5.715  1.00  0.00     0.093 A 
ATOM      8  C   UNL     1      -5.515  10.179   6.530  1.00  0.00     0.123 A 
ATOM      9  C   UNL     1      -6.311   9.090   6.890  1.00  0.00     0.094 A 
ATOM     10  C   UNL     1      -7.638   9.012   6.462  1.00  0.00     0.146 A 
ATOM     11  O   UNL     1      -8.367   7.967   6.838  1.00  0.00    -0.456 OA
ENDROOT
BRANCH   1  12
ATOM     12  C   UNL     1     -10.358   6.592   6.974  1.00  0.00     0.021 A 
ATOM     13  C   UNL     1      -9.890   5.911   8.111  1.00  0.00     0.016 A 
ATOM     14  C   UNL     1     -10.540   4.762   8.568  1.00  0.00     0.051 A 
ATOM     15  C   UNL     1     -11.659   4.266   7.894  1.00  0.00     0.157 A 
ATOM     16  C   UNL     1     -11.479   6.082   6.291  1.00  0.00     0.062 A 
ATOM     17  C   UNL     1     -12.130   4.927   6.747  1.00  0.00     0.158 A 
BRANCH  15  18
ATOM     18  O   UNL     1     -12.288   3.119   8.375  1.00  0.00    -0.504 OA
ATOM     19  H   UNL     1     -11.766   2.340   8.758  1.00  0.00     0.293 HD
ENDBRANCH  15  18
BRANCH  17  20
ATOM     20  O   UNL     1     -13.240   4.431   6.064  1.00  0.00    -0.504 OA
ATOM     21  H   UNL     1     -13.155   3.688   5.381  1.00  0.00     0.293 HD
ENDBRANCH  17  20
ENDBRANCH   1  12
BRANCH   6  22
ATOM     22  O   UNL     1      -7.754  12.125   4.361  1.00  0.00    -0.507 OA
ATOM     23  H   UNL     1      -8.305  12.929   4.618  1.00  0.00     0.293 HD
ENDBRANCH   6  22
BRANCH   8  24
ATOM     24  O   UNL     1      -4.196  10.270   6.970  1.00  0.00    -0.508 OA
ATOM     25  H   UNL     1      -3.973  10.404   7.949  1.00  0.00     0.293 HD
ENDBRANCH   8  24
TORSDOF 5
ENDMDL
MODEL 8
REMARK VINA RESULT:    -2.836      4.957      7.929
REMARK INTER + INTRA:          -3.629
REMARK INTER:                  -3.312
REMARK INTRA:                  -0.317
REMARK UNBOUND:                -0.296
REMARK SMILES O=c1cc(-c2ccc(O)c(O)c2)oc2cc(O)cc(O)c12
REMARK SMILES IDX 4 1 3 2 2 3 1 4 21 5 19 6 18 7 16 8 15 9 14 10 13 11 5 12
REMARK SMILES IDX 6 13 7 14 8 15 12 16 10 17 9 18 11 20 20 22 17 24
REMARK H PARENT 9 19 11 21 20 23 17 25
REMARK Flexibility Score: inf
ROOT
ATOM      1  C   UNL     1      -9.016  11.735   6.013  1.00  0.00     0.138 A 
ATOM      2  C   UNL     1      -8.787  11.790   7.395  1.00  0.00     0.100 A 
ATOM      3  C   UNL     1      -7.478  11.826   7.877  1.00  0.00     0.197 A 
ATOM      4  O   UNL     1      -7.303  11.813   9.124  1.00  0.00    -0.289 OA
ATOM      5  C   UNL     1      -6.393  11.838   6.968  1.00  0.00     0.107 A 
ATOM      6  C   UNL     1      -5.019  11.915   7.344  1.00  0.00     0.134 A 
ATOM      7  C   UNL     1      -4.027  11.802   6.362  1.00  0.00     0.093 A 
ATOM      8  C   UNL     1      -4.360  11.676   5.013  1.00  0.00     0.123 A 
ATOM      9  C   UNL     1      -5.701  11.654   4.628  1.00  0.00     0.094 A 
ATOM     10  C   UNL     1      -6.713  11.729   5.588  1.00  0.00     0.146 A 
ATOM     11  O   UNL     1      -7.979  11.691   5.183  1.00  0.00    -0.456 OA
ENDROOT
BRANCH   1  12
ATOM     12  C   UNL     1     -10.388  11.695   5.447  1.00  0.00     0.021 A 
ATOM     13  C   UNL     1     -11.488  11.564   6.311  1.00  0.00     0.016 A 
ATOM     14  C   UNL     1     -12.789  11.516   5.802  1.00  0.00     0.051 A 
ATOM     15  C   UNL     1     -13.013  11.589   4.425  1.00  0.00     0.157 A 
ATOM     16  C   UNL     1     -10.617  11.756   4.059  1.00  0.00     0.062 A 
ATOM     17  C   UNL     1     -11.923  11.706   3.548  1.00  0.00     0.158 A 
BRANCH  15  18
ATOM     18  O   UNL     1     -14.322  11.542   3.948  1.00  0.00    -0.504 OA
ATOM     19  H   UNL     1     -15.110  11.848   4.505  1.00  0.00     0.293 HD
ENDBRANCH  15  18
BRANCH  17  20
ATOM     20  O   UNL     1     -12.140  11.769   2.172  1.00  0.00    -0.504 OA
ATOM     21  H   UNL     1     -11.380  11.663   1.509  1.00  0.00     0.293 HD
ENDBRANCH  17  20
ENDBRANCH   1  12
BRANCH   6  22
ATOM     22  O   UNL     1      -4.578  12.125   8.653  1.00  0.00    -0.507 OA
ATOM     23  H   UNL     1      -4.039  11.465   9.193  1.00  0.00     0.293 HD
ENDBRANCH   6  22
BRANCH   8  24
ATOM     24  O   UNL     1      -3.347  11.581   4.061  1.00  0.00    -0.508 OA
ATOM     25  H   UNL     1      -3.275  10.783   3.442  1.00  0.00     0.293 HD
ENDBRANCH   8  24
TORSDOF 5
ENDMDL
