MODEL 1
REMARK VINA RESULT:     7.792      0.000      0.000
REMARK INTER + INTRA:          13.909
REMARK INTER:                  14.169
REMARK INTRA:                  -0.260
REMARK UNBOUND:                -0.260
REMARK SMILES CCCCCCCCCCCCCCCC(=O)[O-]
REMARK SMILES IDX 9 1 10 2 11 3 12 4 13 5 14 6 15 7 16 8 17 9 18 10 8 11 7 12
REMARK SMILES IDX 6 13 5 14 4 15 3 16 2 17 1 18
REMARK H PARENT
REMARK Flexibility Score: inf
ROOT
ATOM      1  C   UNL     1     -11.359  18.954 -15.411  1.00  0.00     0.000 C 
ENDROOT
BRANCH   1   2
ATOM      2  C   UNL     1     -10.861  19.604 -16.713  1.00  0.00     0.000 C 
BRANCH   2   3
ATOM      3  C   UNL     1     -11.435  18.924 -17.968  1.00  0.00     0.000 C 
BRANCH   3   4
ATOM      4  C   UNL     1     -11.735  19.924 -19.097  1.00  0.00     0.000 C 
BRANCH   4   5
ATOM      5  C   UNL     1     -12.793  19.405 -20.083  1.00  0.00     0.000 C 
BRANCH   5   6
ATOM      6  C   UNL     1     -13.892  20.455 -20.310  1.00  0.00     0.006 C 
BRANCH   6   7
ATOM      7  C   UNL     1     -13.994  20.881 -21.781  1.00  0.00     0.053 C 
BRANCH   7   8
ATOM      8  C   UNL     1     -13.364  19.877 -22.697  1.00  0.00     0.041 C 
ATOM      9  O   UNL     1     -14.034  18.899 -23.123  1.00  0.00    -0.550 OA
ATOM     10  O   UNL     1     -12.027  20.003 -23.054  1.00  0.00    -0.550 OA
ENDBRANCH   7   8
ENDBRANCH   6   7
ENDBRANCH   5   6
ENDBRANCH   4   5
ENDBRANCH   3   4
ENDBRANCH   2   3
ENDBRANCH   1   2
BRANCH   1  11
ATOM     11  C   UNL     1     -11.868  19.988 -14.391  1.00  0.00     0.000 C 
BRANCH  11  12
ATOM     12  C   UNL     1     -12.951  19.416 -13.463  1.00  0.00    -0.000 C 
BRANCH  12  13
ATOM     13  C   UNL     1     -12.374  18.864 -12.148  1.00  0.00    -0.000 C 
BRANCH  13  14
ATOM     14  C   UNL     1     -13.252  19.193 -10.926  1.00  0.00    -0.000 C 
BRANCH  14  15
ATOM     15  C   UNL     1     -13.091  18.228  -9.738  1.00  0.00    -0.000 C 
BRANCH  15  16
ATOM     16  C   UNL     1     -12.991  18.955  -8.386  1.00  0.00    -0.000 C 
BRANCH  16  17
ATOM     17  C   UNL     1     -12.416  20.373  -8.521  1.00  0.00    -0.003 C 
ATOM     18  C   UNL     1     -12.404  21.132  -7.193  1.00  0.00     0.004 C 
ENDBRANCH  16  17
ENDBRANCH  15  16
ENDBRANCH  14  15
ENDBRANCH  13  14
ENDBRANCH  12  13
ENDBRANCH  11  12
ENDBRANCH   1  11
TORSDOF 14
ENDMDL
MODEL 2
REMARK VINA RESULT:     8.527      5.257     10.696
REMARK INTER + INTRA:          15.245
REMARK INTER:                  15.748
REMARK INTRA:                  -0.502
REMARK UNBOUND:                -0.260
REMARK SMILES CCCCCCCCCCCCCCCC(=O)[O-]
REMARK SMILES IDX 9 1 10 2 11 3 12 4 13 5 14 6 15 7 16 8 17 9 18 10 8 11 7 12
REMARK SMILES IDX 6 13 5 14 4 15 3 16 2 17 1 18
REMARK H PARENT
REMARK Flexibility Score: inf
ROOT
ATOM      1  C   UNL     1     -11.600  19.009 -15.237  1.00  0.00     0.000 C 
ENDROOT
BRANCH   1   2
ATOM      2  C   UNL     1     -11.624  19.510 -13.783  1.00  0.00     0.000 C 
BRANCH   2   3
ATOM      3  C   UNL     1     -12.920  19.126 -13.049  1.00  0.00     0.000 C 
BRANCH   3   4
ATOM      4  C   UNL     1     -12.815  19.315 -11.527  1.00  0.00     0.000 C 
BRANCH   4   5
ATOM      5  C   UNL     1     -12.774  17.981 -10.764  1.00  0.00     0.000 C 
BRANCH   5   6
ATOM      6  C   UNL     1     -12.857  18.214  -9.248  1.00  0.00     0.006 C 
BRANCH   6   7
ATOM      7  C   UNL     1     -13.562  19.532  -8.899  1.00  0.00     0.053 C 
BRANCH   7   8
ATOM      8  C   UNL     1     -12.784  20.331  -7.898  1.00  0.00     0.041 C 
ATOM      9  O   UNL     1     -13.024  20.212  -6.667  1.00  0.00    -0.550 OA
ATOM     10  O   UNL     1     -11.816  21.232  -8.327  1.00  0.00    -0.550 OA
ENDBRANCH   7   8
ENDBRANCH   6   7
ENDBRANCH   5   6
ENDBRANCH   4   5
ENDBRANCH   3   4
ENDBRANCH   2   3
ENDBRANCH   1   2
BRANCH   1  11
ATOM     11  C   UNL     1     -10.448  19.620 -16.055  1.00  0.00     0.000 C 
BRANCH  11  12
ATOM     12  C   UNL     1     -10.917  20.168 -17.412  1.00  0.00    -0.000 C 
BRANCH  12  13
ATOM     13  C   UNL     1     -11.776  19.160 -18.194  1.00  0.00    -0.000 C 
BRANCH  13  14
ATOM     14  C   UNL     1     -12.058  19.611 -19.640  1.00  0.00    -0.000 C 
BRANCH  14  15
ATOM     15  C   UNL     1     -13.539  19.548 -20.057  1.00  0.00    -0.000 C 
BRANCH  15  16
ATOM     16  C   UNL     1     -13.892  20.560 -21.160  1.00  0.00    -0.000 C 
BRANCH  16  17
ATOM     17  C   UNL     1     -13.634  20.008 -22.571  1.00  0.00    -0.003 C 
ATOM     18  C   UNL     1     -12.268  20.417 -23.121  1.00  0.00     0.004 C 
ENDBRANCH  16  17
ENDBRANCH  15  16
ENDBRANCH  14  15
ENDBRANCH  13  14
ENDBRANCH  12  13
ENDBRANCH  11  12
ENDBRANCH   1  11
TORSDOF 14
ENDMDL
MODEL 3
REMARK VINA RESULT:     8.666      1.440      1.818
REMARK INTER + INTRA:          15.499
REMARK INTER:                  16.061
REMARK INTRA:                  -0.562
REMARK UNBOUND:                -0.260
REMARK SMILES CCCCCCCCCCCCCCCC(=O)[O-]
REMARK SMILES IDX 9 1 10 2 11 3 12 4 13 5 14 6 15 7 16 8 17 9 18 10 8 11 7 12
REMARK SMILES IDX 6 13 5 14 4 15 3 16 2 17 1 18
REMARK H PARENT
REMARK Flexibility Score: inf
ROOT
ATOM      1  C   UNL     1     -13.520  18.914 -14.747  1.00  0.00     0.000 C 
ENDROOT
BRANCH   1   2
ATOM      2  C   UNL     1     -13.354  18.130 -16.060  1.00  0.00     0.000 C 
BRANCH   2   3
ATOM      3  C   UNL     1     -14.594  18.227 -16.964  1.00  0.00     0.000 C 
BRANCH   3   4
ATOM      4  C   UNL     1     -14.290  17.864 -18.426  1.00  0.00     0.000 C 
BRANCH   4   5
ATOM      5  C   UNL     1     -13.705  19.042 -19.221  1.00  0.00     0.000 C 
BRANCH   5   6
ATOM      6  C   UNL     1     -14.797  19.745 -20.042  1.00  0.00     0.006 C 
BRANCH   6   7
ATOM      7  C   UNL     1     -14.227  20.844 -20.950  1.00  0.00     0.053 C 
BRANCH   7   8
ATOM      8  C   UNL     1     -13.652  20.280 -22.213  1.00  0.00     0.041 C 
ATOM      9  O   UNL     1     -12.685  20.852 -22.781  1.00  0.00    -0.550 OA
ATOM     10  O   UNL     1     -14.207  19.139 -22.782  1.00  0.00    -0.550 OA
ENDBRANCH   7   8
ENDBRANCH   6   7
ENDBRANCH   5   6
ENDBRANCH   4   5
ENDBRANCH   3   4
ENDBRANCH   2   3
ENDBRANCH   1   2
BRANCH   1  11
ATOM     11  C   UNL     1     -12.172  19.354 -14.146  1.00  0.00     0.000 C 
BRANCH  11  12
ATOM     12  C   UNL     1     -12.291  19.761 -12.670  1.00  0.00    -0.000 C 
BRANCH  12  13
ATOM     13  C   UNL     1     -12.807  18.618 -11.778  1.00  0.00    -0.000 C 
BRANCH  13  14
ATOM     14  C   UNL     1     -13.526  19.124 -10.514  1.00  0.00    -0.000 C 
BRANCH  14  15
ATOM     15  C   UNL     1     -12.725  18.963  -9.209  1.00  0.00    -0.000 C 
BRANCH  15  16
ATOM     16  C   UNL     1     -13.458  19.533  -7.983  1.00  0.00    -0.000 C 
BRANCH  16  17
ATOM     17  C   UNL     1     -12.619  20.575  -7.226  1.00  0.00    -0.003 C 
ATOM     18  C   UNL     1     -11.805  21.468  -8.163  1.00  0.00     0.004 C 
ENDBRANCH  16  17
ENDBRANCH  15  16
ENDBRANCH  14  15
ENDBRANCH  13  14
ENDBRANCH  12  13
ENDBRANCH  11  12
ENDBRANCH   1  11
TORSDOF 14
ENDMDL
MODEL 4
REMARK VINA RESULT:     8.732      5.470     10.757
REMARK INTER + INTRA:          15.619
REMARK INTER:                  16.137
REMARK INTRA:                  -0.517
REMARK UNBOUND:                -0.260
REMARK SMILES CCCCCCCCCCCCCCCC(=O)[O-]
REMARK SMILES IDX 9 1 10 2 11 3 12 4 13 5 14 6 15 7 16 8 17 9 18 10 8 11 7 12
REMARK SMILES IDX 6 13 5 14 4 15 3 16 2 17 1 18
REMARK H PARENT
REMARK Flexibility Score: inf
ROOT
ATOM      1  C   UNL     1     -13.543  18.990 -14.658  1.00  0.00     0.000 C 
ENDROOT
BRANCH   1   2
ATOM      2  C   UNL     1     -12.215  19.020 -13.882  1.00  0.00     0.000 C 
BRANCH   2   3
ATOM      3  C   UNL     1     -12.342  19.735 -12.527  1.00  0.00     0.000 C 
BRANCH   3   4
ATOM      4  C   UNL     1     -13.356  19.055 -11.592  1.00  0.00     0.000 C 
BRANCH   4   5
ATOM      5  C   UNL     1     -12.724  17.944 -10.739  1.00  0.00     0.000 C 
BRANCH   5   6
ATOM      6  C   UNL     1     -12.731  18.325  -9.250  1.00  0.00     0.006 C 
BRANCH   6   7
ATOM      7  C   UNL     1     -13.361  19.703  -9.005  1.00  0.00     0.053 C 
BRANCH   7   8
ATOM      8  C   UNL     1     -12.710  20.416  -7.859  1.00  0.00     0.041 C 
ATOM      9  O   UNL     1     -11.898  21.354  -8.075  1.00  0.00    -0.550 OA
ATOM     10  O   UNL     1     -12.977  20.023  -6.553  1.00  0.00    -0.550 OA
ENDBRANCH   7   8
ENDBRANCH   6   7
ENDBRANCH   5   6
ENDBRANCH   4   5
ENDBRANCH   3   4
ENDBRANCH   2   3
ENDBRANCH   1   2
BRANCH   1  11
ATOM     11  C   UNL     1     -13.513  18.010 -15.844  1.00  0.00     0.000 C 
BRANCH  11  12
ATOM     12  C   UNL     1     -14.686  18.224 -16.814  1.00  0.00    -0.000 C 
BRANCH  12  13
ATOM     13  C   UNL     1     -14.282  18.030 -18.286  1.00  0.00    -0.000 C 
BRANCH  13  14
ATOM     14  C   UNL     1     -14.735  19.193 -19.188  1.00  0.00    -0.000 C 
BRANCH  14  15
ATOM     15  C   UNL     1     -13.661  19.709 -20.163  1.00  0.00    -0.000 C 
BRANCH  15  16
ATOM     16  C   UNL     1     -14.196  20.779 -21.129  1.00  0.00    -0.000 C 
BRANCH  16  17
ATOM     17  C   UNL     1     -13.921  20.434 -22.601  1.00  0.00    -0.003 C 
ATOM     18  C   UNL     1     -12.435  20.207 -22.884  1.00  0.00     0.004 C 
ENDBRANCH  16  17
ENDBRANCH  15  16
ENDBRANCH  14  15
ENDBRANCH  13  14
ENDBRANCH  12  13
ENDBRANCH  11  12
ENDBRANCH   1  11
TORSDOF 14
ENDMDL
MODEL 5
REMARK VINA RESULT:    10.170     12.777     15.712
REMARK INTER + INTRA:          18.234
REMARK INTER:                  19.000
REMARK INTRA:                  -0.765
REMARK UNBOUND:                -0.260
REMARK SMILES CCCCCCCCCCCCCCCC(=O)[O-]
REMARK SMILES IDX 9 1 10 2 11 3 12 4 13 5 14 6 15 7 16 8 17 9 18 10 8 11 7 12
REMARK SMILES IDX 6 13 5 14 4 15 3 16 2 17 1 18
REMARK H PARENT
REMARK Flexibility Score: inf
ROOT
ATOM      1  C   UNL     1      -7.184   7.092 -18.102  1.00  0.00     0.000 C 
ENDROOT
BRANCH   1   2
ATOM      2  C   UNL     1      -7.628   8.375 -18.824  1.00  0.00     0.000 C 
BRANCH   2   3
ATOM      3  C   UNL     1      -8.059   9.481 -17.847  1.00  0.00     0.000 C 
BRANCH   3   4
ATOM      4  C   UNL     1      -7.807  10.893 -18.403  1.00  0.00     0.000 C 
BRANCH   4   5
ATOM      5  C   UNL     1      -7.074  11.802 -17.405  1.00  0.00     0.000 C 
BRANCH   5   6
ATOM      6  C   UNL     1      -6.220  12.848 -18.140  1.00  0.00     0.006 C 
BRANCH   6   7
ATOM      7  C   UNL     1      -5.705  13.945 -17.198  1.00  0.00     0.053 C 
BRANCH   7   8
ATOM      8  C   UNL     1      -4.396  13.572 -16.573  1.00  0.00     0.041 C 
ATOM      9  O   UNL     1      -4.009  14.146 -15.521  1.00  0.00    -0.550 OA
ATOM     10  O   UNL     1      -3.588  12.611 -17.169  1.00  0.00    -0.550 OA
ENDBRANCH   7   8
ENDBRANCH   6   7
ENDBRANCH   5   6
ENDBRANCH   4   5
ENDBRANCH   3   4
ENDBRANCH   2   3
ENDBRANCH   1   2
BRANCH   1  11
ATOM     11  C   UNL     1      -7.215   5.856 -19.019  1.00  0.00     0.000 C 
BRANCH  11  12
ATOM     12  C   UNL     1      -8.640   5.486 -19.459  1.00  0.00    -0.000 C 
BRANCH  12  13
ATOM     13  C   UNL     1      -8.670   4.294 -20.432  1.00  0.00    -0.000 C 
BRANCH  13  14
ATOM     14  C   UNL     1      -9.349   4.634 -21.772  1.00  0.00    -0.000 C 
BRANCH  14  15
ATOM     15  C   UNL     1      -8.401   4.672 -22.983  1.00  0.00    -0.000 C 
BRANCH  15  16
ATOM     16  C   UNL     1      -7.559   3.393 -23.125  1.00  0.00    -0.000 C 
BRANCH  16  17
ATOM     17  C   UNL     1      -6.069   3.633 -22.837  1.00  0.00    -0.003 C 
ATOM     18  C   UNL     1      -5.643   5.078 -23.103  1.00  0.00     0.004 C 
ENDBRANCH  16  17
ENDBRANCH  15  16
ENDBRANCH  14  15
ENDBRANCH  13  14
ENDBRANCH  12  13
ENDBRANCH  11  12
ENDBRANCH   1  11
TORSDOF 14
ENDMDL
