MODEL 1
REMARK VINA RESULT:    -6.467      0.000      0.000
REMARK INTER + INTRA:         -10.668
REMARK INTER:                  -8.924
REMARK INTRA:                  -1.744
REMARK UNBOUND:                -1.744
REMARK SMILES CC[C@H](CC[C@H](C)[C@@H]1CC[C@@H]2[C@@H]3CC=C4C[C@H](O)CC[C@]4(C)[C@H]3CC[C@@]21C)C(C)C
REMARK SMILES IDX 5 1 4 2 3 3 2 4 1 5 28 6 29 7 30 8 6 9 7 10 8 11 9 12 26 13
REMARK SMILES IDX 10 14 11 15 25 16 27 17 12 18 24 19 23 20 13 21 21 22 14 23
REMARK SMILES IDX 15 24 20 25 22 26 16 27 19 28 17 29 18 30
REMARK H PARENT 18 31
REMARK Flexibility Score: inf
ROOT
ATOM      1  C   UNL     1     150.247 134.242 155.209  1.00  0.00     0.004 C 
ENDROOT
BRANCH   1   2
ATOM      2  C   UNL     1     148.734 133.955 155.320  1.00  0.00     0.004 C 
BRANCH   2   3
ATOM      3  C   UNL     1     148.393 132.436 155.277  1.00  0.00    -0.009 C 
BRANCH   3   4
ATOM      4  C   UNL     1     148.326 131.818 156.708  1.00  0.00     0.000 C 
ATOM      5  C   UNL     1     149.631 131.133 157.123  1.00  0.00     0.004 C 
ENDBRANCH   3   4
BRANCH   3   6
ATOM      6  C   UNL     1     147.075 132.144 154.487  1.00  0.00    -0.014 C 
ATOM      7  C   UNL     1     146.199 131.079 155.171  1.00  0.00     0.007 C 
ATOM      8  C   UNL     1     147.317 131.767 153.014  1.00  0.00     0.007 C 
ENDBRANCH   3   6
ENDBRANCH   2   3
ENDBRANCH   1   2
BRANCH   1   9
ATOM      9  C   UNL     1     150.948 133.523 154.007  1.00  0.00    -0.011 C 
ATOM     10  C   UNL     1     152.119 132.689 154.562  1.00  0.00     0.008 C 
BRANCH   9  11
ATOM     11  C   UNL     1     151.425 134.548 152.911  1.00  0.00    -0.002 C 
ATOM     12  C   UNL     1     151.222 136.006 153.355  1.00  0.00     0.005 C 
ATOM     13  C   UNL     1     150.778 134.488 151.485  1.00  0.00    -0.026 C 
ATOM     14  C   UNL     1     151.002 136.844 152.103  1.00  0.00     0.005 C 
ATOM     15  C   UNL     1     151.120 135.886 150.913  1.00  0.00    -0.001 C 
ATOM     16  C   UNL     1     149.232 134.312 151.570  1.00  0.00     0.007 C 
ATOM     17  C   UNL     1     151.426 133.394 150.592  1.00  0.00     0.012 C 
ATOM     18  C   UNL     1     150.313 136.300 149.638  1.00  0.00     0.000 C 
ATOM     19  C   UNL     1     148.532 134.599 150.241  1.00  0.00     0.005 C 
ATOM     20  C   UNL     1     148.790 136.047 149.761  1.00  0.00     0.003 C 
ATOM     21  C   UNL     1     150.580 137.768 149.264  1.00  0.00     0.031 C 
ATOM     22  C   UNL     1     148.019 136.406 148.424  1.00  0.00    -0.008 C 
ATOM     23  C   UNL     1     149.741 138.238 148.114  1.00  0.00    -0.027 C 
ATOM     24  C   UNL     1     148.522 137.734 147.829  1.00  0.00    -0.065 C 
ATOM     25  C   UNL     1     146.500 136.557 148.749  1.00  0.00     0.014 C 
ATOM     26  C   UNL     1     148.208 135.301 147.348  1.00  0.00     0.016 C 
ATOM     27  C   UNL     1     147.696 138.410 146.748  1.00  0.00     0.063 C 
ATOM     28  C   UNL     1     145.674 137.168 147.603  1.00  0.00     0.033 C 
ATOM     29  C   UNL     1     146.227 138.531 147.173  1.00  0.00     0.118 C 
BRANCH  29  30
ATOM     30  O   UNL     1     146.100 139.447 148.230  1.00  0.00    -0.393 OA
ATOM     31  H   UNL     1     145.682 138.960 148.986  1.00  0.00     0.210 HD
ENDBRANCH  29  30
ENDBRANCH   9  11
ENDBRANCH   1   9
TORSDOF 7
ENDMDL
MODEL 2
REMARK VINA RESULT:    -6.387      9.750     11.829
REMARK INTER + INTRA:         -10.558
REMARK INTER:                  -9.123
REMARK INTRA:                  -1.435
REMARK UNBOUND:                -1.744
REMARK SMILES CC[C@H](CC[C@H](C)[C@@H]1CC[C@@H]2[C@@H]3CC=C4C[C@H](O)CC[C@]4(C)[C@H]3CC[C@@]21C)C(C)C
REMARK SMILES IDX 5 1 4 2 3 3 2 4 1 5 28 6 29 7 30 8 6 9 7 10 8 11 9 12 26 13
REMARK SMILES IDX 10 14 11 15 25 16 27 17 12 18 24 19 23 20 13 21 21 22 14 23
REMARK SMILES IDX 15 24 20 25 22 26 16 27 19 28 17 29 18 30
REMARK H PARENT 18 31
REMARK Flexibility Score: inf
ROOT
ATOM      1  C   UNL     1     140.153 133.984 144.653  1.00  0.00     0.004 C 
ENDROOT
BRANCH   1   2
ATOM      2  C   UNL     1     139.231 134.425 145.811  1.00  0.00     0.004 C 
BRANCH   2   3
ATOM      3  C   UNL     1     137.946 133.554 145.935  1.00  0.00    -0.009 C 
BRANCH   3   4
ATOM      4  C   UNL     1     137.524 133.357 147.424  1.00  0.00     0.000 C 
ATOM      5  C   UNL     1     138.702 133.002 148.335  1.00  0.00     0.004 C 
ENDBRANCH   3   4
BRANCH   3   6
ATOM      6  C   UNL     1     136.757 134.127 145.096  1.00  0.00    -0.014 C 
ATOM      7  C   UNL     1     136.569 133.390 143.758  1.00  0.00     0.007 C 
ATOM      8  C   UNL     1     136.853 135.645 144.857  1.00  0.00     0.007 C 
ENDBRANCH   3   6
ENDBRANCH   2   3
ENDBRANCH   1   2
BRANCH   1   9
ATOM      9  C   UNL     1     140.122 134.938 143.411  1.00  0.00    -0.011 C 
ATOM     10  C   UNL     1     139.779 134.096 142.167  1.00  0.00     0.008 C 
BRANCH   9  11
ATOM     11  C   UNL     1     141.480 135.716 143.237  1.00  0.00    -0.002 C 
ATOM     12  C   UNL     1     142.357 135.639 144.498  1.00  0.00     0.005 C 
ATOM     13  C   UNL     1     141.438 137.244 142.892  1.00  0.00    -0.026 C 
ATOM     14  C   UNL     1     143.205 136.903 144.549  1.00  0.00     0.005 C 
ATOM     15  C   UNL     1     142.861 137.707 143.291  1.00  0.00    -0.001 C 
ATOM     16  C   UNL     1     140.375 137.992 143.751  1.00  0.00     0.007 C 
ATOM     17  C   UNL     1     141.221 137.497 141.374  1.00  0.00     0.012 C 
ATOM     18  C   UNL     1     143.048 139.256 143.416  1.00  0.00     0.000 C 
ATOM     19  C   UNL     1     140.541 139.511 143.706  1.00  0.00     0.005 C 
ATOM     20  C   UNL     1     141.929 139.950 144.231  1.00  0.00     0.003 C 
ATOM     21  C   UNL     1     144.427 139.604 144.001  1.00  0.00     0.031 C 
ATOM     22  C   UNL     1     142.111 141.523 144.269  1.00  0.00    -0.008 C 
ATOM     23  C   UNL     1     144.603 141.073 144.241  1.00  0.00    -0.027 C 
ATOM     24  C   UNL     1     143.580 141.910 144.515  1.00  0.00    -0.065 C 
ATOM     25  C   UNL     1     141.248 142.098 145.437  1.00  0.00     0.014 C 
ATOM     26  C   UNL     1     141.666 142.177 142.931  1.00  0.00     0.016 C 
ATOM     27  C   UNL     1     143.904 143.340 144.912  1.00  0.00     0.063 C 
ATOM     28  C   UNL     1     141.540 143.574 145.760  1.00  0.00     0.033 C 
ATOM     29  C   UNL     1     143.022 143.800 146.079  1.00  0.00     0.118 C 
BRANCH  29  30
ATOM     30  O   UNL     1     143.364 143.105 147.252  1.00  0.00    -0.393 OA
ATOM     31  H   UNL     1     144.337 143.235 147.391  1.00  0.00     0.210 HD
ENDBRANCH  29  30
ENDBRANCH   9  11
ENDBRANCH   1   9
TORSDOF 7
ENDMDL
MODEL 3
REMARK VINA RESULT:    -6.164      5.110      8.223
REMARK INTER + INTRA:         -10.250
REMARK INTER:                  -8.696
REMARK INTRA:                  -1.555
REMARK UNBOUND:                -1.744
REMARK SMILES CC[C@H](CC[C@H](C)[C@@H]1CC[C@@H]2[C@@H]3CC=C4C[C@H](O)CC[C@]4(C)[C@H]3CC[C@@]21C)C(C)C
REMARK SMILES IDX 5 1 4 2 3 3 2 4 1 5 28 6 29 7 30 8 6 9 7 10 8 11 9 12 26 13
REMARK SMILES IDX 10 14 11 15 25 16 27 17 12 18 24 19 23 20 13 21 21 22 14 23
REMARK SMILES IDX 15 24 20 25 22 26 16 27 19 28 17 29 18 30
REMARK H PARENT 18 31
REMARK Flexibility Score: inf
ROOT
ATOM      1  C   UNL     1     141.044 132.278 147.166  1.00  0.00     0.004 C 
ENDROOT
BRANCH   1   2
ATOM      2  C   UNL     1     139.748 131.809 147.864  1.00  0.00     0.004 C 
BRANCH   2   3
ATOM      3  C   UNL     1     138.880 132.987 148.398  1.00  0.00    -0.009 C 
BRANCH   3   4
ATOM      4  C   UNL     1     137.548 133.132 147.599  1.00  0.00     0.000 C 
ATOM      5  C   UNL     1     137.749 133.752 146.214  1.00  0.00     0.004 C 
ENDBRANCH   3   4
BRANCH   3   6
ATOM      6  C   UNL     1     138.594 132.866 149.931  1.00  0.00    -0.014 C 
ATOM      7  C   UNL     1     137.110 133.088 150.275  1.00  0.00     0.007 C 
ATOM      8  C   UNL     1     139.481 133.784 150.792  1.00  0.00     0.007 C 
ENDBRANCH   3   6
ENDBRANCH   2   3
ENDBRANCH   1   2
BRANCH   1   9
ATOM      9  C   UNL     1     142.328 132.157 148.054  1.00  0.00    -0.011 C 
ATOM     10  C   UNL     1     142.138 130.968 149.016  1.00  0.00     0.008 C 
BRANCH   9  11
ATOM     11  C   UNL     1     142.633 133.494 148.827  1.00  0.00    -0.002 C 
ATOM     12  C   UNL     1     141.981 134.713 148.153  1.00  0.00     0.005 C 
ATOM     13  C   UNL     1     144.125 133.924 149.037  1.00  0.00    -0.026 C 
ATOM     14  C   UNL     1     142.847 135.929 148.460  1.00  0.00     0.005 C 
ATOM     15  C   UNL     1     143.988 135.434 149.355  1.00  0.00    -0.001 C 
ATOM     16  C   UNL     1     144.961 133.730 147.735  1.00  0.00     0.007 C 
ATOM     17  C   UNL     1     144.781 133.201 150.246  1.00  0.00     0.012 C 
ATOM     18  C   UNL     1     145.315 136.258 149.263  1.00  0.00     0.000 C 
ATOM     19  C   UNL     1     146.307 134.453 147.784  1.00  0.00     0.005 C 
ATOM     20  C   UNL     1     146.129 135.978 147.977  1.00  0.00     0.003 C 
ATOM     21  C   UNL     1     145.043 137.765 149.404  1.00  0.00     0.031 C 
ATOM     22  C   UNL     1     147.500 136.772 147.957  1.00  0.00    -0.008 C 
ATOM     23  C   UNL     1     146.273 138.599 149.210  1.00  0.00    -0.027 C 
ATOM     24  C   UNL     1     147.313 138.222 148.436  1.00  0.00    -0.065 C 
ATOM     25  C   UNL     1     148.039 136.802 146.492  1.00  0.00     0.014 C 
ATOM     26  C   UNL     1     148.556 136.100 148.880  1.00  0.00     0.016 C 
ATOM     27  C   UNL     1     148.423 139.227 148.178  1.00  0.00     0.063 C 
ATOM     28  C   UNL     1     149.220 137.767 146.282  1.00  0.00     0.033 C 
ATOM     29  C   UNL     1     148.864 139.196 146.710  1.00  0.00     0.118 C 
BRANCH  29  30
ATOM     30  O   UNL     1     147.843 139.696 145.884  1.00  0.00    -0.393 OA
ATOM     31  H   UNL     1     146.983 139.488 146.330  1.00  0.00     0.210 HD
ENDBRANCH  29  30
ENDBRANCH   9  11
ENDBRANCH   1   9
TORSDOF 7
ENDMDL
MODEL 4
REMARK VINA RESULT:    -6.126      4.232      7.163
REMARK INTER + INTRA:         -10.198
REMARK INTER:                  -8.567
REMARK INTRA:                  -1.631
REMARK UNBOUND:                -1.744
REMARK SMILES CC[C@H](CC[C@H](C)[C@@H]1CC[C@@H]2[C@@H]3CC=C4C[C@H](O)CC[C@]4(C)[C@H]3CC[C@@]21C)C(C)C
REMARK SMILES IDX 5 1 4 2 3 3 2 4 1 5 28 6 29 7 30 8 6 9 7 10 8 11 9 12 26 13
REMARK SMILES IDX 10 14 11 15 25 16 27 17 12 18 24 19 23 20 13 21 21 22 14 23
REMARK SMILES IDX 15 24 20 25 22 26 16 27 19 28 17 29 18 30
REMARK H PARENT 18 31
REMARK Flexibility Score: inf
ROOT
ATOM      1  C   UNL     1     141.376 134.915 149.071  1.00  0.00     0.004 C 
ENDROOT
BRANCH   1   2
ATOM      2  C   UNL     1     140.371 133.786 149.387  1.00  0.00     0.004 C 
BRANCH   2   3
ATOM      3  C   UNL     1     140.435 133.308 150.868  1.00  0.00    -0.009 C 
BRANCH   3   4
ATOM      4  C   UNL     1     139.032 133.346 151.549  1.00  0.00     0.000 C 
ATOM      5  C   UNL     1     137.894 132.997 150.587  1.00  0.00     0.004 C 
ENDBRANCH   3   4
BRANCH   3   6
ATOM      6  C   UNL     1     141.076 131.888 151.006  1.00  0.00    -0.014 C 
ATOM      7  C   UNL     1     142.389 131.908 151.810  1.00  0.00     0.007 C 
ATOM      8  C   UNL     1     141.291 131.181 149.655  1.00  0.00     0.007 C 
ENDBRANCH   3   6
ENDBRANCH   2   3
ENDBRANCH   1   2
BRANCH   1   9
ATOM      9  C   UNL     1     142.315 134.614 147.855  1.00  0.00    -0.011 C 
ATOM     10  C   UNL     1     141.625 133.565 146.962  1.00  0.00     0.008 C 
BRANCH   9  11
ATOM     11  C   UNL     1     143.742 134.138 148.322  1.00  0.00    -0.002 C 
ATOM     12  C   UNL     1     144.040 134.546 149.775  1.00  0.00     0.005 C 
ATOM     13  C   UNL     1     145.000 134.620 147.522  1.00  0.00    -0.026 C 
ATOM     14  C   UNL     1     145.548 134.723 149.904  1.00  0.00     0.005 C 
ATOM     15  C   UNL     1     146.145 134.375 148.537  1.00  0.00    -0.001 C 
ATOM     16  C   UNL     1     144.909 136.138 147.180  1.00  0.00     0.007 C 
ATOM     17  C   UNL     1     145.250 133.765 146.249  1.00  0.00     0.012 C 
ATOM     18  C   UNL     1     147.498 135.084 148.199  1.00  0.00     0.000 C 
ATOM     19  C   UNL     1     146.246 136.722 146.722  1.00  0.00     0.005 C 
ATOM     20  C   UNL     1     147.337 136.574 147.810  1.00  0.00     0.003 C 
ATOM     21  C   UNL     1     148.504 134.941 149.354  1.00  0.00     0.031 C 
ATOM     22  C   UNL     1     148.717 137.234 147.401  1.00  0.00    -0.008 C 
ATOM     23  C   UNL     1     149.774 135.701 149.118  1.00  0.00    -0.027 C 
ATOM     24  C   UNL     1     149.842 136.820 148.366  1.00  0.00    -0.065 C 
ATOM     25  C   UNL     1     148.565 138.787 147.459  1.00  0.00     0.014 C 
ATOM     26  C   UNL     1     149.143 136.813 145.966  1.00  0.00     0.016 C 
ATOM     27  C   UNL     1     151.148 137.596 148.344  1.00  0.00     0.063 C 
ATOM     28  C   UNL     1     149.898 139.549 147.350  1.00  0.00     0.033 C 
ATOM     29  C   UNL     1     150.892 139.106 148.430  1.00  0.00     0.118 C 
BRANCH  29  30
ATOM     30  O   UNL     1     150.392 139.444 149.698  1.00  0.00    -0.393 OA
ATOM     31  H   UNL     1     150.526 140.420 149.811  1.00  0.00     0.210 HD
ENDBRANCH  29  30
ENDBRANCH   9  11
ENDBRANCH   1   9
TORSDOF 7
ENDMDL
MODEL 5
REMARK VINA RESULT:    -6.101      9.946     11.986
REMARK INTER + INTRA:         -10.164
REMARK INTER:                  -8.555
REMARK INTRA:                  -1.608
REMARK UNBOUND:                -1.744
REMARK SMILES CC[C@H](CC[C@H](C)[C@@H]1CC[C@@H]2[C@@H]3CC=C4C[C@H](O)CC[C@]4(C)[C@H]3CC[C@@]21C)C(C)C
REMARK SMILES IDX 5 1 4 2 3 3 2 4 1 5 28 6 29 7 30 8 6 9 7 10 8 11 9 12 26 13
REMARK SMILES IDX 10 14 11 15 25 16 27 17 12 18 24 19 23 20 13 21 21 22 14 23
REMARK SMILES IDX 15 24 20 25 22 26 16 27 19 28 17 29 18 30
REMARK H PARENT 18 31
REMARK Flexibility Score: inf
ROOT
ATOM      1  C   UNL     1     140.066 133.979 144.980  1.00  0.00     0.004 C 
ENDROOT
BRANCH   1   2
ATOM      2  C   UNL     1     138.939 134.390 145.951  1.00  0.00     0.004 C 
BRANCH   2   3
ATOM      3  C   UNL     1     137.569 133.728 145.615  1.00  0.00    -0.009 C 
BRANCH   3   4
ATOM      4  C   UNL     1     136.767 134.560 144.568  1.00  0.00     0.000 C 
ATOM      5  C   UNL     1     136.809 136.065 144.845  1.00  0.00     0.004 C 
ENDBRANCH   3   4
BRANCH   3   6
ATOM      6  C   UNL     1     137.727 132.247 145.139  1.00  0.00    -0.014 C 
ATOM      7  C   UNL     1     136.677 131.850 144.085  1.00  0.00     0.007 C 
ATOM      8  C   UNL     1     137.728 131.230 146.297  1.00  0.00     0.007 C 
ENDBRANCH   3   6
ENDBRANCH   2   3
ENDBRANCH   1   2
BRANCH   1   9
ATOM      9  C   UNL     1     140.083 134.787 143.639  1.00  0.00    -0.011 C 
ATOM     10  C   UNL     1     139.801 133.808 142.483  1.00  0.00     0.008 C 
BRANCH   9  11
ATOM     11  C   UNL     1     141.441 135.558 143.437  1.00  0.00    -0.002 C 
ATOM     12  C   UNL     1     142.310 135.540 144.706  1.00  0.00     0.005 C 
ATOM     13  C   UNL     1     141.400 137.068 143.022  1.00  0.00    -0.026 C 
ATOM     14  C   UNL     1     143.157 136.806 144.704  1.00  0.00     0.005 C 
ATOM     15  C   UNL     1     142.821 137.551 143.408  1.00  0.00    -0.001 C 
ATOM     16  C   UNL     1     140.332 137.854 143.840  1.00  0.00     0.007 C 
ATOM     17  C   UNL     1     141.192 137.252 141.493  1.00  0.00     0.012 C 
ATOM     18  C   UNL     1     143.005 139.104 143.463  1.00  0.00     0.000 C 
ATOM     19  C   UNL     1     140.497 139.370 143.726  1.00  0.00     0.005 C 
ATOM     20  C   UNL     1     141.882 139.833 144.239  1.00  0.00     0.003 C 
ATOM     21  C   UNL     1     144.381 139.480 144.039  1.00  0.00     0.031 C 
ATOM     22  C   UNL     1     142.063 141.407 144.206  1.00  0.00    -0.008 C 
ATOM     23  C   UNL     1     144.555 140.958 144.212  1.00  0.00    -0.027 C 
ATOM     24  C   UNL     1     143.530 141.805 144.442  1.00  0.00    -0.065 C 
ATOM     25  C   UNL     1     141.193 142.033 145.341  1.00  0.00     0.014 C 
ATOM     26  C   UNL     1     141.625 141.998 142.836  1.00  0.00     0.016 C 
ATOM     27  C   UNL     1     143.850 143.253 144.775  1.00  0.00     0.063 C 
ATOM     28  C   UNL     1     141.482 143.523 145.597  1.00  0.00     0.033 C 
ATOM     29  C   UNL     1     142.962 143.765 145.915  1.00  0.00     0.118 C 
BRANCH  29  30
ATOM     30  O   UNL     1     143.297 143.125 147.119  1.00  0.00    -0.393 OA
ATOM     31  H   UNL     1     143.555 143.835 147.762  1.00  0.00     0.210 HD
ENDBRANCH  29  30
ENDBRANCH   9  11
ENDBRANCH   1   9
TORSDOF 7
ENDMDL
MODEL 6
REMARK VINA RESULT:    -5.992      4.328      7.384
REMARK INTER + INTRA:         -10.013
REMARK INTER:                  -8.552
REMARK INTRA:                  -1.460
REMARK UNBOUND:                -1.744
REMARK SMILES CC[C@H](CC[C@H](C)[C@@H]1CC[C@@H]2[C@@H]3CC=C4C[C@H](O)CC[C@]4(C)[C@H]3CC[C@@]21C)C(C)C
REMARK SMILES IDX 5 1 4 2 3 3 2 4 1 5 28 6 29 7 30 8 6 9 7 10 8 11 9 12 26 13
REMARK SMILES IDX 10 14 11 15 25 16 27 17 12 18 24 19 23 20 13 21 21 22 14 23
REMARK SMILES IDX 15 24 20 25 22 26 16 27 19 28 17 29 18 30
REMARK H PARENT 18 31
REMARK Flexibility Score: inf
ROOT
ATOM      1  C   UNL     1     142.475 133.153 147.469  1.00  0.00     0.004 C 
ENDROOT
BRANCH   1   2
ATOM      2  C   UNL     1     141.267 132.331 147.971  1.00  0.00     0.004 C 
BRANCH   2   3
ATOM      3  C   UNL     1     140.069 133.218 148.422  1.00  0.00    -0.009 C 
BRANCH   3   4
ATOM      4  C   UNL     1     138.703 132.497 148.203  1.00  0.00     0.000 C 
ATOM      5  C   UNL     1     137.758 133.277 147.285  1.00  0.00     0.004 C 
ENDBRANCH   3   4
BRANCH   3   6
ATOM      6  C   UNL     1     140.209 133.697 149.904  1.00  0.00    -0.014 C 
ATOM      7  C   UNL     1     138.964 133.373 150.750  1.00  0.00     0.007 C 
ATOM      8  C   UNL     1     140.565 135.189 150.032  1.00  0.00     0.007 C 
ENDBRANCH   3   6
ENDBRANCH   2   3
ENDBRANCH   1   2
BRANCH   1   9
ATOM      9  C   UNL     1     143.764 132.994 148.343  1.00  0.00    -0.011 C 
ATOM     10  C   UNL     1     143.476 131.952 149.440  1.00  0.00     0.008 C 
BRANCH   9  11
ATOM     11  C   UNL     1     144.233 134.370 148.949  1.00  0.00    -0.002 C 
ATOM     12  C   UNL     1     143.564 135.567 148.253  1.00  0.00     0.005 C 
ATOM     13  C   UNL     1     145.760 134.723 148.935  1.00  0.00    -0.026 C 
ATOM     14  C   UNL     1     144.523 136.747 148.340  1.00  0.00     0.005 C 
ATOM     15  C   UNL     1     145.741 136.259 149.130  1.00  0.00    -0.001 C 
ATOM     16  C   UNL     1     146.412 134.369 147.565  1.00  0.00     0.007 C 
ATOM     17  C   UNL     1     146.526 134.063 150.115  1.00  0.00     0.012 C 
ATOM     18  C   UNL     1     147.086 136.989 148.803  1.00  0.00     0.000 C 
ATOM     19  C   UNL     1     147.789 135.009 147.383  1.00  0.00     0.005 C 
ATOM     20  C   UNL     1     147.715 136.553 147.457  1.00  0.00     0.003 C 
ATOM     21  C   UNL     1     146.912 138.517 148.839  1.00  0.00     0.031 C 
ATOM     22  C   UNL     1     149.111 137.256 147.199  1.00  0.00    -0.008 C 
ATOM     23  C   UNL     1     148.149 139.254 148.423  1.00  0.00    -0.027 C 
ATOM     24  C   UNL     1     149.060 138.750 147.564  1.00  0.00    -0.065 C 
ATOM     25  C   UNL     1     149.461 137.131 145.683  1.00  0.00     0.014 C 
ATOM     26  C   UNL     1     150.240 136.599 148.043  1.00  0.00     0.016 C 
ATOM     27  C   UNL     1     150.179 139.659 147.083  1.00  0.00     0.063 C 
ATOM     28  C   UNL     1     150.652 138.000 145.243  1.00  0.00     0.033 C 
ATOM     29  C   UNL     1     150.428 139.479 145.581  1.00  0.00     0.118 C 
BRANCH  29  30
ATOM     30  O   UNL     1     149.337 139.971 144.844  1.00  0.00    -0.393 OA
ATOM     31  H   UNL     1     148.725 140.407 145.491  1.00  0.00     0.210 HD
ENDBRANCH  29  30
ENDBRANCH   9  11
ENDBRANCH   1   9
TORSDOF 7
ENDMDL
MODEL 7
REMARK VINA RESULT:    -5.862      4.911      8.599
REMARK INTER + INTRA:          -9.834
REMARK INTER:                  -8.336
REMARK INTRA:                  -1.498
REMARK UNBOUND:                -1.744
REMARK SMILES CC[C@H](CC[C@H](C)[C@@H]1CC[C@@H]2[C@@H]3CC=C4C[C@H](O)CC[C@]4(C)[C@H]3CC[C@@]21C)C(C)C
REMARK SMILES IDX 5 1 4 2 3 3 2 4 1 5 28 6 29 7 30 8 6 9 7 10 8 11 9 12 26 13
REMARK SMILES IDX 10 14 11 15 25 16 27 17 12 18 24 19 23 20 13 21 21 22 14 23
REMARK SMILES IDX 15 24 20 25 22 26 16 27 19 28 17 29 18 30
REMARK H PARENT 18 31
REMARK Flexibility Score: inf
ROOT
ATOM      1  C   UNL     1     147.851 135.198 147.511  1.00  0.00     0.004 C 
ENDROOT
BRANCH   1   2
ATOM      2  C   UNL     1     149.324 135.646 147.393  1.00  0.00     0.004 C 
BRANCH   2   3
ATOM      3  C   UNL     1     150.031 135.795 148.773  1.00  0.00    -0.009 C 
BRANCH   3   4
ATOM      4  C   UNL     1     149.469 137.004 149.583  1.00  0.00     0.000 C 
ATOM      5  C   UNL     1     149.718 138.348 148.894  1.00  0.00     0.004 C 
ENDBRANCH   3   4
BRANCH   3   6
ATOM      6  C   UNL     1     149.960 134.482 149.621  1.00  0.00    -0.014 C 
ATOM      7  C   UNL     1     149.113 134.647 150.896  1.00  0.00     0.007 C 
ATOM      8  C   UNL     1     151.345 133.908 149.974  1.00  0.00     0.007 C 
ENDBRANCH   3   6
ENDBRANCH   2   3
ENDBRANCH   1   2
BRANCH   1   9
ATOM      9  C   UNL     1     146.865 135.995 146.592  1.00  0.00    -0.011 C 
ATOM     10  C   UNL     1     147.601 137.240 146.061  1.00  0.00     0.008 C 
BRANCH   9  11
ATOM     11  C   UNL     1     145.538 136.378 147.350  1.00  0.00    -0.002 C 
ATOM     12  C   UNL     1     145.667 136.191 148.871  1.00  0.00     0.005 C 
ATOM     13  C   UNL     1     144.212 135.627 146.983  1.00  0.00    -0.026 C 
ATOM     14  C   UNL     1     144.282 135.868 149.416  1.00  0.00     0.005 C 
ATOM     15  C   UNL     1     143.325 135.909 148.221  1.00  0.00    -0.001 C 
ATOM     16  C   UNL     1     144.449 134.094 146.837  1.00  0.00     0.007 C 
ATOM     17  C   UNL     1     143.534 136.220 145.716  1.00  0.00     0.012 C 
ATOM     18  C   UNL     1     142.054 135.005 148.349  1.00  0.00     0.000 C 
ATOM     19  C   UNL     1     143.146 133.293 146.830  1.00  0.00     0.005 C 
ATOM     20  C   UNL     1     142.343 133.499 148.137  1.00  0.00     0.003 C 
ATOM     21  C   UNL     1     141.350 135.226 149.698  1.00  0.00     0.031 C 
ATOM     22  C   UNL     1     141.023 132.626 148.198  1.00  0.00    -0.008 C 
ATOM     23  C   UNL     1     140.191 134.298 149.910  1.00  0.00    -0.027 C 
ATOM     24  C   UNL     1     140.115 133.068 149.361  1.00  0.00    -0.065 C 
ATOM     25  C   UNL     1     141.420 131.133 148.424  1.00  0.00     0.014 C 
ATOM     26  C   UNL     1     140.202 132.747 146.883  1.00  0.00     0.016 C 
ATOM     27  C   UNL     1     138.978 132.155 149.788  1.00  0.00     0.063 C 
ATOM     28  C   UNL     1     140.233 130.218 148.772  1.00  0.00     0.033 C 
ATOM     29  C   UNL     1     139.475 130.721 150.006  1.00  0.00     0.118 C 
BRANCH  29  30
ATOM     30  O   UNL     1     140.313 130.662 151.132  1.00  0.00    -0.393 OA
ATOM     31  H   UNL     1     141.077 130.076 150.893  1.00  0.00     0.210 HD
ENDBRANCH  29  30
ENDBRANCH   9  11
ENDBRANCH   1   9
TORSDOF 7
ENDMDL
MODEL 8
REMARK VINA RESULT:    -5.761      7.088      9.115
REMARK INTER + INTRA:          -9.695
REMARK INTER:                  -8.020
REMARK INTRA:                  -1.675
REMARK UNBOUND:                -1.744
REMARK SMILES CC[C@H](CC[C@H](C)[C@@H]1CC[C@@H]2[C@@H]3CC=C4C[C@H](O)CC[C@]4(C)[C@H]3CC[C@@]21C)C(C)C
REMARK SMILES IDX 5 1 4 2 3 3 2 4 1 5 28 6 29 7 30 8 6 9 7 10 8 11 9 12 26 13
REMARK SMILES IDX 10 14 11 15 25 16 27 17 12 18 24 19 23 20 13 21 21 22 14 23
REMARK SMILES IDX 15 24 20 25 22 26 16 27 19 28 17 29 18 30
REMARK H PARENT 18 31
REMARK Flexibility Score: inf
ROOT
ATOM      1  C   UNL     1     141.731 133.373 150.118  1.00  0.00     0.004 C 
ENDROOT
BRANCH   1   2
ATOM      2  C   UNL     1     140.278 133.883 150.007  1.00  0.00     0.004 C 
BRANCH   2   3
ATOM      3  C   UNL     1     139.273 132.778 149.568  1.00  0.00    -0.009 C 
BRANCH   3   4
ATOM      4  C   UNL     1     139.126 131.666 150.653  1.00  0.00     0.000 C 
ATOM      5  C   UNL     1     139.504 130.276 150.137  1.00  0.00     0.004 C 
ENDBRANCH   3   4
BRANCH   3   6
ATOM      6  C   UNL     1     137.874 133.364 149.186  1.00  0.00    -0.014 C 
ATOM      7  C   UNL     1     136.739 132.805 150.062  1.00  0.00     0.007 C 
ATOM      8  C   UNL     1     137.527 133.194 147.695  1.00  0.00     0.007 C 
ENDBRANCH   3   6
ENDBRANCH   2   3
ENDBRANCH   1   2
BRANCH   1   9
ATOM      9  C   UNL     1     142.277 132.708 148.809  1.00  0.00    -0.011 C 
ATOM     10  C   UNL     1     142.928 131.364 149.188  1.00  0.00     0.008 C 
BRANCH   9  11
ATOM     11  C   UNL     1     143.281 133.652 148.048  1.00  0.00    -0.002 C 
ATOM     12  C   UNL     1     143.600 134.925 148.851  1.00  0.00     0.005 C 
ATOM     13  C   UNL     1     142.892 134.183 146.626  1.00  0.00    -0.026 C 
ATOM     14  C   UNL     1     143.922 136.031 147.855  1.00  0.00     0.005 C 
ATOM     15  C   UNL     1     143.838 135.399 146.462  1.00  0.00    -0.001 C 
ATOM     16  C   UNL     1     141.408 134.657 146.583  1.00  0.00     0.007 C 
ATOM     17  C   UNL     1     143.189 133.144 145.509  1.00  0.00     0.012 C 
ATOM     18  C   UNL     1     143.466 136.381 145.302  1.00  0.00     0.000 C 
ATOM     19  C   UNL     1     141.090 135.495 145.344  1.00  0.00     0.005 C 
ATOM     20  C   UNL     1     141.967 136.769 145.277  1.00  0.00     0.003 C 
ATOM     21  C   UNL     1     144.341 137.645 145.343  1.00  0.00     0.031 C 
ATOM     22  C   UNL     1     141.615 137.701 144.046  1.00  0.00    -0.008 C 
ATOM     23  C   UNL     1     143.943 138.663 144.318  1.00  0.00    -0.027 C 
ATOM     24  C   UNL     1     142.684 138.791 143.848  1.00  0.00    -0.065 C 
ATOM     25  C   UNL     1     140.246 138.398 144.322  1.00  0.00     0.014 C 
ATOM     26  C   UNL     1     141.520 136.885 142.726  1.00  0.00     0.016 C 
ATOM     27  C   UNL     1     142.367 139.971 142.944  1.00  0.00     0.063 C 
ATOM     28  C   UNL     1     139.914 139.534 143.338  1.00  0.00     0.033 C 
ATOM     29  C   UNL     1     141.017 140.599 143.311  1.00  0.00     0.118 C 
BRANCH  29  30
ATOM     30  O   UNL     1     141.097 141.227 144.566  1.00  0.00    -0.393 OA
ATOM     31  H   UNL     1     140.361 141.891 144.604  1.00  0.00     0.210 HD
ENDBRANCH  29  30
ENDBRANCH   9  11
ENDBRANCH   1   9
TORSDOF 7
ENDMDL
MODEL 9
REMARK VINA RESULT:    -5.727      8.834     11.887
REMARK INTER + INTRA:          -9.648
REMARK INTER:                  -7.192
REMARK INTRA:                  -2.456
REMARK UNBOUND:                -1.744
REMARK SMILES CC[C@H](CC[C@H](C)[C@@H]1CC[C@@H]2[C@@H]3CC=C4C[C@H](O)CC[C@]4(C)[C@H]3CC[C@@]21C)C(C)C
REMARK SMILES IDX 5 1 4 2 3 3 2 4 1 5 28 6 29 7 30 8 6 9 7 10 8 11 9 12 26 13
REMARK SMILES IDX 10 14 11 15 25 16 27 17 12 18 24 19 23 20 13 21 21 22 14 23
REMARK SMILES IDX 15 24 20 25 22 26 16 27 19 28 17 29 18 30
REMARK H PARENT 18 31
REMARK Flexibility Score: inf
ROOT
ATOM      1  C   UNL     1     141.395 131.802 151.397  1.00  0.00     0.004 C 
ENDROOT
BRANCH   1   2
ATOM      2  C   UNL     1     142.761 132.179 150.783  1.00  0.00     0.004 C 
BRANCH   2   3
ATOM      3  C   UNL     1     142.658 132.644 149.300  1.00  0.00    -0.009 C 
BRANCH   3   4
ATOM      4  C   UNL     1     143.358 134.021 149.076  1.00  0.00     0.000 C 
ATOM      5  C   UNL     1     142.369 135.188 149.013  1.00  0.00     0.004 C 
ENDBRANCH   3   4
BRANCH   3   6
ATOM      6  C   UNL     1     143.213 131.575 148.302  1.00  0.00    -0.014 C 
ATOM      7  C   UNL     1     142.370 131.470 147.019  1.00  0.00     0.007 C 
ATOM      8  C   UNL     1     143.391 130.183 148.936  1.00  0.00     0.007 C 
ENDBRANCH   3   6
ENDBRANCH   2   3
ENDBRANCH   1   2
BRANCH   1   9
ATOM      9  C   UNL     1     140.201 132.675 150.885  1.00  0.00    -0.011 C 
ATOM     10  C   UNL     1     139.572 133.388 152.099  1.00  0.00     0.008 C 
BRANCH   9  11
ATOM     11  C   UNL     1     139.143 131.816 150.097  1.00  0.00    -0.002 C 
ATOM     12  C   UNL     1     139.760 130.537 149.507  1.00  0.00     0.005 C 
ATOM     13  C   UNL     1     138.385 132.468 148.890  1.00  0.00    -0.026 C 
ATOM     14  C   UNL     1     138.975 130.181 148.251  1.00  0.00     0.005 C 
ATOM     15  C   UNL     1     137.862 131.227 148.125  1.00  0.00    -0.001 C 
ATOM     16  C   UNL     1     139.357 133.281 147.983  1.00  0.00     0.007 C 
ATOM     17  C   UNL     1     137.180 133.334 149.352  1.00  0.00     0.012 C 
ATOM     18  C   UNL     1     137.367 131.503 146.666  1.00  0.00     0.000 C 
ATOM     19  C   UNL     1     138.743 133.633 146.627  1.00  0.00     0.005 C 
ATOM     20  C   UNL     1     138.347 132.365 145.833  1.00  0.00     0.003 C 
ATOM     21  C   UNL     1     137.053 130.191 145.929  1.00  0.00     0.031 C 
ATOM     22  C   UNL     1     137.776 132.686 144.391  1.00  0.00    -0.008 C 
ATOM     23  C   UNL     1     136.682 130.404 144.492  1.00  0.00    -0.027 C 
ATOM     24  C   UNL     1     137.131 131.442 143.755  1.00  0.00    -0.065 C 
ATOM     25  C   UNL     1     138.955 133.151 143.479  1.00  0.00     0.014 C 
ATOM     26  C   UNL     1     136.697 133.805 144.445  1.00  0.00     0.016 C 
ATOM     27  C   UNL     1     136.828 131.455 142.266  1.00  0.00     0.063 C 
ATOM     28  C   UNL     1     138.593 133.235 141.985  1.00  0.00     0.033 C 
ATOM     29  C   UNL     1     138.053 131.900 141.459  1.00  0.00     0.118 C 
BRANCH  29  30
ATOM     30  O   UNL     1     139.062 130.924 141.526  1.00  0.00    -0.393 OA
ATOM     31  H   UNL     1     139.326 130.718 140.593  1.00  0.00     0.210 HD
ENDBRANCH  29  30
ENDBRANCH   9  11
ENDBRANCH   1   9
TORSDOF 7
ENDMDL
