MODEL 1
REMARK VINA RESULT:    -5.489      0.000      0.000
REMARK INTER + INTRA:          -6.440
REMARK INTER:                  -6.291
REMARK INTRA:                  -0.149
REMARK UNBOUND:                -0.149
REMARK SMILES O=C([O-])C=Cc1ccc(O)cc1
REMARK SMILES IDX 6 1 7 2 12 3 8 4 11 5 9 6 5 7 4 8 2 9 1 10 3 11 10 12
REMARK H PARENT 10 13
REMARK Flexibility Score: inf
ROOT
ATOM      1  C   UNL     1      10.585   9.453  13.454  1.00  0.00    -0.025 A 
ATOM      2  C   UNL     1      10.205   9.921  14.724  1.00  0.00     0.012 A 
ATOM      3  C   UNL     1       9.591   8.956  12.587  1.00  0.00     0.012 A 
ATOM      4  C   UNL     1       8.862   9.916  15.110  1.00  0.00     0.047 A 
ATOM      5  C   UNL     1       8.248   8.953  12.978  1.00  0.00     0.047 A 
ATOM      6  C   UNL     1       7.880   9.434  14.237  1.00  0.00     0.115 A 
ENDROOT
BRANCH   1   7
ATOM      7  C   UNL     1      12.025   9.469  13.094  1.00  0.00     0.010 C 
ATOM      8  C   UNL     1      13.019   9.440  13.992  1.00  0.00     0.025 C 
BRANCH   8   9
ATOM      9  C   UNL     1      14.433   9.446  13.589  1.00  0.00     0.064 C 
ATOM     10  O   UNL     1      15.043  10.541  13.474  1.00  0.00    -0.545 OA
ATOM     11  O   UNL     1      15.110   8.260  13.330  1.00  0.00    -0.545 OA
ENDBRANCH   8   9
ENDBRANCH   1   7
BRANCH   6  12
ATOM     12  O   UNL     1       6.538   9.425  14.612  1.00  0.00    -0.508 OA
ATOM     13  H   UNL     1       5.900  10.155  14.316  1.00  0.00     0.293 HD
ENDBRANCH   6  12
TORSDOF 3
ENDMDL
MODEL 2
REMARK VINA RESULT:    -5.433      0.112      1.400
REMARK INTER + INTRA:          -6.376
REMARK INTER:                  -6.237
REMARK INTRA:                  -0.139
REMARK UNBOUND:                -0.149
REMARK SMILES O=C([O-])C=Cc1ccc(O)cc1
REMARK SMILES IDX 6 1 7 2 12 3 8 4 11 5 9 6 5 7 4 8 2 9 1 10 3 11 10 12
REMARK H PARENT 10 13
REMARK Flexibility Score: inf
ROOT
ATOM      1  C   UNL     1      10.617   9.404  13.580  1.00  0.00    -0.025 A 
ATOM      2  C   UNL     1       9.641   9.015  12.648  1.00  0.00     0.012 A 
ATOM      3  C   UNL     1      10.206   9.805  14.868  1.00  0.00     0.012 A 
ATOM      4  C   UNL     1       8.288   9.002  12.998  1.00  0.00     0.047 A 
ATOM      5  C   UNL     1       8.851   9.791  15.214  1.00  0.00     0.047 A 
ATOM      6  C   UNL     1       7.890   9.388  14.283  1.00  0.00     0.115 A 
ENDROOT
BRANCH   1   7
ATOM      7  C   UNL     1      12.040   9.412  13.157  1.00  0.00     0.010 C 
ATOM      8  C   UNL     1      13.072   9.460  14.012  1.00  0.00     0.025 C 
BRANCH   8   9
ATOM      9  C   UNL     1      14.467   9.454  13.548  1.00  0.00     0.064 C 
ATOM     10  O   UNL     1      15.046  10.545  13.303  1.00  0.00    -0.545 OA
ATOM     11  O   UNL     1      15.160   8.262  13.374  1.00  0.00    -0.545 OA
ENDBRANCH   8   9
ENDBRANCH   1   7
BRANCH   6  12
ATOM     12  O   UNL     1       6.544   9.378  14.644  1.00  0.00    -0.508 OA
ATOM     13  H   UNL     1       6.185   9.987  15.369  1.00  0.00     0.293 HD
ENDBRANCH   6  12
TORSDOF 3
ENDMDL
MODEL 3
REMARK VINA RESULT:    -4.979      1.809      2.643
REMARK INTER + INTRA:          -5.856
REMARK INTER:                  -5.722
REMARK INTRA:                  -0.134
REMARK UNBOUND:                -0.149
REMARK SMILES O=C([O-])C=Cc1ccc(O)cc1
REMARK SMILES IDX 6 1 7 2 12 3 8 4 11 5 9 6 5 7 4 8 2 9 1 10 3 11 10 12
REMARK H PARENT 10 13
REMARK Flexibility Score: inf
ROOT
ATOM      1  C   UNL     1      12.010  10.219  13.548  1.00  0.00    -0.025 A 
ATOM      2  C   UNL     1      10.941   9.363  13.864  1.00  0.00     0.012 A 
ATOM      3  C   UNL     1      11.988  11.543  14.034  1.00  0.00     0.012 A 
ATOM      4  C   UNL     1       9.886   9.809  14.666  1.00  0.00     0.047 A 
ATOM      5  C   UNL     1      10.931  11.984  14.836  1.00  0.00     0.047 A 
ATOM      6  C   UNL     1       9.880  11.120  15.155  1.00  0.00     0.115 A 
ENDROOT
BRANCH   1   7
ATOM      7  C   UNL     1      13.102   9.702  12.685  1.00  0.00     0.010 C 
ATOM      8  C   UNL     1      14.160   9.022  13.148  1.00  0.00     0.025 C 
BRANCH   8   9
ATOM      9  C   UNL     1      15.213   8.519  12.253  1.00  0.00     0.064 C 
ATOM     10  O   UNL     1      15.526   7.301  12.285  1.00  0.00    -0.545 OA
ATOM     11  O   UNL     1      15.872   9.369  11.371  1.00  0.00    -0.545 OA
ENDBRANCH   8   9
ENDBRANCH   1   7
BRANCH   6  12
ATOM     12  O   UNL     1       8.834  11.575  15.956  1.00  0.00    -0.508 OA
ATOM     13  H   UNL     1       8.604  12.560  16.018  1.00  0.00     0.293 HD
ENDBRANCH   6  12
TORSDOF 3
ENDMDL
MODEL 4
REMARK VINA RESULT:    -4.728      1.621      5.884
REMARK INTER + INTRA:          -5.567
REMARK INTER:                  -5.431
REMARK INTRA:                  -0.136
REMARK UNBOUND:                -0.149
REMARK SMILES O=C([O-])C=Cc1ccc(O)cc1
REMARK SMILES IDX 6 1 7 2 12 3 8 4 11 5 9 6 5 7 4 8 2 9 1 10 3 11 10 12
REMARK H PARENT 10 13
REMARK Flexibility Score: inf
ROOT
ATOM      1  C   UNL     1      12.578   9.819  13.103  1.00  0.00    -0.025 A 
ATOM      2  C   UNL     1      12.792   9.720  11.717  1.00  0.00     0.012 A 
ATOM      3  C   UNL     1      13.584   9.364  13.980  1.00  0.00     0.012 A 
ATOM      4  C   UNL     1      13.991   9.204  11.218  1.00  0.00     0.047 A 
ATOM      5  C   UNL     1      14.782   8.848  13.476  1.00  0.00     0.047 A 
ATOM      6  C   UNL     1      14.990   8.768  12.097  1.00  0.00     0.115 A 
ENDROOT
BRANCH   1   7
ATOM      7  C   UNL     1      11.284  10.365  13.584  1.00  0.00     0.010 C 
ATOM      8  C   UNL     1      10.383   9.650  14.272  1.00  0.00     0.025 C 
BRANCH   8   9
ATOM      9  C   UNL     1       9.117  10.236  14.738  1.00  0.00     0.064 C 
ATOM     10  O   UNL     1       9.138  11.268  15.459  1.00  0.00    -0.545 OA
ATOM     11  O   UNL     1       7.895   9.669  14.398  1.00  0.00    -0.545 OA
ENDBRANCH   8   9
ENDBRANCH   1   7
BRANCH   6  12
ATOM     12  O   UNL     1      16.189   8.252  11.611  1.00  0.00    -0.508 OA
ATOM     13  H   UNL     1      17.074   8.712  11.788  1.00  0.00     0.293 HD
ENDBRANCH   6  12
TORSDOF 3
ENDMDL
MODEL 5
REMARK VINA RESULT:    -4.649      1.415      5.853
REMARK INTER + INTRA:          -5.477
REMARK INTER:                  -5.338
REMARK INTRA:                  -0.139
REMARK UNBOUND:                -0.149
REMARK SMILES O=C([O-])C=Cc1ccc(O)cc1
REMARK SMILES IDX 6 1 7 2 12 3 8 4 11 5 9 6 5 7 4 8 2 9 1 10 3 11 10 12
REMARK H PARENT 10 13
REMARK Flexibility Score: inf
ROOT
ATOM      1  C   UNL     1      12.491   9.905  13.405  1.00  0.00    -0.025 A 
ATOM      2  C   UNL     1      13.491  10.231  14.338  1.00  0.00     0.012 A 
ATOM      3  C   UNL     1      12.863   9.658  12.068  1.00  0.00     0.012 A 
ATOM      4  C   UNL     1      14.833  10.284  13.951  1.00  0.00     0.047 A 
ATOM      5  C   UNL     1      14.208   9.712  11.686  1.00  0.00     0.047 A 
ATOM      6  C   UNL     1      15.195  10.023  12.625  1.00  0.00     0.115 A 
ENDROOT
BRANCH   1   7
ATOM      7  C   UNL     1      11.079   9.871  13.861  1.00  0.00     0.010 C 
ATOM      8  C   UNL     1      10.110   9.189  13.235  1.00  0.00     0.025 C 
BRANCH   8   9
ATOM      9  C   UNL     1       8.725   9.175  13.730  1.00  0.00     0.064 C 
ATOM     10  O   UNL     1       7.775   9.034  12.916  1.00  0.00    -0.545 OA
ATOM     11  O   UNL     1       8.445   9.316  15.085  1.00  0.00    -0.545 OA
ENDBRANCH   8   9
ENDBRANCH   1   7
BRANCH   6  12
ATOM     12  O   UNL     1      16.530  10.073  12.229  1.00  0.00    -0.508 OA
ATOM     13  H   UNL     1      17.282  10.113  12.906  1.00  0.00     0.293 HD
ENDBRANCH   6  12
TORSDOF 3
ENDMDL
MODEL 6
REMARK VINA RESULT:    -4.405      5.057      7.030
REMARK INTER + INTRA:          -5.197
REMARK INTER:                  -5.057
REMARK INTRA:                  -0.140
REMARK UNBOUND:                -0.149
REMARK SMILES O=C([O-])C=Cc1ccc(O)cc1
REMARK SMILES IDX 6 1 7 2 12 3 8 4 11 5 9 6 5 7 4 8 2 9 1 10 3 11 10 12
REMARK H PARENT 10 13
REMARK Flexibility Score: inf
ROOT
ATOM      1  C   UNL     1      15.631   5.844  12.727  1.00  0.00    -0.025 A 
ATOM      2  C   UNL     1      16.180   5.589  13.995  1.00  0.00     0.012 A 
ATOM      3  C   UNL     1      15.192   4.756  11.945  1.00  0.00     0.012 A 
ATOM      4  C   UNL     1      16.266   4.281  14.483  1.00  0.00     0.047 A 
ATOM      5  C   UNL     1      15.281   3.450  12.437  1.00  0.00     0.047 A 
ATOM      6  C   UNL     1      15.815   3.209  13.705  1.00  0.00     0.115 A 
ENDROOT
BRANCH   1   7
ATOM      7  C   UNL     1      15.570   7.248  12.249  1.00  0.00     0.010 C 
ATOM      8  C   UNL     1      14.974   8.240  12.925  1.00  0.00     0.025 C 
BRANCH   8   9
ATOM      9  C   UNL     1      14.948   9.620  12.417  1.00  0.00     0.064 C 
ATOM     10  O   UNL     1      13.850  10.145  12.100  1.00  0.00    -0.545 OA
ATOM     11  O   UNL     1      16.120  10.357  12.281  1.00  0.00    -0.545 OA
ENDBRANCH   8   9
ENDBRANCH   1   7
BRANCH   6  12
ATOM     12  O   UNL     1      15.895   1.902  14.182  1.00  0.00    -0.508 OA
ATOM     13  H   UNL     1      15.516   1.123  13.657  1.00  0.00     0.293 HD
ENDBRANCH   6  12
TORSDOF 3
ENDMDL
MODEL 7
REMARK VINA RESULT:    -4.180     11.892     13.491
REMARK INTER + INTRA:          -4.939
REMARK INTER:                  -4.787
REMARK INTRA:                  -0.152
REMARK UNBOUND:                -0.149
REMARK SMILES O=C([O-])C=Cc1ccc(O)cc1
REMARK SMILES IDX 6 1 7 2 12 3 8 4 11 5 9 6 5 7 4 8 2 9 1 10 3 11 10 12
REMARK H PARENT 10 13
REMARK Flexibility Score: inf
ROOT
ATOM      1  C   UNL     1       4.744   6.343  24.491  1.00  0.00    -0.025 A 
ATOM      2  C   UNL     1       3.950   7.110  23.622  1.00  0.00     0.012 A 
ATOM      3  C   UNL     1       5.104   5.035  24.106  1.00  0.00     0.012 A 
ATOM      4  C   UNL     1       3.546   6.596  22.387  1.00  0.00     0.047 A 
ATOM      5  C   UNL     1       4.697   4.524  22.869  1.00  0.00     0.047 A 
ATOM      6  C   UNL     1       3.920   5.302  22.007  1.00  0.00     0.115 A 
ENDROOT
BRANCH   1   7
ATOM      7  C   UNL     1       5.140   6.929  25.796  1.00  0.00     0.010 C 
ATOM      8  C   UNL     1       4.786   8.157  26.199  1.00  0.00     0.025 C 
BRANCH   8   9
ATOM      9  C   UNL     1       5.192   8.694  27.506  1.00  0.00     0.064 C 
ATOM     10  O   UNL     1       4.700   8.209  28.558  1.00  0.00    -0.545 OA
ATOM     11  O   UNL     1       6.112   9.732  27.601  1.00  0.00    -0.545 OA
ENDBRANCH   8   9
ENDBRANCH   1   7
BRANCH   6  12
ATOM     12  O   UNL     1       3.523   4.779  20.778  1.00  0.00    -0.508 OA
ATOM     13  H   UNL     1       4.032   4.982  19.926  1.00  0.00     0.293 HD
ENDBRANCH   6  12
TORSDOF 3
ENDMDL
MODEL 8
REMARK VINA RESULT:    -4.166     16.017     16.802
REMARK INTER + INTRA:          -4.924
REMARK INTER:                  -4.784
REMARK INTRA:                  -0.140
REMARK UNBOUND:                -0.149
REMARK SMILES O=C([O-])C=Cc1ccc(O)cc1
REMARK SMILES IDX 6 1 7 2 12 3 8 4 11 5 9 6 5 7 4 8 2 9 1 10 3 11 10 12
REMARK H PARENT 10 13
REMARK Flexibility Score: inf
ROOT
ATOM      1  C   UNL     1      17.423  -5.620  16.658  1.00  0.00    -0.025 A 
ATOM      2  C   UNL     1      17.012  -6.736  15.910  1.00  0.00     0.012 A 
ATOM      3  C   UNL     1      16.453  -4.884  17.370  1.00  0.00     0.012 A 
ATOM      4  C   UNL     1      15.669  -7.125  15.892  1.00  0.00     0.047 A 
ATOM      5  C   UNL     1      15.111  -5.277  17.349  1.00  0.00     0.047 A 
ATOM      6  C   UNL     1      14.716  -6.397  16.613  1.00  0.00     0.115 A 
ENDROOT
BRANCH   1   7
ATOM      7  C   UNL     1      18.858  -5.241  16.637  1.00  0.00     0.010 C 
ATOM      8  C   UNL     1      19.542  -4.851  17.722  1.00  0.00     0.025 C 
BRANCH   8   9
ATOM      9  C   UNL     1      20.967  -4.495  17.657  1.00  0.00     0.064 C 
ATOM     10  O   UNL     1      21.495  -4.243  16.543  1.00  0.00    -0.545 OA
ATOM     11  O   UNL     1      21.745  -4.433  18.808  1.00  0.00    -0.545 OA
ENDBRANCH   8   9
ENDBRANCH   1   7
BRANCH   6  12
ATOM     12  O   UNL     1      13.375  -6.776  16.603  1.00  0.00    -0.508 OA
ATOM     13  H   UNL     1      13.058  -7.616  17.072  1.00  0.00     0.293 HD
ENDBRANCH   6  12
TORSDOF 3
ENDMDL
MODEL 9
REMARK VINA RESULT:    -4.060     12.530     13.285
REMARK INTER + INTRA:          -4.802
REMARK INTER:                  -4.656
REMARK INTRA:                  -0.146
REMARK UNBOUND:                -0.149
REMARK SMILES O=C([O-])C=Cc1ccc(O)cc1
REMARK SMILES IDX 6 1 7 2 12 3 8 4 11 5 9 6 5 7 4 8 2 9 1 10 3 11 10 12
REMARK H PARENT 10 13
REMARK Flexibility Score: inf
ROOT
ATOM      1  C   UNL     1       4.408   5.245  23.511  1.00  0.00    -0.025 A 
ATOM      2  C   UNL     1       3.597   5.560  22.408  1.00  0.00     0.012 A 
ATOM      3  C   UNL     1       4.774   3.900  23.724  1.00  0.00     0.012 A 
ATOM      4  C   UNL     1       3.181   4.561  21.523  1.00  0.00     0.047 A 
ATOM      5  C   UNL     1       4.355   2.904  22.836  1.00  0.00     0.047 A 
ATOM      6  C   UNL     1       3.561   3.231  21.734  1.00  0.00     0.115 A 
ENDROOT
BRANCH   1   7
ATOM      7  C   UNL     1       4.816   6.339  24.428  1.00  0.00     0.010 C 
ATOM      8  C   UNL     1       3.983   7.293  24.866  1.00  0.00     0.025 C 
BRANCH   8   9
ATOM      9  C   UNL     1       4.429   8.353  25.784  1.00  0.00     0.064 C 
ATOM     10  O   UNL     1       5.194   8.066  26.741  1.00  0.00    -0.545 OA
ATOM     11  O   UNL     1       4.017   9.670  25.614  1.00  0.00    -0.545 OA
ENDBRANCH   8   9
ENDBRANCH   1   7
BRANCH   6  12
ATOM     12  O   UNL     1       3.153   2.227  20.858  1.00  0.00    -0.508 OA
ATOM     13  H   UNL     1       2.581   1.451  21.171  1.00  0.00     0.293 HD
ENDBRANCH   6  12
TORSDOF 3
ENDMDL
