MODEL 1
REMARK VINA RESULT:     0.305      0.000      0.000
REMARK INTER + INTRA:           0.053
REMARK INTER:                   0.698
REMARK INTRA:                  -0.645
REMARK UNBOUND:                -0.645
REMARK SMILES CCCCCCCCCCCCCCCCCCCCCCCC(=O)[O-]
REMARK SMILES IDX 13 1 14 2 15 3 16 4 17 5 18 6 19 7 20 8 21 9 22 10 23 11
REMARK SMILES IDX 24 12 25 13 26 14 12 15 11 16 10 17 9 18 8 19 7 20 6 21 5 22
REMARK SMILES IDX 4 23 3 24 2 25 1 26
REMARK H PARENT
REMARK Flexibility Score: inf
ROOT
ATOM      1  C   UNL     1      46.343  10.876 -30.217  1.00  0.00     0.000 C 
ENDROOT
BRANCH   1   2
ATOM      2  C   UNL     1      45.601  12.115 -30.757  1.00  0.00     0.000 C 
BRANCH   2   3
ATOM      3  C   UNL     1      46.324  12.828 -31.920  1.00  0.00     0.000 C 
BRANCH   3   4
ATOM      4  C   UNL     1      45.406  13.045 -33.134  1.00  0.00     0.000 C 
BRANCH   4   5
ATOM      5  C   UNL     1      44.236  12.049 -33.136  1.00  0.00     0.000 C 
BRANCH   5   6
ATOM      6  C   UNL     1      43.084  12.511 -34.044  1.00  0.00     0.000 C 
BRANCH   6   7
ATOM      7  C   UNL     1      43.300  12.106 -35.514  1.00  0.00     0.000 C 
BRANCH   7   8
ATOM      8  C   UNL     1      41.976  12.027 -36.303  1.00  0.00     0.000 C 
BRANCH   8   9
ATOM      9  C   UNL     1      41.039  13.225 -36.062  1.00  0.00     0.000 C 
BRANCH   9  10
ATOM     10  C   UNL     1      39.558  12.880 -36.292  1.00  0.00     0.006 C 
BRANCH  10  11
ATOM     11  C   UNL     1      38.665  14.128 -36.305  1.00  0.00     0.053 C 
BRANCH  11  12
ATOM     12  C   UNL     1      38.076  14.419 -34.957  1.00  0.00     0.041 C 
ATOM     13  O   UNL     1      37.801  15.605 -34.625  1.00  0.00    -0.550 OA
ATOM     14  O   UNL     1      37.841  13.383 -34.063  1.00  0.00    -0.550 OA
ENDBRANCH  11  12
ENDBRANCH  10  11
ENDBRANCH   9  10
ENDBRANCH   8   9
ENDBRANCH   7   8
ENDBRANCH   6   7
ENDBRANCH   5   6
ENDBRANCH   4   5
ENDBRANCH   3   4
ENDBRANCH   2   3
ENDBRANCH   1   2
BRANCH   1  15
ATOM     15  C   UNL     1      46.675  10.908 -28.715  1.00  0.00     0.000 C 
BRANCH  15  16
ATOM     16  C   UNL     1      45.811  11.912 -27.930  1.00  0.00     0.000 C 
BRANCH  16  17
ATOM     17  C   UNL     1      44.785  11.216 -27.014  1.00  0.00     0.000 C 
BRANCH  17  18
ATOM     18  C   UNL     1      45.106  11.307 -25.512  1.00  0.00    -0.000 C 
BRANCH  18  19
ATOM     19  C   UNL     1      44.274  12.384 -24.793  1.00  0.00    -0.000 C 
BRANCH  19  20
ATOM     20  C   UNL     1      44.708  12.587 -23.334  1.00  0.00    -0.000 C 
BRANCH  20  21
ATOM     21  C   UNL     1      46.237  12.643 -23.172  1.00  0.00    -0.000 C 
BRANCH  21  22
ATOM     22  C   UNL     1      46.851  11.240 -22.977  1.00  0.00    -0.000 C 
BRANCH  22  23
ATOM     23  C   UNL     1      47.095  10.875 -21.502  1.00  0.00    -0.000 C 
BRANCH  23  24
ATOM     24  C   UNL     1      48.516  11.209 -21.028  1.00  0.00    -0.000 C 
BRANCH  24  25
ATOM     25  C   UNL     1      48.577  11.302 -19.499  1.00  0.00    -0.003 C 
ATOM     26  C   UNL     1      49.996  11.065 -18.989  1.00  0.00     0.004 C 
ENDBRANCH  24  25
ENDBRANCH  23  24
ENDBRANCH  22  23
ENDBRANCH  21  22
ENDBRANCH  20  21
ENDBRANCH  19  20
ENDBRANCH  18  19
ENDBRANCH  17  18
ENDBRANCH  16  17
ENDBRANCH  15  16
ENDBRANCH   1  15
TORSDOF 22
ENDMDL
MODEL 2
REMARK VINA RESULT:     0.668      1.499      3.260
REMARK INTER + INTRA:           0.882
REMARK INTER:                   1.932
REMARK INTRA:                  -1.050
REMARK UNBOUND:                -0.645
REMARK SMILES CCCCCCCCCCCCCCCCCCCCCCCC(=O)[O-]
REMARK SMILES IDX 13 1 14 2 15 3 16 4 17 5 18 6 19 7 20 8 21 9 22 10 23 11
REMARK SMILES IDX 24 12 25 13 26 14 12 15 11 16 10 17 9 18 8 19 7 20 6 21 5 22
REMARK SMILES IDX 4 23 3 24 2 25 1 26
REMARK H PARENT
REMARK Flexibility Score: inf
ROOT
ATOM      1  C   UNL     1      45.495  13.018 -32.755  1.00  0.00     0.000 C 
ENDROOT
BRANCH   1   2
ATOM      2  C   UNL     1      44.325  12.134 -33.233  1.00  0.00     0.000 C 
BRANCH   2   3
ATOM      3  C   UNL     1      43.540  12.715 -34.428  1.00  0.00     0.000 C 
BRANCH   3   4
ATOM      4  C   UNL     1      42.671  11.658 -35.127  1.00  0.00     0.000 C 
BRANCH   4   5
ATOM      5  C   UNL     1      41.692  12.306 -36.118  1.00  0.00     0.000 C 
BRANCH   5   6
ATOM      6  C   UNL     1      41.829  13.837 -36.150  1.00  0.00     0.000 C 
BRANCH   6   7
ATOM      7  C   UNL     1      40.473  14.549 -35.983  1.00  0.00     0.000 C 
BRANCH   7   8
ATOM      8  C   UNL     1      39.427  13.662 -35.275  1.00  0.00     0.000 C 
BRANCH   8   9
ATOM      9  C   UNL     1      38.207  14.441 -34.750  1.00  0.00     0.000 C 
BRANCH   9  10
ATOM     10  C   UNL     1      37.180  13.539 -34.046  1.00  0.00     0.006 C 
BRANCH  10  11
ATOM     11  C   UNL     1      36.875  14.007 -32.617  1.00  0.00     0.053 C 
BRANCH  11  12
ATOM     12  C   UNL     1      37.510  13.126 -31.583  1.00  0.00     0.041 C 
ATOM     13  O   UNL     1      38.515  12.422 -31.876  1.00  0.00    -0.550 OA
ATOM     14  O   UNL     1      36.987  13.076 -30.297  1.00  0.00    -0.550 OA
ENDBRANCH  11  12
ENDBRANCH  10  11
ENDBRANCH   9  10
ENDBRANCH   8   9
ENDBRANCH   7   8
ENDBRANCH   6   7
ENDBRANCH   5   6
ENDBRANCH   4   5
ENDBRANCH   3   4
ENDBRANCH   2   3
ENDBRANCH   1   2
BRANCH   1  15
ATOM     15  C   UNL     1      46.758  12.259 -32.313  1.00  0.00     0.000 C 
BRANCH  15  16
ATOM     16  C   UNL     1      46.494  11.271 -31.162  1.00  0.00     0.000 C 
BRANCH  16  17
ATOM     17  C   UNL     1      46.291  11.982 -29.810  1.00  0.00     0.000 C 
BRANCH  17  18
ATOM     18  C   UNL     1      46.219  11.037 -28.597  1.00  0.00    -0.000 C 
BRANCH  18  19
ATOM     19  C   UNL     1      45.053  11.376 -27.652  1.00  0.00    -0.000 C 
BRANCH  19  20
ATOM     20  C   UNL     1      45.395  11.121 -26.177  1.00  0.00    -0.000 C 
BRANCH  20  21
ATOM     21  C   UNL     1      44.832  12.205 -25.242  1.00  0.00    -0.000 C 
BRANCH  21  22
ATOM     22  C   UNL     1      45.022  11.842 -23.753  1.00  0.00    -0.000 C 
BRANCH  22  23
ATOM     23  C   UNL     1      46.455  11.398 -23.407  1.00  0.00    -0.000 C 
BRANCH  23  24
ATOM     24  C   UNL     1      46.995  12.055 -22.130  1.00  0.00    -0.000 C 
BRANCH  24  25
ATOM     25  C   UNL     1      47.278  11.005 -21.050  1.00  0.00    -0.003 C 
ATOM     26  C   UNL     1      48.758  10.987 -20.674  1.00  0.00     0.004 C 
ENDBRANCH  24  25
ENDBRANCH  23  24
ENDBRANCH  22  23
ENDBRANCH  21  22
ENDBRANCH  20  21
ENDBRANCH  19  20
ENDBRANCH  18  19
ENDBRANCH  17  18
ENDBRANCH  16  17
ENDBRANCH  15  16
ENDBRANCH   1  15
TORSDOF 22
ENDMDL
MODEL 3
REMARK VINA RESULT:     0.989      5.285     13.209
REMARK INTER + INTRA:           1.617
REMARK INTER:                   2.815
REMARK INTRA:                  -1.198
REMARK UNBOUND:                -0.645
REMARK SMILES CCCCCCCCCCCCCCCCCCCCCCCC(=O)[O-]
REMARK SMILES IDX 13 1 14 2 15 3 16 4 17 5 18 6 19 7 20 8 21 9 22 10 23 11
REMARK SMILES IDX 24 12 25 13 26 14 12 15 11 16 10 17 9 18 8 19 7 20 6 21 5 22
REMARK SMILES IDX 4 23 3 24 2 25 1 26
REMARK H PARENT
REMARK Flexibility Score: inf
ROOT
ATOM      1  C   UNL     1      46.961  11.413 -29.485  1.00  0.00     0.000 C 
ENDROOT
BRANCH   1   2
ATOM      2  C   UNL     1      46.685  10.895 -28.059  1.00  0.00     0.000 C 
BRANCH   2   3
ATOM      3  C   UNL     1      45.206  10.987 -27.628  1.00  0.00     0.000 C 
BRANCH   3   4
ATOM      4  C   UNL     1      44.972  12.077 -26.570  1.00  0.00     0.000 C 
BRANCH   4   5
ATOM      5  C   UNL     1      43.810  11.708 -25.636  1.00  0.00     0.000 C 
BRANCH   5   6
ATOM      6  C   UNL     1      43.987  12.301 -24.228  1.00  0.00     0.000 C 
BRANCH   6   7
ATOM      7  C   UNL     1      45.196  13.252 -24.141  1.00  0.00     0.000 C 
BRANCH   7   8
ATOM      8  C   UNL     1      46.187  12.843 -23.030  1.00  0.00     0.000 C 
BRANCH   8   9
ATOM      9  C   UNL     1      46.422  11.325 -22.937  1.00  0.00     0.000 C 
BRANCH   9  10
ATOM     10  C   UNL     1      47.624  10.960 -22.050  1.00  0.00     0.006 C 
BRANCH  10  11
ATOM     11  C   UNL     1      47.520  11.574 -20.647  1.00  0.00     0.053 C 
BRANCH  11  12
ATOM     12  C   UNL     1      48.845  11.612 -19.945  1.00  0.00     0.041 C 
ATOM     13  O   UNL     1      48.998  12.318 -18.911  1.00  0.00    -0.550 OA
ATOM     14  O   UNL     1      49.914  10.875 -20.438  1.00  0.00    -0.550 OA
ENDBRANCH  11  12
ENDBRANCH  10  11
ENDBRANCH   9  10
ENDBRANCH   8   9
ENDBRANCH   7   8
ENDBRANCH   6   7
ENDBRANCH   5   6
ENDBRANCH   4   5
ENDBRANCH   3   4
ENDBRANCH   2   3
ENDBRANCH   1   2
BRANCH   1  15
ATOM     15  C   UNL     1      45.768  11.345 -30.454  1.00  0.00     0.000 C 
BRANCH  15  16
ATOM     16  C   UNL     1      45.104  12.715 -30.687  1.00  0.00     0.000 C 
BRANCH  16  17
ATOM     17  C   UNL     1      45.720  13.473 -31.880  1.00  0.00     0.000 C 
BRANCH  17  18
ATOM     18  C   UNL     1      45.554  12.768 -33.237  1.00  0.00    -0.000 C 
BRANCH  18  19
ATOM     19  C   UNL     1      44.140  12.198 -33.439  1.00  0.00    -0.000 C 
BRANCH  19  20
ATOM     20  C   UNL     1      43.735  12.135 -34.920  1.00  0.00    -0.000 C 
BRANCH  20  21
ATOM     21  C   UNL     1      42.602  13.118 -35.267  1.00  0.00    -0.000 C 
BRANCH  21  22
ATOM     22  C   UNL     1      41.825  12.684 -36.529  1.00  0.00    -0.000 C 
BRANCH  22  23
ATOM     23  C   UNL     1      40.297  12.778 -36.372  1.00  0.00    -0.000 C 
BRANCH  23  24
ATOM     24  C   UNL     1      39.830  14.142 -35.846  1.00  0.00    -0.000 C 
BRANCH  24  25
ATOM     25  C   UNL     1      38.359  14.091 -35.418  1.00  0.00    -0.003 C 
ATOM     26  C   UNL     1      37.463  13.663 -36.578  1.00  0.00     0.004 C 
ENDBRANCH  24  25
ENDBRANCH  23  24
ENDBRANCH  22  23
ENDBRANCH  21  22
ENDBRANCH  20  21
ENDBRANCH  19  20
ENDBRANCH  18  19
ENDBRANCH  17  18
ENDBRANCH  16  17
ENDBRANCH  15  16
ENDBRANCH   1  15
TORSDOF 22
ENDMDL
MODEL 4
REMARK VINA RESULT:     1.043      4.214     10.953
REMARK INTER + INTRA:           1.739
REMARK INTER:                   2.349
REMARK INTRA:                  -0.610
REMARK UNBOUND:                -0.645
REMARK SMILES CCCCCCCCCCCCCCCCCCCCCCCC(=O)[O-]
REMARK SMILES IDX 13 1 14 2 15 3 16 4 17 5 18 6 19 7 20 8 21 9 22 10 23 11
REMARK SMILES IDX 24 12 25 13 26 14 12 15 11 16 10 17 9 18 8 19 7 20 6 21 5 22
REMARK SMILES IDX 4 23 3 24 2 25 1 26
REMARK H PARENT
REMARK Flexibility Score: inf
ROOT
ATOM      1  C   UNL     1      43.266  11.779 -36.029  1.00  0.00     0.000 C 
ENDROOT
BRANCH   1   2
ATOM      2  C   UNL     1      43.015  11.980 -34.521  1.00  0.00     0.000 C 
BRANCH   2   3
ATOM      3  C   UNL     1      43.852  13.110 -33.886  1.00  0.00     0.000 C 
BRANCH   3   4
ATOM      4  C   UNL     1      44.573  12.656 -32.607  1.00  0.00     0.000 C 
BRANCH   4   5
ATOM      5  C   UNL     1      45.954  12.062 -32.924  1.00  0.00     0.000 C 
BRANCH   5   6
ATOM      6  C   UNL     1      46.900  12.116 -31.713  1.00  0.00     0.000 C 
BRANCH   6   7
ATOM      7  C   UNL     1      46.630  10.981 -30.708  1.00  0.00     0.000 C 
BRANCH   7   8
ATOM      8  C   UNL     1      45.495  11.327 -29.721  1.00  0.00     0.000 C 
BRANCH   8   9
ATOM      9  C   UNL     1      45.843  11.036 -28.250  1.00  0.00     0.000 C 
BRANCH   9  10
ATOM     10  C   UNL     1      45.189  12.027 -27.274  1.00  0.00     0.006 C 
BRANCH  10  11
ATOM     11  C   UNL     1      44.465  11.318 -26.121  1.00  0.00     0.053 C 
BRANCH  11  12
ATOM     12  C   UNL     1      44.386  12.171 -24.889  1.00  0.00     0.041 C 
ATOM     13  O   UNL     1      43.315  12.768 -24.595  1.00  0.00    -0.550 OA
ATOM     14  O   UNL     1      45.500  12.314 -24.072  1.00  0.00    -0.550 OA
ENDBRANCH  11  12
ENDBRANCH  10  11
ENDBRANCH   9  10
ENDBRANCH   8   9
ENDBRANCH   7   8
ENDBRANCH   6   7
ENDBRANCH   5   6
ENDBRANCH   4   5
ENDBRANCH   3   4
ENDBRANCH   2   3
ENDBRANCH   1   2
BRANCH   1  15
ATOM     15  C   UNL     1      42.760  12.911 -36.940  1.00  0.00     0.000 C 
BRANCH  15  16
ATOM     16  C   UNL     1      41.317  13.342 -36.617  1.00  0.00     0.000 C 
BRANCH  16  17
ATOM     17  C   UNL     1      41.263  14.541 -35.650  1.00  0.00     0.000 C 
BRANCH  17  18
ATOM     18  C   UNL     1      39.850  14.900 -35.158  1.00  0.00    -0.000 C 
BRANCH  18  19
ATOM     19  C   UNL     1      38.764  13.999 -35.771  1.00  0.00    -0.000 C 
BRANCH  19  20
ATOM     20  C   UNL     1      37.368  14.282 -35.195  1.00  0.00    -0.000 C 
BRANCH  20  21
ATOM     21  C   UNL     1      36.875  13.163 -34.260  1.00  0.00    -0.000 C 
BRANCH  21  22
ATOM     22  C   UNL     1      37.005  13.553 -32.771  1.00  0.00    -0.000 C 
BRANCH  22  23
ATOM     23  C   UNL     1      37.494  12.401 -31.875  1.00  0.00    -0.000 C 
BRANCH  23  24
ATOM     24  C   UNL     1      37.684  12.819 -30.411  1.00  0.00    -0.000 C 
BRANCH  24  25
ATOM     25  C   UNL     1      36.881  14.084 -30.092  1.00  0.00    -0.003 C 
ATOM     26  C   UNL     1      37.763  15.328 -30.159  1.00  0.00     0.004 C 
ENDBRANCH  24  25
ENDBRANCH  23  24
ENDBRANCH  22  23
ENDBRANCH  21  22
ENDBRANCH  20  21
ENDBRANCH  19  20
ENDBRANCH  18  19
ENDBRANCH  17  18
ENDBRANCH  16  17
ENDBRANCH  15  16
ENDBRANCH   1  15
TORSDOF 22
ENDMDL
MODEL 5
REMARK VINA RESULT:     1.762      4.622     12.004
REMARK INTER + INTRA:           3.383
REMARK INTER:                   4.477
REMARK INTRA:                  -1.095
REMARK UNBOUND:                -0.645
REMARK SMILES CCCCCCCCCCCCCCCCCCCCCCCC(=O)[O-]
REMARK SMILES IDX 13 1 14 2 15 3 16 4 17 5 18 6 19 7 20 8 21 9 22 10 23 11
REMARK SMILES IDX 24 12 25 13 26 14 12 15 11 16 10 17 9 18 8 19 7 20 6 21 5 22
REMARK SMILES IDX 4 23 3 24 2 25 1 26
REMARK H PARENT
REMARK Flexibility Score: inf
ROOT
ATOM      1  C   UNL     1      44.459  11.999 -33.109  1.00  0.00     0.000 C 
ENDROOT
BRANCH   1   2
ATOM      2  C   UNL     1      45.266  12.528 -31.905  1.00  0.00     0.000 C 
BRANCH   2   3
ATOM      3  C   UNL     1      46.703  11.973 -31.815  1.00  0.00     0.000 C 
BRANCH   3   4
ATOM      4  C   UNL     1      46.934  11.154 -30.535  1.00  0.00     0.000 C 
BRANCH   4   5
ATOM      5  C   UNL     1      45.767  11.316 -29.549  1.00  0.00     0.000 C 
BRANCH   5   6
ATOM      6  C   UNL     1      46.149  10.886 -28.123  1.00  0.00     0.000 C 
BRANCH   6   7
ATOM      7  C   UNL     1      44.995  11.086 -27.123  1.00  0.00     0.000 C 
BRANCH   7   8
ATOM      8  C   UNL     1      45.232  12.288 -26.184  1.00  0.00     0.000 C 
BRANCH   8   9
ATOM      9  C   UNL     1      44.184  12.415 -25.063  1.00  0.00     0.000 C 
BRANCH   9  10
ATOM     10  C   UNL     1      44.709  11.940 -23.699  1.00  0.00     0.006 C 
BRANCH  10  11
ATOM     11  C   UNL     1      46.189  12.286 -23.489  1.00  0.00     0.053 C 
BRANCH  11  12
ATOM     12  C   UNL     1      46.849  11.382 -22.491  1.00  0.00     0.041 C 
ATOM     13  O   UNL     1      46.228  11.015 -21.457  1.00  0.00    -0.550 OA
ATOM     14  O   UNL     1      48.153  10.952 -22.699  1.00  0.00    -0.550 OA
ENDBRANCH  11  12
ENDBRANCH  10  11
ENDBRANCH   9  10
ENDBRANCH   8   9
ENDBRANCH   7   8
ENDBRANCH   6   7
ENDBRANCH   5   6
ENDBRANCH   4   5
ENDBRANCH   3   4
ENDBRANCH   2   3
ENDBRANCH   1   2
BRANCH   1  15
ATOM     15  C   UNL     1      44.625  12.794 -34.415  1.00  0.00     0.000 C 
BRANCH  15  16
ATOM     16  C   UNL     1      43.909  12.141 -35.612  1.00  0.00     0.000 C 
BRANCH  16  17
ATOM     17  C   UNL     1      42.499  11.636 -35.250  1.00  0.00     0.000 C 
BRANCH  17  18
ATOM     18  C   UNL     1      41.400  12.042 -36.248  1.00  0.00    -0.000 C 
BRANCH  18  19
ATOM     19  C   UNL     1      40.901  13.480 -36.024  1.00  0.00    -0.000 C 
BRANCH  19  20
ATOM     20  C   UNL     1      39.381  13.612 -36.202  1.00  0.00    -0.000 C 
BRANCH  20  21
ATOM     21  C   UNL     1      38.754  14.614 -35.217  1.00  0.00    -0.000 C 
BRANCH  21  22
ATOM     22  C   UNL     1      37.249  14.345 -34.996  1.00  0.00    -0.000 C 
BRANCH  22  23
ATOM     23  C   UNL     1      36.967  13.255 -33.946  1.00  0.00    -0.000 C 
BRANCH  23  24
ATOM     24  C   UNL     1      37.484  13.620 -32.548  1.00  0.00    -0.000 C 
BRANCH  24  25
ATOM     25  C   UNL     1      37.844  12.362 -31.750  1.00  0.00    -0.003 C 
ATOM     26  C   UNL     1      37.140  12.349 -30.395  1.00  0.00     0.004 C 
ENDBRANCH  24  25
ENDBRANCH  23  24
ENDBRANCH  22  23
ENDBRANCH  21  22
ENDBRANCH  20  21
ENDBRANCH  19  20
ENDBRANCH  18  19
ENDBRANCH  17  18
ENDBRANCH  16  17
ENDBRANCH  15  16
ENDBRANCH   1  15
TORSDOF 22
ENDMDL
MODEL 6
REMARK VINA RESULT:     2.157      4.918     12.898
REMARK INTER + INTRA:           4.287
REMARK INTER:                   5.490
REMARK INTRA:                  -1.203
REMARK UNBOUND:                -0.645
REMARK SMILES CCCCCCCCCCCCCCCCCCCCCCCC(=O)[O-]
REMARK SMILES IDX 13 1 14 2 15 3 16 4 17 5 18 6 19 7 20 8 21 9 22 10 23 11
REMARK SMILES IDX 24 12 25 13 26 14 12 15 11 16 10 17 9 18 8 19 7 20 6 21 5 22
REMARK SMILES IDX 4 23 3 24 2 25 1 26
REMARK H PARENT
REMARK Flexibility Score: inf
ROOT
ATOM      1  C   UNL     1      46.275  12.772 -30.819  1.00  0.00     0.000 C 
ENDROOT
BRANCH   1   2
ATOM      2  C   UNL     1      46.941  11.415 -30.514  1.00  0.00     0.000 C 
BRANCH   2   3
ATOM      3  C   UNL     1      46.898  11.010 -29.025  1.00  0.00     0.000 C 
BRANCH   3   4
ATOM      4  C   UNL     1      45.469  11.021 -28.458  1.00  0.00     0.000 C 
BRANCH   4   5
ATOM      5  C   UNL     1      45.335  12.026 -27.304  1.00  0.00     0.000 C 
BRANCH   5   6
ATOM      6  C   UNL     1      44.930  11.344 -25.986  1.00  0.00     0.000 C 
BRANCH   6   7
ATOM      7  C   UNL     1      43.838  12.128 -25.233  1.00  0.00     0.000 C 
BRANCH   7   8
ATOM      8  C   UNL     1      44.412  12.966 -24.071  1.00  0.00     0.000 C 
BRANCH   8   9
ATOM      9  C   UNL     1      44.910  12.122 -22.885  1.00  0.00     0.000 C 
BRANCH   9  10
ATOM     10  C   UNL     1      46.401  12.341 -22.580  1.00  0.00     0.006 C 
BRANCH  10  11
ATOM     11  C   UNL     1      47.195  11.027 -22.579  1.00  0.00     0.053 C 
BRANCH  11  12
ATOM     12  C   UNL     1      48.433  11.112 -21.735  1.00  0.00     0.041 C 
ATOM     13  O   UNL     1      48.351  11.407 -20.512  1.00  0.00    -0.550 OA
ATOM     14  O   UNL     1      49.678  10.877 -22.304  1.00  0.00    -0.550 OA
ENDBRANCH  11  12
ENDBRANCH  10  11
ENDBRANCH   9  10
ENDBRANCH   8   9
ENDBRANCH   7   8
ENDBRANCH   6   7
ENDBRANCH   5   6
ENDBRANCH   4   5
ENDBRANCH   3   4
ENDBRANCH   2   3
ENDBRANCH   1   2
BRANCH   1  15
ATOM     15  C   UNL     1      44.991  12.702 -31.664  1.00  0.00     0.000 C 
BRANCH  15  16
ATOM     16  C   UNL     1      45.261  12.374 -33.144  1.00  0.00     0.000 C 
BRANCH  16  17
ATOM     17  C   UNL     1      43.996  12.497 -34.015  1.00  0.00     0.000 C 
BRANCH  17  18
ATOM     18  C   UNL     1      44.162  11.983 -35.456  1.00  0.00    -0.000 C 
BRANCH  18  19
ATOM     19  C   UNL     1      42.888  12.170 -36.300  1.00  0.00    -0.000 C 
BRANCH  19  20
ATOM     20  C   UNL     1      42.102  13.430 -35.910  1.00  0.00    -0.000 C 
BRANCH  20  21
ATOM     21  C   UNL     1      40.762  13.547 -36.658  1.00  0.00    -0.000 C 
BRANCH  21  22
ATOM     22  C   UNL     1      39.723  12.525 -36.149  1.00  0.00    -0.000 C 
BRANCH  22  23
ATOM     23  C   UNL     1      38.265  12.970 -36.368  1.00  0.00    -0.000 C 
BRANCH  23  24
ATOM     24  C   UNL     1      38.024  14.440 -36.002  1.00  0.00    -0.000 C 
BRANCH  24  25
ATOM     25  C   UNL     1      38.155  14.657 -34.490  1.00  0.00    -0.003 C 
ATOM     26  C   UNL     1      37.234  13.717 -33.716  1.00  0.00     0.004 C 
ENDBRANCH  24  25
ENDBRANCH  23  24
ENDBRANCH  22  23
ENDBRANCH  21  22
ENDBRANCH  20  21
ENDBRANCH  19  20
ENDBRANCH  18  19
ENDBRANCH  17  18
ENDBRANCH  16  17
ENDBRANCH  15  16
ENDBRANCH   1  15
TORSDOF 22
ENDMDL
