MODEL 1
REMARK VINA RESULT:    -7.745      0.000      0.000
REMARK INTER + INTRA:          -8.724
REMARK INTER:                  -8.424
REMARK INTRA:                  -0.300
REMARK UNBOUND:                -0.300
REMARK SMILES C[C@H]1[C@H]2C3=CC[C@@H]4[C@]5(C)CC[C@@H](O)C(C)(C)[C@H]5CC[C@]4(C)[C@]3(C)CC[C@@]2(C(=O)[O-])CC[C@@H]1C
REMARK SMILES IDX 26 1 30 2 25 3 3 4 31 5 24 6 4 7 2 8 32 9 22 10 5 11 1 12
REMARK SMILES IDX 33 13 23 14 20 15 6 16 7 17 19 18 21 19 8 20 18 21 17 22
REMARK SMILES IDX 10 23 9 24 14 25 11 26 12 27 15 28 16 29 27 30 28 31 29 32
REMARK SMILES IDX 13 33
REMARK H PARENT 13 34
REMARK Flexibility Score: inf
ROOT
ATOM      1  C   UNL     1     -10.263  -5.573  75.706  1.00  0.00     0.017 C 
ATOM      2  C   UNL     1     -10.997  -5.987  74.398  1.00  0.00     0.014 C 
ATOM      3  C   UNL     1     -11.226  -5.811  76.913  1.00  0.00     0.014 C 
ATOM      4  C   UNL     1      -9.689  -4.080  75.613  1.00  0.00     0.030 C 
ATOM      5  C   UNL     1     -11.848  -4.868  73.801  1.00  0.00     0.004 C 
ATOM      6  C   UNL     1     -10.774  -5.168  78.247  1.00  0.00     0.013 C 
ATOM      7  C   UNL     1      -9.455  -3.486  77.017  1.00  0.00    -0.063 C 
ATOM      8  C   UNL     1     -10.194  -3.053  74.506  1.00  0.00    -0.003 C 
ATOM      9  C   UNL     1     -10.983  -3.694  73.331  1.00  0.00    -0.011 C 
ATOM     10  C   UNL     1     -10.516  -3.633  78.129  1.00  0.00    -0.006 C 
ATOM     11  C   UNL     1      -8.168  -3.320  77.369  1.00  0.00    -0.027 C 
ATOM     12  C   UNL     1     -10.896  -1.768  74.982  1.00  0.00     0.008 C 
ATOM     13  C   UNL     1     -10.061  -4.084  72.156  1.00  0.00     0.008 C 
ATOM     14  C   UNL     1     -11.886  -3.020  77.676  1.00  0.00     0.017 C 
ATOM     15  C   UNL     1     -10.023  -2.920  79.521  1.00  0.00    -0.020 C 
ATOM     16  C   UNL     1      -7.702  -3.779  78.711  1.00  0.00     0.032 C 
ATOM     17  C   UNL     1      -8.466  -3.107  79.862  1.00  0.00     0.006 C 
ATOM     18  C   UNL     1     -10.920  -3.341  80.734  1.00  0.00     0.008 C 
ATOM     19  C   UNL     1     -10.228  -1.367  79.388  1.00  0.00     0.012 C 
ATOM     20  C   UNL     1      -8.122  -3.671  81.321  1.00  0.00    -0.025 C 
ATOM     21  C   UNL     1     -10.538  -4.630  81.482  1.00  0.00     0.005 C 
ATOM     22  C   UNL     1      -9.018  -4.916  81.629  1.00  0.00     0.003 C 
ATOM     23  C   UNL     1      -6.621  -4.120  81.389  1.00  0.00     0.010 C 
ATOM     24  C   UNL     1      -8.338  -2.525  82.375  1.00  0.00     0.012 C 
ATOM     25  C   UNL     1      -8.649  -5.745  82.939  1.00  0.00    -0.006 C 
ATOM     26  C   UNL     1      -6.233  -4.867  82.669  1.00  0.00     0.033 C 
ATOM     27  C   UNL     1      -7.110  -6.103  82.899  1.00  0.00     0.120 C 
ATOM     28  C   UNL     1      -9.472  -7.066  82.905  1.00  0.00     0.014 C 
ATOM     29  C   UNL     1      -8.987  -5.006  84.271  1.00  0.00     0.014 C 
ENDROOT
BRANCH   1  30
ATOM     30  C   UNL     1      -9.114  -6.578  75.902  1.00  0.00     0.048 C 
ATOM     31  O   UNL     1      -9.319  -7.725  76.385  1.00  0.00    -0.550 OA
ATOM     32  O   UNL     1      -7.832  -6.265  75.459  1.00  0.00    -0.550 OA
ENDBRANCH   1  30
BRANCH  27  33
ATOM     33  O   UNL     1      -6.617  -6.749  84.056  1.00  0.00    -0.393 OA
ATOM     34  H   UNL     1      -7.355  -7.139  84.581  1.00  0.00     0.210 HD
ENDBRANCH  27  33
TORSDOF 2
ENDMDL
MODEL 2
REMARK VINA RESULT:    -7.167      3.282      5.419
REMARK INTER + INTRA:          -8.095
REMARK INTER:                  -7.796
REMARK INTRA:                  -0.300
REMARK UNBOUND:                -0.300
REMARK SMILES C[C@H]1[C@H]2C3=CC[C@@H]4[C@]5(C)CC[C@@H](O)C(C)(C)[C@H]5CC[C@]4(C)[C@]3(C)CC[C@@]2(C(=O)[O-])CC[C@@H]1C
REMARK SMILES IDX 26 1 30 2 25 3 3 4 31 5 24 6 4 7 2 8 32 9 22 10 5 11 1 12
REMARK SMILES IDX 33 13 23 14 20 15 6 16 7 17 19 18 21 19 8 20 18 21 17 22
REMARK SMILES IDX 10 23 9 24 14 25 11 26 12 27 15 28 16 29 27 30 28 31 29 32
REMARK SMILES IDX 13 33
REMARK H PARENT 13 34
REMARK Flexibility Score: inf
ROOT
ATOM      1  C   UNL     1      -9.272  -2.465  79.471  1.00  0.00     0.017 C 
ATOM      2  C   UNL     1     -10.293  -1.947  78.417  1.00  0.00     0.014 C 
ATOM      3  C   UNL     1      -9.101  -4.006  79.280  1.00  0.00     0.014 C 
ATOM      4  C   UNL     1      -9.687  -2.033  80.957  1.00  0.00     0.030 C 
ATOM      5  C   UNL     1     -11.746  -2.056  78.877  1.00  0.00     0.004 C 
ATOM      6  C   UNL     1      -8.364  -4.730  80.434  1.00  0.00     0.013 C 
ATOM      7  C   UNL     1      -9.029  -2.951  82.007  1.00  0.00    -0.063 C 
ATOM      8  C   UNL     1     -11.156  -1.529  81.306  1.00  0.00    -0.003 C 
ATOM      9  C   UNL     1     -12.026  -1.145  80.077  1.00  0.00    -0.011 C 
ATOM     10  C   UNL     1      -9.021  -4.485  81.829  1.00  0.00    -0.006 C 
ATOM     11  C   UNL     1      -8.065  -2.382  82.752  1.00  0.00    -0.027 C 
ATOM     12  C   UNL     1     -11.983  -2.357  82.306  1.00  0.00     0.008 C 
ATOM     13  C   UNL     1     -11.894   0.349  79.715  1.00  0.00     0.008 C 
ATOM     14  C   UNL     1     -10.482  -5.037  81.696  1.00  0.00     0.017 C 
ATOM     15  C   UNL     1      -8.259  -5.226  83.077  1.00  0.00    -0.020 C 
ATOM     16  C   UNL     1      -6.769  -3.094  82.955  1.00  0.00     0.032 C 
ATOM     17  C   UNL     1      -6.949  -4.471  83.614  1.00  0.00     0.006 C 
ATOM     18  C   UNL     1      -7.951  -6.728  82.755  1.00  0.00     0.008 C 
ATOM     19  C   UNL     1      -9.239  -5.271  84.306  1.00  0.00     0.012 C 
ATOM     20  C   UNL     1      -5.614  -5.349  83.718  1.00  0.00    -0.025 C 
ATOM     21  C   UNL     1      -6.637  -7.037  82.016  1.00  0.00     0.005 C 
ATOM     22  C   UNL     1      -5.412  -6.157  82.393  1.00  0.00     0.003 C 
ATOM     23  C   UNL     1      -4.367  -4.421  83.919  1.00  0.00     0.010 C 
ATOM     24  C   UNL     1      -5.725  -6.300  84.965  1.00  0.00     0.012 C 
ATOM     25  C   UNL     1      -4.015  -6.905  82.228  1.00  0.00    -0.006 C 
ATOM     26  C   UNL     1      -3.015  -5.134  83.824  1.00  0.00     0.033 C 
ATOM     27  C   UNL     1      -2.849  -5.870  82.489  1.00  0.00     0.120 C 
ATOM     28  C   UNL     1      -3.921  -7.404  80.756  1.00  0.00     0.014 C 
ATOM     29  C   UNL     1      -3.845  -8.142  83.164  1.00  0.00     0.014 C 
ENDROOT
BRANCH   1  30
ATOM     30  C   UNL     1      -7.908  -1.859  79.096  1.00  0.00     0.048 C 
ATOM     31  O   UNL     1      -7.198  -2.353  78.180  1.00  0.00    -0.550 OA
ATOM     32  O   UNL     1      -7.475  -0.687  79.711  1.00  0.00    -0.550 OA
ENDBRANCH   1  30
BRANCH  27  33
ATOM     33  O   UNL     1      -1.547  -6.422  82.483  1.00  0.00    -0.393 OA
ATOM     34  H   UNL     1      -1.565  -7.357  82.168  1.00  0.00     0.210 HD
ENDBRANCH  27  33
TORSDOF 2
ENDMDL
MODEL 3
REMARK VINA RESULT:    -7.073      2.793      7.652
REMARK INTER + INTRA:          -7.993
REMARK INTER:                  -7.692
REMARK INTRA:                  -0.301
REMARK UNBOUND:                -0.300
REMARK SMILES C[C@H]1[C@H]2C3=CC[C@@H]4[C@]5(C)CC[C@@H](O)C(C)(C)[C@H]5CC[C@]4(C)[C@]3(C)CC[C@@]2(C(=O)[O-])CC[C@@H]1C
REMARK SMILES IDX 26 1 30 2 25 3 3 4 31 5 24 6 4 7 2 8 32 9 22 10 5 11 1 12
REMARK SMILES IDX 33 13 23 14 20 15 6 16 7 17 19 18 21 19 8 20 18 21 17 22
REMARK SMILES IDX 10 23 9 24 14 25 11 26 12 27 15 28 16 29 27 30 28 31 29 32
REMARK SMILES IDX 13 33
REMARK H PARENT 13 34
REMARK Flexibility Score: inf
ROOT
ATOM      1  C   UNL     1      -9.519  -1.497  79.648  1.00  0.00     0.017 C 
ATOM      2  C   UNL     1      -9.120  -0.639  80.883  1.00  0.00     0.014 C 
ATOM      3  C   UNL     1      -9.007  -0.780  78.358  1.00  0.00     0.014 C 
ATOM      4  C   UNL     1     -11.089  -1.820  79.636  1.00  0.00     0.030 C 
ATOM      5  C   UNL     1     -10.136   0.452  81.217  1.00  0.00     0.004 C 
ATOM      6  C   UNL     1      -9.583  -1.332  77.030  1.00  0.00     0.013 C 
ATOM      7  C   UNL     1     -11.572  -2.177  78.216  1.00  0.00    -0.063 C 
ATOM      8  C   UNL     1     -12.121  -1.002  80.530  1.00  0.00    -0.003 C 
ATOM      9  C   UNL     1     -11.477  -0.145  81.655  1.00  0.00    -0.011 C 
ATOM     10  C   UNL     1     -11.143  -1.336  76.994  1.00  0.00    -0.006 C 
ATOM     11  C   UNL     1     -11.914  -3.463  78.026  1.00  0.00    -0.027 C 
ATOM     12  C   UNL     1     -13.219  -0.198  79.810  1.00  0.00     0.008 C 
ATOM     13  C   UNL     1     -11.362  -0.921  82.984  1.00  0.00     0.008 C 
ATOM     14  C   UNL     1     -11.561   0.164  77.177  1.00  0.00     0.017 C 
ATOM     15  C   UNL     1     -11.788  -1.926  75.607  1.00  0.00    -0.020 C 
ATOM     16  C   UNL     1     -11.409  -4.195  76.827  1.00  0.00     0.032 C 
ATOM     17  C   UNL     1     -11.829  -3.527  75.509  1.00  0.00     0.006 C 
ATOM     18  C   UNL     1     -11.107  -1.301  74.343  1.00  0.00     0.008 C 
ATOM     19  C   UNL     1     -13.291  -1.472  75.521  1.00  0.00     0.012 C 
ATOM     20  C   UNL     1     -11.190  -4.174  74.190  1.00  0.00    -0.025 C 
ATOM     21  C   UNL     1      -9.832  -1.982  73.817  1.00  0.00     0.005 C 
ATOM     22  C   UNL     1      -9.789  -3.533  73.916  1.00  0.00     0.003 C 
ATOM     23  C   UNL     1     -10.991  -5.717  74.384  1.00  0.00     0.010 C 
ATOM     24  C   UNL     1     -12.175  -3.954  72.985  1.00  0.00     0.012 C 
ATOM     25  C   UNL     1      -8.909  -4.220  72.780  1.00  0.00    -0.006 C 
ATOM     26  C   UNL     1     -10.197  -6.406  73.270  1.00  0.00     0.033 C 
ATOM     27  C   UNL     1      -8.816  -5.770  73.074  1.00  0.00     0.120 C 
ATOM     28  C   UNL     1      -7.479  -3.609  72.861  1.00  0.00     0.014 C 
ATOM     29  C   UNL     1      -9.446  -3.986  71.334  1.00  0.00     0.014 C 
ENDROOT
BRANCH   1  30
ATOM     30  C   UNL     1      -8.704  -2.800  79.735  1.00  0.00     0.048 C 
ATOM     31  O   UNL     1      -7.497  -2.846  79.374  1.00  0.00    -0.550 OA
ATOM     32  O   UNL     1      -9.269  -3.938  80.304  1.00  0.00    -0.550 OA
ENDBRANCH   1  30
BRANCH  27  33
ATOM     33  O   UNL     1      -8.151  -6.528  72.083  1.00  0.00    -0.393 OA
ATOM     34  H   UNL     1      -7.446  -7.088  72.486  1.00  0.00     0.210 HD
ENDBRANCH  27  33
TORSDOF 2
ENDMDL
MODEL 4
REMARK VINA RESULT:    -6.853      3.332      6.854
REMARK INTER + INTRA:          -7.754
REMARK INTER:                  -7.453
REMARK INTRA:                  -0.301
REMARK UNBOUND:                -0.300
REMARK SMILES C[C@H]1[C@H]2C3=CC[C@@H]4[C@]5(C)CC[C@@H](O)C(C)(C)[C@H]5CC[C@]4(C)[C@]3(C)CC[C@@]2(C(=O)[O-])CC[C@@H]1C
REMARK SMILES IDX 26 1 30 2 25 3 3 4 31 5 24 6 4 7 2 8 32 9 22 10 5 11 1 12
REMARK SMILES IDX 33 13 23 14 20 15 6 16 7 17 19 18 21 19 8 20 18 21 17 22
REMARK SMILES IDX 10 23 9 24 14 25 11 26 12 27 15 28 16 29 27 30 28 31 29 32
REMARK SMILES IDX 13 33
REMARK H PARENT 13 34
REMARK Flexibility Score: inf
ROOT
ATOM      1  C   UNL     1     -10.387  -0.331  78.864  1.00  0.00     0.017 C 
ATOM      2  C   UNL     1     -10.463   1.067  79.543  1.00  0.00     0.014 C 
ATOM      3  C   UNL     1      -9.498  -0.214  77.584  1.00  0.00     0.014 C 
ATOM      4  C   UNL     1     -11.846  -0.936  78.593  1.00  0.00     0.030 C 
ATOM      5  C   UNL     1     -11.576   1.952  78.984  1.00  0.00     0.004 C 
ATOM      6  C   UNL     1      -9.568  -1.428  76.625  1.00  0.00     0.013 C 
ATOM      7  C   UNL     1     -11.806  -2.008  77.486  1.00  0.00    -0.063 C 
ATOM      8  C   UNL     1     -13.151  -0.027  78.625  1.00  0.00    -0.003 C 
ATOM      9  C   UNL     1     -12.961   1.369  79.282  1.00  0.00    -0.011 C 
ATOM     10  C   UNL     1     -11.023  -1.769  76.175  1.00  0.00    -0.006 C 
ATOM     11  C   UNL     1     -12.010  -3.273  77.894  1.00  0.00    -0.027 C 
ATOM     12  C   UNL     1     -13.973   0.100  77.330  1.00  0.00     0.008 C 
ATOM     13  C   UNL     1     -13.270   1.348  80.793  1.00  0.00     0.008 C 
ATOM     14  C   UNL     1     -11.540  -0.481  75.446  1.00  0.00     0.017 C 
ATOM     15  C   UNL     1     -11.137  -3.059  75.169  1.00  0.00    -0.020 C 
ATOM     16  C   UNL     1     -11.100  -4.359  77.425  1.00  0.00     0.032 C 
ATOM     17  C   UNL     1     -11.076  -4.489  75.894  1.00  0.00     0.006 C 
ATOM     18  C   UNL     1     -10.095  -2.974  74.003  1.00  0.00     0.008 C 
ATOM     19  C   UNL     1     -12.539  -3.019  74.460  1.00  0.00     0.012 C 
ATOM     20  C   UNL     1     -10.003  -5.531  75.322  1.00  0.00    -0.025 C 
ATOM     21  C   UNL     1      -8.690  -3.544  74.268  1.00  0.00     0.005 C 
ATOM     22  C   UNL     1      -8.619  -4.821  75.151  1.00  0.00     0.003 C 
ATOM     23  C   UNL     1      -9.819  -6.725  76.321  1.00  0.00     0.010 C 
ATOM     24  C   UNL     1     -10.531  -6.110  73.958  1.00  0.00     0.012 C 
ATOM     25  C   UNL     1      -7.380  -5.762  74.812  1.00  0.00    -0.006 C 
ATOM     26  C   UNL     1      -8.668  -7.675  75.978  1.00  0.00     0.033 C 
ATOM     27  C   UNL     1      -7.329  -6.937  75.868  1.00  0.00     0.120 C 
ATOM     28  C   UNL     1      -6.087  -4.905  74.955  1.00  0.00     0.014 C 
ATOM     29  C   UNL     1      -7.406  -6.350  73.367  1.00  0.00     0.014 C 
ENDROOT
BRANCH   1  30
ATOM     30  C   UNL     1      -9.596  -1.242  79.821  1.00  0.00     0.048 C 
ATOM     31  O   UNL     1      -8.337  -1.203  79.875  1.00  0.00    -0.550 OA
ATOM     32  O   UNL     1     -10.274  -2.066  80.715  1.00  0.00    -0.550 OA
ENDBRANCH   1  30
BRANCH  27  33
ATOM     33  O   UNL     1      -6.337  -7.916  75.627  1.00  0.00    -0.393 OA
ATOM     34  H   UNL     1      -5.440  -7.565  75.840  1.00  0.00     0.210 HD
ENDBRANCH  27  33
TORSDOF 2
ENDMDL
MODEL 5
REMARK VINA RESULT:    -6.721      1.937      3.317
REMARK INTER + INTRA:          -7.611
REMARK INTER:                  -7.325
REMARK INTRA:                  -0.285
REMARK UNBOUND:                -0.300
REMARK SMILES C[C@H]1[C@H]2C3=CC[C@@H]4[C@]5(C)CC[C@@H](O)C(C)(C)[C@H]5CC[C@]4(C)[C@]3(C)CC[C@@]2(C(=O)[O-])CC[C@@H]1C
REMARK SMILES IDX 26 1 30 2 25 3 3 4 31 5 24 6 4 7 2 8 32 9 22 10 5 11 1 12
REMARK SMILES IDX 33 13 23 14 20 15 6 16 7 17 19 18 21 19 8 20 18 21 17 22
REMARK SMILES IDX 10 23 9 24 14 25 11 26 12 27 15 28 16 29 27 30 28 31 29 32
REMARK SMILES IDX 13 33
REMARK H PARENT 13 34
REMARK Flexibility Score: inf
ROOT
ATOM      1  C   UNL     1      -8.090  -4.490  74.103  1.00  0.00     0.017 C 
ATOM      2  C   UNL     1      -7.650  -5.225  72.805  1.00  0.00     0.014 C 
ATOM      3  C   UNL     1      -8.605  -5.553  75.126  1.00  0.00     0.014 C 
ATOM      4  C   UNL     1      -9.141  -3.321  73.792  1.00  0.00     0.030 C 
ATOM      5  C   UNL     1      -8.795  -5.458  71.822  1.00  0.00     0.004 C 
ATOM      6  C   UNL     1      -9.365  -4.974  76.345  1.00  0.00     0.013 C 
ATOM      7  C   UNL     1      -9.963  -2.965  75.046  1.00  0.00    -0.063 C 
ATOM      8  C   UNL     1      -9.925  -3.243  72.409  1.00  0.00    -0.003 C 
ATOM      9  C   UNL     1      -9.345  -4.136  71.277  1.00  0.00    -0.011 C 
ATOM     10  C   UNL     1     -10.570  -4.069  75.940  1.00  0.00    -0.006 C 
ATOM     11  C   UNL     1      -9.699  -1.765  75.593  1.00  0.00    -0.027 C 
ATOM     12  C   UNL     1     -11.459  -3.354  72.443  1.00  0.00     0.008 C 
ATOM     13  C   UNL     1      -8.307  -3.385  70.418  1.00  0.00     0.008 C 
ATOM     14  C   UNL     1     -11.520  -4.998  75.108  1.00  0.00     0.017 C 
ATOM     15  C   UNL     1     -11.392  -3.427  77.206  1.00  0.00    -0.020 C 
ATOM     16  C   UNL     1      -9.492  -1.651  77.067  1.00  0.00     0.032 C 
ATOM     17  C   UNL     1     -10.707  -2.138  77.872  1.00  0.00     0.006 C 
ATOM     18  C   UNL     1     -11.722  -4.511  78.287  1.00  0.00     0.008 C 
ATOM     19  C   UNL     1     -12.792  -2.929  76.693  1.00  0.00     0.012 C 
ATOM     20  C   UNL     1     -10.491  -2.187  79.458  1.00  0.00    -0.025 C 
ATOM     21  C   UNL     1     -10.656  -4.785  79.362  1.00  0.00     0.005 C 
ATOM     22  C   UNL     1      -9.845  -3.555  79.858  1.00  0.00     0.003 C 
ATOM     23  C   UNL     1      -9.523  -1.040  79.910  1.00  0.00     0.010 C 
ATOM     24  C   UNL     1     -11.876  -1.969  80.169  1.00  0.00     0.012 C 
ATOM     25  C   UNL     1      -9.346  -3.686  81.365  1.00  0.00    -0.006 C 
ATOM     26  C   UNL     1      -9.079  -1.115  81.374  1.00  0.00     0.033 C 
ATOM     27  C   UNL     1      -8.412  -2.457  81.701  1.00  0.00     0.120 C 
ATOM     28  C   UNL     1      -8.508  -4.994  81.469  1.00  0.00     0.014 C 
ATOM     29  C   UNL     1     -10.502  -3.775  82.410  1.00  0.00     0.014 C 
ENDROOT
BRANCH   1  30
ATOM     30  C   UNL     1      -6.812  -3.909  74.735  1.00  0.00     0.048 C 
ATOM     31  O   UNL     1      -6.501  -2.696  74.591  1.00  0.00    -0.550 OA
ATOM     32  O   UNL     1      -6.020  -4.704  75.559  1.00  0.00    -0.550 OA
ENDBRANCH   1  30
BRANCH  27  33
ATOM     33  O   UNL     1      -7.979  -2.384  83.045  1.00  0.00    -0.393 OA
ATOM     34  H   UNL     1      -8.182  -3.222  83.524  1.00  0.00     0.210 HD
ENDBRANCH  27  33
TORSDOF 2
ENDMDL
MODEL 6
REMARK VINA RESULT:    -6.711      3.079      7.365
REMARK INTER + INTRA:          -7.600
REMARK INTER:                  -7.316
REMARK INTRA:                  -0.284
REMARK UNBOUND:                -0.300
REMARK SMILES C[C@H]1[C@H]2C3=CC[C@@H]4[C@]5(C)CC[C@@H](O)C(C)(C)[C@H]5CC[C@]4(C)[C@]3(C)CC[C@@]2(C(=O)[O-])CC[C@@H]1C
REMARK SMILES IDX 26 1 30 2 25 3 3 4 31 5 24 6 4 7 2 8 32 9 22 10 5 11 1 12
REMARK SMILES IDX 33 13 23 14 20 15 6 16 7 17 19 18 21 19 8 20 18 21 17 22
REMARK SMILES IDX 10 23 9 24 14 25 11 26 12 27 15 28 16 29 27 30 28 31 29 32
REMARK SMILES IDX 13 33
REMARK H PARENT 13 34
REMARK Flexibility Score: inf
ROOT
ATOM      1  C   UNL     1      -8.309  -4.620  82.472  1.00  0.00     0.017 C 
ATOM      2  C   UNL     1      -7.892  -5.546  83.651  1.00  0.00     0.014 C 
ATOM      3  C   UNL     1      -8.103  -3.135  82.911  1.00  0.00     0.014 C 
ATOM      4  C   UNL     1      -9.790  -4.950  81.957  1.00  0.00     0.030 C 
ATOM      5  C   UNL     1      -9.020  -5.799  84.651  1.00  0.00     0.004 C 
ATOM      6  C   UNL     1      -8.755  -2.082  81.980  1.00  0.00     0.013 C 
ATOM      7  C   UNL     1     -10.396  -3.750  81.203  1.00  0.00    -0.063 C 
ATOM      8  C   UNL     1     -10.812  -5.803  82.830  1.00  0.00    -0.003 C 
ATOM      9  C   UNL     1     -10.171  -6.582  84.012  1.00  0.00    -0.011 C 
ATOM     10  C   UNL     1     -10.283  -2.316  81.767  1.00  0.00    -0.006 C 
ATOM     11  C   UNL     1     -10.543  -3.912  79.877  1.00  0.00    -0.027 C 
ATOM     12  C   UNL     1     -12.115  -5.121  83.284  1.00  0.00     0.008 C 
ATOM     13  C   UNL     1      -9.749  -8.010  83.607  1.00  0.00     0.008 C 
ATOM     14  C   UNL     1     -10.915  -2.230  83.199  1.00  0.00     0.017 C 
ATOM     15  C   UNL     1     -11.004  -1.227  80.776  1.00  0.00    -0.020 C 
ATOM     16  C   UNL     1     -10.092  -2.837  78.944  1.00  0.00     0.032 C 
ATOM     17  C   UNL     1     -10.792  -1.495  79.209  1.00  0.00     0.006 C 
ATOM     18  C   UNL     1     -10.615   0.243  81.154  1.00  0.00     0.008 C 
ATOM     19  C   UNL     1     -12.559  -1.301  80.998  1.00  0.00     0.012 C 
ATOM     20  C   UNL     1     -10.240  -0.264  78.346  1.00  0.00    -0.025 C 
ATOM     21  C   UNL     1      -9.327   0.815  80.535  1.00  0.00     0.005 C 
ATOM     22  C   UNL     1      -9.015   0.383  79.074  1.00  0.00     0.003 C 
ATOM     23  C   UNL     1      -9.764  -0.758  76.936  1.00  0.00     0.010 C 
ATOM     24  C   UNL     1     -11.403   0.773  78.134  1.00  0.00     0.012 C 
ATOM     25  C   UNL     1      -8.196   1.471  78.249  1.00  0.00    -0.006 C 
ATOM     26  C   UNL     1      -9.026   0.294  76.103  1.00  0.00     0.033 C 
ATOM     27  C   UNL     1      -7.809   0.861  76.844  1.00  0.00     0.120 C 
ATOM     28  C   UNL     1      -6.890   1.775  79.040  1.00  0.00     0.014 C 
ATOM     29  C   UNL     1      -8.957   2.819  78.049  1.00  0.00     0.014 C 
ENDROOT
BRANCH   1  30
ATOM     30  C   UNL     1      -7.285  -4.853  81.347  1.00  0.00     0.048 C 
ATOM     31  O   UNL     1      -7.559  -5.570  80.347  1.00  0.00    -0.550 OA
ATOM     32  O   UNL     1      -6.058  -4.194  81.374  1.00  0.00    -0.550 OA
ENDBRANCH   1  30
BRANCH  27  33
ATOM     33  O   UNL     1      -7.169   1.757  75.958  1.00  0.00    -0.393 OA
ATOM     34  H   UNL     1      -7.150   2.668  76.335  1.00  0.00     0.210 HD
ENDBRANCH  27  33
TORSDOF 2
ENDMDL
MODEL 7
REMARK VINA RESULT:    -6.672      3.907      6.076
REMARK INTER + INTRA:          -7.557
REMARK INTER:                  -7.264
REMARK INTRA:                  -0.293
REMARK UNBOUND:                -0.300
REMARK SMILES C[C@H]1[C@H]2C3=CC[C@@H]4[C@]5(C)CC[C@@H](O)C(C)(C)[C@H]5CC[C@]4(C)[C@]3(C)CC[C@@]2(C(=O)[O-])CC[C@@H]1C
REMARK SMILES IDX 26 1 30 2 25 3 3 4 31 5 24 6 4 7 2 8 32 9 22 10 5 11 1 12
REMARK SMILES IDX 33 13 23 14 20 15 6 16 7 17 19 18 21 19 8 20 18 21 17 22
REMARK SMILES IDX 10 23 9 24 14 25 11 26 12 27 15 28 16 29 27 30 28 31 29 32
REMARK SMILES IDX 13 33
REMARK H PARENT 13 34
REMARK Flexibility Score: inf
ROOT
ATOM      1  C   UNL     1     -11.193  -2.181  75.750  1.00  0.00     0.017 C 
ATOM      2  C   UNL     1     -11.898  -0.796  75.803  1.00  0.00     0.014 C 
ATOM      3  C   UNL     1      -9.652  -1.950  75.628  1.00  0.00     0.014 C 
ATOM      4  C   UNL     1     -11.807  -3.113  74.600  1.00  0.00     0.030 C 
ATOM      5  C   UNL     1     -12.205  -0.218  74.422  1.00  0.00     0.004 C 
ATOM      6  C   UNL     1      -8.830  -3.208  75.253  1.00  0.00     0.013 C 
ATOM      7  C   UNL     1     -10.812  -4.217  74.189  1.00  0.00    -0.063 C 
ATOM      8  C   UNL     1     -12.700  -2.518  73.425  1.00  0.00    -0.003 C 
ATOM      9  C   UNL     1     -13.226  -1.076  73.669  1.00  0.00    -0.011 C 
ATOM     10  C   UNL     1      -9.323  -3.893  73.940  1.00  0.00    -0.006 C 
ATOM     11  C   UNL     1     -11.149  -5.466  74.552  1.00  0.00    -0.027 C 
ATOM     12  C   UNL     1     -12.181  -2.659  71.983  1.00  0.00     0.008 C 
ATOM     13  C   UNL     1     -14.609  -1.069  74.355  1.00  0.00     0.008 C 
ATOM     14  C   UNL     1      -9.169  -2.801  72.826  1.00  0.00     0.017 C 
ATOM     15  C   UNL     1      -8.482  -5.237  73.520  1.00  0.00    -0.020 C 
ATOM     16  C   UNL     1     -10.134  -6.350  75.197  1.00  0.00     0.032 C 
ATOM     17  C   UNL     1      -8.895  -6.568  74.314  1.00  0.00     0.006 C 
ATOM     18  C   UNL     1      -6.936  -4.995  73.591  1.00  0.00     0.008 C 
ATOM     19  C   UNL     1      -8.771  -5.555  72.008  1.00  0.00     0.012 C 
ATOM     20  C   UNL     1      -7.703  -7.379  75.011  1.00  0.00    -0.025 C 
ATOM     21  C   UNL     1      -6.247  -5.219  74.949  1.00  0.00     0.005 C 
ATOM     22  C   UNL     1      -6.793  -6.390  75.813  1.00  0.00     0.003 C 
ATOM     23  C   UNL     1      -8.279  -8.436  76.015  1.00  0.00     0.010 C 
ATOM     24  C   UNL     1      -6.892  -8.146  73.904  1.00  0.00     0.012 C 
ATOM     25  C   UNL     1      -5.695  -7.051  76.759  1.00  0.00    -0.006 C 
ATOM     26  C   UNL     1      -7.230  -9.125  76.892  1.00  0.00     0.033 C 
ATOM     27  C   UNL     1      -6.398  -8.115  77.691  1.00  0.00     0.120 C 
ATOM     28  C   UNL     1      -5.101  -5.919  77.649  1.00  0.00     0.014 C 
ATOM     29  C   UNL     1      -4.515  -7.719  75.987  1.00  0.00     0.014 C 
ENDROOT
BRANCH   1  30
ATOM     30  C   UNL     1     -11.394  -2.830  77.131  1.00  0.00     0.048 C 
ATOM     31  O   UNL     1     -10.642  -2.552  78.105  1.00  0.00    -0.550 OA
ATOM     32  O   UNL     1     -12.478  -3.676  77.351  1.00  0.00    -0.550 OA
ENDBRANCH   1  30
BRANCH  27  33
ATOM     33  O   UNL     1      -5.523  -8.861  78.513  1.00  0.00    -0.393 OA
ATOM     34  H   UNL     1      -5.734  -8.721  79.467  1.00  0.00     0.210 HD
ENDBRANCH  27  33
TORSDOF 2
ENDMDL
MODEL 8
REMARK VINA RESULT:    -6.630      4.185      8.476
REMARK INTER + INTRA:          -7.511
REMARK INTER:                  -7.485
REMARK INTRA:                  -0.026
REMARK UNBOUND:                -0.300
REMARK SMILES C[C@H]1[C@H]2C3=CC[C@@H]4[C@]5(C)CC[C@@H](O)C(C)(C)[C@H]5CC[C@]4(C)[C@]3(C)CC[C@@]2(C(=O)[O-])CC[C@@H]1C
REMARK SMILES IDX 26 1 30 2 25 3 3 4 31 5 24 6 4 7 2 8 32 9 22 10 5 11 1 12
REMARK SMILES IDX 33 13 23 14 20 15 6 16 7 17 19 18 21 19 8 20 18 21 17 22
REMARK SMILES IDX 10 23 9 24 14 25 11 26 12 27 15 28 16 29 27 30 28 31 29 32
REMARK SMILES IDX 13 33
REMARK H PARENT 13 34
REMARK Flexibility Score: inf
ROOT
ATOM      1  C   UNL     1      -7.868  -5.350  73.535  1.00  0.00     0.017 C 
ATOM      2  C   UNL     1      -6.410  -5.881  73.643  1.00  0.00     0.014 C 
ATOM      3  C   UNL     1      -7.824  -3.791  73.446  1.00  0.00     0.014 C 
ATOM      4  C   UNL     1      -8.790  -5.911  74.720  1.00  0.00     0.030 C 
ATOM      5  C   UNL     1      -5.885  -5.922  75.077  1.00  0.00     0.004 C 
ATOM      6  C   UNL     1      -9.189  -3.085  73.644  1.00  0.00     0.013 C 
ATOM      7  C   UNL     1     -10.024  -5.012  74.937  1.00  0.00    -0.063 C 
ATOM      8  C   UNL     1      -8.167  -6.556  76.035  1.00  0.00    -0.003 C 
ATOM      9  C   UNL     1      -6.662  -6.929  75.931  1.00  0.00    -0.011 C 
ATOM     10  C   UNL     1      -9.890  -3.474  74.984  1.00  0.00    -0.006 C 
ATOM     11  C   UNL     1     -11.203  -5.546  74.572  1.00  0.00    -0.027 C 
ATOM     12  C   UNL     1      -8.454  -5.866  77.380  1.00  0.00     0.008 C 
ATOM     13  C   UNL     1      -6.455  -8.381  75.450  1.00  0.00     0.008 C 
ATOM     14  C   UNL     1      -8.892  -3.037  76.111  1.00  0.00     0.017 C 
ATOM     15  C   UNL     1     -11.344  -2.755  75.221  1.00  0.00    -0.020 C 
ATOM     16  C   UNL     1     -12.157  -4.744  73.751  1.00  0.00     0.032 C 
ATOM     17  C   UNL     1     -12.569  -3.433  74.438  1.00  0.00     0.006 C 
ATOM     18  C   UNL     1     -11.279  -1.216  74.941  1.00  0.00     0.008 C 
ATOM     19  C   UNL     1     -11.717  -2.872  76.744  1.00  0.00     0.012 C 
ATOM     20  C   UNL     1     -13.468  -2.456  73.543  1.00  0.00    -0.025 C 
ATOM     21  C   UNL     1     -11.499  -0.752  73.490  1.00  0.00     0.005 C 
ATOM     22  C   UNL     1     -12.545  -1.550  72.663  1.00  0.00     0.003 C 
ATOM     23  C   UNL     1     -14.390  -3.289  72.587  1.00  0.00     0.010 C 
ATOM     24  C   UNL     1     -14.389  -1.601  74.489  1.00  0.00     0.012 C 
ATOM     25  C   UNL     1     -13.270  -0.680  71.543  1.00  0.00    -0.006 C 
ATOM     26  C   UNL     1     -15.142  -2.462  71.540  1.00  0.00     0.033 C 
ATOM     27  C   UNL     1     -14.189  -1.629  70.675  1.00  0.00     0.120 C 
ATOM     28  C   UNL     1     -12.164  -0.080  70.626  1.00  0.00     0.014 C 
ATOM     29  C   UNL     1     -14.116   0.503  72.108  1.00  0.00     0.014 C 
ENDROOT
BRANCH   1  30
ATOM     30  C   UNL     1      -8.406  -5.816  72.170  1.00  0.00     0.048 C 
ATOM     31  O   UNL     1      -8.739  -4.990  71.277  1.00  0.00    -0.550 OA
ATOM     32  O   UNL     1      -8.447  -7.174  71.865  1.00  0.00    -0.550 OA
ENDBRANCH   1  30
BRANCH  27  33
ATOM     33  O   UNL     1     -14.980  -0.973  69.705  1.00  0.00    -0.393 OA
ATOM     34  H   UNL     1     -14.414  -0.475  69.069  1.00  0.00     0.210 HD
ENDBRANCH  27  33
TORSDOF 2
ENDMDL
MODEL 9
REMARK VINA RESULT:    -6.594      4.221      7.406
REMARK INTER + INTRA:          -7.472
REMARK INTER:                  -7.190
REMARK INTRA:                  -0.282
REMARK UNBOUND:                -0.300
REMARK SMILES C[C@H]1[C@H]2C3=CC[C@@H]4[C@]5(C)CC[C@@H](O)C(C)(C)[C@H]5CC[C@]4(C)[C@]3(C)CC[C@@]2(C(=O)[O-])CC[C@@H]1C
REMARK SMILES IDX 26 1 30 2 25 3 3 4 31 5 24 6 4 7 2 8 32 9 22 10 5 11 1 12
REMARK SMILES IDX 33 13 23 14 20 15 6 16 7 17 19 18 21 19 8 20 18 21 17 22
REMARK SMILES IDX 10 23 9 24 14 25 11 26 12 27 15 28 16 29 27 30 28 31 29 32
REMARK SMILES IDX 13 33
REMARK H PARENT 13 34
REMARK Flexibility Score: inf
ROOT
ATOM      1  C   UNL     1      -7.519  -5.400  73.686  1.00  0.00     0.017 C 
ATOM      2  C   UNL     1      -6.126  -6.073  73.527  1.00  0.00     0.014 C 
ATOM      3  C   UNL     1      -7.356  -4.123  74.571  1.00  0.00     0.014 C 
ATOM      4  C   UNL     1      -8.616  -6.435  74.229  1.00  0.00     0.030 C 
ATOM      5  C   UNL     1      -5.784  -7.036  74.663  1.00  0.00     0.004 C 
ATOM      6  C   UNL     1      -8.683  -3.509  75.085  1.00  0.00     0.013 C 
ATOM      7  C   UNL     1      -9.802  -5.697  74.883  1.00  0.00    -0.063 C 
ATOM      8  C   UNL     1      -8.205  -7.815  74.908  1.00  0.00    -0.003 C 
ATOM      9  C   UNL     1      -6.728  -8.242  74.679  1.00  0.00    -0.011 C 
ATOM     10  C   UNL     1      -9.567  -4.530  75.866  1.00  0.00    -0.006 C 
ATOM     11  C   UNL     1     -10.961  -5.746  74.204  1.00  0.00    -0.027 C 
ATOM     12  C   UNL     1      -8.605  -8.043  76.376  1.00  0.00     0.008 C 
ATOM     13  C   UNL     1      -6.565  -9.125  73.424  1.00  0.00     0.008 C 
ATOM     14  C   UNL     1      -8.687  -4.992  77.078  1.00  0.00     0.017 C 
ATOM     15  C   UNL     1     -10.986  -3.918  76.414  1.00  0.00    -0.020 C 
ATOM     16  C   UNL     1     -11.750  -4.497  73.993  1.00  0.00     0.032 C 
ATOM     17  C   UNL     1     -12.151  -3.822  75.314  1.00  0.00     0.006 C 
ATOM     18  C   UNL     1     -10.781  -2.543  77.137  1.00  0.00     0.008 C 
ATOM     19  C   UNL     1     -11.550  -4.877  77.525  1.00  0.00     0.012 C 
ATOM     20  C   UNL     1     -12.864  -2.397  75.156  1.00  0.00    -0.025 C 
ATOM     21  C   UNL     1     -10.789  -1.277  76.263  1.00  0.00     0.005 C 
ATOM     22  C   UNL     1     -11.779  -1.273  75.065  1.00  0.00     0.003 C 
ATOM     23  C   UNL     1     -13.717  -2.360  73.842  1.00  0.00     0.010 C 
ATOM     24  C   UNL     1     -13.831  -2.173  76.375  1.00  0.00     0.012 C 
ATOM     25  C   UNL     1     -12.299   0.180  74.672  1.00  0.00    -0.006 C 
ATOM     26  C   UNL     1     -14.276  -0.981  73.479  1.00  0.00     0.033 C 
ATOM     27  C   UNL     1     -13.169   0.072  73.357  1.00  0.00     0.120 C 
ATOM     28  C   UNL     1     -11.050   1.061  74.375  1.00  0.00     0.014 C 
ATOM     29  C   UNL     1     -13.123   0.883  75.795  1.00  0.00     0.014 C 
ENDROOT
BRANCH   1  30
ATOM     30  C   UNL     1      -7.917  -4.877  72.295  1.00  0.00     0.048 C 
ATOM     31  O   UNL     1      -8.750  -5.492  71.574  1.00  0.00    -0.550 OA
ATOM     32  O   UNL     1      -7.426  -3.655  71.843  1.00  0.00    -0.550 OA
ENDBRANCH   1  30
BRANCH  27  33
ATOM     33  O   UNL     1     -13.788   1.275  72.949  1.00  0.00    -0.393 OA
ATOM     34  H   UNL     1     -13.310   1.673  72.183  1.00  0.00     0.210 HD
ENDBRANCH  27  33
TORSDOF 2
ENDMDL
