MODEL 1
REMARK VINA RESULT:    -4.533      0.000      0.000
REMARK INTER + INTRA:          -9.587
REMARK INTER:                  -8.244
REMARK INTRA:                  -1.343
REMARK UNBOUND:                -1.343
REMARK SMILES CCCCCCCCCCCCCCCC(=O)[O-]
REMARK SMILES IDX 9 1 10 2 11 3 12 4 13 5 14 6 15 7 16 8 17 9 18 10 8 11 7 12
REMARK SMILES IDX 6 13 5 14 4 15 3 16 2 17 1 18
REMARK H PARENT
REMARK Flexibility Score: inf
ROOT
ATOM      1  C   UNL     1     149.072 284.215 282.066  1.00  0.00     0.000 C 
ENDROOT
BRANCH   1   2
ATOM      2  C   UNL     1     150.334 283.628 282.708  1.00  0.00     0.000 C 
BRANCH   2   3
ATOM      3  C   UNL     1     150.311 283.806 284.235  1.00  0.00     0.000 C 
BRANCH   3   4
ATOM      4  C   UNL     1     151.616 284.434 284.769  1.00  0.00     0.000 C 
BRANCH   4   5
ATOM      5  C   UNL     1     152.702 284.602 283.692  1.00  0.00     0.000 C 
BRANCH   5   6
ATOM      6  C   UNL     1     154.126 284.454 284.252  1.00  0.00     0.006 C 
BRANCH   6   7
ATOM      7  C   UNL     1     154.698 283.050 284.019  1.00  0.00     0.053 C 
BRANCH   7   8
ATOM      8  C   UNL     1     155.701 283.038 282.907  1.00  0.00     0.041 C 
ATOM      9  O   UNL     1     155.430 282.479 281.812  1.00  0.00    -0.550 OA
ATOM     10  O   UNL     1     156.924 283.678 283.069  1.00  0.00    -0.550 OA
ENDBRANCH   7   8
ENDBRANCH   6   7
ENDBRANCH   5   6
ENDBRANCH   4   5
ENDBRANCH   3   4
ENDBRANCH   2   3
ENDBRANCH   1   2
BRANCH   1  11
ATOM     11  C   UNL     1     149.434 285.213 280.956  1.00  0.00     0.000 C 
BRANCH  11  12
ATOM     12  C   UNL     1     150.311 286.371 281.460  1.00  0.00    -0.000 C 
BRANCH  12  13
ATOM     13  C   UNL     1     150.156 287.642 280.608  1.00  0.00    -0.000 C 
BRANCH  13  14
ATOM     14  C   UNL     1     151.352 287.883 279.668  1.00  0.00    -0.000 C 
BRANCH  14  15
ATOM     15  C   UNL     1     151.172 287.347 278.235  1.00  0.00    -0.000 C 
BRANCH  15  16
ATOM     16  C   UNL     1     149.734 287.503 277.714  1.00  0.00    -0.000 C 
BRANCH  16  17
ATOM     17  C   UNL     1     149.140 286.174 277.221  1.00  0.00    -0.003 C 
ATOM     18  C   UNL     1     147.861 285.788 277.965  1.00  0.00     0.004 C 
ENDBRANCH  16  17
ENDBRANCH  15  16
ENDBRANCH  14  15
ENDBRANCH  13  14
ENDBRANCH  12  13
ENDBRANCH  11  12
ENDBRANCH   1  11
TORSDOF 14
ENDMDL
MODEL 2
REMARK VINA RESULT:    -4.517      3.713      5.026
REMARK INTER + INTRA:          -9.557
REMARK INTER:                  -7.650
REMARK INTRA:                  -1.907
REMARK UNBOUND:                -1.343
REMARK SMILES CCCCCCCCCCCCCCCC(=O)[O-]
REMARK SMILES IDX 9 1 10 2 11 3 12 4 13 5 14 6 15 7 16 8 17 9 18 10 8 11 7 12
REMARK SMILES IDX 6 13 5 14 4 15 3 16 2 17 1 18
REMARK H PARENT
REMARK Flexibility Score: inf
ROOT
ATOM      1  C   UNL     1     151.316 287.513 278.586  1.00  0.00     0.000 C 
ENDROOT
BRANCH   1   2
ATOM      2  C   UNL     1     151.313 288.600 279.667  1.00  0.00     0.000 C 
BRANCH   2   3
ATOM      3  C   UNL     1     151.418 287.984 281.071  1.00  0.00     0.000 C 
BRANCH   3   4
ATOM      4  C   UNL     1     152.634 288.521 281.855  1.00  0.00     0.000 C 
BRANCH   4   5
ATOM      5  C   UNL     1     153.621 287.421 282.285  1.00  0.00     0.000 C 
BRANCH   5   6
ATOM      6  C   UNL     1     155.059 287.692 281.813  1.00  0.00     0.006 C 
BRANCH   6   7
ATOM      7  C   UNL     1     155.220 287.491 280.301  1.00  0.00     0.053 C 
BRANCH   7   8
ATOM      8  C   UNL     1     155.612 288.763 279.612  1.00  0.00     0.041 C 
ATOM      9  O   UNL     1     154.732 289.588 279.254  1.00  0.00    -0.550 OA
ATOM     10  O   UNL     1     156.955 289.052 279.399  1.00  0.00    -0.550 OA
ENDBRANCH   7   8
ENDBRANCH   6   7
ENDBRANCH   5   6
ENDBRANCH   4   5
ENDBRANCH   3   4
ENDBRANCH   2   3
ENDBRANCH   1   2
BRANCH   1  11
ATOM     11  C   UNL     1     150.073 287.626 277.690  1.00  0.00     0.000 C 
BRANCH  11  12
ATOM     12  C   UNL     1     149.480 286.256 277.324  1.00  0.00    -0.000 C 
BRANCH  12  13
ATOM     13  C   UNL     1     148.155 285.973 278.054  1.00  0.00    -0.000 C 
BRANCH  13  14
ATOM     14  C   UNL     1     148.350 285.654 279.547  1.00  0.00    -0.000 C 
BRANCH  14  15
ATOM     15  C   UNL     1     147.430 286.433 280.505  1.00  0.00    -0.000 C 
BRANCH  15  16
ATOM     16  C   UNL     1     147.819 287.915 280.635  1.00  0.00    -0.000 C 
BRANCH  16  17
ATOM     17  C   UNL     1     146.761 288.856 280.038  1.00  0.00    -0.003 C 
ATOM     18  C   UNL     1     147.295 289.672 278.861  1.00  0.00     0.004 C 
ENDBRANCH  16  17
ENDBRANCH  15  16
ENDBRANCH  14  15
ENDBRANCH  13  14
ENDBRANCH  12  13
ENDBRANCH  11  12
ENDBRANCH   1  11
TORSDOF 14
ENDMDL
MODEL 3
REMARK VINA RESULT:    -4.503      5.490      8.194
REMARK INTER + INTRA:          -9.532
REMARK INTER:                  -8.110
REMARK INTRA:                  -1.422
REMARK UNBOUND:                -1.343
REMARK SMILES CCCCCCCCCCCCCCCC(=O)[O-]
REMARK SMILES IDX 9 1 10 2 11 3 12 4 13 5 14 6 15 7 16 8 17 9 18 10 8 11 7 12
REMARK SMILES IDX 6 13 5 14 4 15 3 16 2 17 1 18
REMARK H PARENT
REMARK Flexibility Score: inf
ROOT
ATOM      1  C   UNL     1     151.140 287.383 278.274  1.00  0.00     0.000 C 
ENDROOT
BRANCH   1   2
ATOM      2  C   UNL     1     149.924 287.386 277.342  1.00  0.00     0.000 C 
BRANCH   2   3
ATOM      3  C   UNL     1     149.063 286.130 277.552  1.00  0.00     0.000 C 
BRANCH   3   4
ATOM      4  C   UNL     1     148.265 286.183 278.871  1.00  0.00     0.000 C 
BRANCH   4   5
ATOM      5  C   UNL     1     147.107 287.195 278.849  1.00  0.00     0.000 C 
BRANCH   5   6
ATOM      6  C   UNL     1     147.392 288.447 279.694  1.00  0.00     0.006 C 
BRANCH   6   7
ATOM      7  C   UNL     1     147.207 289.742 278.891  1.00  0.00     0.053 C 
BRANCH   7   8
ATOM      8  C   UNL     1     146.048 290.545 279.395  1.00  0.00     0.041 C 
ATOM      9  O   UNL     1     145.807 291.683 278.915  1.00  0.00    -0.550 OA
ATOM     10  O   UNL     1     145.211 290.020 280.372  1.00  0.00    -0.550 OA
ENDBRANCH   7   8
ENDBRANCH   6   7
ENDBRANCH   5   6
ENDBRANCH   4   5
ENDBRANCH   3   4
ENDBRANCH   2   3
ENDBRANCH   1   2
BRANCH   1  11
ATOM     11  C   UNL     1     151.062 288.539 279.283  1.00  0.00     0.000 C 
BRANCH  11  12
ATOM     12  C   UNL     1     151.363 288.092 280.723  1.00  0.00    -0.000 C 
BRANCH  12  13
ATOM     13  C   UNL     1     152.613 288.777 281.304  1.00  0.00    -0.000 C 
BRANCH  13  14
ATOM     14  C   UNL     1     153.644 287.775 281.855  1.00  0.00    -0.000 C 
BRANCH  14  15
ATOM     15  C   UNL     1     154.863 287.529 280.947  1.00  0.00    -0.000 C 
BRANCH  15  16
ATOM     16  C   UNL     1     154.586 287.859 279.471  1.00  0.00    -0.000 C 
BRANCH  16  17
ATOM     17  C   UNL     1     155.627 288.821 278.878  1.00  0.00    -0.003 C 
ATOM     18  C   UNL     1     156.969 288.759 279.607  1.00  0.00     0.004 C 
ENDBRANCH  16  17
ENDBRANCH  15  16
ENDBRANCH  14  15
ENDBRANCH  13  14
ENDBRANCH  12  13
ENDBRANCH  11  12
ENDBRANCH   1  11
TORSDOF 14
ENDMDL
MODEL 4
REMARK VINA RESULT:    -4.496      4.767      6.120
REMARK INTER + INTRA:          -9.519
REMARK INTER:                  -7.535
REMARK INTRA:                  -1.984
REMARK UNBOUND:                -1.343
REMARK SMILES CCCCCCCCCCCCCCCC(=O)[O-]
REMARK SMILES IDX 9 1 10 2 11 3 12 4 13 5 14 6 15 7 16 8 17 9 18 10 8 11 7 12
REMARK SMILES IDX 6 13 5 14 4 15 3 16 2 17 1 18
REMARK H PARENT
REMARK Flexibility Score: inf
ROOT
ATOM      1  C   UNL     1     149.961 287.467 277.500  1.00  0.00     0.000 C 
ENDROOT
BRANCH   1   2
ATOM      2  C   UNL     1     150.935 287.180 278.649  1.00  0.00     0.000 C 
BRANCH   2   3
ATOM      3  C   UNL     1     151.041 288.385 279.598  1.00  0.00     0.000 C 
BRANCH   3   4
ATOM      4  C   UNL     1     151.204 287.956 281.071  1.00  0.00     0.000 C 
BRANCH   4   5
ATOM      5  C   UNL     1     152.372 288.654 281.789  1.00  0.00     0.000 C 
BRANCH   5   6
ATOM      6  C   UNL     1     153.395 289.260 280.816  1.00  0.00     0.006 C 
BRANCH   6   7
ATOM      7  C   UNL     1     153.886 290.639 281.274  1.00  0.00     0.053 C 
BRANCH   7   8
ATOM      8  C   UNL     1     153.804 291.650 280.172  1.00  0.00     0.041 C 
ATOM      9  O   UNL     1     154.300 292.797 280.324  1.00  0.00    -0.550 OA
ATOM     10  O   UNL     1     153.213 291.311 278.961  1.00  0.00    -0.550 OA
ENDBRANCH   7   8
ENDBRANCH   6   7
ENDBRANCH   5   6
ENDBRANCH   4   5
ENDBRANCH   3   4
ENDBRANCH   2   3
ENDBRANCH   1   2
BRANCH   1  11
ATOM     11  C   UNL     1     148.922 286.344 277.368  1.00  0.00     0.000 C 
BRANCH  11  12
ATOM     12  C   UNL     1     148.699 285.582 278.685  1.00  0.00    -0.000 C 
BRANCH  12  13
ATOM     13  C   UNL     1     147.381 285.972 279.376  1.00  0.00    -0.000 C 
BRANCH  13  14
ATOM     14  C   UNL     1     147.598 286.642 280.745  1.00  0.00    -0.000 C 
BRANCH  14  15
ATOM     15  C   UNL     1     147.509 288.179 280.739  1.00  0.00    -0.000 C 
BRANCH  15  16
ATOM     16  C   UNL     1     146.122 288.697 280.324  1.00  0.00    -0.000 C 
BRANCH  16  17
ATOM     17  C   UNL     1     146.185 289.638 279.111  1.00  0.00    -0.003 C 
ATOM     18  C   UNL     1     147.618 289.922 278.658  1.00  0.00     0.004 C 
ENDBRANCH  16  17
ENDBRANCH  15  16
ENDBRANCH  14  15
ENDBRANCH  13  14
ENDBRANCH  12  13
ENDBRANCH  11  12
ENDBRANCH   1  11
TORSDOF 14
ENDMDL
MODEL 5
REMARK VINA RESULT:    -4.416      1.251      2.894
REMARK INTER + INTRA:          -9.375
REMARK INTER:                  -8.023
REMARK INTRA:                  -1.351
REMARK UNBOUND:                -1.343
REMARK SMILES CCCCCCCCCCCCCCCC(=O)[O-]
REMARK SMILES IDX 9 1 10 2 11 3 12 4 13 5 14 6 15 7 16 8 17 9 18 10 8 11 7 12
REMARK SMILES IDX 6 13 5 14 4 15 3 16 2 17 1 18
REMARK H PARENT
REMARK Flexibility Score: inf
ROOT
ATOM      1  C   UNL     1     148.155 285.436 280.814  1.00  0.00     0.000 C 
ENDROOT
BRANCH   1   2
ATOM      2  C   UNL     1     149.569 285.007 281.219  1.00  0.00     0.000 C 
BRANCH   2   3
ATOM      3  C   UNL     1     149.547 283.664 281.967  1.00  0.00     0.000 C 
BRANCH   3   4
ATOM      4  C   UNL     1     150.315 283.728 283.304  1.00  0.00     0.000 C 
BRANCH   4   5
ATOM      5  C   UNL     1     151.558 284.633 283.256  1.00  0.00     0.000 C 
BRANCH   5   6
ATOM      6  C   UNL     1     152.695 284.135 284.162  1.00  0.00     0.006 C 
BRANCH   6   7
ATOM      7  C   UNL     1     153.763 283.360 283.379  1.00  0.00     0.053 C 
BRANCH   7   8
ATOM      8  C   UNL     1     155.104 284.021 283.467  1.00  0.00     0.041 C 
ATOM      9  O   UNL     1     155.951 283.629 284.311  1.00  0.00    -0.550 OA
ATOM     10  O   UNL     1     155.430 285.049 282.590  1.00  0.00    -0.550 OA
ENDBRANCH   7   8
ENDBRANCH   6   7
ENDBRANCH   5   6
ENDBRANCH   4   5
ENDBRANCH   3   4
ENDBRANCH   2   3
ENDBRANCH   1   2
BRANCH   1  11
ATOM     11  C   UNL     1     147.912 285.184 279.318  1.00  0.00     0.000 C 
BRANCH  11  12
ATOM     12  C   UNL     1     148.082 286.453 278.467  1.00  0.00    -0.000 C 
BRANCH  12  13
ATOM     13  C   UNL     1     149.373 286.433 277.630  1.00  0.00    -0.000 C 
BRANCH  13  14
ATOM     14  C   UNL     1     150.024 287.822 277.500  1.00  0.00    -0.000 C 
BRANCH  14  15
ATOM     15  C   UNL     1     150.322 288.530 278.835  1.00  0.00    -0.000 C 
BRANCH  15  16
ATOM     16  C   UNL     1     151.436 287.843 279.641  1.00  0.00    -0.000 C 
BRANCH  16  17
ATOM     17  C   UNL     1     151.265 288.029 281.157  1.00  0.00    -0.003 C 
ATOM     18  C   UNL     1     152.566 288.432 281.852  1.00  0.00     0.004 C 
ENDBRANCH  16  17
ENDBRANCH  15  16
ENDBRANCH  14  15
ENDBRANCH  13  14
ENDBRANCH  12  13
ENDBRANCH  11  12
ENDBRANCH   1  11
TORSDOF 14
ENDMDL
MODEL 6
REMARK VINA RESULT:    -4.402      3.815      5.846
REMARK INTER + INTRA:          -9.349
REMARK INTER:                  -7.747
REMARK INTRA:                  -1.602
REMARK UNBOUND:                -1.343
REMARK SMILES CCCCCCCCCCCCCCCC(=O)[O-]
REMARK SMILES IDX 9 1 10 2 11 3 12 4 13 5 14 6 15 7 16 8 17 9 18 10 8 11 7 12
REMARK SMILES IDX 6 13 5 14 4 15 3 16 2 17 1 18
REMARK H PARENT
REMARK Flexibility Score: inf
ROOT
ATOM      1  C   UNL     1     151.054 288.435 279.520  1.00  0.00     0.000 C 
ENDROOT
BRANCH   1   2
ATOM      2  C   UNL     1     151.564 287.960 280.885  1.00  0.00     0.000 C 
BRANCH   2   3
ATOM      3  C   UNL     1     152.896 288.637 281.244  1.00  0.00     0.000 C 
BRANCH   3   4
ATOM      4  C   UNL     1     153.982 287.614 281.640  1.00  0.00     0.000 C 
BRANCH   4   5
ATOM      5  C   UNL     1     155.185 287.593 280.681  1.00  0.00     0.000 C 
BRANCH   5   6
ATOM      6  C   UNL     1     154.848 288.146 279.287  1.00  0.00     0.006 C 
BRANCH   6   7
ATOM      7  C   UNL     1     155.994 288.982 278.703  1.00  0.00     0.053 C 
BRANCH   7   8
ATOM      8  C   UNL     1     155.593 290.412 278.509  1.00  0.00     0.041 C 
ATOM      9  O   UNL     1     155.832 290.997 277.421  1.00  0.00    -0.550 OA
ATOM     10  O   UNL     1     154.921 291.088 279.521  1.00  0.00    -0.550 OA
ENDBRANCH   7   8
ENDBRANCH   6   7
ENDBRANCH   5   6
ENDBRANCH   4   5
ENDBRANCH   3   4
ENDBRANCH   2   3
ENDBRANCH   1   2
BRANCH   1  11
ATOM     11  C   UNL     1     151.176 287.321 278.470  1.00  0.00     0.000 C 
BRANCH  11  12
ATOM     12  C   UNL     1     150.012 287.322 277.465  1.00  0.00    -0.000 C 
BRANCH  12  13
ATOM     13  C   UNL     1     148.974 286.226 277.765  1.00  0.00    -0.000 C 
BRANCH  13  14
ATOM     14  C   UNL     1     147.864 286.698 278.721  1.00  0.00    -0.000 C 
BRANCH  14  15
ATOM     15  C   UNL     1     148.070 286.315 280.199  1.00  0.00    -0.000 C 
BRANCH  15  16
ATOM     16  C   UNL     1     148.659 284.905 280.374  1.00  0.00    -0.000 C 
BRANCH  16  17
ATOM     17  C   UNL     1     149.710 284.842 281.493  1.00  0.00    -0.003 C 
ATOM     18  C   UNL     1     149.591 283.576 282.343  1.00  0.00     0.004 C 
ENDBRANCH  16  17
ENDBRANCH  15  16
ENDBRANCH  14  15
ENDBRANCH  13  14
ENDBRANCH  12  13
ENDBRANCH  11  12
ENDBRANCH   1  11
TORSDOF 14
ENDMDL
MODEL 7
REMARK VINA RESULT:    -4.367      5.102      6.706
REMARK INTER + INTRA:          -9.284
REMARK INTER:                  -7.496
REMARK INTRA:                  -1.788
REMARK UNBOUND:                -1.343
REMARK SMILES CCCCCCCCCCCCCCCC(=O)[O-]
REMARK SMILES IDX 9 1 10 2 11 3 12 4 13 5 14 6 15 7 16 8 17 9 18 10 8 11 7 12
REMARK SMILES IDX 6 13 5 14 4 15 3 16 2 17 1 18
REMARK H PARENT
REMARK Flexibility Score: inf
ROOT
ATOM      1  C   UNL     1     151.014 287.509 280.056  1.00  0.00     0.000 C 
ENDROOT
BRANCH   1   2
ATOM      2  C   UNL     1     151.480 288.078 281.401  1.00  0.00     0.000 C 
BRANCH   2   3
ATOM      3  C   UNL     1     152.973 288.441 281.360  1.00  0.00     0.000 C 
BRANCH   3   4
ATOM      4  C   UNL     1     153.246 289.852 281.923  1.00  0.00     0.000 C 
BRANCH   4   5
ATOM      5  C   UNL     1     153.525 290.904 280.835  1.00  0.00     0.000 C 
BRANCH   5   6
ATOM      6  C   UNL     1     154.013 290.285 279.516  1.00  0.00     0.006 C 
BRANCH   6   7
ATOM      7  C   UNL     1     154.788 291.291 278.655  1.00  0.00     0.053 C 
BRANCH   7   8
ATOM      8  C   UNL     1     153.961 292.498 278.335  1.00  0.00     0.041 C 
ATOM      9  O   UNL     1     154.394 293.651 278.593  1.00  0.00    -0.550 OA
ATOM     10  O   UNL     1     152.725 292.349 277.718  1.00  0.00    -0.550 OA
ENDBRANCH   7   8
ENDBRANCH   6   7
ENDBRANCH   5   6
ENDBRANCH   4   5
ENDBRANCH   3   4
ENDBRANCH   2   3
ENDBRANCH   1   2
BRANCH   1  11
ATOM     11  C   UNL     1     150.804 288.631 279.028  1.00  0.00     0.000 C 
BRANCH  11  12
ATOM     12  C   UNL     1     149.802 288.248 277.927  1.00  0.00    -0.000 C 
BRANCH  12  13
ATOM     13  C   UNL     1     149.918 286.771 277.512  1.00  0.00    -0.000 C 
BRANCH  13  14
ATOM     14  C   UNL     1     148.634 285.968 277.787  1.00  0.00    -0.000 C 
BRANCH  14  15
ATOM     15  C   UNL     1     147.511 286.756 278.488  1.00  0.00    -0.000 C 
BRANCH  15  16
ATOM     16  C   UNL     1     147.433 286.471 279.997  1.00  0.00    -0.000 C 
BRANCH  16  17
ATOM     17  C   UNL     1     147.363 287.756 280.836  1.00  0.00    -0.003 C 
ATOM     18  C   UNL     1     146.798 288.941 280.053  1.00  0.00     0.004 C 
ENDBRANCH  16  17
ENDBRANCH  15  16
ENDBRANCH  14  15
ENDBRANCH  13  14
ENDBRANCH  12  13
ENDBRANCH  11  12
ENDBRANCH   1  11
TORSDOF 14
ENDMDL
MODEL 8
REMARK VINA RESULT:    -4.314      2.884      6.123
REMARK INTER + INTRA:          -9.188
REMARK INTER:                  -7.730
REMARK INTRA:                  -1.457
REMARK UNBOUND:                -1.343
REMARK SMILES CCCCCCCCCCCCCCCC(=O)[O-]
REMARK SMILES IDX 9 1 10 2 11 3 12 4 13 5 14 6 15 7 16 8 17 9 18 10 8 11 7 12
REMARK SMILES IDX 6 13 5 14 4 15 3 16 2 17 1 18
REMARK H PARENT
REMARK Flexibility Score: inf
ROOT
ATOM      1  C   UNL     1     148.155 285.875 277.747  1.00  0.00     0.000 C 
ENDROOT
BRANCH   1   2
ATOM      2  C   UNL     1     149.556 286.430 277.470  1.00  0.00     0.000 C 
BRANCH   2   3
ATOM      3  C   UNL     1     149.771 287.771 278.189  1.00  0.00     0.000 C 
BRANCH   3   4
ATOM      4  C   UNL     1     151.069 287.784 279.025  1.00  0.00     0.000 C 
BRANCH   4   5
ATOM      5  C   UNL     1     150.834 288.069 280.519  1.00  0.00     0.000 C 
BRANCH   5   6
ATOM      6  C   UNL     1     152.059 287.745 281.389  1.00  0.00     0.006 C 
BRANCH   6   7
ATOM      7  C   UNL     1     152.718 289.010 281.955  1.00  0.00     0.053 C 
BRANCH   7   8
ATOM      8  C   UNL     1     153.529 289.723 280.918  1.00  0.00     0.041 C 
ATOM      9  O   UNL     1     154.379 289.096 280.233  1.00  0.00    -0.550 OA
ATOM     10  O   UNL     1     153.319 291.077 280.682  1.00  0.00    -0.550 OA
ENDBRANCH   7   8
ENDBRANCH   6   7
ENDBRANCH   5   6
ENDBRANCH   4   5
ENDBRANCH   3   4
ENDBRANCH   2   3
ENDBRANCH   1   2
BRANCH   1  11
ATOM     11  C   UNL     1     147.700 286.217 279.174  1.00  0.00     0.000 C 
BRANCH  11  12
ATOM     12  C   UNL     1     147.737 285.003 280.116  1.00  0.00    -0.000 C 
BRANCH  12  13
ATOM     13  C   UNL     1     148.873 285.092 281.150  1.00  0.00    -0.000 C 
BRANCH  13  14
ATOM     14  C   UNL     1     148.968 283.844 282.046  1.00  0.00    -0.000 C 
BRANCH  14  15
ATOM     15  C   UNL     1     150.398 283.436 282.445  1.00  0.00    -0.000 C 
BRANCH  15  16
ATOM     16  C   UNL     1     151.193 284.589 283.081  1.00  0.00    -0.000 C 
BRANCH  16  17
ATOM     17  C   UNL     1     152.347 284.090 283.964  1.00  0.00    -0.003 C 
ATOM     18  C   UNL     1     153.716 284.547 283.459  1.00  0.00     0.004 C 
ENDBRANCH  16  17
ENDBRANCH  15  16
ENDBRANCH  14  15
ENDBRANCH  13  14
ENDBRANCH  12  13
ENDBRANCH  11  12
ENDBRANCH   1  11
TORSDOF 14
ENDMDL
MODEL 9
REMARK VINA RESULT:    -4.217      5.160      7.993
REMARK INTER + INTRA:          -9.011
REMARK INTER:                  -7.048
REMARK INTRA:                  -1.964
REMARK UNBOUND:                -1.343
REMARK SMILES CCCCCCCCCCCCCCCC(=O)[O-]
REMARK SMILES IDX 9 1 10 2 11 3 12 4 13 5 14 6 15 7 16 8 17 9 18 10 8 11 7 12
REMARK SMILES IDX 6 13 5 14 4 15 3 16 2 17 1 18
REMARK H PARENT
REMARK Flexibility Score: inf
ROOT
ATOM      1  C   UNL     1     152.736 289.295 281.997  1.00  0.00     0.000 C 
ENDROOT
BRANCH   1   2
ATOM      2  C   UNL     1     151.950 288.270 281.172  1.00  0.00     0.000 C 
BRANCH   2   3
ATOM      3  C   UNL     1     151.866 288.694 279.697  1.00  0.00     0.000 C 
BRANCH   3   4
ATOM      4  C   UNL     1     151.400 287.541 278.783  1.00  0.00     0.000 C 
BRANCH   4   5
ATOM      5  C   UNL     1     150.239 287.928 277.850  1.00  0.00     0.000 C 
BRANCH   5   6
ATOM      6  C   UNL     1     148.903 288.086 278.592  1.00  0.00     0.006 C 
BRANCH   6   7
ATOM      7  C   UNL     1     148.409 289.539 278.592  1.00  0.00     0.053 C 
BRANCH   7   8
ATOM      8  C   UNL     1     147.002 289.645 279.095  1.00  0.00     0.041 C 
ATOM      9  O   UNL     1     146.590 288.872 279.998  1.00  0.00    -0.550 OA
ATOM     10  O   UNL     1     146.156 290.625 278.589  1.00  0.00    -0.550 OA
ENDBRANCH   7   8
ENDBRANCH   6   7
ENDBRANCH   5   6
ENDBRANCH   4   5
ENDBRANCH   3   4
ENDBRANCH   2   3
ENDBRANCH   1   2
BRANCH   1  11
ATOM     11  C   UNL     1     153.993 288.661 282.609  1.00  0.00     0.000 C 
BRANCH  11  12
ATOM     12  C   UNL     1     154.194 287.200 282.172  1.00  0.00    -0.000 C 
BRANCH  12  13
ATOM     13  C   UNL     1     155.426 287.020 281.268  1.00  0.00    -0.000 C 
BRANCH  13  14
ATOM     14  C   UNL     1     155.918 288.343 280.654  1.00  0.00    -0.000 C 
BRANCH  14  15
ATOM     15  C   UNL     1     155.604 288.523 279.157  1.00  0.00    -0.000 C 
BRANCH  15  16
ATOM     16  C   UNL     1     155.310 289.984 278.779  1.00  0.00    -0.000 C 
BRANCH  16  17
ATOM     17  C   UNL     1     155.446 290.940 279.974  1.00  0.00    -0.003 C 
ATOM     18  C   UNL     1     154.296 291.943 280.061  1.00  0.00     0.004 C 
ENDBRANCH  16  17
ENDBRANCH  15  16
ENDBRANCH  14  15
ENDBRANCH  13  14
ENDBRANCH  12  13
ENDBRANCH  11  12
ENDBRANCH   1  11
TORSDOF 14
ENDMDL
