MODEL 1
REMARK VINA RESULT:    -4.405      0.000      0.000
REMARK INTER + INTRA:          -7.786
REMARK INTER:                  -6.980
REMARK INTRA:                  -0.806
REMARK UNBOUND:                -0.806
REMARK SMILES CCCCCCCCCCCC(=O)[O-]
REMARK SMILES IDX 7 1 8 2 9 3 10 4 11 5 12 6 13 7 14 8 6 9 5 10 4 11 3 12 2 13
REMARK SMILES IDX 1 14
REMARK H PARENT
REMARK Flexibility Score: inf
ROOT
ATOM      1  C   UNL     1      10.884  48.791  96.491  1.00  0.00     0.000 C 
ENDROOT
BRANCH   1   2
ATOM      2  C   UNL     1      10.703  48.837  98.016  1.00  0.00     0.000 C 
BRANCH   2   3
ATOM      3  C   UNL     1       9.817  50.006  98.472  1.00  0.00     0.000 C 
BRANCH   3   4
ATOM      4  C   UNL     1       8.374  49.823  97.985  1.00  0.00     0.006 C 
BRANCH   4   5
ATOM      5  C   UNL     1       7.689  51.177  97.778  1.00  0.00     0.053 C 
BRANCH   5   6
ATOM      6  C   UNL     1       7.520  51.460  96.319  1.00  0.00     0.041 C 
ATOM      7  O   UNL     1       7.869  50.606  95.463  1.00  0.00    -0.550 OA
ATOM      8  O   UNL     1       7.023  52.689  95.902  1.00  0.00    -0.550 OA
ENDBRANCH   5   6
ENDBRANCH   4   5
ENDBRANCH   3   4
ENDBRANCH   2   3
ENDBRANCH   1   2
BRANCH   1   9
ATOM      9  C   UNL     1      12.356  48.936  96.065  1.00  0.00     0.000 C 
BRANCH   9  10
ATOM     10  C   UNL     1      13.275  49.322  97.234  1.00  0.00    -0.000 C 
BRANCH  10  11
ATOM     11  C   UNL     1      13.991  50.662  97.004  1.00  0.00    -0.000 C 
BRANCH  11  12
ATOM     12  C   UNL     1      14.174  50.934  95.506  1.00  0.00    -0.000 C 
BRANCH  12  13
ATOM     13  C   UNL     1      15.579  50.528  95.042  1.00  0.00    -0.003 C 
ATOM     14  C   UNL     1      15.517  49.380  94.040  1.00  0.00     0.004 C 
ENDBRANCH  12  13
ENDBRANCH  11  12
ENDBRANCH  10  11
ENDBRANCH   9  10
ENDBRANCH   1   9
TORSDOF 10
ENDMDL
MODEL 2
REMARK VINA RESULT:    -4.179      2.342      4.332
REMARK INTER + INTRA:          -7.428
REMARK INTER:                  -6.881
REMARK INTRA:                  -0.548
REMARK UNBOUND:                -0.806
REMARK SMILES CCCCCCCCCCCC(=O)[O-]
REMARK SMILES IDX 7 1 8 2 9 3 10 4 11 5 12 6 13 7 14 8 6 9 5 10 4 11 3 12 2 13
REMARK SMILES IDX 1 14
REMARK H PARENT
REMARK Flexibility Score: inf
ROOT
ATOM      1  C   UNL     1      14.149  50.970  95.435  1.00  0.00     0.000 C 
ENDROOT
BRANCH   1   2
ATOM      2  C   UNL     1      14.123  50.930  96.971  1.00  0.00     0.000 C 
BRANCH   2   3
ATOM      3  C   UNL     1      13.616  49.587  97.518  1.00  0.00     0.000 C 
BRANCH   3   4
ATOM      4  C   UNL     1      12.278  49.202  96.875  1.00  0.00     0.006 C 
BRANCH   4   5
ATOM      5  C   UNL     1      11.157  49.168  97.918  1.00  0.00     0.053 C 
BRANCH   5   6
ATOM      6  C   UNL     1       9.939  48.508  97.355  1.00  0.00     0.041 C 
ATOM      7  O   UNL     1       9.056  49.196  96.778  1.00  0.00    -0.550 OA
ATOM      8  O   UNL     1       9.752  47.141  97.512  1.00  0.00    -0.550 OA
ENDBRANCH   5   6
ENDBRANCH   4   5
ENDBRANCH   3   4
ENDBRANCH   2   3
ENDBRANCH   1   2
BRANCH   1   9
ATOM      9  C   UNL     1      15.549  50.697  94.859  1.00  0.00     0.000 C 
BRANCH   9  10
ATOM     10  C   UNL     1      15.610  49.396  94.044  1.00  0.00    -0.000 C 
BRANCH  10  11
ATOM     11  C   UNL     1      16.364  48.275  94.776  1.00  0.00    -0.000 C 
BRANCH  11  12
ATOM     12  C   UNL     1      16.973  47.282  93.779  1.00  0.00    -0.000 C 
BRANCH  12  13
ATOM     13  C   UNL     1      18.073  46.444  94.441  1.00  0.00    -0.003 C 
ATOM     14  C   UNL     1      19.078  45.941  93.410  1.00  0.00     0.004 C 
ENDBRANCH  12  13
ENDBRANCH  11  12
ENDBRANCH  10  11
ENDBRANCH   9  10
ENDBRANCH   1   9
TORSDOF 10
ENDMDL
MODEL 3
REMARK VINA RESULT:    -4.115      5.029      7.665
REMARK INTER + INTRA:          -7.327
REMARK INTER:                  -6.303
REMARK INTRA:                  -1.024
REMARK UNBOUND:                -0.806
REMARK SMILES CCCCCCCCCCCC(=O)[O-]
REMARK SMILES IDX 7 1 8 2 9 3 10 4 11 5 12 6 13 7 14 8 6 9 5 10 4 11 3 12 2 13
REMARK SMILES IDX 1 14
REMARK H PARENT
REMARK Flexibility Score: inf
ROOT
ATOM      1  C   UNL     1      14.841  50.884  95.650  1.00  0.00     0.000 C 
ENDROOT
BRANCH   1   2
ATOM      2  C   UNL     1      15.585  49.580  95.324  1.00  0.00     0.000 C 
BRANCH   2   3
ATOM      3  C   UNL     1      15.321  49.091  93.892  1.00  0.00     0.000 C 
BRANCH   3   4
ATOM      4  C   UNL     1      16.366  48.053  93.465  1.00  0.00     0.006 C 
BRANCH   4   5
ATOM      5  C   UNL     1      17.059  47.438  94.685  1.00  0.00     0.053 C 
BRANCH   5   6
ATOM      6  C   UNL     1      17.982  46.339  94.263  1.00  0.00     0.041 C 
ATOM      7  O   UNL     1      17.587  45.453  93.460  1.00  0.00    -0.550 OA
ATOM      8  O   UNL     1      19.262  46.262  94.797  1.00  0.00    -0.550 OA
ENDBRANCH   5   6
ENDBRANCH   4   5
ENDBRANCH   3   4
ENDBRANCH   2   3
ENDBRANCH   1   2
BRANCH   1   9
ATOM      9  C   UNL     1      13.926  50.752  96.880  1.00  0.00     0.000 C 
BRANCH   9  10
ATOM     10  C   UNL     1      13.416  49.317  97.087  1.00  0.00    -0.000 C 
BRANCH  10  11
ATOM     11  C   UNL     1      11.942  49.270  97.517  1.00  0.00    -0.000 C 
BRANCH  11  12
ATOM     12  C   UNL     1      11.038  48.897  96.335  1.00  0.00    -0.000 C 
BRANCH  12  13
ATOM     13  C   UNL     1      11.870  48.444  95.129  1.00  0.00    -0.003 C 
ATOM     14  C   UNL     1      11.481  49.215  93.872  1.00  0.00     0.004 C 
ENDBRANCH  12  13
ENDBRANCH  11  12
ENDBRANCH  10  11
ENDBRANCH   9  10
ENDBRANCH   1   9
TORSDOF 10
ENDMDL
MODEL 4
REMARK VINA RESULT:    -4.018      4.223      7.175
REMARK INTER + INTRA:          -7.173
REMARK INTER:                  -6.437
REMARK INTRA:                  -0.736
REMARK UNBOUND:                -0.806
REMARK SMILES CCCCCCCCCCCC(=O)[O-]
REMARK SMILES IDX 7 1 8 2 9 3 10 4 11 5 12 6 13 7 14 8 6 9 5 10 4 11 3 12 2 13
REMARK SMILES IDX 1 14
REMARK H PARENT
REMARK Flexibility Score: inf
ROOT
ATOM      1  C   UNL     1      13.754  49.504  97.225  1.00  0.00     0.000 C 
ENDROOT
BRANCH   1   2
ATOM      2  C   UNL     1      14.138  50.871  96.639  1.00  0.00     0.000 C 
BRANCH   2   3
ATOM      3  C   UNL     1      15.039  50.750  95.400  1.00  0.00     0.000 C 
BRANCH   3   4
ATOM      4  C   UNL     1      15.501  49.302  95.196  1.00  0.00     0.006 C 
BRANCH   4   5
ATOM      5  C   UNL     1      15.635  48.974  93.706  1.00  0.00     0.053 C 
BRANCH   5   6
ATOM      6  C   UNL     1      16.520  47.783  93.510  1.00  0.00     0.041 C 
ATOM      7  O   UNL     1      17.207  47.341  94.468  1.00  0.00    -0.550 OA
ATOM      8  O   UNL     1      16.624  47.192  92.258  1.00  0.00    -0.550 OA
ENDBRANCH   5   6
ENDBRANCH   4   5
ENDBRANCH   3   4
ENDBRANCH   2   3
ENDBRANCH   1   2
BRANCH   1   9
ATOM      9  C   UNL     1      12.238  49.244  97.178  1.00  0.00     0.000 C 
BRANCH   9  10
ATOM     10  C   UNL     1      11.772  48.710  95.814  1.00  0.00    -0.000 C 
BRANCH  10  11
ATOM     11  C   UNL     1      10.451  47.932  95.905  1.00  0.00    -0.000 C 
BRANCH  11  12
ATOM     12  C   UNL     1       9.852  48.033  97.313  1.00  0.00    -0.000 C 
BRANCH  12  13
ATOM     13  C   UNL     1       8.629  48.957  97.325  1.00  0.00    -0.003 C 
ATOM     14  C   UNL     1       8.856  50.160  98.235  1.00  0.00     0.004 C 
ENDBRANCH  12  13
ENDBRANCH  11  12
ENDBRANCH  10  11
ENDBRANCH   9  10
ENDBRANCH   1   9
TORSDOF 10
ENDMDL
MODEL 5
REMARK VINA RESULT:    -3.989      2.815      3.657
REMARK INTER + INTRA:          -7.127
REMARK INTER:                  -6.356
REMARK INTRA:                  -0.771
REMARK UNBOUND:                -0.806
REMARK SMILES CCCCCCCCCCCC(=O)[O-]
REMARK SMILES IDX 7 1 8 2 9 3 10 4 11 5 12 6 13 7 14 8 6 9 5 10 4 11 3 12 2 13
REMARK SMILES IDX 1 14
REMARK H PARENT
REMARK Flexibility Score: inf
ROOT
ATOM      1  C   UNL     1      11.073  49.159  97.941  1.00  0.00     0.000 C 
ENDROOT
BRANCH   1   2
ATOM      2  C   UNL     1       9.732  48.553  97.500  1.00  0.00     0.000 C 
BRANCH   2   3
ATOM      3  C   UNL     1       9.686  47.028  97.680  1.00  0.00     0.000 C 
BRANCH   3   4
ATOM      4  C   UNL     1       9.097  46.346  96.438  1.00  0.00     0.006 C 
BRANCH   4   5
ATOM      5  C   UNL     1       9.364  47.175  95.179  1.00  0.00     0.053 C 
BRANCH   5   6
ATOM      6  C   UNL     1      10.520  46.610  94.416  1.00  0.00     0.041 C 
ATOM      7  O   UNL     1      11.263  47.367  93.738  1.00  0.00    -0.550 OA
ATOM      8  O   UNL     1      10.747  45.239  94.412  1.00  0.00    -0.550 OA
ENDBRANCH   5   6
ENDBRANCH   4   5
ENDBRANCH   3   4
ENDBRANCH   2   3
ENDBRANCH   1   2
BRANCH   1   9
ATOM      9  C   UNL     1      12.113  49.186  96.805  1.00  0.00     0.000 C 
BRANCH   9  10
ATOM     10  C   UNL     1      13.545  49.399  97.320  1.00  0.00    -0.000 C 
BRANCH  10  11
ATOM     11  C   UNL     1      14.095  50.791  96.975  1.00  0.00    -0.000 C 
BRANCH  11  12
ATOM     12  C   UNL     1      14.213  50.972  95.457  1.00  0.00    -0.000 C 
BRANCH  12  13
ATOM     13  C   UNL     1      15.605  50.561  94.961  1.00  0.00    -0.003 C 
ATOM     14  C   UNL     1      15.546  49.260  94.168  1.00  0.00     0.004 C 
ENDBRANCH  12  13
ENDBRANCH  11  12
ENDBRANCH  10  11
ENDBRANCH   9  10
ENDBRANCH   1   9
TORSDOF 10
ENDMDL
MODEL 6
REMARK VINA RESULT:    -3.926      3.378      5.985
REMARK INTER + INTRA:          -7.027
REMARK INTER:                  -6.084
REMARK INTRA:                  -0.944
REMARK UNBOUND:                -0.806
REMARK SMILES CCCCCCCCCCCC(=O)[O-]
REMARK SMILES IDX 7 1 8 2 9 3 10 4 11 5 12 6 13 7 14 8 6 9 5 10 4 11 3 12 2 13
REMARK SMILES IDX 1 14
REMARK H PARENT
REMARK Flexibility Score: inf
ROOT
ATOM      1  C   UNL     1      10.350  49.632  98.431  1.00  0.00     0.000 C 
ENDROOT
BRANCH   1   2
ATOM      2  C   UNL     1      10.871  48.507  97.524  1.00  0.00     0.000 C 
BRANCH   2   3
ATOM      3  C   UNL     1      11.924  48.998  96.519  1.00  0.00     0.000 C 
BRANCH   3   4
ATOM      4  C   UNL     1      13.252  49.307  97.222  1.00  0.00     0.006 C 
BRANCH   4   5
ATOM      5  C   UNL     1      13.963  50.489  96.557  1.00  0.00     0.053 C 
BRANCH   5   6
ATOM      6  C   UNL     1      15.139  50.014  95.764  1.00  0.00     0.041 C 
ATOM      7  O   UNL     1      15.524  48.819  95.856  1.00  0.00    -0.550 OA
ATOM      8  O   UNL     1      15.841  50.903  94.960  1.00  0.00    -0.550 OA
ENDBRANCH   5   6
ENDBRANCH   4   5
ENDBRANCH   3   4
ENDBRANCH   2   3
ENDBRANCH   1   2
BRANCH   1   9
ATOM      9  C   UNL     1       8.931  50.090  98.050  1.00  0.00     0.000 C 
BRANCH   9  10
ATOM     10  C   UNL     1       8.065  48.942  97.506  1.00  0.00    -0.000 C 
BRANCH  10  11
ATOM     11  C   UNL     1       7.235  49.359  96.282  1.00  0.00    -0.000 C 
BRANCH  11  12
ATOM     12  C   UNL     1       8.043  50.281  95.360  1.00  0.00    -0.000 C 
BRANCH  12  13
ATOM     13  C   UNL     1       8.953  49.468  94.432  1.00  0.00    -0.003 C 
ATOM     14  C   UNL     1       9.217  50.214  93.128  1.00  0.00     0.004 C 
ENDBRANCH  12  13
ENDBRANCH  11  12
ENDBRANCH  10  11
ENDBRANCH   9  10
ENDBRANCH   1   9
TORSDOF 10
ENDMDL
MODEL 7
REMARK VINA RESULT:    -3.918      4.685      7.917
REMARK INTER + INTRA:          -7.015
REMARK INTER:                  -6.580
REMARK INTRA:                  -0.435
REMARK UNBOUND:                -0.806
REMARK SMILES CCCCCCCCCCCC(=O)[O-]
REMARK SMILES IDX 7 1 8 2 9 3 10 4 11 5 12 6 13 7 14 8 6 9 5 10 4 11 3 12 2 13
REMARK SMILES IDX 1 14
REMARK H PARENT
REMARK Flexibility Score: inf
ROOT
ATOM      1  C   UNL     1      14.445  49.581  96.528  1.00  0.00     0.000 C 
ENDROOT
BRANCH   1   2
ATOM      2  C   UNL     1      14.485  50.216  95.130  1.00  0.00     0.000 C 
BRANCH   2   3
ATOM      3  C   UNL     1      15.425  49.472  94.170  1.00  0.00     0.000 C 
BRANCH   3   4
ATOM      4  C   UNL     1      16.292  48.457  94.926  1.00  0.00     0.006 C 
BRANCH   4   5
ATOM      5  C   UNL     1      16.933  47.456  93.961  1.00  0.00     0.053 C 
BRANCH   5   6
ATOM      6  C   UNL     1      17.915  46.589  94.683  1.00  0.00     0.041 C 
ATOM      7  O   UNL     1      17.735  46.303  95.896  1.00  0.00    -0.550 OA
ATOM      8  O   UNL     1      19.055  46.135  94.031  1.00  0.00    -0.550 OA
ENDBRANCH   5   6
ENDBRANCH   4   5
ENDBRANCH   3   4
ENDBRANCH   2   3
ENDBRANCH   1   2
BRANCH   1   9
ATOM      9  C   UNL     1      13.184  49.971  97.320  1.00  0.00     0.000 C 
BRANCH   9  10
ATOM     10  C   UNL     1      11.971  49.096  96.967  1.00  0.00    -0.000 C 
BRANCH  10  11
ATOM     11  C   UNL     1      10.907  49.088  98.076  1.00  0.00    -0.000 C 
BRANCH  11  12
ATOM     12  C   UNL     1       9.559  48.591  97.538  1.00  0.00    -0.000 C 
BRANCH  12  13
ATOM     13  C   UNL     1       9.732  47.295  96.737  1.00  0.00    -0.003 C 
ATOM     14  C   UNL     1       9.145  46.102  97.484  1.00  0.00     0.004 C 
ENDBRANCH  12  13
ENDBRANCH  11  12
ENDBRANCH  10  11
ENDBRANCH   9  10
ENDBRANCH   1   9
TORSDOF 10
ENDMDL
MODEL 8
REMARK VINA RESULT:    -3.872      2.319      3.094
REMARK INTER + INTRA:          -6.941
REMARK INTER:                  -6.105
REMARK INTRA:                  -0.836
REMARK UNBOUND:                -0.806
REMARK SMILES CCCCCCCCCCCC(=O)[O-]
REMARK SMILES IDX 7 1 8 2 9 3 10 4 11 5 12 6 13 7 14 8 6 9 5 10 4 11 3 12 2 13
REMARK SMILES IDX 1 14
REMARK H PARENT
REMARK Flexibility Score: inf
ROOT
ATOM      1  C   UNL     1      10.466  49.560  98.249  1.00  0.00     0.000 C 
ENDROOT
BRANCH   1   2
ATOM      2  C   UNL     1       8.952  49.819  98.235  1.00  0.00     0.000 C 
BRANCH   2   3
ATOM      3  C   UNL     1       8.412  50.096  96.824  1.00  0.00     0.000 C 
BRANCH   3   4
ATOM      4  C   UNL     1       7.288  49.117  96.464  1.00  0.00     0.006 C 
BRANCH   4   5
ATOM      5  C   UNL     1       7.709  48.197  95.314  1.00  0.00     0.053 C 
BRANCH   5   6
ATOM      6  C   UNL     1       7.949  46.808  95.817  1.00  0.00     0.041 C 
ATOM      7  O   UNL     1       7.938  46.571  97.053  1.00  0.00    -0.550 OA
ATOM      8  O   UNL     1       8.236  45.784  94.923  1.00  0.00    -0.550 OA
ENDBRANCH   5   6
ENDBRANCH   4   5
ENDBRANCH   3   4
ENDBRANCH   2   3
ENDBRANCH   1   2
BRANCH   1   9
ATOM      9  C   UNL     1      10.923  48.659  97.088  1.00  0.00     0.000 C 
BRANCH   9  10
ATOM     10  C   UNL     1      12.359  48.964  96.633  1.00  0.00    -0.000 C 
BRANCH  10  11
ATOM     11  C   UNL     1      13.073  49.959  97.560  1.00  0.00    -0.000 C 
BRANCH  11  12
ATOM     12  C   UNL     1      14.208  50.679  96.822  1.00  0.00    -0.000 C 
BRANCH  12  13
ATOM     13  C   UNL     1      14.904  49.737  95.832  1.00  0.00    -0.003 C 
ATOM     14  C   UNL     1      15.658  50.520  94.763  1.00  0.00     0.004 C 
ENDBRANCH  12  13
ENDBRANCH  11  12
ENDBRANCH  10  11
ENDBRANCH   9  10
ENDBRANCH   1   9
TORSDOF 10
ENDMDL
MODEL 9
REMARK VINA RESULT:    -3.673      3.928      6.116
REMARK INTER + INTRA:          -6.626
REMARK INTER:                  -6.045
REMARK INTRA:                  -0.581
REMARK UNBOUND:                -0.806
REMARK SMILES CCCCCCCCCCCC(=O)[O-]
REMARK SMILES IDX 7 1 8 2 9 3 10 4 11 5 12 6 13 7 14 8 6 9 5 10 4 11 3 12 2 13
REMARK SMILES IDX 1 14
REMARK H PARENT
REMARK Flexibility Score: inf
ROOT
ATOM      1  C   UNL     1       9.778  48.051  96.961  1.00  0.00     0.000 C 
ENDROOT
BRANCH   1   2
ATOM      2  C   UNL     1      10.892  48.874  97.625  1.00  0.00     0.000 C 
BRANCH   2   3
ATOM      3  C   UNL     1      12.205  48.844  96.828  1.00  0.00     0.000 C 
BRANCH   3   4
ATOM      4  C   UNL     1      13.158  49.949  97.298  1.00  0.00     0.006 C 
BRANCH   4   5
ATOM      5  C   UNL     1      14.544  49.784  96.668  1.00  0.00     0.053 C 
BRANCH   5   6
ATOM      6  C   UNL     1      14.475  49.996  95.189  1.00  0.00     0.041 C 
ATOM      7  O   UNL     1      15.060  49.202  94.407  1.00  0.00    -0.550 OA
ATOM      8  O   UNL     1      13.806  51.100  94.675  1.00  0.00    -0.550 OA
ENDBRANCH   5   6
ENDBRANCH   4   5
ENDBRANCH   3   4
ENDBRANCH   2   3
ENDBRANCH   1   2
BRANCH   1   9
ATOM      9  C   UNL     1       9.848  48.092  95.424  1.00  0.00     0.000 C 
BRANCH   9  10
ATOM     10  C   UNL     1       9.374  46.782  94.775  1.00  0.00    -0.000 C 
BRANCH  10  11
ATOM     11  C   UNL     1       9.576  45.564  95.690  1.00  0.00    -0.000 C 
BRANCH  11  12
ATOM     12  C   UNL     1      10.361  44.462  94.967  1.00  0.00    -0.000 C 
BRANCH  12  13
ATOM     13  C   UNL     1      10.617  43.270  95.897  1.00  0.00    -0.003 C 
ATOM     14  C   UNL     1      11.769  42.410  95.387  1.00  0.00     0.004 C 
ENDBRANCH  12  13
ENDBRANCH  11  12
ENDBRANCH  10  11
ENDBRANCH   9  10
ENDBRANCH   1   9
TORSDOF 10
ENDMDL
