MODEL 1
REMARK VINA RESULT:    -3.750      0.000      0.000
REMARK INTER + INTRA:          -6.910
REMARK INTER:                  -5.942
REMARK INTRA:                  -0.968
REMARK UNBOUND:                -0.968
REMARK SMILES CCCCCCCCCCCC(=O)[O-]
REMARK SMILES IDX 7 1 8 2 9 3 10 4 11 5 12 6 13 7 14 8 6 9 5 10 4 11 3 12 2 13
REMARK SMILES IDX 1 14
REMARK H PARENT
REMARK Flexibility Score: inf
ROOT
ATOM      1  C   UNL     1     -53.208 120.162  -9.735  1.00  0.00     0.000 C 
ENDROOT
BRANCH   1   2
ATOM      2  C   UNL     1     -53.302 121.488  -8.959  1.00  0.00     0.000 C 
BRANCH   2   3
ATOM      3  C   UNL     1     -54.728 122.052  -8.789  1.00  0.00     0.000 C 
BRANCH   3   4
ATOM      4  C   UNL     1     -55.862 121.090  -9.180  1.00  0.00     0.006 C 
BRANCH   4   5
ATOM      5  C   UNL     1     -56.422 121.365 -10.581  1.00  0.00     0.053 C 
BRANCH   5   6
ATOM      6  C   UNL     1     -57.121 120.154 -11.112  1.00  0.00     0.041 C 
ATOM      7  O   UNL     1     -58.177 120.277 -11.785  1.00  0.00    -0.550 OA
ATOM      8  O   UNL     1     -56.633 118.887 -10.820  1.00  0.00    -0.550 OA
ENDBRANCH   5   6
ENDBRANCH   4   5
ENDBRANCH   3   4
ENDBRANCH   2   3
ENDBRANCH   1   2
BRANCH   1   9
ATOM      9  C   UNL     1     -52.868 120.364 -11.222  1.00  0.00     0.000 C 
BRANCH   9  10
ATOM     10  C   UNL     1     -52.797 121.849 -11.614  1.00  0.00    -0.000 C 
BRANCH  10  11
ATOM     11  C   UNL     1     -51.357 122.329 -11.865  1.00  0.00    -0.000 C 
BRANCH  11  12
ATOM     12  C   UNL     1     -50.314 121.228 -11.616  1.00  0.00    -0.000 C 
BRANCH  12  13
ATOM     13  C   UNL     1     -49.574 121.408 -10.282  1.00  0.00    -0.003 C 
ATOM     14  C   UNL     1     -49.661 122.853  -9.798  1.00  0.00     0.004 C 
ENDBRANCH  12  13
ENDBRANCH  11  12
ENDBRANCH  10  11
ENDBRANCH   9  10
ENDBRANCH   1   9
TORSDOF 10
ENDMDL
MODEL 2
REMARK VINA RESULT:    -3.720      1.675      2.300
REMARK INTER + INTRA:          -6.862
REMARK INTER:                  -6.221
REMARK INTRA:                  -0.641
REMARK UNBOUND:                -0.968
REMARK SMILES CCCCCCCCCCCC(=O)[O-]
REMARK SMILES IDX 7 1 8 2 9 3 10 4 11 5 12 6 13 7 14 8 6 9 5 10 4 11 3 12 2 13
REMARK SMILES IDX 1 14
REMARK H PARENT
REMARK Flexibility Score: inf
ROOT
ATOM      1  C   UNL     1     -52.900 120.896  -9.383  1.00  0.00     0.000 C 
ENDROOT
BRANCH   1   2
ATOM      2  C   UNL     1     -53.648 119.735 -10.062  1.00  0.00     0.000 C 
BRANCH   2   3
ATOM      3  C   UNL     1     -54.319 120.080 -11.407  1.00  0.00     0.000 C 
BRANCH   3   4
ATOM      4  C   UNL     1     -55.841 119.857 -11.453  1.00  0.00     0.006 C 
BRANCH   4   5
ATOM      5  C   UNL     1     -56.516 120.070 -10.093  1.00  0.00     0.053 C 
BRANCH   5   6
ATOM      6  C   UNL     1     -56.528 121.523  -9.737  1.00  0.00     0.041 C 
ATOM      7  O   UNL     1     -56.455 122.397 -10.639  1.00  0.00    -0.550 OA
ATOM      8  O   UNL     1     -56.572 121.911  -8.404  1.00  0.00    -0.550 OA
ENDBRANCH   5   6
ENDBRANCH   4   5
ENDBRANCH   3   4
ENDBRANCH   2   3
ENDBRANCH   1   2
BRANCH   1   9
ATOM      9  C   UNL     1     -52.733 122.117 -10.303  1.00  0.00     0.000 C 
BRANCH   9  10
ATOM     10  C   UNL     1     -51.411 122.088 -11.088  1.00  0.00    -0.000 C 
BRANCH  10  11
ATOM     11  C   UNL     1     -50.277 121.391 -10.316  1.00  0.00    -0.000 C 
BRANCH  11  12
ATOM     12  C   UNL     1     -48.891 121.956 -10.665  1.00  0.00    -0.000 C 
BRANCH  12  13
ATOM     13  C   UNL     1     -48.876 123.491 -10.716  1.00  0.00    -0.003 C 
ATOM     14  C   UNL     1     -48.884 124.086  -9.311  1.00  0.00     0.004 C 
ENDBRANCH  12  13
ENDBRANCH  11  12
ENDBRANCH  10  11
ENDBRANCH   9  10
ENDBRANCH   1   9
TORSDOF 10
ENDMDL
MODEL 3
REMARK VINA RESULT:    -3.516      1.439      2.313
REMARK INTER + INTRA:          -6.540
REMARK INTER:                  -5.394
REMARK INTRA:                  -1.146
REMARK UNBOUND:                -0.968
REMARK SMILES CCCCCCCCCCCC(=O)[O-]
REMARK SMILES IDX 7 1 8 2 9 3 10 4 11 5 12 6 13 7 14 8 6 9 5 10 4 11 3 12 2 13
REMARK SMILES IDX 1 14
REMARK H PARENT
REMARK Flexibility Score: inf
ROOT
ATOM      1  C   UNL     1     -53.301 120.792  -8.886  1.00  0.00     0.000 C 
ENDROOT
BRANCH   1   2
ATOM      2  C   UNL     1     -53.408 119.834 -10.086  1.00  0.00     0.000 C 
BRANCH   2   3
ATOM      3  C   UNL     1     -53.685 120.508 -11.446  1.00  0.00     0.000 C 
BRANCH   3   4
ATOM      4  C   UNL     1     -55.036 120.151 -12.088  1.00  0.00     0.006 C 
BRANCH   4   5
ATOM      5  C   UNL     1     -56.135 121.174 -11.775  1.00  0.00     0.053 C 
BRANCH   5   6
ATOM      6  C   UNL     1     -56.760 120.879 -10.449  1.00  0.00     0.041 C 
ATOM      7  O   UNL     1     -57.144 119.712 -10.174  1.00  0.00    -0.550 OA
ATOM      8  O   UNL     1     -56.964 121.904  -9.534  1.00  0.00    -0.550 OA
ENDBRANCH   5   6
ENDBRANCH   4   5
ENDBRANCH   3   4
ENDBRANCH   2   3
ENDBRANCH   1   2
BRANCH   1   9
ATOM      9  C   UNL     1     -53.485 122.267  -9.282  1.00  0.00     0.000 C 
BRANCH   9  10
ATOM     10  C   UNL     1     -52.294 123.143  -8.864  1.00  0.00    -0.000 C 
BRANCH  10  11
ATOM     11  C   UNL     1     -50.938 122.527  -9.254  1.00  0.00    -0.000 C 
BRANCH  11  12
ATOM     12  C   UNL     1     -50.749 122.431 -10.776  1.00  0.00    -0.000 C 
BRANCH  12  13
ATOM     13  C   UNL     1     -49.558 121.544 -11.167  1.00  0.00    -0.003 C 
ATOM     14  C   UNL     1     -48.906 120.925  -9.933  1.00  0.00     0.004 C 
ENDBRANCH  12  13
ENDBRANCH  11  12
ENDBRANCH  10  11
ENDBRANCH   9  10
ENDBRANCH   1   9
TORSDOF 10
ENDMDL
MODEL 4
REMARK VINA RESULT:    -3.459      1.213      1.841
REMARK INTER + INTRA:          -6.449
REMARK INTER:                  -5.805
REMARK INTRA:                  -0.644
REMARK UNBOUND:                -0.968
REMARK SMILES CCCCCCCCCCCC(=O)[O-]
REMARK SMILES IDX 7 1 8 2 9 3 10 4 11 5 12 6 13 7 14 8 6 9 5 10 4 11 3 12 2 13
REMARK SMILES IDX 1 14
REMARK H PARENT
REMARK Flexibility Score: inf
ROOT
ATOM      1  C   UNL     1     -53.750 120.982  -9.007  1.00  0.00     0.000 C 
ENDROOT
BRANCH   1   2
ATOM      2  C   UNL     1     -54.502 122.223  -9.520  1.00  0.00     0.000 C 
BRANCH   2   3
ATOM      3  C   UNL     1     -54.438 122.448 -11.045  1.00  0.00     0.000 C 
BRANCH   3   4
ATOM      4  C   UNL     1     -55.684 121.995 -11.824  1.00  0.00     0.006 C 
BRANCH   4   5
ATOM      5  C   UNL     1     -55.710 120.483 -12.079  1.00  0.00     0.053 C 
BRANCH   5   6
ATOM      6  C   UNL     1     -56.757 119.828 -11.235  1.00  0.00     0.041 C 
ATOM      7  O   UNL     1     -56.539 118.702 -10.717  1.00  0.00    -0.550 OA
ATOM      8  O   UNL     1     -57.991 120.440 -11.060  1.00  0.00    -0.550 OA
ENDBRANCH   5   6
ENDBRANCH   4   5
ENDBRANCH   3   4
ENDBRANCH   2   3
ENDBRANCH   1   2
BRANCH   1   9
ATOM      9  C   UNL     1     -52.692 120.472 -10.001  1.00  0.00     0.000 C 
BRANCH   9  10
ATOM     10  C   UNL     1     -51.374 121.257  -9.913  1.00  0.00    -0.000 C 
BRANCH  10  11
ATOM     11  C   UNL     1     -50.826 121.655 -11.295  1.00  0.00    -0.000 C 
BRANCH  11  12
ATOM     12  C   UNL     1     -49.313 121.929 -11.273  1.00  0.00    -0.000 C 
BRANCH  12  13
ATOM     13  C   UNL     1     -48.987 123.420 -11.107  1.00  0.00    -0.003 C 
ATOM     14  C   UNL     1     -48.875 123.795  -9.632  1.00  0.00     0.004 C 
ENDBRANCH  12  13
ENDBRANCH  11  12
ENDBRANCH  10  11
ENDBRANCH   9  10
ENDBRANCH   1   9
TORSDOF 10
ENDMDL
MODEL 5
REMARK VINA RESULT:    -3.400      1.784      2.745
REMARK INTER + INTRA:          -6.356
REMARK INTER:                  -5.585
REMARK INTRA:                  -0.771
REMARK UNBOUND:                -0.968
REMARK SMILES CCCCCCCCCCCC(=O)[O-]
REMARK SMILES IDX 7 1 8 2 9 3 10 4 11 5 12 6 13 7 14 8 6 9 5 10 4 11 3 12 2 13
REMARK SMILES IDX 1 14
REMARK H PARENT
REMARK Flexibility Score: inf
ROOT
ATOM      1  C   UNL     1     -52.170 122.107  -9.530  1.00  0.00     0.000 C 
ENDROOT
BRANCH   1   2
ATOM      2  C   UNL     1     -53.080 120.938  -9.113  1.00  0.00     0.000 C 
BRANCH   2   3
ATOM      3  C   UNL     1     -53.372 119.903 -10.220  1.00  0.00     0.000 C 
BRANCH   3   4
ATOM      4  C   UNL     1     -54.569 120.236 -11.126  1.00  0.00     0.006 C 
BRANCH   4   5
ATOM      5  C   UNL     1     -55.897 120.297 -10.361  1.00  0.00     0.053 C 
BRANCH   5   6
ATOM      6  C   UNL     1     -56.293 121.718 -10.114  1.00  0.00     0.041 C 
ATOM      7  O   UNL     1     -56.841 122.043  -9.028  1.00  0.00    -0.550 OA
ATOM      8  O   UNL     1     -56.103 122.674 -11.103  1.00  0.00    -0.550 OA
ENDBRANCH   5   6
ENDBRANCH   4   5
ENDBRANCH   3   4
ENDBRANCH   2   3
ENDBRANCH   1   2
BRANCH   1   9
ATOM      9  C   UNL     1     -51.202 121.734 -10.666  1.00  0.00     0.000 C 
BRANCH   9  10
ATOM     10  C   UNL     1     -49.882 121.142 -10.145  1.00  0.00    -0.000 C 
BRANCH  10  11
ATOM     11  C   UNL     1     -48.878 122.223  -9.707  1.00  0.00    -0.000 C 
BRANCH  11  12
ATOM     12  C   UNL     1     -49.028 123.527 -10.507  1.00  0.00    -0.000 C 
BRANCH  12  13
ATOM     13  C   UNL     1     -48.875 124.777  -9.628  1.00  0.00    -0.003 C 
ATOM     14  C   UNL     1     -49.732 124.671  -8.369  1.00  0.00     0.004 C 
ENDBRANCH  12  13
ENDBRANCH  11  12
ENDBRANCH  10  11
ENDBRANCH   9  10
ENDBRANCH   1   9
TORSDOF 10
ENDMDL
MODEL 6
REMARK VINA RESULT:    -3.366      3.363      6.080
REMARK INTER + INTRA:          -6.302
REMARK INTER:                  -5.148
REMARK INTRA:                  -1.154
REMARK UNBOUND:                -0.968
REMARK SMILES CCCCCCCCCCCC(=O)[O-]
REMARK SMILES IDX 7 1 8 2 9 3 10 4 11 5 12 6 13 7 14 8 6 9 5 10 4 11 3 12 2 13
REMARK SMILES IDX 1 14
REMARK H PARENT
REMARK Flexibility Score: inf
ROOT
ATOM      1  C   UNL     1     -53.201 120.780  -9.020  1.00  0.00     0.000 C 
ENDROOT
BRANCH   1   2
ATOM      2  C   UNL     1     -52.809 120.245 -10.408  1.00  0.00     0.000 C 
BRANCH   2   3
ATOM      3  C   UNL     1     -52.406 121.319 -11.439  1.00  0.00     0.000 C 
BRANCH   3   4
ATOM      4  C   UNL     1     -50.948 121.244 -11.925  1.00  0.00     0.006 C 
BRANCH   4   5
ATOM      5  C   UNL     1     -50.107 122.444 -11.473  1.00  0.00     0.053 C 
BRANCH   5   6
ATOM      6  C   UNL     1     -49.548 122.206 -10.106  1.00  0.00     0.041 C 
ATOM      7  O   UNL     1     -49.076 121.080  -9.803  1.00  0.00    -0.550 OA
ATOM      8  O   UNL     1     -49.593 123.214  -9.152  1.00  0.00    -0.550 OA
ENDBRANCH   5   6
ENDBRANCH   4   5
ENDBRANCH   3   4
ENDBRANCH   2   3
ENDBRANCH   1   2
BRANCH   1   9
ATOM      9  C   UNL     1     -54.168 121.974  -9.091  1.00  0.00     0.000 C 
BRANCH   9  10
ATOM     10  C   UNL     1     -55.550 121.649  -8.501  1.00  0.00    -0.000 C 
BRANCH  10  11
ATOM     11  C   UNL     1     -56.626 121.447  -9.582  1.00  0.00    -0.000 C 
BRANCH  11  12
ATOM     12  C   UNL     1     -56.082 121.659 -11.004  1.00  0.00    -0.000 C 
BRANCH  12  13
ATOM     13  C   UNL     1     -56.145 120.383 -11.855  1.00  0.00    -0.003 C 
ATOM     14  C   UNL     1     -56.739 119.223 -11.061  1.00  0.00     0.004 C 
ENDBRANCH  12  13
ENDBRANCH  11  12
ENDBRANCH  10  11
ENDBRANCH   9  10
ENDBRANCH   1   9
TORSDOF 10
ENDMDL
MODEL 7
REMARK VINA RESULT:    -3.242      1.527      2.902
REMARK INTER + INTRA:          -6.106
REMARK INTER:                  -5.011
REMARK INTRA:                  -1.095
REMARK UNBOUND:                -0.968
REMARK SMILES CCCCCCCCCCCC(=O)[O-]
REMARK SMILES IDX 7 1 8 2 9 3 10 4 11 5 12 6 13 7 14 8 6 9 5 10 4 11 3 12 2 13
REMARK SMILES IDX 1 14
REMARK H PARENT
REMARK Flexibility Score: inf
ROOT
ATOM      1  C   UNL     1     -51.979 120.877 -12.063  1.00  0.00     0.000 C 
ENDROOT
BRANCH   1   2
ATOM      2  C   UNL     1     -52.942 122.076 -12.125  1.00  0.00     0.000 C 
BRANCH   2   3
ATOM      3  C   UNL     1     -54.434 121.733 -11.936  1.00  0.00     0.000 C 
BRANCH   3   4
ATOM      4  C   UNL     1     -54.714 120.337 -11.353  1.00  0.00     0.006 C 
BRANCH   4   5
ATOM      5  C   UNL     1     -55.279 120.389  -9.928  1.00  0.00     0.053 C 
BRANCH   5   6
ATOM      6  C   UNL     1     -56.600 121.092  -9.915  1.00  0.00     0.041 C 
ATOM      7  O   UNL     1     -56.787 122.073  -9.150  1.00  0.00    -0.550 OA
ATOM      8  O   UNL     1     -57.640 120.631 -10.712  1.00  0.00    -0.550 OA
ENDBRANCH   5   6
ENDBRANCH   4   5
ENDBRANCH   3   4
ENDBRANCH   2   3
ENDBRANCH   1   2
BRANCH   1   9
ATOM      9  C   UNL     1     -50.524 121.294 -11.789  1.00  0.00     0.000 C 
BRANCH   9  10
ATOM     10  C   UNL     1     -50.206 121.371 -10.287  1.00  0.00    -0.000 C 
BRANCH  10  11
ATOM     11  C   UNL     1     -49.935 122.809  -9.809  1.00  0.00    -0.000 C 
BRANCH  11  12
ATOM     12  C   UNL     1     -51.013 123.322  -8.840  1.00  0.00    -0.000 C 
BRANCH  12  13
ATOM     13  C   UNL     1     -52.303 122.491  -8.901  1.00  0.00    -0.003 C 
ATOM     14  C   UNL     1     -53.506 123.312  -8.445  1.00  0.00     0.004 C 
ENDBRANCH  12  13
ENDBRANCH  11  12
ENDBRANCH  10  11
ENDBRANCH   9  10
ENDBRANCH   1   9
TORSDOF 10
ENDMDL
MODEL 8
REMARK VINA RESULT:    -2.973      3.844      6.406
REMARK INTER + INTRA:          -5.679
REMARK INTER:                  -5.193
REMARK INTRA:                  -0.486
REMARK UNBOUND:                -0.968
REMARK SMILES CCCCCCCCCCCC(=O)[O-]
REMARK SMILES IDX 7 1 8 2 9 3 10 4 11 5 12 6 13 7 14 8 6 9 5 10 4 11 3 12 2 13
REMARK SMILES IDX 1 14
REMARK H PARENT
REMARK Flexibility Score: inf
ROOT
ATOM      1  C   UNL     1     -52.933 120.877  -9.474  1.00  0.00     0.000 C 
ENDROOT
BRANCH   1   2
ATOM      2  C   UNL     1     -51.810 121.775 -10.024  1.00  0.00     0.000 C 
BRANCH   2   3
ATOM      3  C   UNL     1     -50.911 121.124 -11.096  1.00  0.00     0.000 C 
BRANCH   3   4
ATOM      4  C   UNL     1     -49.413 121.453 -10.979  1.00  0.00     0.006 C 
BRANCH   4   5
ATOM      5  C   UNL     1     -49.043 122.077  -9.627  1.00  0.00     0.053 C 
BRANCH   5   6
ATOM      6  C   UNL     1     -48.976 123.567  -9.740  1.00  0.00     0.041 C 
ATOM      7  O   UNL     1     -49.055 124.284  -8.709  1.00  0.00    -0.550 OA
ATOM      8  O   UNL     1     -48.875 124.165 -10.989  1.00  0.00    -0.550 OA
ENDBRANCH   5   6
ENDBRANCH   4   5
ENDBRANCH   3   4
ENDBRANCH   2   3
ENDBRANCH   1   2
BRANCH   1   9
ATOM      9  C   UNL     1     -53.467 119.882 -10.518  1.00  0.00     0.000 C 
BRANCH   9  10
ATOM     10  C   UNL     1     -54.133 120.582 -11.713  1.00  0.00    -0.000 C 
BRANCH  10  11
ATOM     11  C   UNL     1     -55.586 120.127 -11.934  1.00  0.00    -0.000 C 
BRANCH  11  12
ATOM     12  C   UNL     1     -56.265 119.667 -10.634  1.00  0.00    -0.000 C 
BRANCH  12  13
ATOM     13  C   UNL     1     -57.116 120.772  -9.991  1.00  0.00    -0.003 C 
ATOM     14  C   UNL     1     -56.409 121.374  -8.779  1.00  0.00     0.004 C 
ENDBRANCH  12  13
ENDBRANCH  11  12
ENDBRANCH  10  11
ENDBRANCH   9  10
ENDBRANCH   1   9
TORSDOF 10
ENDMDL
