MODEL 1
REMARK VINA RESULT:    -5.302      0.000      0.000
REMARK INTER + INTRA:         -11.430
REMARK INTER:                  -9.642
REMARK INTRA:                  -1.788
REMARK UNBOUND:                -1.788
REMARK SMILES CCCCCCCCCCCCCCCC(=O)[O-]
REMARK SMILES IDX 9 1 10 2 11 3 12 4 13 5 14 6 15 7 16 8 17 9 18 10 8 11 7 12
REMARK SMILES IDX 6 13 5 14 4 15 3 16 2 17 1 18
REMARK H PARENT
REMARK Flexibility Score: inf
ROOT
ATOM      1  C   UNL     1      25.134  12.614  30.528  1.00  0.00     0.000 C 
ENDROOT
BRANCH   1   2
ATOM      2  C   UNL     1      25.234  11.183  31.077  1.00  0.00     0.000 C 
BRANCH   2   3
ATOM      3  C   UNL     1      25.386  11.146  32.606  1.00  0.00     0.000 C 
BRANCH   3   4
ATOM      4  C   UNL     1      24.270  11.920  33.330  1.00  0.00     0.000 C 
BRANCH   4   5
ATOM      5  C   UNL     1      24.622  12.238  34.792  1.00  0.00     0.000 C 
BRANCH   5   6
ATOM      6  C   UNL     1      23.390  12.634  35.624  1.00  0.00     0.006 C 
BRANCH   6   7
ATOM      7  C   UNL     1      22.143  12.837  34.752  1.00  0.00     0.053 C 
BRANCH   7   8
ATOM      8  C   UNL     1      20.880  12.720  35.549  1.00  0.00     0.041 C 
ATOM      9  O   UNL     1      20.164  13.735  35.753  1.00  0.00    -0.550 OA
ATOM     10  O   UNL     1      20.480  11.484  36.042  1.00  0.00    -0.550 OA
ENDBRANCH   7   8
ENDBRANCH   6   7
ENDBRANCH   5   6
ENDBRANCH   4   5
ENDBRANCH   3   4
ENDBRANCH   2   3
ENDBRANCH   1   2
BRANCH   1  11
ATOM     11  C   UNL     1      26.350  12.953  29.654  1.00  0.00     0.000 C 
BRANCH  11  12
ATOM     12  C   UNL     1      27.315  11.767  29.499  1.00  0.00    -0.000 C 
BRANCH  12  13
ATOM     13  C   UNL     1      28.726  12.078  30.029  1.00  0.00    -0.000 C 
BRANCH  13  14
ATOM     14  C   UNL     1      28.737  13.255  31.020  1.00  0.00    -0.000 C 
BRANCH  14  15
ATOM     15  C   UNL     1      28.624  12.793  32.484  1.00  0.00    -0.000 C 
BRANCH  15  16
ATOM     16  C   UNL     1      27.859  13.795  33.361  1.00  0.00    -0.000 C 
BRANCH  16  17
ATOM     17  C   UNL     1      28.027  13.514  34.862  1.00  0.00    -0.003 C 
ATOM     18  C   UNL     1      27.415  14.630  35.703  1.00  0.00     0.004 C 
ENDBRANCH  16  17
ENDBRANCH  15  16
ENDBRANCH  14  15
ENDBRANCH  13  14
ENDBRANCH  12  13
ENDBRANCH  11  12
ENDBRANCH   1  11
TORSDOF 14
ENDMDL
MODEL 2
REMARK VINA RESULT:    -4.931      1.097      1.635
REMARK INTER + INTRA:         -10.755
REMARK INTER:                  -9.183
REMARK INTRA:                  -1.572
REMARK UNBOUND:                -1.788
REMARK SMILES CCCCCCCCCCCCCCCC(=O)[O-]
REMARK SMILES IDX 9 1 10 2 11 3 12 4 13 5 14 6 15 7 16 8 17 9 18 10 8 11 7 12
REMARK SMILES IDX 6 13 5 14 4 15 3 16 2 17 1 18
REMARK H PARENT
REMARK Flexibility Score: inf
ROOT
ATOM      1  C   UNL     1      25.365  11.881  31.289  1.00  0.00     0.000 C 
ENDROOT
BRANCH   1   2
ATOM      2  C   UNL     1      25.268  11.410  32.748  1.00  0.00     0.000 C 
BRANCH   2   3
ATOM      3  C   UNL     1      24.211  12.184  33.550  1.00  0.00     0.000 C 
BRANCH   3   4
ATOM      4  C   UNL     1      24.556  12.276  35.048  1.00  0.00     0.000 C 
BRANCH   4   5
ATOM      5  C   UNL     1      23.322  12.543  35.924  1.00  0.00     0.000 C 
BRANCH   5   6
ATOM      6  C   UNL     1      22.082  12.926  35.098  1.00  0.00     0.006 C 
BRANCH   6   7
ATOM      7  C   UNL     1      20.809  12.239  35.611  1.00  0.00     0.053 C 
BRANCH   7   8
ATOM      8  C   UNL     1      20.194  11.355  34.569  1.00  0.00     0.041 C 
ATOM      9  O   UNL     1      19.177  10.665  34.844  1.00  0.00    -0.550 OA
ATOM     10  O   UNL     1      20.726  11.316  33.287  1.00  0.00    -0.550 OA
ENDBRANCH   7   8
ENDBRANCH   6   7
ENDBRANCH   5   6
ENDBRANCH   4   5
ENDBRANCH   3   4
ENDBRANCH   2   3
ENDBRANCH   1   2
BRANCH   1  11
ATOM     11  C   UNL     1      26.214  10.910  30.454  1.00  0.00     0.000 C 
BRANCH  11  12
ATOM     12  C   UNL     1      27.386  11.609  29.747  1.00  0.00    -0.000 C 
BRANCH  12  13
ATOM     13  C   UNL     1      27.577  13.062  30.212  1.00  0.00    -0.000 C 
BRANCH  13  14
ATOM     14  C   UNL     1      28.884  13.263  30.997  1.00  0.00    -0.000 C 
BRANCH  14  15
ATOM     15  C   UNL     1      28.751  12.859  32.476  1.00  0.00    -0.000 C 
BRANCH  15  16
ATOM     16  C   UNL     1      27.916  13.859  33.289  1.00  0.00    -0.000 C 
BRANCH  16  17
ATOM     17  C   UNL     1      27.848  13.496  34.780  1.00  0.00    -0.003 C 
ATOM     18  C   UNL     1      27.579  14.732  35.635  1.00  0.00     0.004 C 
ENDBRANCH  16  17
ENDBRANCH  15  16
ENDBRANCH  14  15
ENDBRANCH  13  14
ENDBRANCH  12  13
ENDBRANCH  11  12
ENDBRANCH   1  11
TORSDOF 14
ENDMDL
MODEL 3
REMARK VINA RESULT:    -4.861      1.306      3.395
REMARK INTER + INTRA:         -10.628
REMARK INTER:                  -9.097
REMARK INTRA:                  -1.531
REMARK UNBOUND:                -1.788
REMARK SMILES CCCCCCCCCCCCCCCC(=O)[O-]
REMARK SMILES IDX 9 1 10 2 11 3 12 4 13 5 14 6 15 7 16 8 17 9 18 10 8 11 7 12
REMARK SMILES IDX 6 13 5 14 4 15 3 16 2 17 1 18
REMARK H PARENT
REMARK Flexibility Score: inf
ROOT
ATOM      1  C   UNL     1      27.682  11.944  34.745  1.00  0.00     0.000 C 
ENDROOT
BRANCH   1   2
ATOM      2  C   UNL     1      26.312  12.638  34.703  1.00  0.00     0.000 C 
BRANCH   2   3
ATOM      3  C   UNL     1      25.196  11.780  35.319  1.00  0.00     0.000 C 
BRANCH   3   4
ATOM      4  C   UNL     1      24.000  12.622  35.800  1.00  0.00     0.000 C 
BRANCH   4   5
ATOM      5  C   UNL     1      22.834  12.619  34.800  1.00  0.00     0.000 C 
BRANCH   5   6
ATOM      6  C   UNL     1      21.563  13.271  35.372  1.00  0.00     0.006 C 
BRANCH   6   7
ATOM      7  C   UNL     1      20.568  12.231  35.904  1.00  0.00     0.053 C 
BRANCH   7   8
ATOM      8  C   UNL     1      19.188  12.797  36.039  1.00  0.00     0.041 C 
ATOM      9  O   UNL     1      18.695  13.491  35.111  1.00  0.00    -0.550 OA
ATOM     10  O   UNL     1      18.434  12.534  37.176  1.00  0.00    -0.550 OA
ENDBRANCH   7   8
ENDBRANCH   6   7
ENDBRANCH   5   6
ENDBRANCH   4   5
ENDBRANCH   3   4
ENDBRANCH   2   3
ENDBRANCH   1   2
BRANCH   1  11
ATOM     11  C   UNL     1      28.657  12.595  33.753  1.00  0.00     0.000 C 
BRANCH  11  12
ATOM     12  C   UNL     1      27.936  13.344  32.621  1.00  0.00    -0.000 C 
BRANCH  12  13
ATOM     13  C   UNL     1      28.747  13.365  31.314  1.00  0.00    -0.000 C 
BRANCH  13  14
ATOM     14  C   UNL     1      28.446  12.155  30.414  1.00  0.00    -0.000 C 
BRANCH  14  15
ATOM     15  C   UNL     1      26.968  12.089  29.991  1.00  0.00    -0.000 C 
BRANCH  15  16
ATOM     16  C   UNL     1      26.332  10.721  30.279  1.00  0.00    -0.000 C 
BRANCH  16  17
ATOM     17  C   UNL     1      25.547  10.700  31.599  1.00  0.00    -0.003 C 
ATOM     18  C   UNL     1      24.506  11.815  31.637  1.00  0.00     0.004 C 
ENDBRANCH  16  17
ENDBRANCH  15  16
ENDBRANCH  14  15
ENDBRANCH  13  14
ENDBRANCH  12  13
ENDBRANCH  11  12
ENDBRANCH   1  11
TORSDOF 14
ENDMDL
MODEL 4
REMARK VINA RESULT:    -4.819      3.140      7.510
REMARK INTER + INTRA:         -10.552
REMARK INTER:                  -9.443
REMARK INTRA:                  -1.109
REMARK UNBOUND:                -1.788
REMARK SMILES CCCCCCCCCCCCCCCC(=O)[O-]
REMARK SMILES IDX 9 1 10 2 11 3 12 4 13 5 14 6 15 7 16 8 17 9 18 10 8 11 7 12
REMARK SMILES IDX 6 13 5 14 4 15 3 16 2 17 1 18
REMARK H PARENT
REMARK Flexibility Score: inf
ROOT
ATOM      1  C   UNL     1      24.662  11.930  34.543  1.00  0.00     0.000 C 
ENDROOT
BRANCH   1   2
ATOM      2  C   UNL     1      24.125  11.959  33.104  1.00  0.00     0.000 C 
BRANCH   2   3
ATOM      3  C   UNL     1      25.046  11.229  32.114  1.00  0.00     0.000 C 
BRANCH   3   4
ATOM      4  C   UNL     1      26.527  11.289  32.531  1.00  0.00     0.000 C 
BRANCH   4   5
ATOM      5  C   UNL     1      27.279  12.460  31.879  1.00  0.00     0.000 C 
BRANCH   5   6
ATOM      6  C   UNL     1      28.331  13.080  32.815  1.00  0.00     0.006 C 
BRANCH   6   7
ATOM      7  C   UNL     1      27.752  14.223  33.660  1.00  0.00     0.053 C 
BRANCH   7   8
ATOM      8  C   UNL     1      27.777  13.902  35.123  1.00  0.00     0.041 C 
ATOM      9  O   UNL     1      27.935  12.714  35.508  1.00  0.00    -0.550 OA
ATOM     10  O   UNL     1      27.655  14.920  36.062  1.00  0.00    -0.550 OA
ENDBRANCH   7   8
ENDBRANCH   6   7
ENDBRANCH   5   6
ENDBRANCH   4   5
ENDBRANCH   3   4
ENDBRANCH   2   3
ENDBRANCH   1   2
BRANCH   1  11
ATOM     11  C   UNL     1      23.714  12.670  35.498  1.00  0.00     0.000 C 
BRANCH  11  12
ATOM     12  C   UNL     1      22.318  12.888  34.893  1.00  0.00    -0.000 C 
BRANCH  12  13
ATOM     13  C   UNL     1      21.207  12.198  35.702  1.00  0.00    -0.000 C 
BRANCH  13  14
ATOM     14  C   UNL     1      19.931  13.051  35.800  1.00  0.00    -0.000 C 
BRANCH  14  15
ATOM     15  C   UNL     1      18.848  12.393  36.674  1.00  0.00    -0.000 C 
BRANCH  15  16
ATOM     16  C   UNL     1      18.496  10.973  36.208  1.00  0.00    -0.000 C 
BRANCH  16  17
ATOM     17  C   UNL     1      18.064  10.062  37.367  1.00  0.00    -0.003 C 
ATOM     18  C   UNL     1      18.910   8.793  37.413  1.00  0.00     0.004 C 
ENDBRANCH  16  17
ENDBRANCH  15  16
ENDBRANCH  14  15
ENDBRANCH  13  14
ENDBRANCH  12  13
ENDBRANCH  11  12
ENDBRANCH   1  11
TORSDOF 14
ENDMDL
MODEL 5
REMARK VINA RESULT:    -4.791      2.163      4.271
REMARK INTER + INTRA:         -10.501
REMARK INTER:                  -9.318
REMARK INTRA:                  -1.183
REMARK UNBOUND:                -1.788
REMARK SMILES CCCCCCCCCCCCCCCC(=O)[O-]
REMARK SMILES IDX 9 1 10 2 11 3 12 4 13 5 14 6 15 7 16 8 17 9 18 10 8 11 7 12
REMARK SMILES IDX 6 13 5 14 4 15 3 16 2 17 1 18
REMARK H PARENT
REMARK Flexibility Score: inf
ROOT
ATOM      1  C   UNL     1      23.843  12.643  35.499  1.00  0.00     0.000 C 
ENDROOT
BRANCH   1   2
ATOM      2  C   UNL     1      22.454  12.801  34.862  1.00  0.00     0.000 C 
BRANCH   2   3
ATOM      3  C   UNL     1      21.330  12.241  35.747  1.00  0.00     0.000 C 
BRANCH   3   4
ATOM      4  C   UNL     1      19.929  12.565  35.199  1.00  0.00     0.000 C 
BRANCH   4   5
ATOM      5  C   UNL     1      18.988  13.130  36.274  1.00  0.00     0.000 C 
BRANCH   5   6
ATOM      6  C   UNL     1      18.237  12.028  37.041  1.00  0.00     0.006 C 
BRANCH   6   7
ATOM      7  C   UNL     1      17.956  10.801  36.164  1.00  0.00     0.053 C 
BRANCH   7   8
ATOM      8  C   UNL     1      18.090   9.522  36.934  1.00  0.00     0.041 C 
ATOM      9  O   UNL     1      18.121   9.541  38.192  1.00  0.00    -0.550 OA
ATOM     10  O   UNL     1      18.151   8.308  36.262  1.00  0.00    -0.550 OA
ENDBRANCH   7   8
ENDBRANCH   6   7
ENDBRANCH   5   6
ENDBRANCH   4   5
ENDBRANCH   3   4
ENDBRANCH   2   3
ENDBRANCH   1   2
BRANCH   1  11
ATOM     11  C   UNL     1      24.808  11.929  34.542  1.00  0.00     0.000 C 
BRANCH  11  12
ATOM     12  C   UNL     1      24.288  11.895  33.096  1.00  0.00    -0.000 C 
BRANCH  12  13
ATOM     13  C   UNL     1      25.388  12.199  32.064  1.00  0.00    -0.000 C 
BRANCH  13  14
ATOM     14  C   UNL     1      26.734  11.550  32.428  1.00  0.00    -0.000 C 
BRANCH  14  15
ATOM     15  C   UNL     1      27.907  12.542  32.353  1.00  0.00    -0.000 C 
BRANCH  15  16
ATOM     16  C   UNL     1      28.365  13.022  33.738  1.00  0.00    -0.000 C 
BRANCH  16  17
ATOM     17  C   UNL     1      27.658  14.312  34.180  1.00  0.00    -0.003 C 
ATOM     18  C   UNL     1      27.611  14.420  35.701  1.00  0.00     0.004 C 
ENDBRANCH  16  17
ENDBRANCH  15  16
ENDBRANCH  14  15
ENDBRANCH  13  14
ENDBRANCH  12  13
ENDBRANCH  11  12
ENDBRANCH   1  11
TORSDOF 14
ENDMDL
MODEL 6
REMARK VINA RESULT:    -4.769      2.592      6.137
REMARK INTER + INTRA:         -10.461
REMARK INTER:                  -9.160
REMARK INTRA:                  -1.302
REMARK UNBOUND:                -1.788
REMARK SMILES CCCCCCCCCCCCCCCC(=O)[O-]
REMARK SMILES IDX 9 1 10 2 11 3 12 4 13 5 14 6 15 7 16 8 17 9 18 10 8 11 7 12
REMARK SMILES IDX 6 13 5 14 4 15 3 16 2 17 1 18
REMARK H PARENT
REMARK Flexibility Score: inf
ROOT
ATOM      1  C   UNL     1      25.407  10.766  31.535  1.00  0.00     0.000 C 
ENDROOT
BRANCH   1   2
ATOM      2  C   UNL     1      25.914  10.985  30.101  1.00  0.00     0.000 C 
BRANCH   2   3
ATOM      3  C   UNL     1      26.677  12.309  29.939  1.00  0.00     0.000 C 
BRANCH   3   4
ATOM      4  C   UNL     1      28.192  12.149  30.161  1.00  0.00     0.000 C 
BRANCH   4   5
ATOM      5  C   UNL     1      28.755  13.173  31.159  1.00  0.00     0.000 C 
BRANCH   5   6
ATOM      6  C   UNL     1      28.532  12.756  32.623  1.00  0.00     0.006 C 
BRANCH   6   7
ATOM      7  C   UNL     1      27.898  13.878  33.455  1.00  0.00     0.053 C 
BRANCH   7   8
ATOM      8  C   UNL     1      27.755  13.493  34.895  1.00  0.00     0.041 C 
ATOM      9  O   UNL     1      27.567  14.377  35.772  1.00  0.00    -0.550 OA
ATOM     10  O   UNL     1      27.801  12.154  35.266  1.00  0.00    -0.550 OA
ENDBRANCH   7   8
ENDBRANCH   6   7
ENDBRANCH   5   6
ENDBRANCH   4   5
ENDBRANCH   3   4
ENDBRANCH   2   3
ENDBRANCH   1   2
BRANCH   1  11
ATOM     11  C   UNL     1      24.951  12.091  32.163  1.00  0.00     0.000 C 
BRANCH  11  12
ATOM     12  C   UNL     1      23.874  11.893  33.242  1.00  0.00    -0.000 C 
BRANCH  12  13
ATOM     13  C   UNL     1      24.357  12.309  34.643  1.00  0.00    -0.000 C 
BRANCH  13  14
ATOM     14  C   UNL     1      23.195  12.681  35.579  1.00  0.00    -0.000 C 
BRANCH  14  15
ATOM     15  C   UNL     1      21.823  12.564  34.892  1.00  0.00    -0.000 C 
BRANCH  15  16
ATOM     16  C   UNL     1      20.866  11.624  35.639  1.00  0.00    -0.000 C 
BRANCH  16  17
ATOM     17  C   UNL     1      19.674  12.366  36.261  1.00  0.00    -0.003 C 
ATOM     18  C   UNL     1      19.436  13.704  35.567  1.00  0.00     0.004 C 
ENDBRANCH  16  17
ENDBRANCH  15  16
ENDBRANCH  14  15
ENDBRANCH  13  14
ENDBRANCH  12  13
ENDBRANCH  11  12
ENDBRANCH   1  11
TORSDOF 14
ENDMDL
MODEL 7
REMARK VINA RESULT:    -4.734      3.639      8.217
REMARK INTER + INTRA:         -10.396
REMARK INTER:                  -9.596
REMARK INTRA:                  -0.801
REMARK UNBOUND:                -1.788
REMARK SMILES CCCCCCCCCCCCCCCC(=O)[O-]
REMARK SMILES IDX 9 1 10 2 11 3 12 4 13 5 14 6 15 7 16 8 17 9 18 10 8 11 7 12
REMARK SMILES IDX 6 13 5 14 4 15 3 16 2 17 1 18
REMARK H PARENT
REMARK Flexibility Score: inf
ROOT
ATOM      1  C   UNL     1      23.290  12.503  34.635  1.00  0.00     0.000 C 
ENDROOT
BRANCH   1   2
ATOM      2  C   UNL     1      24.121  12.678  35.915  1.00  0.00     0.000 C 
BRANCH   2   3
ATOM      3  C   UNL     1      25.633  12.589  35.655  1.00  0.00     0.000 C 
BRANCH   3   4
ATOM      4  C   UNL     1      26.366  13.905  35.975  1.00  0.00     0.000 C 
BRANCH   4   5
ATOM      5  C   UNL     1      27.683  14.053  35.197  1.00  0.00     0.000 C 
BRANCH   5   6
ATOM      6  C   UNL     1      28.047  12.786  34.404  1.00  0.00     0.006 C 
BRANCH   6   7
ATOM      7  C   UNL     1      28.440  13.103  32.955  1.00  0.00     0.053 C 
BRANCH   7   8
ATOM      8  C   UNL     1      27.563  12.392  31.970  1.00  0.00     0.041 C 
ATOM      9  O   UNL     1      28.064  11.860  30.945  1.00  0.00    -0.550 OA
ATOM     10  O   UNL     1      26.196  12.293  32.200  1.00  0.00    -0.550 OA
ENDBRANCH   7   8
ENDBRANCH   6   7
ENDBRANCH   5   6
ENDBRANCH   4   5
ENDBRANCH   3   4
ENDBRANCH   2   3
ENDBRANCH   1   2
BRANCH   1  11
ATOM     11  C   UNL     1      21.875  13.071  34.818  1.00  0.00     0.000 C 
BRANCH  11  12
ATOM     12  C   UNL     1      21.035  12.258  35.815  1.00  0.00    -0.000 C 
BRANCH  12  13
ATOM     13  C   UNL     1      19.531  12.560  35.707  1.00  0.00    -0.000 C 
BRANCH  13  14
ATOM     14  C   UNL     1      18.740  12.062  36.929  1.00  0.00    -0.000 C 
BRANCH  14  15
ATOM     15  C   UNL     1      17.917  10.798  36.623  1.00  0.00    -0.000 C 
BRANCH  15  16
ATOM     16  C   UNL     1      18.273   9.624  37.546  1.00  0.00    -0.000 C 
BRANCH  16  17
ATOM     17  C   UNL     1      19.426   8.770  36.997  1.00  0.00    -0.003 C 
ATOM     18  C   UNL     1      19.144   7.282  37.181  1.00  0.00     0.004 C 
ENDBRANCH  16  17
ENDBRANCH  15  16
ENDBRANCH  14  15
ENDBRANCH  13  14
ENDBRANCH  12  13
ENDBRANCH  11  12
ENDBRANCH   1  11
TORSDOF 14
ENDMDL
MODEL 8
REMARK VINA RESULT:    -4.658      2.038      4.496
REMARK INTER + INTRA:         -10.259
REMARK INTER:                  -8.712
REMARK INTRA:                  -1.547
REMARK UNBOUND:                -1.788
REMARK SMILES CCCCCCCCCCCCCCCC(=O)[O-]
REMARK SMILES IDX 9 1 10 2 11 3 12 4 13 5 14 6 15 7 16 8 17 9 18 10 8 11 7 12
REMARK SMILES IDX 6 13 5 14 4 15 3 16 2 17 1 18
REMARK H PARENT
REMARK Flexibility Score: inf
ROOT
ATOM      1  C   UNL     1      28.832  13.210  30.943  1.00  0.00     0.000 C 
ENDROOT
BRANCH   1   2
ATOM      2  C   UNL     1      28.448  12.019  30.051  1.00  0.00     0.000 C 
BRANCH   2   3
ATOM      3  C   UNL     1      26.996  12.096  29.554  1.00  0.00     0.000 C 
BRANCH   3   4
ATOM      4  C   UNL     1      26.196  10.819  29.866  1.00  0.00     0.000 C 
BRANCH   4   5
ATOM      5  C   UNL     1      25.992  10.601  31.373  1.00  0.00     0.000 C 
BRANCH   5   6
ATOM      6  C   UNL     1      24.544  10.870  31.819  1.00  0.00     0.006 C 
BRANCH   6   7
ATOM      7  C   UNL     1      23.543  10.703  30.668  1.00  0.00     0.053 C 
BRANCH   7   8
ATOM      8  C   UNL     1      22.165  10.393  31.168  1.00  0.00     0.041 C 
ATOM      9  O   UNL     1      21.548   9.384  30.737  1.00  0.00    -0.550 OA
ATOM     10  O   UNL     1      21.575  11.203  32.131  1.00  0.00    -0.550 OA
ENDBRANCH   7   8
ENDBRANCH   6   7
ENDBRANCH   5   6
ENDBRANCH   4   5
ENDBRANCH   3   4
ENDBRANCH   2   3
ENDBRANCH   1   2
BRANCH   1  11
ATOM     11  C   UNL     1      28.629  12.872  32.426  1.00  0.00     0.000 C 
BRANCH  11  12
ATOM     12  C   UNL     1      27.450  13.634  33.051  1.00  0.00    -0.000 C 
BRANCH  12  13
ATOM     13  C   UNL     1      27.723  14.062  34.503  1.00  0.00    -0.000 C 
BRANCH  13  14
ATOM     14  C   UNL     1      27.188  13.047  35.527  1.00  0.00    -0.000 C 
BRANCH  14  15
ATOM     15  C   UNL     1      25.998  12.236  34.986  1.00  0.00    -0.000 C 
BRANCH  15  16
ATOM     16  C   UNL     1      24.681  12.570  35.704  1.00  0.00    -0.000 C 
BRANCH  16  17
ATOM     17  C   UNL     1      23.483  12.624  34.744  1.00  0.00    -0.003 C 
ATOM     18  C   UNL     1      22.164  12.568  35.509  1.00  0.00     0.004 C 
ENDBRANCH  16  17
ENDBRANCH  15  16
ENDBRANCH  14  15
ENDBRANCH  13  14
ENDBRANCH  12  13
ENDBRANCH  11  12
ENDBRANCH   1  11
TORSDOF 14
ENDMDL
MODEL 9
REMARK VINA RESULT:    -4.590      3.059      7.513
REMARK INTER + INTRA:         -10.135
REMARK INTER:                  -9.045
REMARK INTRA:                  -1.090
REMARK UNBOUND:                -1.788
REMARK SMILES CCCCCCCCCCCCCCCC(=O)[O-]
REMARK SMILES IDX 9 1 10 2 11 3 12 4 13 5 14 6 15 7 16 8 17 9 18 10 8 11 7 12
REMARK SMILES IDX 6 13 5 14 4 15 3 16 2 17 1 18
REMARK H PARENT
REMARK Flexibility Score: inf
ROOT
ATOM      1  C   UNL     1      25.056  11.926  34.540  1.00  0.00     0.000 C 
ENDROOT
BRANCH   1   2
ATOM      2  C   UNL     1      26.436  12.037  35.206  1.00  0.00     0.000 C 
BRANCH   2   3
ATOM      3  C   UNL     1      26.873  13.495  35.420  1.00  0.00     0.000 C 
BRANCH   3   4
ATOM      4  C   UNL     1      27.658  14.059  34.222  1.00  0.00     0.000 C 
BRANCH   4   5
ATOM      5  C   UNL     1      28.477  12.983  33.490  1.00  0.00     0.000 C 
BRANCH   5   6
ATOM      6  C   UNL     1      28.160  12.920  31.987  1.00  0.00     0.006 C 
BRANCH   6   7
ATOM      7  C   UNL     1      27.625  11.544  31.565  1.00  0.00     0.053 C 
BRANCH   7   8
ATOM      8  C   UNL     1      26.345  11.656  30.793  1.00  0.00     0.041 C 
ATOM      9  O   UNL     1      26.081  10.829  29.881  1.00  0.00    -0.550 OA
ATOM     10  O   UNL     1      25.432  12.657  31.101  1.00  0.00    -0.550 OA
ENDBRANCH   7   8
ENDBRANCH   6   7
ENDBRANCH   5   6
ENDBRANCH   4   5
ENDBRANCH   3   4
ENDBRANCH   2   3
ENDBRANCH   1   2
BRANCH   1  11
ATOM     11  C   UNL     1      23.966  12.539  35.431  1.00  0.00     0.000 C 
BRANCH  11  12
ATOM     12  C   UNL     1      22.623  12.693  34.700  1.00  0.00    -0.000 C 
BRANCH  12  13
ATOM     13  C   UNL     1      21.421  12.678  35.660  1.00  0.00    -0.000 C 
BRANCH  13  14
ATOM     14  C   UNL     1      20.376  13.751  35.313  1.00  0.00    -0.000 C 
BRANCH  14  15
ATOM     15  C   UNL     1      18.933  13.234  35.453  1.00  0.00    -0.000 C 
BRANCH  15  16
ATOM     16  C   UNL     1      18.628  12.707  36.863  1.00  0.00    -0.000 C 
BRANCH  16  17
ATOM     17  C   UNL     1      18.174  11.240  36.860  1.00  0.00    -0.003 C 
ATOM     18  C   UNL     1      18.262  10.640  35.460  1.00  0.00     0.004 C 
ENDBRANCH  16  17
ENDBRANCH  15  16
ENDBRANCH  14  15
ENDBRANCH  13  14
ENDBRANCH  12  13
ENDBRANCH  11  12
ENDBRANCH   1  11
TORSDOF 14
ENDMDL
