MODEL 1
REMARK VINA RESULT:    -2.195      0.000      0.000
REMARK INTER + INTRA:          -5.105
REMARK INTER:                  -3.992
REMARK INTRA:                  -1.114
REMARK UNBOUND:                -1.114
REMARK SMILES CCCCCCCCCCCCCCCC(=O)[O-]
REMARK SMILES IDX 9 1 10 2 11 3 12 4 13 5 14 6 15 7 16 8 17 9 18 10 8 11 7 12
REMARK SMILES IDX 6 13 5 14 4 15 3 16 2 17 1 18
REMARK H PARENT
REMARK Flexibility Score: inf
ROOT
ATOM      1  C   UNL     1     -11.005  -8.963  -1.080  1.00  0.00     0.000 C 
ENDROOT
BRANCH   1   2
ATOM      2  C   UNL     1     -10.650  -9.748  -2.358  1.00  0.00     0.000 C 
BRANCH   2   3
ATOM      3  C   UNL     1     -11.809  -9.923  -3.360  1.00  0.00     0.000 C 
BRANCH   3   4
ATOM      4  C   UNL     1     -12.080 -11.378  -3.791  1.00  0.00     0.000 C 
BRANCH   4   5
ATOM      5  C   UNL     1     -12.098 -11.616  -5.315  1.00  0.00     0.000 C 
BRANCH   5   6
ATOM      6  C   UNL     1     -10.901 -11.023  -6.080  1.00  0.00     0.006 C 
BRANCH   6   7
ATOM      7  C   UNL     1      -9.561 -11.637  -5.656  1.00  0.00     0.053 C 
BRANCH   7   8
ATOM      8  C   UNL     1      -8.598 -10.564  -5.257  1.00  0.00     0.041 C 
ATOM      9  O   UNL     1      -7.763 -10.771  -4.338  1.00  0.00    -0.550 OA
ATOM     10  O   UNL     1      -8.657  -9.317  -5.867  1.00  0.00    -0.550 OA
ENDBRANCH   7   8
ENDBRANCH   6   7
ENDBRANCH   5   6
ENDBRANCH   4   5
ENDBRANCH   3   4
ENDBRANCH   2   3
ENDBRANCH   1   2
BRANCH   1  11
ATOM     11  C   UNL     1     -11.891  -9.721  -0.075  1.00  0.00     0.000 C 
BRANCH  11  12
ATOM     12  C   UNL     1     -11.537 -11.212   0.027  1.00  0.00    -0.000 C 
BRANCH  12  13
ATOM     13  C   UNL     1     -10.262 -11.418   0.853  1.00  0.00    -0.000 C 
BRANCH  13  14
ATOM     14  C   UNL     1      -9.066 -11.736  -0.053  1.00  0.00    -0.000 C 
BRANCH  14  15
ATOM     15  C   UNL     1      -7.752 -11.693   0.737  1.00  0.00    -0.000 C 
BRANCH  15  16
ATOM     16  C   UNL     1      -7.992 -11.982   2.224  1.00  0.00    -0.000 C 
BRANCH  16  17
ATOM     17  C   UNL     1      -6.665 -12.124   2.978  1.00  0.00    -0.003 C 
ATOM     18  C   UNL     1      -5.691 -11.012   2.594  1.00  0.00     0.004 C 
ENDBRANCH  16  17
ENDBRANCH  15  16
ENDBRANCH  14  15
ENDBRANCH  13  14
ENDBRANCH  12  13
ENDBRANCH  11  12
ENDBRANCH   1  11
TORSDOF 14
ENDMDL
MODEL 2
REMARK VINA RESULT:    -2.086      4.570      7.058
REMARK INTER + INTRA:          -4.907
REMARK INTER:                  -4.252
REMARK INTRA:                  -0.655
REMARK UNBOUND:                -1.114
REMARK SMILES CCCCCCCCCCCCCCCC(=O)[O-]
REMARK SMILES IDX 9 1 10 2 11 3 12 4 13 5 14 6 15 7 16 8 17 9 18 10 8 11 7 12
REMARK SMILES IDX 6 13 5 14 4 15 3 16 2 17 1 18
REMARK H PARENT
REMARK Flexibility Score: inf
ROOT
ATOM      1  C   UNL     1      -6.205 -11.207   4.580  1.00  0.00     0.000 C 
ENDROOT
BRANCH   1   2
ATOM      2  C   UNL     1      -6.516 -12.103   3.364  1.00  0.00     0.000 C 
BRANCH   2   3
ATOM      3  C   UNL     1      -6.667 -11.356   2.024  1.00  0.00     0.000 C 
BRANCH   3   4
ATOM      4  C   UNL     1      -7.541 -12.074   0.976  1.00  0.00     0.000 C 
BRANCH   4   5
ATOM      5  C   UNL     1      -9.061 -11.978   1.217  1.00  0.00     0.000 C 
BRANCH   5   6
ATOM      6  C   UNL     1      -9.923 -11.988  -0.058  1.00  0.00     0.006 C 
BRANCH   6   7
ATOM      7  C   UNL     1     -10.748 -10.706  -0.228  1.00  0.00     0.053 C 
BRANCH   7   8
ATOM      8  C   UNL     1     -10.472 -10.080  -1.558  1.00  0.00     0.041 C 
ATOM      9  O   UNL     1     -11.080  -9.034  -1.905  1.00  0.00    -0.550 OA
ATOM     10  O   UNL     1      -9.579 -10.681  -2.436  1.00  0.00    -0.550 OA
ENDBRANCH   7   8
ENDBRANCH   6   7
ENDBRANCH   5   6
ENDBRANCH   4   5
ENDBRANCH   3   4
ENDBRANCH   2   3
ENDBRANCH   1   2
BRANCH   1  11
ATOM     11  C   UNL     1      -6.823 -11.678   5.909  1.00  0.00     0.000 C 
BRANCH  11  12
ATOM     12  C   UNL     1      -8.295 -12.091   5.771  1.00  0.00    -0.000 C 
BRANCH  12  13
ATOM     13  C   UNL     1      -8.986 -12.125   7.139  1.00  0.00    -0.000 C 
BRANCH  13  14
ATOM     14  C   UNL     1     -10.512 -12.090   6.985  1.00  0.00    -0.000 C 
BRANCH  14  15
ATOM     15  C   UNL     1     -11.141 -11.091   7.964  1.00  0.00    -0.000 C 
BRANCH  15  16
ATOM     16  C   UNL     1     -10.277 -10.932   9.221  1.00  0.00    -0.000 C 
BRANCH  16  17
ATOM     17  C   UNL     1     -11.137 -10.987  10.489  1.00  0.00    -0.003 C 
ATOM     18  C   UNL     1     -11.573  -9.589  10.920  1.00  0.00     0.004 C 
ENDBRANCH  16  17
ENDBRANCH  15  16
ENDBRANCH  14  15
ENDBRANCH  13  14
ENDBRANCH  12  13
ENDBRANCH  11  12
ENDBRANCH   1  11
TORSDOF 14
ENDMDL
MODEL 3
REMARK VINA RESULT:    -1.927      5.378      8.849
REMARK INTER + INTRA:          -4.618
REMARK INTER:                  -4.062
REMARK INTRA:                  -0.556
REMARK UNBOUND:                -1.114
REMARK SMILES CCCCCCCCCCCCCCCC(=O)[O-]
REMARK SMILES IDX 9 1 10 2 11 3 12 4 13 5 14 6 15 7 16 8 17 9 18 10 8 11 7 12
REMARK SMILES IDX 6 13 5 14 4 15 3 16 2 17 1 18
REMARK H PARENT
REMARK Flexibility Score: inf
ROOT
ATOM      1  C   UNL     1     -10.583 -10.297  -0.103  1.00  0.00     0.000 C 
ENDROOT
BRANCH   1   2
ATOM      2  C   UNL     1     -11.659 -10.747   0.906  1.00  0.00     0.000 C 
BRANCH   2   3
ATOM      3  C   UNL     1     -11.279 -11.969   1.765  1.00  0.00     0.000 C 
BRANCH   3   4
ATOM      4  C   UNL     1     -12.092 -12.125   3.066  1.00  0.00     0.000 C 
BRANCH   4   5
ATOM      5  C   UNL     1     -11.296 -11.889   4.365  1.00  0.00     0.000 C 
BRANCH   5   6
ATOM      6  C   UNL     1     -12.118 -12.006   5.661  1.00  0.00     0.006 C 
BRANCH   6   7
ATOM      7  C   UNL     1     -11.242 -12.125   6.914  1.00  0.00     0.053 C 
BRANCH   7   8
ATOM      8  C   UNL     1     -11.776 -11.257   8.010  1.00  0.00     0.041 C 
ATOM      9  O   UNL     1     -12.124 -10.072   7.767  1.00  0.00    -0.550 OA
ATOM     10  O   UNL     1     -11.842 -11.742   9.310  1.00  0.00    -0.550 OA
ENDBRANCH   7   8
ENDBRANCH   6   7
ENDBRANCH   5   6
ENDBRANCH   4   5
ENDBRANCH   3   4
ENDBRANCH   2   3
ENDBRANCH   1   2
BRANCH   1  11
ATOM     11  C   UNL     1     -11.034 -10.286  -1.574  1.00  0.00     0.000 C 
BRANCH  11  12
ATOM     12  C   UNL     1     -10.473 -11.467  -2.379  1.00  0.00    -0.000 C 
BRANCH  12  13
ATOM     13  C   UNL     1     -11.029 -11.472  -3.807  1.00  0.00    -0.000 C 
BRANCH  13  14
ATOM     14  C   UNL     1      -9.990 -12.005  -4.801  1.00  0.00    -0.000 C 
BRANCH  14  15
ATOM     15  C   UNL     1      -9.772 -11.017  -5.953  1.00  0.00    -0.000 C 
BRANCH  15  16
ATOM     16  C   UNL     1      -8.798  -9.904  -5.547  1.00  0.00    -0.000 C 
BRANCH  16  17
ATOM     17  C   UNL     1      -7.371 -10.445  -5.407  1.00  0.00    -0.003 C 
ATOM     18  C   UNL     1      -6.351  -9.469  -5.986  1.00  0.00     0.004 C 
ENDBRANCH  16  17
ENDBRANCH  15  16
ENDBRANCH  14  15
ENDBRANCH  13  14
ENDBRANCH  12  13
ENDBRANCH  11  12
ENDBRANCH   1  11
TORSDOF 14
ENDMDL
MODEL 4
REMARK VINA RESULT:    -1.705     21.690     23.896
REMARK INTER + INTRA:          -4.214
REMARK INTER:                  -3.494
REMARK INTRA:                  -0.721
REMARK UNBOUND:                -1.114
REMARK SMILES CCCCCCCCCCCCCCCC(=O)[O-]
REMARK SMILES IDX 9 1 10 2 11 3 12 4 13 5 14 6 15 7 16 8 17 9 18 10 8 11 7 12
REMARK SMILES IDX 6 13 5 14 4 15 3 16 2 17 1 18
REMARK H PARENT
REMARK Flexibility Score: inf
ROOT
ATOM      1  C   UNL     1       6.571   5.327   0.882  1.00  0.00     0.000 C 
ENDROOT
BRANCH   1   2
ATOM      2  C   UNL     1       5.539   4.375   0.245  1.00  0.00     0.000 C 
BRANCH   2   3
ATOM      3  C   UNL     1       4.115   4.951   0.111  1.00  0.00     0.000 C 
BRANCH   3   4
ATOM      4  C   UNL     1       3.657   5.827   1.294  1.00  0.00     0.000 C 
BRANCH   4   5
ATOM      5  C   UNL     1       3.801   7.347   1.077  1.00  0.00     0.000 C 
BRANCH   5   6
ATOM      6  C   UNL     1       4.191   7.764  -0.353  1.00  0.00     0.006 C 
BRANCH   6   7
ATOM      7  C   UNL     1       5.699   7.992  -0.516  1.00  0.00     0.053 C 
BRANCH   7   8
ATOM      8  C   UNL     1       6.067   8.032  -1.966  1.00  0.00     0.041 C 
ATOM      9  O   UNL     1       5.169   8.064  -2.847  1.00  0.00    -0.550 OA
ATOM     10  O   UNL     1       7.403   7.982  -2.344  1.00  0.00    -0.550 OA
ENDBRANCH   7   8
ENDBRANCH   6   7
ENDBRANCH   5   6
ENDBRANCH   4   5
ENDBRANCH   3   4
ENDBRANCH   2   3
ENDBRANCH   1   2
BRANCH   1  11
ATOM     11  C   UNL     1       7.204   4.819   2.190  1.00  0.00     0.000 C 
BRANCH  11  12
ATOM     12  C   UNL     1       8.124   5.857   2.850  1.00  0.00    -0.000 C 
BRANCH  12  13
ATOM     13  C   UNL     1       7.862   7.259   2.287  1.00  0.00    -0.000 C 
BRANCH  13  14
ATOM     14  C   UNL     1       7.102   8.125   3.299  1.00  0.00    -0.000 C 
BRANCH  14  15
ATOM     15  C   UNL     1       5.594   7.856   3.231  1.00  0.00    -0.000 C 
BRANCH  15  16
ATOM     16  C   UNL     1       4.980   7.798   4.635  1.00  0.00    -0.000 C 
BRANCH  16  17
ATOM     17  C   UNL     1       3.611   7.107   4.608  1.00  0.00    -0.003 C 
ATOM     18  C   UNL     1       2.483   8.123   4.455  1.00  0.00     0.004 C 
ENDBRANCH  16  17
ENDBRANCH  15  16
ENDBRANCH  14  15
ENDBRANCH  13  14
ENDBRANCH  12  13
ENDBRANCH  11  12
ENDBRANCH   1  11
TORSDOF 14
ENDMDL
MODEL 5
REMARK VINA RESULT:    -1.693      7.951     10.951
REMARK INTER + INTRA:          -4.193
REMARK INTER:                  -3.995
REMARK INTRA:                  -0.198
REMARK UNBOUND:                -1.114
REMARK SMILES CCCCCCCCCCCCCCCC(=O)[O-]
REMARK SMILES IDX 9 1 10 2 11 3 12 4 13 5 14 6 15 7 16 8 17 9 18 10 8 11 7 12
REMARK SMILES IDX 6 13 5 14 4 15 3 16 2 17 1 18
REMARK H PARENT
REMARK Flexibility Score: inf
ROOT
ATOM      1  C   UNL     1      -9.273  -9.640   8.626  1.00  0.00     0.000 C 
ENDROOT
BRANCH   1   2
ATOM      2  C   UNL     1      -8.810 -11.106   8.749  1.00  0.00     0.000 C 
BRANCH   2   3
ATOM      3  C   UNL     1      -9.549 -12.103   7.834  1.00  0.00     0.000 C 
BRANCH   3   4
ATOM      4  C   UNL     1      -9.062 -12.124   6.371  1.00  0.00     0.000 C 
BRANCH   4   5
ATOM      5  C   UNL     1      -7.532 -12.062   6.191  1.00  0.00     0.000 C 
BRANCH   5   6
ATOM      6  C   UNL     1      -7.058 -11.421   4.874  1.00  0.00     0.006 C 
BRANCH   6   7
ATOM      7  C   UNL     1      -5.555 -11.116   4.867  1.00  0.00     0.053 C 
BRANCH   7   8
ATOM      8  C   UNL     1      -5.109 -10.719   3.495  1.00  0.00     0.041 C 
ATOM      9  O   UNL     1      -5.918 -10.753   2.531  1.00  0.00    -0.550 OA
ATOM     10  O   UNL     1      -3.786 -10.361   3.272  1.00  0.00    -0.550 OA
ENDBRANCH   7   8
ENDBRANCH   6   7
ENDBRANCH   5   6
ENDBRANCH   4   5
ENDBRANCH   3   4
ENDBRANCH   2   3
ENDBRANCH   1   2
BRANCH   1  11
ATOM     11  C   UNL     1     -10.040  -9.096   9.844  1.00  0.00     0.000 C 
BRANCH  11  12
ATOM     12  C   UNL     1     -11.492  -9.591   9.906  1.00  0.00    -0.000 C 
BRANCH  12  13
ATOM     13  C   UNL     1     -11.549 -11.122   9.924  1.00  0.00    -0.000 C 
BRANCH  13  14
ATOM     14  C   UNL     1     -11.910 -11.644  11.320  1.00  0.00    -0.000 C 
BRANCH  14  15
ATOM     15  C   UNL     1     -10.933 -11.111  12.376  1.00  0.00    -0.000 C 
BRANCH  15  16
ATOM     16  C   UNL     1     -11.656 -10.817  13.696  1.00  0.00    -0.000 C 
BRANCH  16  17
ATOM     17  C   UNL     1     -12.005  -9.328  13.811  1.00  0.00    -0.003 C 
ATOM     18  C   UNL     1     -10.799  -8.452  13.485  1.00  0.00     0.004 C 
ENDBRANCH  16  17
ENDBRANCH  15  16
ENDBRANCH  14  15
ENDBRANCH  13  14
ENDBRANCH  12  13
ENDBRANCH  11  12
ENDBRANCH   1  11
TORSDOF 14
ENDMDL
MODEL 6
REMARK VINA RESULT:    -1.584     22.381     24.771
REMARK INTER + INTRA:          -3.993
REMARK INTER:                  -3.468
REMARK INTRA:                  -0.526
REMARK UNBOUND:                -1.114
REMARK SMILES CCCCCCCCCCCCCCCC(=O)[O-]
REMARK SMILES IDX 9 1 10 2 11 3 12 4 13 5 14 6 15 7 16 8 17 9 18 10 8 11 7 12
REMARK SMILES IDX 6 13 5 14 4 15 3 16 2 17 1 18
REMARK H PARENT
REMARK Flexibility Score: inf
ROOT
ATOM      1  C   UNL     1       5.582   5.204  -0.221  1.00  0.00     0.000 C 
ENDROOT
BRANCH   1   2
ATOM      2  C   UNL     1       5.984   4.404   1.034  1.00  0.00     0.000 C 
BRANCH   2   3
ATOM      3  C   UNL     1       7.455   4.562   1.467  1.00  0.00     0.000 C 
BRANCH   3   4
ATOM      4  C   UNL     1       7.684   5.534   2.641  1.00  0.00     0.000 C 
BRANCH   4   5
ATOM      5  C   UNL     1       7.155   6.965   2.418  1.00  0.00     0.000 C 
BRANCH   5   6
ATOM      6  C   UNL     1       6.168   7.468   3.486  1.00  0.00     0.006 C 
BRANCH   6   7
ATOM      7  C   UNL     1       4.813   7.881   2.898  1.00  0.00     0.053 C 
BRANCH   7   8
ATOM      8  C   UNL     1       3.723   7.004   3.427  1.00  0.00     0.041 C 
ATOM      9  O   UNL     1       3.688   6.706   4.650  1.00  0.00    -0.550 OA
ATOM     10  O   UNL     1       2.776   6.474   2.560  1.00  0.00    -0.550 OA
ENDBRANCH   7   8
ENDBRANCH   6   7
ENDBRANCH   5   6
ENDBRANCH   4   5
ENDBRANCH   3   4
ENDBRANCH   2   3
ENDBRANCH   1   2
BRANCH   1  11
ATOM     11  C   UNL     1       4.888   6.549   0.059  1.00  0.00     0.000 C 
BRANCH  11  12
ATOM     12  C   UNL     1       5.501   7.714  -0.731  1.00  0.00    -0.000 C 
BRANCH  12  13
ATOM     13  C   UNL     1       6.925   8.015  -0.250  1.00  0.00    -0.000 C 
BRANCH  13  14
ATOM     14  C   UNL     1       7.897   8.108  -1.433  1.00  0.00    -0.000 C 
BRANCH  14  15
ATOM     15  C   UNL     1       7.141   8.125  -2.767  1.00  0.00    -0.000 C 
BRANCH  15  16
ATOM     16  C   UNL     1       8.101   7.929  -3.947  1.00  0.00    -0.000 C 
BRANCH  16  17
ATOM     17  C   UNL     1       7.360   8.052  -5.284  1.00  0.00    -0.003 C 
ATOM     18  C   UNL     1       5.865   7.799  -5.112  1.00  0.00     0.004 C 
ENDBRANCH  16  17
ENDBRANCH  15  16
ENDBRANCH  14  15
ENDBRANCH  13  14
ENDBRANCH  12  13
ENDBRANCH  11  12
ENDBRANCH   1  11
TORSDOF 14
ENDMDL
MODEL 7
REMARK VINA RESULT:    -1.196      5.869      9.539
REMARK INTER + INTRA:          -3.289
REMARK INTER:                  -2.814
REMARK INTRA:                  -0.475
REMARK UNBOUND:                -1.114
REMARK SMILES CCCCCCCCCCCCCCCC(=O)[O-]
REMARK SMILES IDX 9 1 10 2 11 3 12 4 13 5 14 6 15 7 16 8 17 9 18 10 8 11 7 12
REMARK SMILES IDX 6 13 5 14 4 15 3 16 2 17 1 18
REMARK H PARENT
REMARK Flexibility Score: inf
ROOT
ATOM      1  C   UNL     1     -11.076 -10.210   1.275  1.00  0.00     0.000 C 
ENDROOT
BRANCH   1   2
ATOM      2  C   UNL     1     -12.016 -10.767   2.363  1.00  0.00     0.000 C 
BRANCH   2   3
ATOM      3  C   UNL     1     -11.403 -11.865   3.256  1.00  0.00     0.000 C 
BRANCH   3   4
ATOM      4  C   UNL     1     -12.076 -12.031   4.633  1.00  0.00     0.000 C 
BRANCH   4   5
ATOM      5  C   UNL     1     -11.338 -11.356   5.807  1.00  0.00     0.000 C 
BRANCH   5   6
ATOM      6  C   UNL     1     -11.396 -12.125   7.139  1.00  0.00     0.006 C 
BRANCH   6   7
ATOM      7  C   UNL     1     -11.746 -11.226   8.331  1.00  0.00     0.053 C 
BRANCH   7   8
ATOM      8  C   UNL     1     -10.570 -11.088   9.245  1.00  0.00     0.041 C 
ATOM      9  O   UNL     1      -9.627 -10.308   8.951  1.00  0.00    -0.550 OA
ATOM     10  O   UNL     1     -10.491 -11.861  10.396  1.00  0.00    -0.550 OA
ENDBRANCH   7   8
ENDBRANCH   6   7
ENDBRANCH   5   6
ENDBRANCH   4   5
ENDBRANCH   3   4
ENDBRANCH   2   3
ENDBRANCH   1   2
BRANCH   1  11
ATOM     11  C   UNL     1     -11.777  -9.749  -0.016  1.00  0.00     0.000 C 
BRANCH  11  12
ATOM     12  C   UNL     1     -11.753 -10.814  -1.121  1.00  0.00    -0.000 C 
BRANCH  12  13
ATOM     13  C   UNL     1     -11.487 -10.178  -2.490  1.00  0.00    -0.000 C 
BRANCH  13  14
ATOM     14  C   UNL     1     -10.058 -10.470  -2.964  1.00  0.00    -0.000 C 
BRANCH  14  15
ATOM     15  C   UNL     1     -10.026 -11.682  -3.903  1.00  0.00    -0.000 C 
BRANCH  15  16
ATOM     16  C   UNL     1     -10.845 -11.418  -5.172  1.00  0.00    -0.000 C 
BRANCH  16  17
ATOM     17  C   UNL     1     -10.095 -10.479  -6.125  1.00  0.00    -0.003 C 
ATOM     18  C   UNL     1     -10.624  -9.051  -6.021  1.00  0.00     0.004 C 
ENDBRANCH  16  17
ENDBRANCH  15  16
ENDBRANCH  14  15
ENDBRANCH  13  14
ENDBRANCH  12  13
ENDBRANCH  11  12
ENDBRANCH   1  11
TORSDOF 14
ENDMDL
MODEL 8
REMARK VINA RESULT:    -1.195      3.039      3.553
REMARK INTER + INTRA:          -3.286
REMARK INTER:                  -2.560
REMARK INTRA:                  -0.726
REMARK UNBOUND:                -1.114
REMARK SMILES CCCCCCCCCCCCCCCC(=O)[O-]
REMARK SMILES IDX 9 1 10 2 11 3 12 4 13 5 14 6 15 7 16 8 17 9 18 10 8 11 7 12
REMARK SMILES IDX 6 13 5 14 4 15 3 16 2 17 1 18
REMARK H PARENT
REMARK Flexibility Score: inf
ROOT
ATOM      1  C   UNL     1     -11.403  -8.603  -0.286  1.00  0.00     0.000 C 
ENDROOT
BRANCH   1   2
ATOM      2  C   UNL     1     -10.517  -9.505  -1.167  1.00  0.00     0.000 C 
BRANCH   2   3
ATOM      3  C   UNL     1     -11.283 -10.472  -2.091  1.00  0.00     0.000 C 
BRANCH   3   4
ATOM      4  C   UNL     1     -10.426 -11.596  -2.707  1.00  0.00     0.000 C 
BRANCH   4   5
ATOM      5  C   UNL     1     -10.544 -11.744  -4.238  1.00  0.00     0.000 C 
BRANCH   5   6
ATOM      6  C   UNL     1     -10.024 -10.543  -5.048  1.00  0.00     0.006 C 
BRANCH   6   7
ATOM      7  C   UNL     1      -8.712 -10.844  -5.784  1.00  0.00     0.053 C 
BRANCH   7   8
ATOM      8  C   UNL     1      -7.566 -10.160  -5.109  1.00  0.00     0.041 C 
ATOM      9  O   UNL     1      -6.900  -9.285  -5.722  1.00  0.00    -0.550 OA
ATOM     10  O   UNL     1      -7.201 -10.526  -3.819  1.00  0.00    -0.550 OA
ENDBRANCH   7   8
ENDBRANCH   6   7
ENDBRANCH   5   6
ENDBRANCH   4   5
ENDBRANCH   3   4
ENDBRANCH   2   3
ENDBRANCH   1   2
BRANCH   1  11
ATOM     11  C   UNL     1     -12.106  -9.320   0.880  1.00  0.00     0.000 C 
BRANCH  11  12
ATOM     12  C   UNL     1     -11.212 -10.364   1.566  1.00  0.00    -0.000 C 
BRANCH  12  13
ATOM     13  C   UNL     1     -12.051 -11.506   2.150  1.00  0.00    -0.000 C 
BRANCH  13  14
ATOM     14  C   UNL     1     -11.434 -12.031   3.452  1.00  0.00    -0.000 C 
BRANCH  14  15
ATOM     15  C   UNL     1     -12.124 -11.416   4.676  1.00  0.00    -0.000 C 
BRANCH  15  16
ATOM     16  C   UNL     1     -11.694 -12.125   5.966  1.00  0.00    -0.000 C 
BRANCH  16  17
ATOM     17  C   UNL     1     -11.963 -11.246   7.193  1.00  0.00    -0.003 C 
ATOM     18  C   UNL     1     -11.004 -11.580   8.331  1.00  0.00     0.004 C 
ENDBRANCH  16  17
ENDBRANCH  15  16
ENDBRANCH  14  15
ENDBRANCH  13  14
ENDBRANCH  12  13
ENDBRANCH  11  12
ENDBRANCH   1  11
TORSDOF 14
ENDMDL
