MODEL 1
REMARK VINA RESULT:    -4.591      0.000      0.000
REMARK INTER + INTRA:          -5.519
REMARK INTER:                  -5.396
REMARK INTRA:                  -0.123
REMARK UNBOUND:                -0.123
REMARK SMILES O=C([O-])C=Cc1ccc(O)c(O)c1
REMARK SMILES IDX 6 1 13 2 7 3 11 4 8 5 9 6 5 7 4 8 2 9 1 10 3 11 12 12 10 14
REMARK H PARENT 12 13 10 15
REMARK Flexibility Score: inf
ROOT
ATOM      1  C   UNL     1      17.809  21.514  16.737  1.00  0.00    -0.022 A 
ATOM      2  C   UNL     1      16.514  21.207  16.277  1.00  0.00     0.058 A 
ATOM      3  C   UNL     1      18.215  21.029  17.988  1.00  0.00     0.012 A 
ATOM      4  C   UNL     1      15.649  20.408  17.039  1.00  0.00     0.157 A 
ATOM      5  C   UNL     1      17.361  20.230  18.751  1.00  0.00     0.051 A 
ATOM      6  C   UNL     1      16.081  19.909  18.289  1.00  0.00     0.157 A 
ENDROOT
BRANCH   1   7
ATOM      7  C   UNL     1      18.749  22.366  15.966  1.00  0.00     0.010 C 
ATOM      8  C   UNL     1      18.822  22.371  14.627  1.00  0.00     0.025 C 
BRANCH   8   9
ATOM      9  C   UNL     1      19.778  23.221  13.896  1.00  0.00     0.064 C 
ATOM     10  O   UNL     1      19.931  23.109  12.652  1.00  0.00    -0.545 OA
ATOM     11  O   UNL     1      20.524  24.163  14.595  1.00  0.00    -0.545 OA
ENDBRANCH   8   9
ENDBRANCH   1   7
BRANCH   4  12
ATOM     12  O   UNL     1      14.380  20.144  16.519  1.00  0.00    -0.504 OA
ATOM     13  H   UNL     1      13.518  20.428  16.963  1.00  0.00     0.293 HD
ENDBRANCH   4  12
BRANCH   6  14
ATOM     14  O   UNL     1      15.280  19.101  19.097  1.00  0.00    -0.504 OA
ATOM     15  H   UNL     1      15.638  18.489  19.815  1.00  0.00     0.293 HD
ENDBRANCH   6  14
TORSDOF 4
ENDMDL
MODEL 2
REMARK VINA RESULT:    -4.488      1.440      1.998
REMARK INTER + INTRA:          -5.398
REMARK INTER:                  -5.274
REMARK INTRA:                  -0.125
REMARK UNBOUND:                -0.123
REMARK SMILES O=C([O-])C=Cc1ccc(O)c(O)c1
REMARK SMILES IDX 6 1 13 2 7 3 11 4 8 5 9 6 5 7 4 8 2 9 1 10 3 11 12 12 10 14
REMARK H PARENT 12 13 10 15
REMARK Flexibility Score: inf
ROOT
ATOM      1  C   UNL     1      18.324  21.077  17.041  1.00  0.00    -0.022 A 
ATOM      2  C   UNL     1      17.205  20.245  17.238  1.00  0.00     0.058 A 
ATOM      3  C   UNL     1      18.773  21.869  18.108  1.00  0.00     0.012 A 
ATOM      4  C   UNL     1      16.563  20.184  18.483  1.00  0.00     0.157 A 
ATOM      5  C   UNL     1      18.142  21.810  19.351  1.00  0.00     0.051 A 
ATOM      6  C   UNL     1      17.041  20.972  19.554  1.00  0.00     0.157 A 
ENDROOT
BRANCH   1   7
ATOM      7  C   UNL     1      19.023  21.180  15.736  1.00  0.00     0.010 C 
ATOM      8  C   UNL     1      18.468  21.704  14.634  1.00  0.00     0.025 C 
BRANCH   8   9
ATOM      9  C   UNL     1      19.188  21.777  13.351  1.00  0.00     0.064 C 
ATOM     10  O   UNL     1      20.067  22.655  13.146  1.00  0.00    -0.545 OA
ATOM     11  O   UNL     1      18.891  20.861  12.349  1.00  0.00    -0.545 OA
ENDBRANCH   8   9
ENDBRANCH   1   7
BRANCH   4  12
ATOM     12  O   UNL     1      15.459  19.335  18.605  1.00  0.00    -0.504 OA
ATOM     13  H   UNL     1      15.131  18.727  17.869  1.00  0.00     0.293 HD
ENDBRANCH   4  12
BRANCH   6  14
ATOM     14  O   UNL     1      16.459  20.956  20.823  1.00  0.00    -0.504 OA
ATOM     15  H   UNL     1      16.227  20.112  21.327  1.00  0.00     0.293 HD
ENDBRANCH   6  14
TORSDOF 4
ENDMDL
MODEL 3
REMARK VINA RESULT:    -4.341     15.975     16.820
REMARK INTER + INTRA:          -5.226
REMARK INTER:                  -5.102
REMARK INTRA:                  -0.123
REMARK UNBOUND:                -0.123
REMARK SMILES O=C([O-])C=Cc1ccc(O)c(O)c1
REMARK SMILES IDX 6 1 13 2 7 3 11 4 8 5 9 6 5 7 4 8 2 9 1 10 3 11 12 12 10 14
REMARK H PARENT 12 13 10 15
REMARK Flexibility Score: inf
ROOT
ATOM      1  C   UNL     1       9.209  15.334   3.170  1.00  0.00    -0.022 A 
ATOM      2  C   UNL     1       8.776  15.283   4.509  1.00  0.00     0.058 A 
ATOM      3  C   UNL     1       8.595  16.241   2.295  1.00  0.00     0.012 A 
ATOM      4  C   UNL     1       7.768  16.139   4.974  1.00  0.00     0.157 A 
ATOM      5  C   UNL     1       7.593  17.100   2.751  1.00  0.00     0.051 A 
ATOM      6  C   UNL     1       7.174  17.064   4.085  1.00  0.00     0.157 A 
ENDROOT
BRANCH   1   7
ATOM      7  C   UNL     1      10.263  14.435   2.637  1.00  0.00     0.010 C 
ATOM      8  C   UNL     1      11.267  13.944   3.378  1.00  0.00     0.025 C 
BRANCH   8   9
ATOM      9  C   UNL     1      12.304  13.064   2.811  1.00  0.00     0.064 C 
ATOM     10  O   UNL     1      12.038  12.257   1.882  1.00  0.00    -0.545 OA
ATOM     11  O   UNL     1      13.598  13.127   3.312  1.00  0.00    -0.545 OA
ENDBRANCH   8   9
ENDBRANCH   1   7
BRANCH   4  12
ATOM     12  O   UNL     1       7.390  16.033   6.314  1.00  0.00    -0.504 OA
ATOM     13  H   UNL     1       7.485  16.779   6.988  1.00  0.00     0.293 HD
ENDBRANCH   4  12
BRANCH   6  14
ATOM     14  O   UNL     1       6.172  17.953   4.477  1.00  0.00    -0.504 OA
ATOM     15  H   UNL     1       5.813  18.019   5.418  1.00  0.00     0.293 HD
ENDBRANCH   6  14
TORSDOF 4
ENDMDL
MODEL 4
REMARK VINA RESULT:    -4.333      1.577      2.484
REMARK INTER + INTRA:          -5.216
REMARK INTER:                  -5.073
REMARK INTRA:                  -0.143
REMARK UNBOUND:                -0.123
REMARK SMILES O=C([O-])C=Cc1ccc(O)c(O)c1
REMARK SMILES IDX 6 1 13 2 7 3 11 4 8 5 9 6 5 7 4 8 2 9 1 10 3 11 12 12 10 14
REMARK H PARENT 12 13 10 15
REMARK Flexibility Score: inf
ROOT
ATOM      1  C   UNL     1      18.112  21.286  18.017  1.00  0.00    -0.022 A 
ATOM      2  C   UNL     1      17.734  21.437  19.366  1.00  0.00     0.058 A 
ATOM      3  C   UNL     1      17.371  20.419  17.201  1.00  0.00     0.012 A 
ATOM      4  C   UNL     1      16.624  20.757  19.883  1.00  0.00     0.157 A 
ATOM      5  C   UNL     1      16.261  19.741  17.708  1.00  0.00     0.051 A 
ATOM      6  C   UNL     1      15.874  19.903  19.043  1.00  0.00     0.157 A 
ENDROOT
BRANCH   1   7
ATOM      7  C   UNL     1      19.289  21.978  17.435  1.00  0.00     0.010 C 
ATOM      8  C   UNL     1      19.318  22.480  16.192  1.00  0.00     0.025 C 
BRANCH   8   9
ATOM      9  C   UNL     1      20.510  23.149  15.643  1.00  0.00     0.064 C 
ATOM     10  O   UNL     1      20.979  24.187  16.179  1.00  0.00    -0.545 OA
ATOM     11  O   UNL     1      21.125  22.626  14.512  1.00  0.00    -0.545 OA
ENDBRANCH   8   9
ENDBRANCH   1   7
BRANCH   4  12
ATOM     12  O   UNL     1      16.308  20.956  21.230  1.00  0.00    -0.504 OA
ATOM     13  H   UNL     1      16.995  21.040  21.964  1.00  0.00     0.293 HD
ENDBRANCH   4  12
BRANCH   6  14
ATOM     14  O   UNL     1      14.751  19.201  19.485  1.00  0.00    -0.504 OA
ATOM     15  H   UNL     1      14.416  18.348  19.063  1.00  0.00     0.293 HD
ENDBRANCH   6  14
TORSDOF 4
ENDMDL
MODEL 5
REMARK VINA RESULT:    -4.270      2.429      3.201
REMARK INTER + INTRA:          -5.142
REMARK INTER:                  -5.020
REMARK INTRA:                  -0.122
REMARK UNBOUND:                -0.123
REMARK SMILES O=C([O-])C=Cc1ccc(O)c(O)c1
REMARK SMILES IDX 6 1 13 2 7 3 11 4 8 5 9 6 5 7 4 8 2 9 1 10 3 11 12 12 10 14
REMARK H PARENT 12 13 10 15
REMARK Flexibility Score: inf
ROOT
ATOM      1  C   UNL     1      18.916  21.557  14.543  1.00  0.00    -0.022 A 
ATOM      2  C   UNL     1      17.576  21.956  14.709  1.00  0.00     0.058 A 
ATOM      3  C   UNL     1      19.658  21.193  15.676  1.00  0.00     0.012 A 
ATOM      4  C   UNL     1      16.978  21.965  15.976  1.00  0.00     0.157 A 
ATOM      5  C   UNL     1      19.068  21.195  16.941  1.00  0.00     0.051 A 
ATOM      6  C   UNL     1      17.732  21.574  17.106  1.00  0.00     0.157 A 
ENDROOT
BRANCH   1   7
ATOM      7  C   UNL     1      19.589  21.546  13.220  1.00  0.00     0.010 C 
ATOM      8  C   UNL     1      19.226  20.746  12.207  1.00  0.00     0.025 C 
BRANCH   8   9
ATOM      9  C   UNL     1      19.926  20.754  10.911  1.00  0.00     0.064 C 
ATOM     10  O   UNL     1      20.189  21.833  10.318  1.00  0.00    -0.545 OA
ATOM     11  O   UNL     1      20.302  19.547  10.332  1.00  0.00    -0.545 OA
ENDBRANCH   8   9
ENDBRANCH   1   7
BRANCH   4  12
ATOM     12  O   UNL     1      15.644  22.371  16.064  1.00  0.00    -0.504 OA
ATOM     13  H   UNL     1      15.038  22.495  15.266  1.00  0.00     0.293 HD
ENDBRANCH   4  12
BRANCH   6  14
ATOM     14  O   UNL     1      17.201  21.549  18.397  1.00  0.00    -0.504 OA
ATOM     15  H   UNL     1      17.702  21.212  19.206  1.00  0.00     0.293 HD
ENDBRANCH   6  14
TORSDOF 4
ENDMDL
MODEL 6
REMARK VINA RESULT:    -4.231     17.899     19.568
REMARK INTER + INTRA:          -5.096
REMARK INTER:                  -4.972
REMARK INTRA:                  -0.123
REMARK UNBOUND:                -0.123
REMARK SMILES O=C([O-])C=Cc1ccc(O)c(O)c1
REMARK SMILES IDX 6 1 13 2 7 3 11 4 8 5 9 6 5 7 4 8 2 9 1 10 3 11 12 12 10 14
REMARK H PARENT 12 13 10 15
REMARK Flexibility Score: inf
ROOT
ATOM      1  C   UNL     1       6.057  16.514   2.318  1.00  0.00    -0.022 A 
ATOM      2  C   UNL     1       6.440  15.182   2.066  1.00  0.00     0.058 A 
ATOM      3  C   UNL     1       7.043  17.445   2.674  1.00  0.00     0.012 A 
ATOM      4  C   UNL     1       7.784  14.792   2.141  1.00  0.00     0.157 A 
ATOM      5  C   UNL     1       8.384  17.065   2.748  1.00  0.00     0.051 A 
ATOM      6  C   UNL     1       8.770  15.748   2.481  1.00  0.00     0.157 A 
ENDROOT
BRANCH   1   7
ATOM      7  C   UNL     1       4.644  16.962   2.261  1.00  0.00     0.010 C 
ATOM      8  C   UNL     1       3.661  16.423   2.996  1.00  0.00     0.025 C 
BRANCH   8   9
ATOM      9  C   UNL     1       2.265  16.886   2.903  1.00  0.00     0.064 C 
ATOM     10  O   UNL     1       1.390  16.487   3.715  1.00  0.00    -0.545 OA
ATOM     11  O   UNL     1       1.909  17.777   1.898  1.00  0.00    -0.545 OA
ENDBRANCH   8   9
ENDBRANCH   1   7
BRANCH   4  12
ATOM     12  O   UNL     1       8.091  13.455   1.877  1.00  0.00    -0.504 OA
ATOM     13  H   UNL     1       8.322  13.099   0.961  1.00  0.00     0.293 HD
ENDBRANCH   4  12
BRANCH   6  14
ATOM     14  O   UNL     1      10.128  15.435   2.566  1.00  0.00    -0.504 OA
ATOM     15  H   UNL     1      10.807  15.672   1.858  1.00  0.00     0.293 HD
ENDBRANCH   6  14
TORSDOF 4
ENDMDL
MODEL 7
REMARK VINA RESULT:    -4.159     18.106     19.841
REMARK INTER + INTRA:          -5.011
REMARK INTER:                  -4.875
REMARK INTRA:                  -0.136
REMARK UNBOUND:                -0.123
REMARK SMILES O=C([O-])C=Cc1ccc(O)c(O)c1
REMARK SMILES IDX 6 1 13 2 7 3 11 4 8 5 9 6 5 7 4 8 2 9 1 10 3 11 12 12 10 14
REMARK H PARENT 12 13 10 15
REMARK Flexibility Score: inf
ROOT
ATOM      1  C   UNL     1       5.550  16.306   2.234  1.00  0.00    -0.022 A 
ATOM      2  C   UNL     1       6.657  17.160   2.399  1.00  0.00     0.058 A 
ATOM      3  C   UNL     1       5.777  14.947   1.972  1.00  0.00     0.012 A 
ATOM      4  C   UNL     1       7.966  16.664   2.331  1.00  0.00     0.157 A 
ATOM      5  C   UNL     1       7.078  14.445   1.907  1.00  0.00     0.051 A 
ATOM      6  C   UNL     1       8.179  15.288   2.088  1.00  0.00     0.157 A 
ENDROOT
BRANCH   1   7
ATOM      7  C   UNL     1       4.149  16.794   2.286  1.00  0.00     0.010 C 
ATOM      8  C   UNL     1       3.252  16.389   3.197  1.00  0.00     0.025 C 
BRANCH   8   9
ATOM      9  C   UNL     1       1.866  16.886   3.209  1.00  0.00     0.064 C 
ATOM     10  O   UNL     1       1.434  17.636   2.294  1.00  0.00    -0.545 OA
ATOM     11  O   UNL     1       1.021  16.524   4.251  1.00  0.00    -0.545 OA
ENDBRANCH   8   9
ENDBRANCH   1   7
BRANCH   4  12
ATOM     12  O   UNL     1       9.016  17.570   2.505  1.00  0.00    -0.504 OA
ATOM     13  H   UNL     1       9.521  17.688   3.371  1.00  0.00     0.293 HD
ENDBRANCH   4  12
BRANCH   6  14
ATOM     14  O   UNL     1       9.453  14.721   2.016  1.00  0.00    -0.504 OA
ATOM     15  H   UNL     1      10.101  14.690   2.789  1.00  0.00     0.293 HD
ENDBRANCH   6  14
TORSDOF 4
ENDMDL
MODEL 8
REMARK VINA RESULT:    -4.145      2.166      3.027
REMARK INTER + INTRA:          -4.995
REMARK INTER:                  -4.855
REMARK INTRA:                  -0.139
REMARK UNBOUND:                -0.123
REMARK SMILES O=C([O-])C=Cc1ccc(O)c(O)c1
REMARK SMILES IDX 6 1 13 2 7 3 11 4 8 5 9 6 5 7 4 8 2 9 1 10 3 11 12 12 10 14
REMARK H PARENT 12 13 10 15
REMARK Flexibility Score: inf
ROOT
ATOM      1  C   UNL     1      18.710  21.252  17.050  1.00  0.00    -0.022 A 
ATOM      2  C   UNL     1      19.310  21.902  18.146  1.00  0.00     0.058 A 
ATOM      3  C   UNL     1      17.563  20.476  17.271  1.00  0.00     0.012 A 
ATOM      4  C   UNL     1      18.762  21.803  19.432  1.00  0.00     0.157 A 
ATOM      5  C   UNL     1      17.009  20.374  18.548  1.00  0.00     0.051 A 
ATOM      6  C   UNL     1      17.593  21.034  19.634  1.00  0.00     0.157 A 
ENDROOT
BRANCH   1   7
ATOM      7  C   UNL     1      19.267  21.323  15.677  1.00  0.00     0.010 C 
ATOM      8  C   UNL     1      18.532  21.591  14.588  1.00  0.00     0.025 C 
BRANCH   8   9
ATOM      9  C   UNL     1      19.118  21.640  13.237  1.00  0.00     0.064 C 
ATOM     10  O   UNL     1      20.009  22.480  12.943  1.00  0.00    -0.545 OA
ATOM     11  O   UNL     1      18.678  20.745  12.270  1.00  0.00    -0.545 OA
ENDBRANCH   8   9
ENDBRANCH   1   7
BRANCH   4  12
ATOM     12  O   UNL     1      19.410  22.475  20.471  1.00  0.00    -0.504 OA
ATOM     13  H   UNL     1      18.931  22.918  21.241  1.00  0.00     0.293 HD
ENDBRANCH   4  12
BRANCH   6  14
ATOM     14  O   UNL     1      16.985  20.896  20.883  1.00  0.00    -0.504 OA
ATOM     15  H   UNL     1      17.320  21.340  21.726  1.00  0.00     0.293 HD
ENDBRANCH   6  14
TORSDOF 4
ENDMDL
