MODEL 1
REMARK VINA RESULT:    -5.998      0.000      0.000
REMARK INTER + INTRA:         -13.100
REMARK INTER:                 -10.906
REMARK INTRA:                  -2.193
REMARK UNBOUND:                -2.193
REMARK SMILES CCCCCCCCCCCCCCCC(=O)[O-]
REMARK SMILES IDX 9 1 10 2 11 3 12 4 13 5 14 6 15 7 16 8 17 9 18 10 8 11 7 12
REMARK SMILES IDX 6 13 5 14 4 15 3 16 2 17 1 18
REMARK H PARENT
REMARK Flexibility Score: inf
ROOT
ATOM      1  C   UNL     1     -18.274  -9.371   0.757  1.00  0.00     0.000 C 
ENDROOT
BRANCH   1   2
ATOM      2  C   UNL     1     -18.995  -9.279  -0.599  1.00  0.00     0.000 C 
BRANCH   2   3
ATOM      3  C   UNL     1     -19.004 -10.618  -1.355  1.00  0.00     0.000 C 
BRANCH   3   4
ATOM      4  C   UNL     1     -18.845 -11.825  -0.415  1.00  0.00     0.000 C 
BRANCH   4   5
ATOM      5  C   UNL     1     -18.516 -13.130  -1.164  1.00  0.00     0.000 C 
BRANCH   5   6
ATOM      6  C   UNL     1     -17.145 -13.748  -0.828  1.00  0.00     0.006 C 
BRANCH   6   7
ATOM      7  C   UNL     1     -16.419 -13.012   0.305  1.00  0.00     0.053 C 
BRANCH   7   8
ATOM      8  C   UNL     1     -14.944 -13.251   0.222  1.00  0.00     0.041 C 
ATOM      9  O   UNL     1     -14.446 -13.785  -0.803  1.00  0.00    -0.550 OA
ATOM     10  O   UNL     1     -14.114 -12.845   1.259  1.00  0.00    -0.550 OA
ENDBRANCH   7   8
ENDBRANCH   6   7
ENDBRANCH   5   6
ENDBRANCH   4   5
ENDBRANCH   3   4
ENDBRANCH   2   3
ENDBRANCH   1   2
BRANCH   1  11
ATOM     11  C   UNL     1     -17.730  -8.013   1.238  1.00  0.00     0.000 C 
BRANCH  11  12
ATOM     12  C   UNL     1     -16.278  -7.709   0.823  1.00  0.00    -0.000 C 
BRANCH  12  13
ATOM     13  C   UNL     1     -15.493  -8.970   0.423  1.00  0.00    -0.000 C 
BRANCH  13  14
ATOM     14  C   UNL     1     -15.000  -8.921  -1.032  1.00  0.00    -0.000 C 
BRANCH  14  15
ATOM     15  C   UNL     1     -15.397 -10.173  -1.837  1.00  0.00    -0.000 C 
BRANCH  15  16
ATOM     16  C   UNL     1     -15.745  -9.849  -3.298  1.00  0.00    -0.000 C 
BRANCH  16  17
ATOM     17  C   UNL     1     -16.657  -8.621  -3.428  1.00  0.00    -0.003 C 
ATOM     18  C   UNL     1     -16.597  -8.039  -4.839  1.00  0.00     0.004 C 
ENDBRANCH  16  17
ENDBRANCH  15  16
ENDBRANCH  14  15
ENDBRANCH  13  14
ENDBRANCH  12  13
ENDBRANCH  11  12
ENDBRANCH   1  11
TORSDOF 14
ENDMDL
MODEL 2
REMARK VINA RESULT:    -5.964      2.430      5.315
REMARK INTER + INTRA:         -13.038
REMARK INTER:                 -10.774
REMARK INTRA:                  -2.265
REMARK UNBOUND:                -2.193
REMARK SMILES CCCCCCCCCCCCCCCC(=O)[O-]
REMARK SMILES IDX 9 1 10 2 11 3 12 4 13 5 14 6 15 7 16 8 17 9 18 10 8 11 7 12
REMARK SMILES IDX 6 13 5 14 4 15 3 16 2 17 1 18
REMARK H PARENT
REMARK Flexibility Score: inf
ROOT
ATOM      1  C   UNL     1     -19.083  -9.559  -0.504  1.00  0.00     0.000 C 
ENDROOT
BRANCH   1   2
ATOM      2  C   UNL     1     -17.926  -9.520   0.510  1.00  0.00     0.000 C 
BRANCH   2   3
ATOM      3  C   UNL     1     -17.666  -8.107   1.056  1.00  0.00     0.000 C 
BRANCH   3   4
ATOM      4  C   UNL     1     -16.377  -7.486   0.490  1.00  0.00     0.000 C 
BRANCH   4   5
ATOM      5  C   UNL     1     -15.498  -8.505  -0.260  1.00  0.00     0.000 C 
BRANCH   5   6
ATOM      6  C   UNL     1     -15.193  -8.150  -1.727  1.00  0.00     0.006 C 
BRANCH   6   7
ATOM      7  C   UNL     1     -16.452  -8.066  -2.597  1.00  0.00     0.053 C 
BRANCH   7   8
ATOM      8  C   UNL     1     -16.148  -8.492  -3.999  1.00  0.00     0.041 C 
ATOM      9  O   UNL     1     -16.788  -7.999  -4.964  1.00  0.00    -0.550 OA
ATOM     10  O   UNL     1     -15.126  -9.400  -4.244  1.00  0.00    -0.550 OA
ENDBRANCH   7   8
ENDBRANCH   6   7
ENDBRANCH   5   6
ENDBRANCH   4   5
ENDBRANCH   3   4
ENDBRANCH   2   3
ENDBRANCH   1   2
BRANCH   1  11
ATOM     11  C   UNL     1     -19.001 -10.764  -1.459  1.00  0.00     0.000 C 
BRANCH  11  12
ATOM     12  C   UNL     1     -18.748 -12.120  -0.775  1.00  0.00    -0.000 C 
BRANCH  12  13
ATOM     13  C   UNL     1     -17.605 -12.917  -1.426  1.00  0.00    -0.000 C 
BRANCH  13  14
ATOM     14  C   UNL     1     -16.596 -12.014  -2.154  1.00  0.00    -0.000 C 
BRANCH  14  15
ATOM     15  C   UNL     1     -15.195 -12.053  -1.517  1.00  0.00    -0.000 C 
BRANCH  15  16
ATOM     16  C   UNL     1     -15.246 -12.076   0.019  1.00  0.00    -0.000 C 
BRANCH  16  17
ATOM     17  C   UNL     1     -14.635 -13.355   0.610  1.00  0.00    -0.003 C 
ATOM     18  C   UNL     1     -15.555 -13.967   1.663  1.00  0.00     0.004 C 
ENDBRANCH  16  17
ENDBRANCH  15  16
ENDBRANCH  14  15
ENDBRANCH  13  14
ENDBRANCH  12  13
ENDBRANCH  11  12
ENDBRANCH   1  11
TORSDOF 14
ENDMDL
MODEL 3
REMARK VINA RESULT:    -5.930      1.447      2.789
REMARK INTER + INTRA:         -12.978
REMARK INTER:                 -10.767
REMARK INTRA:                  -2.211
REMARK UNBOUND:                -2.193
REMARK SMILES CCCCCCCCCCCCCCCC(=O)[O-]
REMARK SMILES IDX 9 1 10 2 11 3 12 4 13 5 14 6 15 7 16 8 17 9 18 10 8 11 7 12
REMARK SMILES IDX 6 13 5 14 4 15 3 16 2 17 1 18
REMARK H PARENT
REMARK Flexibility Score: inf
ROOT
ATOM      1  C   UNL     1     -19.327 -12.781  -1.001  1.00  0.00     0.000 C 
ENDROOT
BRANCH   1   2
ATOM      2  C   UNL     1     -18.629 -12.817  -2.372  1.00  0.00     0.000 C 
BRANCH   2   3
ATOM      3  C   UNL     1     -18.504 -14.243  -2.934  1.00  0.00     0.000 C 
BRANCH   3   4
ATOM      4  C   UNL     1     -17.049 -14.742  -2.951  1.00  0.00     0.000 C 
BRANCH   4   5
ATOM      5  C   UNL     1     -16.054 -13.714  -2.381  1.00  0.00     0.000 C 
BRANCH   5   6
ATOM      6  C   UNL     1     -15.315 -14.158  -1.105  1.00  0.00     0.006 C 
BRANCH   6   7
ATOM      7  C   UNL     1     -16.177 -14.037   0.158  1.00  0.00     0.053 C 
BRANCH   7   8
ATOM      8  C   UNL     1     -15.322 -13.720   1.345  1.00  0.00     0.041 C 
ATOM      9  O   UNL     1     -15.572 -14.241   2.463  1.00  0.00    -0.550 OA
ATOM     10  O   UNL     1     -14.222 -12.883   1.206  1.00  0.00    -0.550 OA
ENDBRANCH   7   8
ENDBRANCH   6   7
ENDBRANCH   5   6
ENDBRANCH   4   5
ENDBRANCH   3   4
ENDBRANCH   2   3
ENDBRANCH   1   2
BRANCH   1  11
ATOM     11  C   UNL     1     -19.012 -11.502  -0.203  1.00  0.00     0.000 C 
BRANCH  11  12
ATOM     12  C   UNL     1     -19.046 -10.199  -1.022  1.00  0.00    -0.000 C 
BRANCH  12  13
ATOM     13  C   UNL     1     -17.719  -9.424  -0.973  1.00  0.00    -0.000 C 
BRANCH  13  14
ATOM     14  C   UNL     1     -16.544 -10.296  -0.500  1.00  0.00    -0.000 C 
BRANCH  14  15
ATOM     15  C   UNL     1     -15.301 -10.158  -1.400  1.00  0.00    -0.000 C 
BRANCH  15  16
ATOM     16  C   UNL     1     -15.648 -10.212  -2.896  1.00  0.00    -0.000 C 
BRANCH  16  17
ATOM     17  C   UNL     1     -15.226  -8.940  -3.645  1.00  0.00    -0.003 C 
ATOM     18  C   UNL     1     -16.427  -8.266  -4.303  1.00  0.00     0.004 C 
ENDBRANCH  16  17
ENDBRANCH  15  16
ENDBRANCH  14  15
ENDBRANCH  13  14
ENDBRANCH  12  13
ENDBRANCH  11  12
ENDBRANCH   1  11
TORSDOF 14
ENDMDL
MODEL 4
REMARK VINA RESULT:    -5.891      0.995      1.697
REMARK INTER + INTRA:         -12.907
REMARK INTER:                 -10.859
REMARK INTRA:                  -2.048
REMARK UNBOUND:                -2.193
REMARK SMILES CCCCCCCCCCCCCCCC(=O)[O-]
REMARK SMILES IDX 9 1 10 2 11 3 12 4 13 5 14 6 15 7 16 8 17 9 18 10 8 11 7 12
REMARK SMILES IDX 6 13 5 14 4 15 3 16 2 17 1 18
REMARK H PARENT
REMARK Flexibility Score: inf
ROOT
ATOM      1  C   UNL     1     -19.098  -9.313  -0.567  1.00  0.00     0.000 C 
ENDROOT
BRANCH   1   2
ATOM      2  C   UNL     1     -19.004 -10.613  -1.384  1.00  0.00     0.000 C 
BRANCH   2   3
ATOM      3  C   UNL     1     -18.607 -11.824  -0.525  1.00  0.00     0.000 C 
BRANCH   3   4
ATOM      4  C   UNL     1     -18.799 -13.159  -1.265  1.00  0.00     0.000 C 
BRANCH   4   5
ATOM      5  C   UNL     1     -17.846 -13.324  -2.464  1.00  0.00     0.000 C 
BRANCH   5   6
ATOM      6  C   UNL     1     -16.900 -14.536  -2.385  1.00  0.00     0.006 C 
BRANCH   6   7
ATOM      7  C   UNL     1     -16.163 -14.633  -1.043  1.00  0.00     0.053 C 
BRANCH   7   8
ATOM      8  C   UNL     1     -15.010 -13.680  -1.011  1.00  0.00     0.041 C 
ATOM      9  O   UNL     1     -13.944 -13.954  -1.621  1.00  0.00    -0.550 OA
ATOM     10  O   UNL     1     -15.128 -12.468  -0.343  1.00  0.00    -0.550 OA
ENDBRANCH   7   8
ENDBRANCH   6   7
ENDBRANCH   5   6
ENDBRANCH   4   5
ENDBRANCH   3   4
ENDBRANCH   2   3
ENDBRANCH   1   2
BRANCH   1  11
ATOM     11  C   UNL     1     -18.251  -9.352   0.719  1.00  0.00     0.000 C 
BRANCH  11  12
ATOM     12  C   UNL     1     -17.819  -7.975   1.255  1.00  0.00    -0.000 C 
BRANCH  12  13
ATOM     13  C   UNL     1     -16.421  -7.554   0.771  1.00  0.00    -0.000 C 
BRANCH  13  14
ATOM     14  C   UNL     1     -15.614  -8.732   0.201  1.00  0.00    -0.000 C 
BRANCH  14  15
ATOM     15  C   UNL     1     -15.105  -8.468  -1.228  1.00  0.00    -0.000 C 
BRANCH  15  16
ATOM     16  C   UNL     1     -16.178  -7.838  -2.129  1.00  0.00    -0.000 C 
BRANCH  16  17
ATOM     17  C   UNL     1     -16.452  -8.670  -3.390  1.00  0.00    -0.003 C 
ATOM     18  C   UNL     1     -15.863 -10.072  -3.261  1.00  0.00     0.004 C 
ENDBRANCH  16  17
ENDBRANCH  15  16
ENDBRANCH  14  15
ENDBRANCH  13  14
ENDBRANCH  12  13
ENDBRANCH  11  12
ENDBRANCH   1  11
TORSDOF 14
ENDMDL
MODEL 5
REMARK VINA RESULT:    -5.875      2.356      5.530
REMARK INTER + INTRA:         -12.878
REMARK INTER:                 -11.236
REMARK INTRA:                  -1.641
REMARK UNBOUND:                -2.193
REMARK SMILES CCCCCCCCCCCCCCCC(=O)[O-]
REMARK SMILES IDX 9 1 10 2 11 3 12 4 13 5 14 6 15 7 16 8 17 9 18 10 8 11 7 12
REMARK SMILES IDX 6 13 5 14 4 15 3 16 2 17 1 18
REMARK H PARENT
REMARK Flexibility Score: inf
ROOT
ATOM      1  C   UNL     1     -18.801 -10.376  -1.064  1.00  0.00     0.000 C 
ENDROOT
BRANCH   1   2
ATOM      2  C   UNL     1     -18.085 -10.178   0.284  1.00  0.00     0.000 C 
BRANCH   2   3
ATOM      3  C   UNL     1     -18.238  -8.749   0.830  1.00  0.00     0.000 C 
BRANCH   3   4
ATOM      4  C   UNL     1     -16.911  -7.972   0.827  1.00  0.00     0.000 C 
BRANCH   4   5
ATOM      5  C   UNL     1     -15.799  -8.686   0.034  1.00  0.00     0.000 C 
BRANCH   5   6
ATOM      6  C   UNL     1     -15.339  -7.961  -1.244  1.00  0.00     0.006 C 
BRANCH   6   7
ATOM      7  C   UNL     1     -16.407  -7.955  -2.345  1.00  0.00     0.053 C 
BRANCH   7   8
ATOM      8  C   UNL     1     -15.843  -8.495  -3.622  1.00  0.00     0.041 C 
ATOM      9  O   UNL     1     -16.468  -8.344  -4.704  1.00  0.00    -0.550 OA
ATOM     10  O   UNL     1     -14.606  -9.126  -3.624  1.00  0.00    -0.550 OA
ENDBRANCH   7   8
ENDBRANCH   6   7
ENDBRANCH   5   6
ENDBRANCH   4   5
ENDBRANCH   3   4
ENDBRANCH   2   3
ENDBRANCH   1   2
BRANCH   1  11
ATOM     11  C   UNL     1     -18.180 -11.501  -1.912  1.00  0.00     0.000 C 
BRANCH  11  12
ATOM     12  C   UNL     1     -18.623 -12.925  -1.530  1.00  0.00    -0.000 C 
BRANCH  12  13
ATOM     13  C   UNL     1     -18.496 -13.925  -2.692  1.00  0.00    -0.000 C 
BRANCH  13  14
ATOM     14  C   UNL     1     -17.083 -14.518  -2.808  1.00  0.00    -0.000 C 
BRANCH  14  15
ATOM     15  C   UNL     1     -16.411 -14.728  -1.439  1.00  0.00    -0.000 C 
BRANCH  15  16
ATOM     16  C   UNL     1     -15.030 -14.060  -1.351  1.00  0.00    -0.000 C 
BRANCH  16  17
ATOM     17  C   UNL     1     -14.738 -13.493   0.046  1.00  0.00    -0.003 C 
ATOM     18  C   UNL     1     -15.954 -13.627   0.959  1.00  0.00     0.004 C 
ENDBRANCH  16  17
ENDBRANCH  15  16
ENDBRANCH  14  15
ENDBRANCH  13  14
ENDBRANCH  12  13
ENDBRANCH  11  12
ENDBRANCH   1  11
TORSDOF 14
ENDMDL
MODEL 6
REMARK VINA RESULT:    -5.804      2.290      4.972
REMARK INTER + INTRA:         -12.747
REMARK INTER:                 -10.835
REMARK INTRA:                  -1.913
REMARK UNBOUND:                -2.193
REMARK SMILES CCCCCCCCCCCCCCCC(=O)[O-]
REMARK SMILES IDX 9 1 10 2 11 3 12 4 13 5 14 6 15 7 16 8 17 9 18 10 8 11 7 12
REMARK SMILES IDX 6 13 5 14 4 15 3 16 2 17 1 18
REMARK H PARENT
REMARK Flexibility Score: inf
ROOT
ATOM      1  C   UNL     1     -18.920  -9.176  -0.630  1.00  0.00     0.000 C 
ENDROOT
BRANCH   1   2
ATOM      2  C   UNL     1     -18.364  -8.961   0.788  1.00  0.00     0.000 C 
BRANCH   2   3
ATOM      3  C   UNL     1     -17.428  -7.744   0.878  1.00  0.00     0.000 C 
BRANCH   3   4
ATOM      4  C   UNL     1     -15.981  -8.139   1.218  1.00  0.00     0.000 C 
BRANCH   4   5
ATOM      5  C   UNL     1     -15.253  -8.822   0.045  1.00  0.00     0.000 C 
BRANCH   5   6
ATOM      6  C   UNL     1     -15.348  -8.082  -1.303  1.00  0.00     0.006 C 
BRANCH   6   7
ATOM      7  C   UNL     1     -14.512  -8.740  -2.407  1.00  0.00     0.053 C 
BRANCH   7   8
ATOM      8  C   UNL     1     -15.374  -9.086  -3.580  1.00  0.00     0.041 C 
ATOM      9  O   UNL     1     -14.913  -9.781  -4.522  1.00  0.00    -0.550 OA
ATOM     10  O   UNL     1     -16.702  -8.678  -3.612  1.00  0.00    -0.550 OA
ENDBRANCH   7   8
ENDBRANCH   6   7
ENDBRANCH   5   6
ENDBRANCH   4   5
ENDBRANCH   3   4
ENDBRANCH   2   3
ENDBRANCH   1   2
BRANCH   1  11
ATOM     11  C   UNL     1     -18.603 -10.575  -1.191  1.00  0.00     0.000 C 
BRANCH  11  12
ATOM     12  C   UNL     1     -18.231 -11.631  -0.135  1.00  0.00    -0.000 C 
BRANCH  12  13
ATOM     13  C   UNL     1     -16.795 -12.159  -0.294  1.00  0.00    -0.000 C 
BRANCH  13  14
ATOM     14  C   UNL     1     -16.650 -13.622   0.155  1.00  0.00    -0.000 C 
BRANCH  14  15
ATOM     15  C   UNL     1     -16.117 -14.537  -0.963  1.00  0.00    -0.000 C 
BRANCH  15  16
ATOM     16  C   UNL     1     -16.486 -14.031  -2.366  1.00  0.00    -0.000 C 
BRANCH  16  17
ATOM     17  C   UNL     1     -17.656 -14.809  -2.984  1.00  0.00    -0.003 C 
ATOM     18  C   UNL     1     -18.931 -13.968  -2.991  1.00  0.00     0.004 C 
ENDBRANCH  16  17
ENDBRANCH  15  16
ENDBRANCH  14  15
ENDBRANCH  13  14
ENDBRANCH  12  13
ENDBRANCH  11  12
ENDBRANCH   1  11
TORSDOF 14
ENDMDL
MODEL 7
REMARK VINA RESULT:    -5.795      1.700      2.062
REMARK INTER + INTRA:         -12.731
REMARK INTER:                 -10.381
REMARK INTRA:                  -2.350
REMARK UNBOUND:                -2.193
REMARK SMILES CCCCCCCCCCCCCCCC(=O)[O-]
REMARK SMILES IDX 9 1 10 2 11 3 12 4 13 5 14 6 15 7 16 8 17 9 18 10 8 11 7 12
REMARK SMILES IDX 6 13 5 14 4 15 3 16 2 17 1 18
REMARK H PARENT
REMARK Flexibility Score: inf
ROOT
ATOM      1  C   UNL     1     -18.257  -9.189   0.431  1.00  0.00     0.000 C 
ENDROOT
BRANCH   1   2
ATOM      2  C   UNL     1     -18.709  -9.492  -1.008  1.00  0.00     0.000 C 
BRANCH   2   3
ATOM      3  C   UNL     1     -18.713 -10.997  -1.322  1.00  0.00     0.000 C 
BRANCH   3   4
ATOM      4  C   UNL     1     -18.255 -11.849  -0.126  1.00  0.00     0.000 C 
BRANCH   4   5
ATOM      5  C   UNL     1     -16.867 -12.482  -0.335  1.00  0.00     0.000 C 
BRANCH   5   6
ATOM      6  C   UNL     1     -16.854 -14.020  -0.410  1.00  0.00     0.006 C 
BRANCH   6   7
ATOM      7  C   UNL     1     -16.210 -14.551  -1.696  1.00  0.00     0.053 C 
BRANCH   7   8
ATOM      8  C   UNL     1     -16.850 -13.927  -2.897  1.00  0.00     0.041 C 
ATOM      9  O   UNL     1     -16.159 -13.252  -3.703  1.00  0.00    -0.550 OA
ATOM     10  O   UNL     1     -18.201 -14.127  -3.148  1.00  0.00    -0.550 OA
ENDBRANCH   7   8
ENDBRANCH   6   7
ENDBRANCH   5   6
ENDBRANCH   4   5
ENDBRANCH   3   4
ENDBRANCH   2   3
ENDBRANCH   1   2
BRANCH   1  11
ATOM     11  C   UNL     1     -17.381  -7.926   0.530  1.00  0.00     0.000 C 
BRANCH  11  12
ATOM     12  C   UNL     1     -15.979  -8.152   1.123  1.00  0.00    -0.000 C 
BRANCH  12  13
ATOM     13  C   UNL     1     -15.171  -9.218   0.365  1.00  0.00    -0.000 C 
BRANCH  13  14
ATOM     14  C   UNL     1     -14.938  -8.846  -1.108  1.00  0.00    -0.000 C 
BRANCH  14  15
ATOM     15  C   UNL     1     -15.025 -10.061  -2.050  1.00  0.00    -0.000 C 
BRANCH  15  16
ATOM     16  C   UNL     1     -15.705  -9.723  -3.387  1.00  0.00    -0.000 C 
BRANCH  16  17
ATOM     17  C   UNL     1     -16.271  -8.296  -3.416  1.00  0.00    -0.003 C 
ATOM     18  C   UNL     1     -16.628  -7.876  -4.840  1.00  0.00     0.004 C 
ENDBRANCH  16  17
ENDBRANCH  15  16
ENDBRANCH  14  15
ENDBRANCH  13  14
ENDBRANCH  12  13
ENDBRANCH  11  12
ENDBRANCH   1  11
TORSDOF 14
ENDMDL
MODEL 8
REMARK VINA RESULT:    -5.771      1.268      3.947
REMARK INTER + INTRA:         -12.688
REMARK INTER:                 -10.305
REMARK INTRA:                  -2.383
REMARK UNBOUND:                -2.193
REMARK SMILES CCCCCCCCCCCCCCCC(=O)[O-]
REMARK SMILES IDX 9 1 10 2 11 3 12 4 13 5 14 6 15 7 16 8 17 9 18 10 8 11 7 12
REMARK SMILES IDX 6 13 5 14 4 15 3 16 2 17 1 18
REMARK H PARENT
REMARK Flexibility Score: inf
ROOT
ATOM      1  C   UNL     1     -17.399  -7.667   0.880  1.00  0.00     0.000 C 
ENDROOT
BRANCH   1   2
ATOM      2  C   UNL     1     -15.943  -7.889   0.434  1.00  0.00     0.000 C 
BRANCH   2   3
ATOM      3  C   UNL     1     -15.751  -7.696  -1.079  1.00  0.00     0.000 C 
BRANCH   3   4
ATOM      4  C   UNL     1     -14.886  -8.801  -1.708  1.00  0.00     0.000 C 
BRANCH   4   5
ATOM      5  C   UNL     1     -15.712 -10.009  -2.188  1.00  0.00     0.000 C 
BRANCH   5   6
ATOM      6  C   UNL     1     -15.266 -11.371  -1.623  1.00  0.00     0.006 C 
BRANCH   6   7
ATOM      7  C   UNL     1     -15.394 -11.457  -0.097  1.00  0.00     0.053 C 
BRANCH   7   8
ATOM      8  C   UNL     1     -15.054 -12.834   0.379  1.00  0.00     0.041 C 
ATOM      9  O   UNL     1     -15.664 -13.334   1.360  1.00  0.00    -0.550 OA
ATOM     10  O   UNL     1     -14.093 -13.583  -0.288  1.00  0.00    -0.550 OA
ENDBRANCH   7   8
ENDBRANCH   6   7
ENDBRANCH   5   6
ENDBRANCH   4   5
ENDBRANCH   3   4
ENDBRANCH   2   3
ENDBRANCH   1   2
BRANCH   1  11
ATOM     11  C   UNL     1     -18.234  -8.960   0.862  1.00  0.00     0.000 C 
BRANCH  11  12
ATOM     12  C   UNL     1     -19.179  -9.109  -0.345  1.00  0.00    -0.000 C 
BRANCH  12  13
ATOM     13  C   UNL     1     -18.969 -10.424  -1.113  1.00  0.00    -0.000 C 
BRANCH  13  14
ATOM     14  C   UNL     1     -19.194 -11.664  -0.233  1.00  0.00    -0.000 C 
BRANCH  14  15
ATOM     15  C   UNL     1     -18.681 -12.960  -0.889  1.00  0.00    -0.000 C 
BRANCH  15  16
ATOM     16  C   UNL     1     -18.636 -12.867  -2.422  1.00  0.00    -0.000 C 
BRANCH  16  17
ATOM     17  C   UNL     1     -18.115 -14.155  -3.075  1.00  0.00    -0.003 C 
ATOM     18  C   UNL     1     -16.930 -14.724  -2.298  1.00  0.00     0.004 C 
ENDBRANCH  16  17
ENDBRANCH  15  16
ENDBRANCH  14  15
ENDBRANCH  13  14
ENDBRANCH  12  13
ENDBRANCH  11  12
ENDBRANCH   1  11
TORSDOF 14
ENDMDL
MODEL 9
REMARK VINA RESULT:    -5.764      1.290      3.368
REMARK INTER + INTRA:         -12.675
REMARK INTER:                 -10.757
REMARK INTRA:                  -1.918
REMARK UNBOUND:                -2.193
REMARK SMILES CCCCCCCCCCCCCCCC(=O)[O-]
REMARK SMILES IDX 9 1 10 2 11 3 12 4 13 5 14 6 15 7 16 8 17 9 18 10 8 11 7 12
REMARK SMILES IDX 6 13 5 14 4 15 3 16 2 17 1 18
REMARK H PARENT
REMARK Flexibility Score: inf
ROOT
ATOM      1  C   UNL     1     -15.296  -9.912  -3.175  1.00  0.00     0.000 C 
ENDROOT
BRANCH   1   2
ATOM      2  C   UNL     1     -15.506 -11.195  -2.354  1.00  0.00     0.000 C 
BRANCH   2   3
ATOM      3  C   UNL     1     -15.991 -12.375  -3.213  1.00  0.00     0.000 C 
BRANCH   3   4
ATOM      4  C   UNL     1     -17.305 -12.981  -2.692  1.00  0.00     0.000 C 
BRANCH   4   5
ATOM      5  C   UNL     1     -17.170 -14.466  -2.305  1.00  0.00     0.000 C 
BRANCH   5   6
ATOM      6  C   UNL     1     -16.261 -14.746  -1.095  1.00  0.00     0.006 C 
BRANCH   6   7
ATOM      7  C   UNL     1     -16.562 -13.837   0.103  1.00  0.00     0.053 C 
BRANCH   7   8
ATOM      8  C   UNL     1     -15.382 -13.774   1.021  1.00  0.00     0.041 C 
ATOM      9  O   UNL     1     -14.292 -13.290   0.619  1.00  0.00    -0.550 OA
ATOM     10  O   UNL     1     -15.499 -14.210   2.335  1.00  0.00    -0.550 OA
ENDBRANCH   7   8
ENDBRANCH   6   7
ENDBRANCH   5   6
ENDBRANCH   4   5
ENDBRANCH   3   4
ENDBRANCH   2   3
ENDBRANCH   1   2
BRANCH   1  11
ATOM     11  C   UNL     1     -16.504  -8.958  -3.113  1.00  0.00     0.000 C 
BRANCH  11  12
ATOM     12  C   UNL     1     -16.336  -7.757  -2.164  1.00  0.00    -0.000 C 
BRANCH  12  13
ATOM     13  C   UNL     1     -15.207  -7.955  -1.139  1.00  0.00    -0.000 C 
BRANCH  13  14
ATOM     14  C   UNL     1     -15.714  -8.523   0.196  1.00  0.00    -0.000 C 
BRANCH  14  15
ATOM     15  C   UNL     1     -16.930  -7.755   0.746  1.00  0.00    -0.000 C 
BRANCH  15  16
ATOM     16  C   UNL     1     -18.159  -8.657   0.941  1.00  0.00    -0.000 C 
BRANCH  16  17
ATOM     17  C   UNL     1     -18.012 -10.013   0.236  1.00  0.00    -0.003 C 
ATOM     18  C   UNL     1     -19.096 -10.203  -0.822  1.00  0.00     0.004 C 
ENDBRANCH  16  17
ENDBRANCH  15  16
ENDBRANCH  14  15
ENDBRANCH  13  14
ENDBRANCH  12  13
ENDBRANCH  11  12
ENDBRANCH   1  11
TORSDOF 14
ENDMDL
