MODEL 1
REMARK VINA RESULT:    -7.027      0.000      0.000
REMARK INTER + INTRA:          -8.526
REMARK INTER:                  -8.259
REMARK INTRA:                  -0.267
REMARK UNBOUND:                -0.267
REMARK SMILES O=c1cc(-c2ccc(O)c(O)c2)oc2cc(O)cc(O)c12
REMARK SMILES IDX 4 1 3 2 2 3 1 4 21 5 19 6 18 7 16 8 15 9 14 10 13 11 5 12
REMARK SMILES IDX 6 13 7 14 8 15 12 16 10 17 9 18 11 20 20 22 17 24
REMARK H PARENT 9 19 11 21 20 23 17 25
REMARK Flexibility Score: inf
ROOT
ATOM      1  C   UNL     1      18.722  25.031  40.776  1.00  0.00     0.138 A 
ATOM      2  C   UNL     1      19.789  25.933  40.895  1.00  0.00     0.100 A 
ATOM      3  C   UNL     1      19.927  26.689  42.060  1.00  0.00     0.197 A 
ATOM      4  O   UNL     1      20.857  27.535  42.112  1.00  0.00    -0.289 OA
ATOM      5  C   UNL     1      19.010  26.517  43.123  1.00  0.00     0.107 A 
ATOM      6  C   UNL     1      19.076  27.202  44.373  1.00  0.00     0.134 A 
ATOM      7  C   UNL     1      18.045  27.037  45.307  1.00  0.00     0.093 A 
ATOM      8  C   UNL     1      16.982  26.163  45.060  1.00  0.00     0.123 A 
ATOM      9  C   UNL     1      16.937  25.449  43.865  1.00  0.00     0.094 A 
ATOM     10  C   UNL     1      17.932  25.618  42.899  1.00  0.00     0.146 A 
ATOM     11  O   UNL     1      17.843  24.929  41.767  1.00  0.00    -0.456 OA
ENDROOT
BRANCH   1  12
ATOM     12  C   UNL     1      18.529  24.202  39.559  1.00  0.00     0.021 A 
ATOM     13  C   UNL     1      17.346  24.270  38.799  1.00  0.00     0.016 A 
ATOM     14  C   UNL     1      17.195  23.486  37.652  1.00  0.00     0.051 A 
ATOM     15  C   UNL     1      18.220  22.630  37.240  1.00  0.00     0.157 A 
ATOM     16  C   UNL     1      19.561  23.349  39.132  1.00  0.00     0.062 A 
ATOM     17  C   UNL     1      19.411  22.560  37.981  1.00  0.00     0.158 A 
BRANCH  15  18
ATOM     18  O   UNL     1      18.039  21.860  36.091  1.00  0.00    -0.504 OA
ATOM     19  H   UNL     1      18.293  20.880  36.055  1.00  0.00     0.293 HD
ENDBRANCH  15  18
BRANCH  17  20
ATOM     20  O   UNL     1      20.438  21.712  37.572  1.00  0.00    -0.504 OA
ATOM     21  H   UNL     1      20.905  21.093  38.224  1.00  0.00     0.293 HD
ENDBRANCH  17  20
ENDBRANCH   1  12
BRANCH   6  22
ATOM     22  O   UNL     1      20.135  28.031  44.753  1.00  0.00    -0.507 OA
ATOM     23  H   UNL     1      20.997  28.137  44.242  1.00  0.00     0.293 HD
ENDBRANCH   6  22
BRANCH   8  24
ATOM     24  O   UNL     1      15.969  25.993  46.001  1.00  0.00    -0.508 OA
ATOM     25  H   UNL     1      15.028  26.331  45.833  1.00  0.00     0.293 HD
ENDBRANCH   8  24
TORSDOF 5
ENDMDL
MODEL 2
REMARK VINA RESULT:    -6.997      1.822      7.054
REMARK INTER + INTRA:          -8.491
REMARK INTER:                  -8.225
REMARK INTRA:                  -0.266
REMARK UNBOUND:                -0.267
REMARK SMILES O=c1cc(-c2ccc(O)c(O)c2)oc2cc(O)cc(O)c12
REMARK SMILES IDX 4 1 3 2 2 3 1 4 21 5 19 6 18 7 16 8 15 9 14 10 13 11 5 12
REMARK SMILES IDX 6 13 7 14 8 15 12 16 10 17 9 18 11 20 20 22 17 24
REMARK H PARENT 9 19 11 21 20 23 17 25
REMARK Flexibility Score: inf
ROOT
ATOM      1  C   UNL     1      18.894  25.394  40.618  1.00  0.00     0.138 A 
ATOM      2  C   UNL     1      18.855  26.361  39.603  1.00  0.00     0.100 A 
ATOM      3  C   UNL     1      19.124  25.988  38.285  1.00  0.00     0.197 A 
ATOM      4  O   UNL     1      19.142  26.889  37.407  1.00  0.00    -0.289 OA
ATOM      5  C   UNL     1      19.402  24.635  37.979  1.00  0.00     0.107 A 
ATOM      6  C   UNL     1      19.650  24.133  36.667  1.00  0.00     0.134 A 
ATOM      7  C   UNL     1      20.030  22.795  36.499  1.00  0.00     0.093 A 
ATOM      8  C   UNL     1      20.110  21.927  37.592  1.00  0.00     0.123 A 
ATOM      9  C   UNL     1      19.818  22.395  38.870  1.00  0.00     0.094 A 
ATOM     10  C   UNL     1      19.469  23.732  39.074  1.00  0.00     0.146 A 
ATOM     11  O   UNL     1      19.213  24.141  40.312  1.00  0.00    -0.456 OA
ENDROOT
BRANCH   1  12
ATOM     12  C   UNL     1      18.616  25.735  42.037  1.00  0.00     0.021 A 
ATOM     13  C   UNL     1      17.535  25.166  42.736  1.00  0.00     0.016 A 
ATOM     14  C   UNL     1      17.303  25.498  44.074  1.00  0.00     0.051 A 
ATOM     15  C   UNL     1      18.147  26.392  44.737  1.00  0.00     0.157 A 
ATOM     16  C   UNL     1      19.469  26.624  42.714  1.00  0.00     0.062 A 
ATOM     17  C   UNL     1      19.237  26.958  44.057  1.00  0.00     0.158 A 
BRANCH  15  18
ATOM     18  O   UNL     1      17.889  26.704  46.073  1.00  0.00    -0.504 OA
ATOM     19  H   UNL     1      18.143  27.598  46.475  1.00  0.00     0.293 HD
ENDBRANCH  15  18
BRANCH  17  20
ATOM     20  O   UNL     1      20.085  27.847  44.715  1.00  0.00    -0.504 OA
ATOM     21  H   UNL     1      20.289  28.765  44.336  1.00  0.00     0.293 HD
ENDBRANCH  17  20
ENDBRANCH   1  12
BRANCH   6  22
ATOM     22  O   UNL     1      19.515  24.894  35.502  1.00  0.00    -0.507 OA
ATOM     23  H   UNL     1      19.923  25.804  35.357  1.00  0.00     0.293 HD
ENDBRANCH   6  22
BRANCH   8  24
ATOM     24  O   UNL     1      20.473  20.594  37.414  1.00  0.00    -0.508 OA
ATOM     25  H   UNL     1      21.029  20.297  36.620  1.00  0.00     0.293 HD
ENDBRANCH   8  24
TORSDOF 5
ENDMDL
MODEL 3
REMARK VINA RESULT:    -6.847     10.929     12.794
REMARK INTER + INTRA:          -8.315
REMARK INTER:                  -8.014
REMARK INTRA:                  -0.301
REMARK UNBOUND:                -0.267
REMARK SMILES O=c1cc(-c2ccc(O)c(O)c2)oc2cc(O)cc(O)c12
REMARK SMILES IDX 4 1 3 2 2 3 1 4 21 5 19 6 18 7 16 8 15 9 14 10 13 11 5 12
REMARK SMILES IDX 6 13 7 14 8 15 12 16 10 17 9 18 11 20 20 22 17 24
REMARK H PARENT 9 19 11 21 20 23 17 25
REMARK Flexibility Score: inf
ROOT
ATOM      1  C   UNL     1      27.499  23.597  49.825  1.00  0.00     0.138 A 
ATOM      2  C   UNL     1      27.906  24.259  50.992  1.00  0.00     0.100 A 
ATOM      3  C   UNL     1      27.407  23.847  52.228  1.00  0.00     0.197 A 
ATOM      4  O   UNL     1      27.742  24.499  53.251  1.00  0.00    -0.289 OA
ATOM      5  C   UNL     1      26.519  22.747  52.298  1.00  0.00     0.107 A 
ATOM      6  C   UNL     1      25.978  22.214  53.505  1.00  0.00     0.134 A 
ATOM      7  C   UNL     1      25.017  21.197  53.443  1.00  0.00     0.093 A 
ATOM      8  C   UNL     1      24.623  20.653  52.217  1.00  0.00     0.123 A 
ATOM      9  C   UNL     1      25.185  21.131  51.036  1.00  0.00     0.094 A 
ATOM     10  C   UNL     1      26.121  22.168  51.063  1.00  0.00     0.146 A 
ATOM     11  O   UNL     1      26.621  22.603  49.913  1.00  0.00    -0.456 OA
ENDROOT
BRANCH   1  12
ATOM     12  C   UNL     1      28.000  23.993  48.484  1.00  0.00     0.021 A 
ATOM     13  C   UNL     1      29.332  24.401  48.283  1.00  0.00     0.016 A 
ATOM     14  C   UNL     1      29.779  24.758  47.008  1.00  0.00     0.051 A 
ATOM     15  C   UNL     1      28.911  24.708  45.914  1.00  0.00     0.157 A 
ATOM     16  C   UNL     1      27.135  23.932  47.376  1.00  0.00     0.062 A 
ATOM     17  C   UNL     1      27.583  24.292  46.096  1.00  0.00     0.158 A 
BRANCH  15  18
ATOM     18  O   UNL     1      29.387  25.072  44.654  1.00  0.00    -0.504 OA
ATOM     19  H   UNL     1      29.255  24.486  43.839  1.00  0.00     0.293 HD
ENDBRANCH  15  18
BRANCH  17  20
ATOM     20  O   UNL     1      26.714  24.235  45.008  1.00  0.00    -0.504 OA
ATOM     21  H   UNL     1      27.036  24.405  44.062  1.00  0.00     0.293 HD
ENDBRANCH  17  20
ENDBRANCH   1  12
BRANCH   6  22
ATOM     22  O   UNL     1      26.366  22.628  54.783  1.00  0.00    -0.507 OA
ATOM     23  H   UNL     1      26.399  23.586  55.095  1.00  0.00     0.293 HD
ENDBRANCH   6  22
BRANCH   8  24
ATOM     24  O   UNL     1      23.678  19.631  52.164  1.00  0.00    -0.508 OA
ATOM     25  H   UNL     1      23.586  18.955  52.914  1.00  0.00     0.293 HD
ENDBRANCH   8  24
TORSDOF 5
ENDMDL
MODEL 4
REMARK VINA RESULT:    -6.818     12.198     13.901
REMARK INTER + INTRA:          -8.281
REMARK INTER:                  -7.978
REMARK INTRA:                  -0.303
REMARK UNBOUND:                -0.267
REMARK SMILES O=c1cc(-c2ccc(O)c(O)c2)oc2cc(O)cc(O)c12
REMARK SMILES IDX 4 1 3 2 2 3 1 4 21 5 19 6 18 7 16 8 15 9 14 10 13 11 5 12
REMARK SMILES IDX 6 13 7 14 8 15 12 16 10 17 9 18 11 20 20 22 17 24
REMARK H PARENT 9 19 11 21 20 23 17 25
REMARK Flexibility Score: inf
ROOT
ATOM      1  C   UNL     1      28.923  23.318  49.838  1.00  0.00     0.138 A 
ATOM      2  C   UNL     1      30.202  22.891  50.225  1.00  0.00     0.100 A 
ATOM      3  C   UNL     1      30.440  22.544  51.556  1.00  0.00     0.197 A 
ATOM      4  O   UNL     1      31.612  22.225  51.884  1.00  0.00    -0.289 OA
ATOM      5  C   UNL     1      29.385  22.596  52.497  1.00  0.00     0.107 A 
ATOM      6  C   UNL     1      29.501  22.227  53.869  1.00  0.00     0.134 A 
ATOM      7  C   UNL     1      28.418  22.431  54.734  1.00  0.00     0.093 A 
ATOM      8  C   UNL     1      27.203  22.933  54.260  1.00  0.00     0.123 A 
ATOM      9  C   UNL     1      27.063  23.246  52.910  1.00  0.00     0.094 A 
ATOM     10  C   UNL     1      28.136  23.086  52.030  1.00  0.00     0.146 A 
ATOM     11  O   UNL     1      27.964  23.411  50.753  1.00  0.00    -0.456 OA
ENDROOT
BRANCH   1  12
ATOM     12  C   UNL     1      28.615  23.699  48.437  1.00  0.00     0.021 A 
ATOM     13  C   UNL     1      29.580  24.295  47.603  1.00  0.00     0.016 A 
ATOM     14  C   UNL     1      29.264  24.633  46.284  1.00  0.00     0.051 A 
ATOM     15  C   UNL     1      27.990  24.375  45.772  1.00  0.00     0.157 A 
ATOM     16  C   UNL     1      27.338  23.430  47.912  1.00  0.00     0.062 A 
ATOM     17  C   UNL     1      27.021  23.769  46.588  1.00  0.00     0.158 A 
BRANCH  15  18
ATOM     18  O   UNL     1      27.706  24.725  44.452  1.00  0.00    -0.504 OA
ATOM     19  H   UNL     1      28.133  25.527  44.004  1.00  0.00     0.293 HD
ENDBRANCH  15  18
BRANCH  17  20
ATOM     20  O   UNL     1      25.749  23.506  46.082  1.00  0.00    -0.504 OA
ATOM     21  H   UNL     1      25.586  23.395  45.088  1.00  0.00     0.293 HD
ENDBRANCH  17  20
ENDBRANCH   1  12
BRANCH   6  22
ATOM     22  O   UNL     1      30.641  21.639  54.426  1.00  0.00    -0.507 OA
ATOM     23  H   UNL     1      31.542  21.588  53.976  1.00  0.00     0.293 HD
ENDBRANCH   6  22
BRANCH   8  24
ATOM     24  O   UNL     1      26.126  23.118  55.123  1.00  0.00    -0.508 OA
ATOM     25  H   UNL     1      25.242  23.494  54.796  1.00  0.00     0.293 HD
ENDBRANCH   8  24
TORSDOF 5
ENDMDL
MODEL 5
REMARK VINA RESULT:    -6.811      1.800      3.277
REMARK INTER + INTRA:          -8.273
REMARK INTER:                  -8.008
REMARK INTRA:                  -0.266
REMARK UNBOUND:                -0.267
REMARK SMILES O=c1cc(-c2ccc(O)c(O)c2)oc2cc(O)cc(O)c12
REMARK SMILES IDX 4 1 3 2 2 3 1 4 21 5 19 6 18 7 16 8 15 9 14 10 13 11 5 12
REMARK SMILES IDX 6 13 7 14 8 15 12 16 10 17 9 18 11 20 20 22 17 24
REMARK H PARENT 9 19 11 21 20 23 17 25
REMARK Flexibility Score: inf
ROOT
ATOM      1  C   UNL     1      17.893  24.264  42.573  1.00  0.00     0.138 A 
ATOM      2  C   UNL     1      17.113  23.408  43.364  1.00  0.00     0.100 A 
ATOM      3  C   UNL     1      16.620  23.859  44.589  1.00  0.00     0.197 A 
ATOM      4  O   UNL     1      15.976  23.048  45.304  1.00  0.00    -0.289 OA
ATOM      5  C   UNL     1      16.884  25.184  45.009  1.00  0.00     0.107 A 
ATOM      6  C   UNL     1      16.399  25.765  46.218  1.00  0.00     0.134 A 
ATOM      7  C   UNL     1      16.822  27.049  46.586  1.00  0.00     0.093 A 
ATOM      8  C   UNL     1      17.664  27.795  45.757  1.00  0.00     0.123 A 
ATOM      9  C   UNL     1      18.100  27.257  44.549  1.00  0.00     0.094 A 
ATOM     10  C   UNL     1      17.723  25.966  44.170  1.00  0.00     0.146 A 
ATOM     11  O   UNL     1      18.173  25.485  43.017  1.00  0.00    -0.456 OA
ENDROOT
BRANCH   1  12
ATOM     12  C   UNL     1      18.442  23.835  41.262  1.00  0.00     0.021 A 
ATOM     13  C   UNL     1      17.895  24.290  40.047  1.00  0.00     0.016 A 
ATOM     14  C   UNL     1      18.439  23.878  38.827  1.00  0.00     0.051 A 
ATOM     15  C   UNL     1      19.539  23.018  38.797  1.00  0.00     0.157 A 
ATOM     16  C   UNL     1      19.558  22.980  41.225  1.00  0.00     0.062 A 
ATOM     17  C   UNL     1      20.104  22.566  40.000  1.00  0.00     0.158 A 
BRANCH  15  18
ATOM     18  O   UNL     1      20.059  22.624  37.564  1.00  0.00    -0.504 OA
ATOM     19  H   UNL     1      20.389  23.294  36.880  1.00  0.00     0.293 HD
ENDBRANCH  15  18
BRANCH  17  20
ATOM     20  O   UNL     1      21.204  21.711  39.977  1.00  0.00    -0.504 OA
ATOM     21  H   UNL     1      21.814  21.652  39.170  1.00  0.00     0.293 HD
ENDBRANCH  17  20
ENDBRANCH   1  12
BRANCH   6  22
ATOM     22  O   UNL     1      15.489  25.139  47.075  1.00  0.00    -0.507 OA
ATOM     23  H   UNL     1      15.498  25.214  48.080  1.00  0.00     0.293 HD
ENDBRANCH   6  22
BRANCH   8  24
ATOM     24  O   UNL     1      18.067  29.077  46.123  1.00  0.00    -0.508 OA
ATOM     25  H   UNL     1      18.121  29.359  47.096  1.00  0.00     0.293 HD
ENDBRANCH   8  24
TORSDOF 5
ENDMDL
MODEL 6
REMARK VINA RESULT:    -6.484      2.023      7.172
REMARK INTER + INTRA:          -7.888
REMARK INTER:                  -7.623
REMARK INTRA:                  -0.265
REMARK UNBOUND:                -0.267
REMARK SMILES O=c1cc(-c2ccc(O)c(O)c2)oc2cc(O)cc(O)c12
REMARK SMILES IDX 4 1 3 2 2 3 1 4 21 5 19 6 18 7 16 8 15 9 14 10 13 11 5 12
REMARK SMILES IDX 6 13 7 14 8 15 12 16 10 17 9 18 11 20 20 22 17 24
REMARK H PARENT 9 19 11 21 20 23 17 25
REMARK Flexibility Score: inf
ROOT
ATOM      1  C   UNL     1      18.897  25.202  40.677  1.00  0.00     0.138 A 
ATOM      2  C   UNL     1      19.416  23.910  40.513  1.00  0.00     0.100 A 
ATOM      3  C   UNL     1      19.700  23.439  39.230  1.00  0.00     0.197 A 
ATOM      4  O   UNL     1      20.106  22.254  39.110  1.00  0.00    -0.289 OA
ATOM      5  C   UNL     1      19.491  24.277  38.110  1.00  0.00     0.107 A 
ATOM      6  C   UNL     1      19.782  23.918  36.760  1.00  0.00     0.134 A 
ATOM      7  C   UNL     1      19.425  24.787  35.722  1.00  0.00     0.093 A 
ATOM      8  C   UNL     1      18.842  26.029  35.990  1.00  0.00     0.123 A 
ATOM      9  C   UNL     1      18.602  26.411  37.307  1.00  0.00     0.094 A 
ATOM     10  C   UNL     1      18.917  25.552  38.363  1.00  0.00     0.146 A 
ATOM     11  O   UNL     1      18.658  25.949  39.604  1.00  0.00    -0.456 OA
ENDROOT
BRANCH   1  12
ATOM     12  C   UNL     1      18.578  25.753  42.019  1.00  0.00     0.021 A 
ATOM     13  C   UNL     1      17.368  25.455  42.672  1.00  0.00     0.016 A 
ATOM     14  C   UNL     1      17.099  25.979  43.940  1.00  0.00     0.051 A 
ATOM     15  C   UNL     1      18.031  26.801  44.578  1.00  0.00     0.157 A 
ATOM     16  C   UNL     1      19.518  26.570  42.673  1.00  0.00     0.062 A 
ATOM     17  C   UNL     1      19.249  27.098  43.945  1.00  0.00     0.158 A 
BRANCH  15  18
ATOM     18  O   UNL     1      17.734  27.310  45.842  1.00  0.00    -0.504 OA
ATOM     19  H   UNL     1      17.735  28.304  46.036  1.00  0.00     0.293 HD
ENDBRANCH  15  18
BRANCH  17  20
ATOM     20  O   UNL     1      20.185  27.912  44.578  1.00  0.00    -0.504 OA
ATOM     21  H   UNL     1      20.776  28.548  44.054  1.00  0.00     0.293 HD
ENDBRANCH  17  20
ENDBRANCH   1  12
BRANCH   6  22
ATOM     22  O   UNL     1      20.439  22.741  36.390  1.00  0.00    -0.507 OA
ATOM     23  H   UNL     1      20.716  22.507  35.450  1.00  0.00     0.293 HD
ENDBRANCH   6  22
BRANCH   8  24
ATOM     24  O   UNL     1      18.503  26.894  34.952  1.00  0.00    -0.508 OA
ATOM     25  H   UNL     1      19.173  27.148  34.234  1.00  0.00     0.293 HD
ENDBRANCH   8  24
TORSDOF 5
ENDMDL
MODEL 7
REMARK VINA RESULT:    -6.484      4.463      7.377
REMARK INTER + INTRA:          -7.888
REMARK INTER:                  -7.616
REMARK INTRA:                  -0.272
REMARK UNBOUND:                -0.267
REMARK SMILES O=c1cc(-c2ccc(O)c(O)c2)oc2cc(O)cc(O)c12
REMARK SMILES IDX 4 1 3 2 2 3 1 4 21 5 19 6 18 7 16 8 15 9 14 10 13 11 5 12
REMARK SMILES IDX 6 13 7 14 8 15 12 16 10 17 9 18 11 20 20 22 17 24
REMARK H PARENT 9 19 11 21 20 23 17 25
REMARK Flexibility Score: inf
ROOT
ATOM      1  C   UNL     1      16.496  24.668  44.323  1.00  0.00     0.138 A 
ATOM      2  C   UNL     1      15.247  24.735  43.690  1.00  0.00     0.100 A 
ATOM      3  C   UNL     1      14.566  23.557  43.380  1.00  0.00     0.197 A 
ATOM      4  O   UNL     1      13.477  23.648  42.757  1.00  0.00    -0.289 OA
ATOM      5  C   UNL     1      15.126  22.306  43.735  1.00  0.00     0.107 A 
ATOM      6  C   UNL     1      14.504  21.043  43.506  1.00  0.00     0.134 A 
ATOM      7  C   UNL     1      15.205  19.866  43.794  1.00  0.00     0.093 A 
ATOM      8  C   UNL     1      16.483  19.908  44.359  1.00  0.00     0.123 A 
ATOM      9  C   UNL     1      17.077  21.137  44.636  1.00  0.00     0.094 A 
ATOM     10  C   UNL     1      16.416  22.329  44.329  1.00  0.00     0.146 A 
ATOM     11  O   UNL     1      17.025  23.479  44.595  1.00  0.00    -0.456 OA
ENDROOT
BRANCH   1  12
ATOM     12  C   UNL     1      17.263  25.890  44.676  1.00  0.00     0.021 A 
ATOM     13  C   UNL     1      16.822  26.776  45.677  1.00  0.00     0.016 A 
ATOM     14  C   UNL     1      17.569  27.913  45.996  1.00  0.00     0.051 A 
ATOM     15  C   UNL     1      18.768  28.181  45.331  1.00  0.00     0.157 A 
ATOM     16  C   UNL     1      18.477  26.159  44.020  1.00  0.00     0.062 A 
ATOM     17  C   UNL     1      19.227  27.301  44.338  1.00  0.00     0.158 A 
BRANCH  15  18
ATOM     18  O   UNL     1      19.491  29.325  45.670  1.00  0.00    -0.504 OA
ATOM     19  H   UNL     1      19.609  29.621  46.632  1.00  0.00     0.293 HD
ENDBRANCH  15  18
BRANCH  17  20
ATOM     20  O   UNL     1      20.424  27.560  43.674  1.00  0.00    -0.504 OA
ATOM     21  H   UNL     1      20.737  28.508  43.494  1.00  0.00     0.293 HD
ENDBRANCH  17  20
ENDBRANCH   1  12
BRANCH   6  22
ATOM     22  O   UNL     1      13.201  20.891  43.024  1.00  0.00    -0.507 OA
ATOM     23  H   UNL     1      12.933  20.953  42.054  1.00  0.00     0.293 HD
ENDBRANCH   6  22
BRANCH   8  24
ATOM     24  O   UNL     1      17.167  18.732  44.657  1.00  0.00    -0.508 OA
ATOM     25  H   UNL     1      17.502  18.114  43.926  1.00  0.00     0.293 HD
ENDBRANCH   8  24
TORSDOF 5
ENDMDL
MODEL 8
REMARK VINA RESULT:    -6.476      3.540      6.436
REMARK INTER + INTRA:          -7.879
REMARK INTER:                  -7.613
REMARK INTRA:                  -0.265
REMARK UNBOUND:                -0.267
REMARK SMILES O=c1cc(-c2ccc(O)c(O)c2)oc2cc(O)cc(O)c12
REMARK SMILES IDX 4 1 3 2 2 3 1 4 21 5 19 6 18 7 16 8 15 9 14 10 13 11 5 12
REMARK SMILES IDX 6 13 7 14 8 15 12 16 10 17 9 18 11 20 20 22 17 24
REMARK H PARENT 9 19 11 21 20 23 17 25
REMARK Flexibility Score: inf
ROOT
ATOM      1  C   UNL     1      17.247  24.319  42.693  1.00  0.00     0.138 A 
ATOM      2  C   UNL     1      15.934  24.581  42.274  1.00  0.00     0.100 A 
ATOM      3  C   UNL     1      14.954  23.599  42.422  1.00  0.00     0.197 A 
ATOM      4  O   UNL     1      13.801  23.842  41.980  1.00  0.00    -0.289 OA
ATOM      5  C   UNL     1      15.283  22.360  43.020  1.00  0.00     0.107 A 
ATOM      6  C   UNL     1      14.357  21.302  43.259  1.00  0.00     0.134 A 
ATOM      7  C   UNL     1      14.821  20.076  43.752  1.00  0.00     0.093 A 
ATOM      8  C   UNL     1      16.170  19.892  44.071  1.00  0.00     0.123 A 
ATOM      9  C   UNL     1      17.072  20.937  43.892  1.00  0.00     0.094 A 
ATOM     10  C   UNL     1      16.645  22.161  43.370  1.00  0.00     0.146 A 
ATOM     11  O   UNL     1      17.541  23.127  43.201  1.00  0.00    -0.456 OA
ENDROOT
BRANCH   1  12
ATOM     12  C   UNL     1      18.328  25.328  42.560  1.00  0.00     0.021 A 
ATOM     13  C   UNL     1      19.000  25.535  41.340  1.00  0.00     0.016 A 
ATOM     14  C   UNL     1      20.007  26.499  41.241  1.00  0.00     0.051 A 
ATOM     15  C   UNL     1      20.355  27.275  42.348  1.00  0.00     0.157 A 
ATOM     16  C   UNL     1      18.674  26.122  43.667  1.00  0.00     0.062 A 
ATOM     17  C   UNL     1      19.686  27.090  43.569  1.00  0.00     0.158 A 
BRANCH  15  18
ATOM     18  O   UNL     1      21.365  28.229  42.218  1.00  0.00    -0.504 OA
ATOM     19  H   UNL     1      21.524  28.944  42.918  1.00  0.00     0.293 HD
ENDBRANCH  15  18
BRANCH  17  20
ATOM     20  O   UNL     1      20.025  27.864  44.676  1.00  0.00    -0.504 OA
ATOM     21  H   UNL     1      20.518  27.470  45.469  1.00  0.00     0.293 HD
ENDBRANCH  17  20
ENDBRANCH   1  12
BRANCH   6  22
ATOM     22  O   UNL     1      12.978  21.409  43.055  1.00  0.00    -0.507 OA
ATOM     23  H   UNL     1      12.533  22.113  42.487  1.00  0.00     0.293 HD
ENDBRANCH   6  22
BRANCH   8  24
ATOM     24  O   UNL     1      16.620  18.674  44.576  1.00  0.00    -0.508 OA
ATOM     25  H   UNL     1      16.390  18.372  45.516  1.00  0.00     0.293 HD
ENDBRANCH   8  24
TORSDOF 5
ENDMDL
MODEL 9
REMARK VINA RESULT:    -6.305      4.148      6.112
REMARK INTER + INTRA:          -7.677
REMARK INTER:                  -7.359
REMARK INTRA:                  -0.318
REMARK UNBOUND:                -0.267
REMARK SMILES O=c1cc(-c2ccc(O)c(O)c2)oc2cc(O)cc(O)c12
REMARK SMILES IDX 4 1 3 2 2 3 1 4 21 5 19 6 18 7 16 8 15 9 14 10 13 11 5 12
REMARK SMILES IDX 6 13 7 14 8 15 12 16 10 17 9 18 11 20 20 22 17 24
REMARK H PARENT 9 19 11 21 20 23 17 25
REMARK Flexibility Score: inf
ROOT
ATOM      1  C   UNL     1      16.771  22.747  44.541  1.00  0.00     0.138 A 
ATOM      2  C   UNL     1      17.401  23.056  43.327  1.00  0.00     0.100 A 
ATOM      3  C   UNL     1      17.845  24.358  43.093  1.00  0.00     0.197 A 
ATOM      4  O   UNL     1      18.350  24.619  41.970  1.00  0.00    -0.289 OA
ATOM      5  C   UNL     1      17.686  25.347  44.092  1.00  0.00     0.107 A 
ATOM      6  C   UNL     1      18.136  26.696  43.980  1.00  0.00     0.134 A 
ATOM      7  C   UNL     1      17.819  27.616  44.988  1.00  0.00     0.093 A 
ATOM      8  C   UNL     1      17.120  27.220  46.131  1.00  0.00     0.123 A 
ATOM      9  C   UNL     1      16.722  25.893  46.274  1.00  0.00     0.094 A 
ATOM     10  C   UNL     1      16.994  24.959  45.271  1.00  0.00     0.146 A 
ATOM     11  O   UNL     1      16.584  23.707  45.441  1.00  0.00    -0.456 OA
ENDROOT
BRANCH   1  12
ATOM     12  C   UNL     1      16.280  21.378  44.843  1.00  0.00     0.021 A 
ATOM     13  C   UNL     1      16.447  20.316  43.934  1.00  0.00     0.016 A 
ATOM     14  C   UNL     1      15.984  19.035  44.249  1.00  0.00     0.051 A 
ATOM     15  C   UNL     1      15.357  18.790  45.473  1.00  0.00     0.157 A 
ATOM     16  C   UNL     1      15.660  21.122  46.078  1.00  0.00     0.062 A 
ATOM     17  C   UNL     1      15.194  19.836  46.395  1.00  0.00     0.158 A 
BRANCH  15  18
ATOM     18  O   UNL     1      14.904  17.501  45.757  1.00  0.00    -0.504 OA
ATOM     19  H   UNL     1      14.206  17.038  45.188  1.00  0.00     0.293 HD
ENDBRANCH  15  18
BRANCH  17  20
ATOM     20  O   UNL     1      14.573  19.598  47.619  1.00  0.00    -0.504 OA
ATOM     21  H   UNL     1      14.783  20.156  48.439  1.00  0.00     0.293 HD
ENDBRANCH  17  20
ENDBRANCH   1  12
BRANCH   6  22
ATOM     22  O   UNL     1      18.913  27.174  42.921  1.00  0.00    -0.507 OA
ATOM     23  H   UNL     1      18.977  26.743  42.012  1.00  0.00     0.293 HD
ENDBRANCH   6  22
BRANCH   8  24
ATOM     24  O   UNL     1      16.822  28.138  47.135  1.00  0.00    -0.508 OA
ATOM     25  H   UNL     1      15.895  28.538  47.231  1.00  0.00     0.293 HD
ENDBRANCH   8  24
TORSDOF 5
ENDMDL
