MODEL 1
REMARK VINA RESULT:    -5.128      0.000      0.000
REMARK INTER + INTRA:          -6.260
REMARK INTER:                  -6.028
REMARK INTRA:                  -0.232
REMARK UNBOUND:                -0.232
REMARK SMILES O=C([O-])C=Cc1ccc(O)c(O)c1
REMARK SMILES IDX 6 1 13 2 7 3 11 4 8 5 9 6 5 7 4 8 2 9 1 10 3 11 12 12 10 14
REMARK H PARENT 12 13 10 15
REMARK Flexibility Score: inf
ROOT
ATOM      1  C   UNL     1      51.789  46.268  12.495  1.00  0.00    -0.022 A 
ATOM      2  C   UNL     1      52.874  45.775  13.236  1.00  0.00     0.058 A 
ATOM      3  C   UNL     1      51.731  46.020  11.113  1.00  0.00     0.012 A 
ATOM      4  C   UNL     1      53.916  45.088  12.597  1.00  0.00     0.157 A 
ATOM      5  C   UNL     1      52.768  45.335  10.476  1.00  0.00     0.051 A 
ATOM      6  C   UNL     1      53.865  44.871  11.214  1.00  0.00     0.157 A 
ENDROOT
BRANCH   1   7
ATOM      7  C   UNL     1      50.679  46.942  13.199  1.00  0.00     0.010 C 
ATOM      8  C   UNL     1      50.369  48.245  13.097  1.00  0.00     0.025 C 
BRANCH   8   9
ATOM      9  C   UNL     1      51.179  49.272  12.413  1.00  0.00     0.064 C 
ATOM     10  O   UNL     1      52.081  49.910  13.016  1.00  0.00    -0.545 OA
ATOM     11  O   UNL     1      50.891  49.589  11.092  1.00  0.00    -0.545 OA
ENDBRANCH   8   9
ENDBRANCH   1   7
BRANCH   4  12
ATOM     12  O   UNL     1      55.003  44.616  13.330  1.00  0.00    -0.504 OA
ATOM     13  H   UNL     1      55.115  44.836  14.313  1.00  0.00     0.293 HD
ENDBRANCH   4  12
BRANCH   6  14
ATOM     14  O   UNL     1      54.905  44.191  10.582  1.00  0.00    -0.504 OA
ATOM     15  H   UNL     1      55.828  44.599  10.493  1.00  0.00     0.293 HD
ENDBRANCH   6  14
TORSDOF 4
ENDMDL
MODEL 2
REMARK VINA RESULT:    -5.018      1.909      2.805
REMARK INTER + INTRA:          -6.130
REMARK INTER:                  -5.953
REMARK INTRA:                  -0.178
REMARK UNBOUND:                -0.232
REMARK SMILES O=C([O-])C=Cc1ccc(O)c(O)c1
REMARK SMILES IDX 6 1 13 2 7 3 11 4 8 5 9 6 5 7 4 8 2 9 1 10 3 11 12 12 10 14
REMARK H PARENT 12 13 10 15
REMARK Flexibility Score: inf
ROOT
ATOM      1  C   UNL     1      51.756  47.139  11.183  1.00  0.00    -0.022 A 
ATOM      2  C   UNL     1      52.167  45.921  10.622  1.00  0.00     0.058 A 
ATOM      3  C   UNL     1      52.288  47.540  12.419  1.00  0.00     0.012 A 
ATOM      4  C   UNL     1      53.058  45.086  11.311  1.00  0.00     0.157 A 
ATOM      5  C   UNL     1      53.176  46.710  13.107  1.00  0.00     0.051 A 
ATOM      6  C   UNL     1      53.560  45.480  12.558  1.00  0.00     0.157 A 
ENDROOT
BRANCH   1   7
ATOM      7  C   UNL     1      50.857  48.024  10.412  1.00  0.00     0.010 C 
ATOM      8  C   UNL     1      49.630  48.411  10.796  1.00  0.00     0.025 C 
BRANCH   8   9
ATOM      9  C   UNL     1      48.885  47.888  11.958  1.00  0.00     0.064 C 
ATOM     10  O   UNL     1      48.143  46.874  11.865  1.00  0.00    -0.545 OA
ATOM     11  O   UNL     1      48.951  48.571  13.166  1.00  0.00    -0.545 OA
ENDBRANCH   8   9
ENDBRANCH   1   7
BRANCH   4  12
ATOM     12  O   UNL     1      53.451  43.867  10.762  1.00  0.00    -0.504 OA
ATOM     13  H   UNL     1      53.868  43.139  11.330  1.00  0.00     0.293 HD
ENDBRANCH   4  12
BRANCH   6  14
ATOM     14  O   UNL     1      54.444  44.646  13.242  1.00  0.00    -0.504 OA
ATOM     15  H   UNL     1      55.272  45.012  13.698  1.00  0.00     0.293 HD
ENDBRANCH   6  14
TORSDOF 4
ENDMDL
MODEL 3
REMARK VINA RESULT:    -4.953      2.183      4.823
REMARK INTER + INTRA:          -6.054
REMARK INTER:                  -5.820
REMARK INTRA:                  -0.234
REMARK UNBOUND:                -0.232
REMARK SMILES O=C([O-])C=Cc1ccc(O)c(O)c1
REMARK SMILES IDX 6 1 13 2 7 3 11 4 8 5 9 6 5 7 4 8 2 9 1 10 3 11 12 12 10 14
REMARK H PARENT 12 13 10 15
REMARK Flexibility Score: inf
ROOT
ATOM      1  C   UNL     1      52.615  46.621  11.967  1.00  0.00    -0.022 A 
ATOM      2  C   UNL     1      51.719  46.301  12.998  1.00  0.00     0.058 A 
ATOM      3  C   UNL     1      52.125  47.202  10.786  1.00  0.00     0.012 A 
ATOM      4  C   UNL     1      50.342  46.509  12.832  1.00  0.00     0.157 A 
ATOM      5  C   UNL     1      50.753  47.411  10.619  1.00  0.00     0.051 A 
ATOM      6  C   UNL     1      49.858  47.061  11.639  1.00  0.00     0.157 A 
ENDROOT
BRANCH   1   7
ATOM      7  C   UNL     1      54.065  46.440  12.187  1.00  0.00     0.010 C 
ATOM      8  C   UNL     1      54.838  45.530  11.574  1.00  0.00     0.025 C 
BRANCH   8   9
ATOM      9  C   UNL     1      54.358  44.434  10.710  1.00  0.00     0.064 C 
ATOM     10  O   UNL     1      54.149  43.278  11.165  1.00  0.00    -0.545 OA
ATOM     11  O   UNL     1      54.198  44.665   9.350  1.00  0.00    -0.545 OA
ENDBRANCH   8   9
ENDBRANCH   1   7
BRANCH   4  12
ATOM     12  O   UNL     1      49.450  46.173  13.849  1.00  0.00    -0.504 OA
ATOM     13  H   UNL     1      48.781  46.843  14.211  1.00  0.00     0.293 HD
ENDBRANCH   4  12
BRANCH   6  14
ATOM     14  O   UNL     1      48.488  47.264  11.476  1.00  0.00    -0.504 OA
ATOM     15  H   UNL     1      47.818  46.527  11.661  1.00  0.00     0.293 HD
ENDBRANCH   6  14
TORSDOF 4
ENDMDL
MODEL 4
REMARK VINA RESULT:    -4.830      2.263      2.822
REMARK INTER + INTRA:          -5.909
REMARK INTER:                  -5.667
REMARK INTRA:                  -0.242
REMARK UNBOUND:                -0.232
REMARK SMILES O=C([O-])C=Cc1ccc(O)c(O)c1
REMARK SMILES IDX 6 1 13 2 7 3 11 4 8 5 9 6 5 7 4 8 2 9 1 10 3 11 12 12 10 14
REMARK H PARENT 12 13 10 15
REMARK Flexibility Score: inf
ROOT
ATOM      1  C   UNL     1      50.993  48.186  11.482  1.00  0.00    -0.022 A 
ATOM      2  C   UNL     1      51.339  47.390  12.584  1.00  0.00     0.058 A 
ATOM      3  C   UNL     1      51.252  47.713  10.184  1.00  0.00     0.012 A 
ATOM      4  C   UNL     1      51.984  46.159  12.397  1.00  0.00     0.157 A 
ATOM      5  C   UNL     1      51.894  46.487   9.996  1.00  0.00     0.051 A 
ATOM      6  C   UNL     1      52.266  45.709  11.100  1.00  0.00     0.157 A 
ENDROOT
BRANCH   1   7
ATOM      7  C   UNL     1      50.267  49.454  11.704  1.00  0.00     0.010 C 
ATOM      8  C   UNL     1      48.932  49.593  11.723  1.00  0.00     0.025 C 
BRANCH   8   9
ATOM      9  C   UNL     1      47.952  48.554  11.349  1.00  0.00     0.064 C 
ATOM     10  O   UNL     1      47.673  47.602  12.125  1.00  0.00    -0.545 OA
ATOM     11  O   UNL     1      47.377  48.590  10.086  1.00  0.00    -0.545 OA
ENDBRANCH   8   9
ENDBRANCH   1   7
BRANCH   4  12
ATOM     12  O   UNL     1      52.344  45.377  13.493  1.00  0.00    -0.504 OA
ATOM     13  H   UNL     1      52.538  44.387  13.398  1.00  0.00     0.293 HD
ENDBRANCH   4  12
BRANCH   6  14
ATOM     14  O   UNL     1      52.910  44.486  10.918  1.00  0.00    -0.504 OA
ATOM     15  H   UNL     1      53.832  44.430  10.501  1.00  0.00     0.293 HD
ENDBRANCH   6  14
TORSDOF 4
ENDMDL
MODEL 5
REMARK VINA RESULT:    -4.747      1.457      4.899
REMARK INTER + INTRA:          -5.812
REMARK INTER:                  -5.647
REMARK INTRA:                  -0.165
REMARK UNBOUND:                -0.232
REMARK SMILES O=C([O-])C=Cc1ccc(O)c(O)c1
REMARK SMILES IDX 6 1 13 2 7 3 11 4 8 5 9 6 5 7 4 8 2 9 1 10 3 11 12 12 10 14
REMARK H PARENT 12 13 10 15
REMARK Flexibility Score: inf
ROOT
ATOM      1  C   UNL     1      51.408  46.945  12.768  1.00  0.00    -0.022 A 
ATOM      2  C   UNL     1      51.791  48.198  12.267  1.00  0.00     0.058 A 
ATOM      3  C   UNL     1      50.100  46.484  12.540  1.00  0.00     0.012 A 
ATOM      4  C   UNL     1      50.864  49.006  11.592  1.00  0.00     0.157 A 
ATOM      5  C   UNL     1      49.177  47.288  11.868  1.00  0.00     0.051 A 
ATOM      6  C   UNL     1      49.554  48.552  11.396  1.00  0.00     0.157 A 
ENDROOT
BRANCH   1   7
ATOM      7  C   UNL     1      52.417  46.091  13.429  1.00  0.00     0.010 C 
ATOM      8  C   UNL     1      53.430  45.463  12.810  1.00  0.00     0.025 C 
BRANCH   8   9
ATOM      9  C   UNL     1      53.618  45.362  11.350  1.00  0.00     0.064 C 
ATOM     10  O   UNL     1      52.806  44.730  10.622  1.00  0.00    -0.545 OA
ATOM     11  O   UNL     1      54.753  45.918  10.774  1.00  0.00    -0.545 OA
ENDBRANCH   8   9
ENDBRANCH   1   7
BRANCH   4  12
ATOM     12  O   UNL     1      51.240  50.259  11.113  1.00  0.00    -0.504 OA
ATOM     13  H   UNL     1      52.187  50.448  10.804  1.00  0.00     0.293 HD
ENDBRANCH   4  12
BRANCH   6  14
ATOM     14  O   UNL     1      48.635  49.359  10.728  1.00  0.00    -0.504 OA
ATOM     15  H   UNL     1      48.863  50.308  10.456  1.00  0.00     0.293 HD
ENDBRANCH   6  14
TORSDOF 4
ENDMDL
MODEL 6
REMARK VINA RESULT:    -4.737     12.961     14.991
REMARK INTER + INTRA:          -5.799
REMARK INTER:                  -5.888
REMARK INTRA:                   0.089
REMARK UNBOUND:                -0.232
REMARK SMILES O=C([O-])C=Cc1ccc(O)c(O)c1
REMARK SMILES IDX 6 1 13 2 7 3 11 4 8 5 9 6 5 7 4 8 2 9 1 10 3 11 12 12 10 14
REMARK H PARENT 12 13 10 15
REMARK Flexibility Score: inf
ROOT
ATOM      1  C   UNL     1      50.049  33.001   7.383  1.00  0.00    -0.022 A 
ATOM      2  C   UNL     1      48.952  32.417   8.033  1.00  0.00     0.058 A 
ATOM      3  C   UNL     1      50.440  34.305   7.732  1.00  0.00     0.012 A 
ATOM      4  C   UNL     1      48.219  33.144   8.982  1.00  0.00     0.157 A 
ATOM      5  C   UNL     1      49.711  35.030   8.678  1.00  0.00     0.051 A 
ATOM      6  C   UNL     1      48.597  34.454   9.302  1.00  0.00     0.157 A 
ENDROOT
BRANCH   1   7
ATOM      7  C   UNL     1      50.836  32.196   6.425  1.00  0.00     0.010 C 
ATOM      8  C   UNL     1      50.921  32.422   5.104  1.00  0.00     0.025 C 
BRANCH   8   9
ATOM      9  C   UNL     1      50.112  33.393   4.342  1.00  0.00     0.064 C 
ATOM     10  O   UNL     1      48.914  33.638   4.647  1.00  0.00    -0.545 OA
ATOM     11  O   UNL     1      50.663  34.000   3.221  1.00  0.00    -0.545 OA
ENDBRANCH   8   9
ENDBRANCH   1   7
BRANCH   4  12
ATOM     12  O   UNL     1      47.117  32.570   9.613  1.00  0.00    -0.504 OA
ATOM     13  H   UNL     1      46.623  33.048  10.357  1.00  0.00     0.293 HD
ENDBRANCH   4  12
BRANCH   6  14
ATOM     14  O   UNL     1      47.864  35.175  10.244  1.00  0.00    -0.504 OA
ATOM     15  H   UNL     1      47.424  36.057  10.010  1.00  0.00     0.293 HD
ENDBRANCH   6  14
TORSDOF 4
ENDMDL
MODEL 7
REMARK VINA RESULT:    -4.720      1.535      4.859
REMARK INTER + INTRA:          -5.780
REMARK INTER:                  -5.507
REMARK INTRA:                  -0.273
REMARK UNBOUND:                -0.232
REMARK SMILES O=C([O-])C=Cc1ccc(O)c(O)c1
REMARK SMILES IDX 6 1 13 2 7 3 11 4 8 5 9 6 5 7 4 8 2 9 1 10 3 11 12 12 10 14
REMARK H PARENT 12 13 10 15
REMARK Flexibility Score: inf
ROOT
ATOM      1  C   UNL     1      52.320  46.477  12.982  1.00  0.00    -0.022 A 
ATOM      2  C   UNL     1      51.060  46.202  12.429  1.00  0.00     0.058 A 
ATOM      3  C   UNL     1      52.654  47.802  13.307  1.00  0.00     0.012 A 
ATOM      4  C   UNL     1      50.164  47.245  12.152  1.00  0.00     0.157 A 
ATOM      5  C   UNL     1      51.762  48.841  13.032  1.00  0.00     0.051 A 
ATOM      6  C   UNL     1      50.518  48.567  12.450  1.00  0.00     0.157 A 
ENDROOT
BRANCH   1   7
ATOM      7  C   UNL     1      53.224  45.356  13.313  1.00  0.00     0.010 C 
ATOM      8  C   UNL     1      54.292  44.979  12.592  1.00  0.00     0.025 C 
BRANCH   8   9
ATOM      9  C   UNL     1      54.654  45.491  11.255  1.00  0.00     0.064 C 
ATOM     10  O   UNL     1      55.300  46.563  11.113  1.00  0.00    -0.545 OA
ATOM     11  O   UNL     1      54.212  44.811  10.128  1.00  0.00    -0.545 OA
ENDBRANCH   8   9
ENDBRANCH   1   7
BRANCH   4  12
ATOM     12  O   UNL     1      48.921  46.974  11.584  1.00  0.00    -0.504 OA
ATOM     13  H   UNL     1      48.504  47.593  10.898  1.00  0.00     0.293 HD
ENDBRANCH   4  12
BRANCH   6  14
ATOM     14  O   UNL     1      49.625  49.601  12.171  1.00  0.00    -0.504 OA
ATOM     15  H   UNL     1      48.623  49.458  12.198  1.00  0.00     0.293 HD
ENDBRANCH   6  14
TORSDOF 4
ENDMDL
MODEL 8
REMARK VINA RESULT:    -4.490     12.822     14.640
REMARK INTER + INTRA:          -5.509
REMARK INTER:                  -5.466
REMARK INTRA:                  -0.043
REMARK UNBOUND:                -0.232
REMARK SMILES O=C([O-])C=Cc1ccc(O)c(O)c1
REMARK SMILES IDX 6 1 13 2 7 3 11 4 8 5 9 6 5 7 4 8 2 9 1 10 3 11 12 12 10 14
REMARK H PARENT 12 13 10 15
REMARK Flexibility Score: inf
ROOT
ATOM      1  C   UNL     1      49.209  32.998   7.068  1.00  0.00    -0.022 A 
ATOM      2  C   UNL     1      49.023  33.652   5.841  1.00  0.00     0.058 A 
ATOM      3  C   UNL     1      50.301  32.127   7.224  1.00  0.00     0.012 A 
ATOM      4  C   UNL     1      49.885  33.400   4.764  1.00  0.00     0.157 A 
ATOM      5  C   UNL     1      51.161  31.876   6.152  1.00  0.00     0.051 A 
ATOM      6  C   UNL     1      50.953  32.507   4.919  1.00  0.00     0.157 A 
ENDROOT
BRANCH   1   7
ATOM      7  C   UNL     1      48.319  33.320   8.203  1.00  0.00     0.010 C 
ATOM      8  C   UNL     1      48.577  34.224   9.162  1.00  0.00     0.025 C 
BRANCH   8   9
ATOM      9  C   UNL     1      49.860  34.926   9.361  1.00  0.00     0.064 C 
ATOM     10  O   UNL     1      50.414  35.566   8.428  1.00  0.00    -0.545 OA
ATOM     11  O   UNL     1      50.504  34.821  10.587  1.00  0.00    -0.545 OA
ENDBRANCH   8   9
ENDBRANCH   1   7
BRANCH   4  12
ATOM     12  O   UNL     1      49.687  34.035   3.540  1.00  0.00    -0.504 OA
ATOM     13  H   UNL     1      49.335  34.984   3.485  1.00  0.00     0.293 HD
ENDBRANCH   4  12
BRANCH   6  14
ATOM     14  O   UNL     1      51.806  32.257   3.845  1.00  0.00    -0.504 OA
ATOM     15  H   UNL     1      51.507  31.708   3.047  1.00  0.00     0.293 HD
ENDBRANCH   6  14
TORSDOF 4
ENDMDL
MODEL 9
REMARK VINA RESULT:    -4.477     11.749     13.029
REMARK INTER + INTRA:          -5.494
REMARK INTER:                  -5.291
REMARK INTRA:                  -0.202
REMARK UNBOUND:                -0.232
REMARK SMILES O=C([O-])C=Cc1ccc(O)c(O)c1
REMARK SMILES IDX 6 1 13 2 7 3 11 4 8 5 9 6 5 7 4 8 2 9 1 10 3 11 12 12 10 14
REMARK H PARENT 12 13 10 15
REMARK Flexibility Score: inf
ROOT
ATOM      1  C   UNL     1      49.486  34.372  10.096  1.00  0.00    -0.022 A 
ATOM      2  C   UNL     1      48.732  33.272   9.659  1.00  0.00     0.058 A 
ATOM      3  C   UNL     1      50.076  35.222   9.145  1.00  0.00     0.012 A 
ATOM      4  C   UNL     1      48.611  32.992   8.290  1.00  0.00     0.157 A 
ATOM      5  C   UNL     1      49.956  34.944   7.781  1.00  0.00     0.051 A 
ATOM      6  C   UNL     1      49.228  33.827   7.350  1.00  0.00     0.157 A 
ENDROOT
BRANCH   1   7
ATOM      7  C   UNL     1      49.554  34.675  11.540  1.00  0.00     0.010 C 
ATOM      8  C   UNL     1      48.782  35.565  12.185  1.00  0.00     0.025 C 
BRANCH   8   9
ATOM      9  C   UNL     1      47.858  36.525  11.550  1.00  0.00     0.064 C 
ATOM     10  O   UNL     1      48.103  37.760  11.529  1.00  0.00    -0.545 OA
ATOM     11  O   UNL     1      46.659  36.062  11.025  1.00  0.00    -0.545 OA
ENDBRANCH   8   9
ENDBRANCH   1   7
BRANCH   4  12
ATOM     12  O   UNL     1      47.879  31.888   7.858  1.00  0.00    -0.504 OA
ATOM     13  H   UNL     1      46.967  31.992   7.428  1.00  0.00     0.293 HD
ENDBRANCH   4  12
BRANCH   6  14
ATOM     14  O   UNL     1      49.109  33.544   5.990  1.00  0.00    -0.504 OA
ATOM     15  H   UNL     1      48.575  32.748   5.660  1.00  0.00     0.293 HD
ENDBRANCH   6  14
TORSDOF 4
ENDMDL
