MODEL 1
REMARK VINA RESULT:    -4.052      0.000      0.000
REMARK INTER + INTRA:          -8.825
REMARK INTER:                  -7.841
REMARK INTRA:                  -0.984
REMARK UNBOUND:                -0.984
REMARK SMILES CCCCCCCCCCCCCCCCCC(=O)[O-]
REMARK SMILES IDX 10 1 11 2 12 3 13 4 14 5 15 6 16 7 17 8 18 9 19 10 20 11
REMARK SMILES IDX 9 12 8 13 7 14 6 15 5 16 4 17 3 18 2 19 1 20
REMARK H PARENT
REMARK Flexibility Score: inf
ROOT
ATOM      1  C   UNL     1      60.646  25.577  50.573  1.00  0.00     0.000 C 
ENDROOT
BRANCH   1   2
ATOM      2  C   UNL     1      60.181  24.698  51.741  1.00  0.00     0.000 C 
BRANCH   2   3
ATOM      3  C   UNL     1      60.294  23.207  51.389  1.00  0.00     0.000 C 
BRANCH   3   4
ATOM      4  C   UNL     1      61.060  22.974  50.069  1.00  0.00     0.000 C 
BRANCH   4   5
ATOM      5  C   UNL     1      60.967  21.528  49.551  1.00  0.00     0.000 C 
BRANCH   5   6
ATOM      6  C   UNL     1      60.322  20.571  50.566  1.00  0.00     0.000 C 
BRANCH   6   7
ATOM      7  C   UNL     1      60.761  19.112  50.365  1.00  0.00     0.006 C 
BRANCH   7   8
ATOM      8  C   UNL     1      59.796  18.111  51.013  1.00  0.00     0.053 C 
BRANCH   8   9
ATOM      9  C   UNL     1      58.618  17.869  50.123  1.00  0.00     0.041 C 
ATOM     10  O   UNL     1      57.489  18.334  50.427  1.00  0.00    -0.550 OA
ATOM     11  O   UNL     1      58.757  17.086  48.984  1.00  0.00    -0.550 OA
ENDBRANCH   8   9
ENDBRANCH   7   8
ENDBRANCH   6   7
ENDBRANCH   5   6
ENDBRANCH   4   5
ENDBRANCH   3   4
ENDBRANCH   2   3
ENDBRANCH   1   2
BRANCH   1  12
ATOM     12  C   UNL     1      59.474  26.386  49.995  1.00  0.00     0.000 C 
BRANCH  12  13
ATOM     13  C   UNL     1      59.835  27.862  49.756  1.00  0.00    -0.000 C 
BRANCH  13  14
ATOM     14  C   UNL     1      58.660  28.811  50.051  1.00  0.00    -0.000 C 
BRANCH  14  15
ATOM     15  C   UNL     1      57.682  28.236  51.089  1.00  0.00    -0.000 C 
BRANCH  15  16
ATOM     16  C   UNL     1      56.302  28.907  51.045  1.00  0.00    -0.000 C 
BRANCH  16  17
ATOM     17  C   UNL     1      55.193  27.900  51.389  1.00  0.00    -0.000 C 
BRANCH  17  18
ATOM     18  C   UNL     1      54.386  27.462  50.157  1.00  0.00    -0.000 C 
BRANCH  18  19
ATOM     19  C   UNL     1      54.664  26.006  49.753  1.00  0.00    -0.003 C 
ATOM     20  C   UNL     1      53.642  25.059  50.376  1.00  0.00     0.004 C 
ENDBRANCH  18  19
ENDBRANCH  17  18
ENDBRANCH  16  17
ENDBRANCH  15  16
ENDBRANCH  14  15
ENDBRANCH  13  14
ENDBRANCH  12  13
ENDBRANCH   1  12
TORSDOF 16
ENDMDL
MODEL 2
REMARK VINA RESULT:    -3.993     12.392     15.543
REMARK INTER + INTRA:          -8.712
REMARK INTER:                  -6.381
REMARK INTRA:                  -2.331
REMARK UNBOUND:                -0.984
REMARK SMILES CCCCCCCCCCCCCCCCCC(=O)[O-]
REMARK SMILES IDX 10 1 11 2 12 3 13 4 14 5 15 6 16 7 17 8 18 9 19 10 20 11
REMARK SMILES IDX 9 12 8 13 7 14 6 15 5 16 4 17 3 18 2 19 1 20
REMARK H PARENT
REMARK Flexibility Score: inf
ROOT
ATOM      1  C   UNL     1      64.466  33.658  59.787  1.00  0.00     0.000 C 
ENDROOT
BRANCH   1   2
ATOM      2  C   UNL     1      64.843  35.035  60.347  1.00  0.00     0.000 C 
BRANCH   2   3
ATOM      3  C   UNL     1      63.899  35.443  61.489  1.00  0.00     0.000 C 
BRANCH   3   4
ATOM      4  C   UNL     1      63.357  36.878  61.316  1.00  0.00     0.000 C 
BRANCH   4   5
ATOM      5  C   UNL     1      61.826  36.943  61.170  1.00  0.00     0.000 C 
BRANCH   5   6
ATOM      6  C   UNL     1      61.219  35.627  60.656  1.00  0.00     0.000 C 
BRANCH   6   7
ATOM      7  C   UNL     1      60.341  35.828  59.411  1.00  0.00     0.006 C 
BRANCH   7   8
ATOM      8  C   UNL     1      60.827  35.007  58.210  1.00  0.00     0.053 C 
BRANCH   8   9
ATOM      9  C   UNL     1      59.709  34.188  57.649  1.00  0.00     0.041 C 
ATOM     10  O   UNL     1      59.651  32.952  57.882  1.00  0.00    -0.550 OA
ATOM     11  O   UNL     1      58.759  34.779  56.827  1.00  0.00    -0.550 OA
ENDBRANCH   8   9
ENDBRANCH   7   8
ENDBRANCH   6   7
ENDBRANCH   5   6
ENDBRANCH   4   5
ENDBRANCH   3   4
ENDBRANCH   2   3
ENDBRANCH   1   2
BRANCH   1  12
ATOM     12  C   UNL     1      63.557  32.897  60.764  1.00  0.00     0.000 C 
BRANCH  12  13
ATOM     13  C   UNL     1      62.533  32.002  60.046  1.00  0.00    -0.000 C 
BRANCH  13  14
ATOM     14  C   UNL     1      61.187  31.934  60.787  1.00  0.00    -0.000 C 
BRANCH  14  15
ATOM     15  C   UNL     1      61.032  30.645  61.612  1.00  0.00    -0.000 C 
BRANCH  15  16
ATOM     16  C   UNL     1      61.186  29.373  60.765  1.00  0.00    -0.000 C 
BRANCH  16  17
ATOM     17  C   UNL     1      62.385  28.539  61.245  1.00  0.00    -0.000 C 
BRANCH  17  18
ATOM     18  C   UNL     1      63.480  28.407  60.176  1.00  0.00    -0.000 C 
BRANCH  18  19
ATOM     19  C   UNL     1      64.864  28.835  60.689  1.00  0.00    -0.003 C 
ATOM     20  C   UNL     1      65.509  29.849  59.749  1.00  0.00     0.004 C 
ENDBRANCH  18  19
ENDBRANCH  17  18
ENDBRANCH  16  17
ENDBRANCH  15  16
ENDBRANCH  14  15
ENDBRANCH  13  14
ENDBRANCH  12  13
ENDBRANCH   1  12
TORSDOF 16
ENDMDL
MODEL 3
REMARK VINA RESULT:    -3.990      4.327      6.341
REMARK INTER + INTRA:          -8.705
REMARK INTER:                  -5.839
REMARK INTRA:                  -2.867
REMARK UNBOUND:                -0.984
REMARK SMILES CCCCCCCCCCCCCCCCCC(=O)[O-]
REMARK SMILES IDX 10 1 11 2 12 3 13 4 14 5 15 6 16 7 17 8 18 9 19 10 20 11
REMARK SMILES IDX 9 12 8 13 7 14 6 15 5 16 4 17 3 18 2 19 1 20
REMARK H PARENT
REMARK Flexibility Score: inf
ROOT
ATOM      1  C   UNL     1      57.648  25.578  52.387  1.00  0.00     0.000 C 
ENDROOT
BRANCH   1   2
ATOM      2  C   UNL     1      58.057  26.294  53.680  1.00  0.00     0.000 C 
BRANCH   2   3
ATOM      3  C   UNL     1      57.804  27.806  53.578  1.00  0.00     0.000 C 
BRANCH   3   4
ATOM      4  C   UNL     1      58.866  28.520  52.715  1.00  0.00     0.000 C 
BRANCH   4   5
ATOM      5  C   UNL     1      58.266  29.428  51.627  1.00  0.00     0.000 C 
BRANCH   5   6
ATOM      6  C   UNL     1      58.510  28.898  50.205  1.00  0.00     0.000 C 
BRANCH   6   7
ATOM      7  C   UNL     1      59.894  28.250  50.046  1.00  0.00     0.006 C 
BRANCH   7   8
ATOM      8  C   UNL     1      59.810  26.750  49.735  1.00  0.00     0.053 C 
BRANCH   8   9
ATOM      9  C   UNL     1      60.859  25.999  50.491  1.00  0.00     0.041 C 
ATOM     10  O   UNL     1      61.858  26.605  50.960  1.00  0.00    -0.550 OA
ATOM     11  O   UNL     1      60.759  24.621  50.634  1.00  0.00    -0.550 OA
ENDBRANCH   8   9
ENDBRANCH   7   8
ENDBRANCH   6   7
ENDBRANCH   5   6
ENDBRANCH   4   5
ENDBRANCH   3   4
ENDBRANCH   2   3
ENDBRANCH   1   2
BRANCH   1  12
ATOM     12  C   UNL     1      56.255  26.033  51.925  1.00  0.00     0.000 C 
BRANCH  12  13
ATOM     13  C   UNL     1      56.133  26.104  50.393  1.00  0.00    -0.000 C 
BRANCH  13  14
ATOM     14  C   UNL     1      54.673  26.222  49.923  1.00  0.00    -0.000 C 
BRANCH  14  15
ATOM     15  C   UNL     1      53.825  27.112  50.847  1.00  0.00    -0.000 C 
BRANCH  15  16
ATOM     16  C   UNL     1      53.554  28.502  50.252  1.00  0.00    -0.000 C 
BRANCH  16  17
ATOM     17  C   UNL     1      54.482  29.555  50.878  1.00  0.00    -0.000 C 
BRANCH  17  18
ATOM     18  C   UNL     1      54.643  29.376  52.396  1.00  0.00    -0.000 C 
BRANCH  18  19
ATOM     19  C   UNL     1      54.625  30.712  53.155  1.00  0.00    -0.003 C 
ATOM     20  C   UNL     1      55.834  30.835  54.078  1.00  0.00     0.004 C 
ENDBRANCH  18  19
ENDBRANCH  17  18
ENDBRANCH  16  17
ENDBRANCH  15  16
ENDBRANCH  14  15
ENDBRANCH  13  14
ENDBRANCH  12  13
ENDBRANCH   1  12
TORSDOF 16
ENDMDL
MODEL 4
REMARK VINA RESULT:    -3.959      1.553      2.858
REMARK INTER + INTRA:          -8.645
REMARK INTER:                  -7.384
REMARK INTRA:                  -1.261
REMARK UNBOUND:                -0.984
REMARK SMILES CCCCCCCCCCCCCCCCCC(=O)[O-]
REMARK SMILES IDX 10 1 11 2 12 3 13 4 14 5 15 6 16 7 17 8 18 9 19 10 20 11
REMARK SMILES IDX 9 12 8 13 7 14 6 15 5 16 4 17 3 18 2 19 1 20
REMARK H PARENT
REMARK Flexibility Score: inf
ROOT
ATOM      1  C   UNL     1      60.237  23.590  51.072  1.00  0.00     0.000 C 
ENDROOT
BRANCH   1   2
ATOM      2  C   UNL     1      61.315  22.940  50.196  1.00  0.00     0.000 C 
BRANCH   2   3
ATOM      3  C   UNL     1      60.780  21.672  49.512  1.00  0.00     0.000 C 
BRANCH   3   4
ATOM      4  C   UNL     1      61.159  20.388  50.281  1.00  0.00     0.000 C 
BRANCH   4   5
ATOM      5  C   UNL     1      60.091  19.284  50.196  1.00  0.00     0.000 C 
BRANCH   5   6
ATOM      6  C   UNL     1      59.615  18.805  51.578  1.00  0.00     0.000 C 
BRANCH   6   7
ATOM      7  C   UNL     1      58.443  19.638  52.120  1.00  0.00     0.006 C 
BRANCH   7   8
ATOM      8  C   UNL     1      57.289  18.765  52.632  1.00  0.00     0.053 C 
BRANCH   8   9
ATOM      9  C   UNL     1      56.122  18.842  51.700  1.00  0.00     0.041 C 
ATOM     10  O   UNL     1      56.214  18.386  50.530  1.00  0.00    -0.550 OA
ATOM     11  O   UNL     1      54.948  19.463  52.107  1.00  0.00    -0.550 OA
ENDBRANCH   8   9
ENDBRANCH   7   8
ENDBRANCH   6   7
ENDBRANCH   5   6
ENDBRANCH   4   5
ENDBRANCH   3   4
ENDBRANCH   2   3
ENDBRANCH   1   2
BRANCH   1  12
ATOM     12  C   UNL     1      60.041  25.067  50.696  1.00  0.00     0.000 C 
BRANCH  12  13
ATOM     13  C   UNL     1      61.247  25.941  51.079  1.00  0.00    -0.000 C 
BRANCH  13  14
ATOM     14  C   UNL     1      61.058  27.414  50.678  1.00  0.00    -0.000 C 
BRANCH  14  15
ATOM     15  C   UNL     1      59.971  27.600  49.607  1.00  0.00    -0.000 C 
BRANCH  15  16
ATOM     16  C   UNL     1      59.133  28.869  49.822  1.00  0.00    -0.000 C 
BRANCH  16  17
ATOM     17  C   UNL     1      58.259  28.741  51.079  1.00  0.00    -0.000 C 
BRANCH  17  18
ATOM     18  C   UNL     1      56.757  28.841  50.770  1.00  0.00    -0.000 C 
BRANCH  18  19
ATOM     19  C   UNL     1      55.981  27.583  51.189  1.00  0.00    -0.003 C 
ATOM     20  C   UNL     1      56.427  26.368  50.381  1.00  0.00     0.004 C 
ENDBRANCH  18  19
ENDBRANCH  17  18
ENDBRANCH  16  17
ENDBRANCH  15  16
ENDBRANCH  14  15
ENDBRANCH  13  14
ENDBRANCH  12  13
ENDBRANCH   1  12
TORSDOF 16
ENDMDL
MODEL 5
REMARK VINA RESULT:    -3.955     11.778     14.084
REMARK INTER + INTRA:          -8.639
REMARK INTER:                  -5.919
REMARK INTRA:                  -2.720
REMARK UNBOUND:                -0.984
REMARK SMILES CCCCCCCCCCCCCCCCCC(=O)[O-]
REMARK SMILES IDX 10 1 11 2 12 3 13 4 14 5 15 6 16 7 17 8 18 9 19 10 20 11
REMARK SMILES IDX 9 12 8 13 7 14 6 15 5 16 4 17 3 18 2 19 1 20
REMARK H PARENT
REMARK Flexibility Score: inf
ROOT
ATOM      1  C   UNL     1      64.391  29.746  59.335  1.00  0.00     0.000 C 
ENDROOT
BRANCH   1   2
ATOM      2  C   UNL     1      63.680  29.035  60.492  1.00  0.00     0.000 C 
BRANCH   2   3
ATOM      3  C   UNL     1      63.139  30.047  61.513  1.00  0.00     0.000 C 
BRANCH   3   4
ATOM      4  C   UNL     1      61.603  29.971  61.655  1.00  0.00     0.000 C 
BRANCH   4   5
ATOM      5  C   UNL     1      60.872  31.208  61.106  1.00  0.00     0.000 C 
BRANCH   5   6
ATOM      6  C   UNL     1      60.464  31.056  59.632  1.00  0.00     0.000 C 
BRANCH   6   7
ATOM      7  C   UNL     1      60.975  32.210  58.755  1.00  0.00     0.006 C 
BRANCH   7   8
ATOM      8  C   UNL     1      60.747  31.957  57.259  1.00  0.00     0.053 C 
BRANCH   8   9
ATOM      9  C   UNL     1      59.596  32.772  56.760  1.00  0.00     0.041 C 
ATOM     10  O   UNL     1      59.742  33.532  55.767  1.00  0.00    -0.550 OA
ATOM     11  O   UNL     1      58.377  32.732  57.424  1.00  0.00    -0.550 OA
ENDBRANCH   8   9
ENDBRANCH   7   8
ENDBRANCH   6   7
ENDBRANCH   5   6
ENDBRANCH   4   5
ENDBRANCH   3   4
ENDBRANCH   2   3
ENDBRANCH   1   2
BRANCH   1  12
ATOM     12  C   UNL     1      64.721  31.201  59.704  1.00  0.00     0.000 C 
BRANCH  12  13
ATOM     13  C   UNL     1      64.543  32.167  58.520  1.00  0.00    -0.000 C 
BRANCH  13  14
ATOM     14  C   UNL     1      64.454  33.636  58.968  1.00  0.00    -0.000 C 
BRANCH  14  15
ATOM     15  C   UNL     1      64.296  33.782  60.490  1.00  0.00    -0.000 C 
BRANCH  15  16
ATOM     16  C   UNL     1      62.916  34.319  60.898  1.00  0.00    -0.000 C 
BRANCH  16  17
ATOM     17  C   UNL     1      62.976  35.831  61.170  1.00  0.00    -0.000 C 
BRANCH  17  18
ATOM     18  C   UNL     1      61.671  36.551  60.801  1.00  0.00    -0.000 C 
BRANCH  18  19
ATOM     19  C   UNL     1      60.580  35.587  60.309  1.00  0.00    -0.003 C 
ATOM     20  C   UNL     1      60.236  35.847  58.846  1.00  0.00     0.004 C 
ENDBRANCH  18  19
ENDBRANCH  17  18
ENDBRANCH  16  17
ENDBRANCH  15  16
ENDBRANCH  14  15
ENDBRANCH  13  14
ENDBRANCH  12  13
ENDBRANCH   1  12
TORSDOF 16
ENDMDL
MODEL 6
REMARK VINA RESULT:    -3.912      6.160      9.092
REMARK INTER + INTRA:          -8.556
REMARK INTER:                  -5.825
REMARK INTRA:                  -2.730
REMARK UNBOUND:                -0.984
REMARK SMILES CCCCCCCCCCCCCCCCCC(=O)[O-]
REMARK SMILES IDX 10 1 11 2 12 3 13 4 14 5 15 6 16 7 17 8 18 9 19 10 20 11
REMARK SMILES IDX 9 12 8 13 7 14 6 15 5 16 4 17 3 18 2 19 1 20
REMARK H PARENT
REMARK Flexibility Score: inf
ROOT
ATOM      1  C   UNL     1      56.670  25.919  52.015  1.00  0.00     0.000 C 
ENDROOT
BRANCH   1   2
ATOM      2  C   UNL     1      55.848  25.939  50.721  1.00  0.00     0.000 C 
BRANCH   2   3
ATOM      3  C   UNL     1      55.396  27.366  50.376  1.00  0.00     0.000 C 
BRANCH   3   4
ATOM      4  C   UNL     1      53.875  27.453  50.123  1.00  0.00     0.000 C 
BRANCH   4   5
ATOM      5  C   UNL     1      53.284  28.845  50.406  1.00  0.00     0.000 C 
BRANCH   5   6
ATOM      6  C   UNL     1      54.288  29.795  51.078  1.00  0.00     0.000 C 
BRANCH   6   7
ATOM      7  C   UNL     1      53.915  30.117  52.533  1.00  0.00     0.006 C 
BRANCH   7   8
ATOM      8  C   UNL     1      54.256  31.560  52.924  1.00  0.00     0.053 C 
BRANCH   8   9
ATOM      9  C   UNL     1      55.143  31.581  54.128  1.00  0.00     0.041 C 
ATOM     10  O   UNL     1      54.879  30.854  55.122  1.00  0.00    -0.550 OA
ATOM     11  O   UNL     1      56.233  32.441  54.173  1.00  0.00    -0.550 OA
ENDBRANCH   8   9
ENDBRANCH   7   8
ENDBRANCH   6   7
ENDBRANCH   5   6
ENDBRANCH   4   5
ENDBRANCH   3   4
ENDBRANCH   2   3
ENDBRANCH   1   2
BRANCH   1  12
ATOM     12  C   UNL     1      55.786  26.234  53.232  1.00  0.00     0.000 C 
BRANCH  12  13
ATOM     13  C   UNL     1      56.090  27.611  53.845  1.00  0.00    -0.000 C 
BRANCH  13  14
ATOM     14  C   UNL     1      57.539  28.062  53.590  1.00  0.00    -0.000 C 
BRANCH  14  15
ATOM     15  C   UNL     1      57.621  29.308  52.693  1.00  0.00    -0.000 C 
BRANCH  15  16
ATOM     16  C   UNL     1      58.869  29.318  51.798  1.00  0.00    -0.000 C 
BRANCH  16  17
ATOM     17  C   UNL     1      58.478  29.369  50.313  1.00  0.00    -0.000 C 
BRANCH  17  18
ATOM     18  C   UNL     1      59.327  28.429  49.443  1.00  0.00    -0.000 C 
BRANCH  18  19
ATOM     19  C   UNL     1      59.653  27.103  50.148  1.00  0.00    -0.003 C 
ATOM     20  C   UNL     1      61.157  26.846  50.165  1.00  0.00     0.004 C 
ENDBRANCH  18  19
ENDBRANCH  17  18
ENDBRANCH  16  17
ENDBRANCH  15  16
ENDBRANCH  14  15
ENDBRANCH  13  14
ENDBRANCH  12  13
ENDBRANCH   1  12
TORSDOF 16
ENDMDL
MODEL 7
REMARK VINA RESULT:    -3.888      2.709      5.287
REMARK INTER + INTRA:          -8.508
REMARK INTER:                  -5.433
REMARK INTRA:                  -3.075
REMARK UNBOUND:                -0.984
REMARK SMILES CCCCCCCCCCCCCCCCCC(=O)[O-]
REMARK SMILES IDX 10 1 11 2 12 3 13 4 14 5 15 6 16 7 17 8 18 9 19 10 20 11
REMARK SMILES IDX 9 12 8 13 7 14 6 15 5 16 4 17 3 18 2 19 1 20
REMARK H PARENT
REMARK Flexibility Score: inf
ROOT
ATOM      1  C   UNL     1      57.974  29.252  51.106  1.00  0.00     0.000 C 
ENDROOT
BRANCH   1   2
ATOM      2  C   UNL     1      58.883  29.301  49.871  1.00  0.00     0.000 C 
BRANCH   2   3
ATOM      3  C   UNL     1      59.960  28.207  49.935  1.00  0.00     0.000 C 
BRANCH   3   4
ATOM      4  C   UNL     1      60.737  28.228  51.268  1.00  0.00     0.000 C 
BRANCH   4   5
ATOM      5  C   UNL     1      61.740  27.070  51.413  1.00  0.00     0.000 C 
BRANCH   5   6
ATOM      6  C   UNL     1      61.515  25.952  50.383  1.00  0.00     0.000 C 
BRANCH   6   7
ATOM      7  C   UNL     1      61.870  24.561  50.932  1.00  0.00     0.006 C 
BRANCH   7   8
ATOM      8  C   UNL     1      60.996  23.451  50.334  1.00  0.00     0.053 C 
BRANCH   8   9
ATOM      9  C   UNL     1      61.747  22.158  50.297  1.00  0.00     0.041 C 
ATOM     10  O   UNL     1      62.749  21.985  51.039  1.00  0.00    -0.550 OA
ATOM     11  O   UNL     1      61.370  21.162  49.405  1.00  0.00    -0.550 OA
ENDBRANCH   8   9
ENDBRANCH   7   8
ENDBRANCH   6   7
ENDBRANCH   5   6
ENDBRANCH   4   5
ENDBRANCH   3   4
ENDBRANCH   2   3
ENDBRANCH   1   2
BRANCH   1  12
ATOM     12  C   UNL     1      56.560  28.784  50.728  1.00  0.00     0.000 C 
BRANCH  12  13
ATOM     13  C   UNL     1      56.216  27.405  51.316  1.00  0.00    -0.000 C 
BRANCH  13  14
ATOM     14  C   UNL     1      56.743  26.248  50.450  1.00  0.00    -0.000 C 
BRANCH  14  15
ATOM     15  C   UNL     1      57.920  25.508  51.106  1.00  0.00    -0.000 C 
BRANCH  15  16
ATOM     16  C   UNL     1      57.789  25.413  52.633  1.00  0.00    -0.000 C 
BRANCH  16  17
ATOM     17  C   UNL     1      59.173  25.420  53.302  1.00  0.00    -0.000 C 
BRANCH  17  18
ATOM     18  C   UNL     1      59.214  26.286  54.570  1.00  0.00    -0.000 C 
BRANCH  18  19
ATOM     19  C   UNL     1      58.332  27.539  54.461  1.00  0.00    -0.003 C 
ATOM     20  C   UNL     1      59.169  28.811  54.567  1.00  0.00     0.004 C 
ENDBRANCH  18  19
ENDBRANCH  17  18
ENDBRANCH  16  17
ENDBRANCH  15  16
ENDBRANCH  14  15
ENDBRANCH  13  14
ENDBRANCH  12  13
ENDBRANCH   1  12
TORSDOF 16
ENDMDL
MODEL 8
REMARK VINA RESULT:    -3.885     12.099     14.330
REMARK INTER + INTRA:          -8.503
REMARK INTER:                  -5.668
REMARK INTRA:                  -2.834
REMARK UNBOUND:                -0.984
REMARK SMILES CCCCCCCCCCCCCCCCCC(=O)[O-]
REMARK SMILES IDX 10 1 11 2 12 3 13 4 14 5 15 6 16 7 17 8 18 9 19 10 20 11
REMARK SMILES IDX 9 12 8 13 7 14 6 15 5 16 4 17 3 18 2 19 1 20
REMARK H PARENT
REMARK Flexibility Score: inf
ROOT
ATOM      1  C   UNL     1      61.529  33.661  60.461  1.00  0.00     0.000 C 
ENDROOT
BRANCH   1   2
ATOM      2  C   UNL     1      61.146  33.114  59.080  1.00  0.00     0.000 C 
BRANCH   2   3
ATOM      3  C   UNL     1      61.934  31.836  58.755  1.00  0.00     0.000 C 
BRANCH   3   4
ATOM      4  C   UNL     1      63.436  32.115  58.527  1.00  0.00     0.000 C 
BRANCH   4   5
ATOM      5  C   UNL     1      64.361  31.272  59.422  1.00  0.00     0.000 C 
BRANCH   5   6
ATOM      6  C   UNL     1      63.810  31.090  60.846  1.00  0.00     0.000 C 
BRANCH   6   7
ATOM      7  C   UNL     1      63.570  29.614  61.201  1.00  0.00     0.006 C 
BRANCH   7   8
ATOM      8  C   UNL     1      62.091  29.307  61.468  1.00  0.00     0.053 C 
BRANCH   8   9
ATOM      9  C   UNL     1      61.552  28.382  60.424  1.00  0.00     0.041 C 
ATOM     10  O   UNL     1      62.082  28.337  59.283  1.00  0.00    -0.550 OA
ATOM     11  O   UNL     1      60.431  27.606  60.694  1.00  0.00    -0.550 OA
ENDBRANCH   8   9
ENDBRANCH   7   8
ENDBRANCH   6   7
ENDBRANCH   5   6
ENDBRANCH   4   5
ENDBRANCH   3   4
ENDBRANCH   2   3
ENDBRANCH   1   2
BRANCH   1  12
ATOM     12  C   UNL     1      61.484  35.197  60.475  1.00  0.00     0.000 C 
BRANCH  12  13
ATOM     13  C   UNL     1      62.709  35.819  61.166  1.00  0.00    -0.000 C 
BRANCH  13  14
ATOM     14  C   UNL     1      63.908  34.856  61.218  1.00  0.00    -0.000 C 
BRANCH  14  15
ATOM     15  C   UNL     1      65.257  35.592  61.218  1.00  0.00    -0.000 C 
BRANCH  15  16
ATOM     16  C   UNL     1      65.646  36.127  59.831  1.00  0.00    -0.000 C 
BRANCH  16  17
ATOM     17  C   UNL     1      65.308  35.103  58.736  1.00  0.00    -0.000 C 
BRANCH  17  18
ATOM     18  C   UNL     1      64.797  35.762  57.446  1.00  0.00    -0.000 C 
BRANCH  18  19
ATOM     19  C   UNL     1      63.286  35.572  57.242  1.00  0.00    -0.003 C 
ATOM     20  C   UNL     1      62.540  36.893  57.402  1.00  0.00     0.004 C 
ENDBRANCH  18  19
ENDBRANCH  17  18
ENDBRANCH  16  17
ENDBRANCH  15  16
ENDBRANCH  14  15
ENDBRANCH  13  14
ENDBRANCH  12  13
ENDBRANCH   1  12
TORSDOF 16
ENDMDL
MODEL 9
REMARK VINA RESULT:    -3.875     11.521     13.468
REMARK INTER + INTRA:          -8.482
REMARK INTER:                  -6.260
REMARK INTRA:                  -2.222
REMARK UNBOUND:                -0.984
REMARK SMILES CCCCCCCCCCCCCCCCCC(=O)[O-]
REMARK SMILES IDX 10 1 11 2 12 3 13 4 14 5 15 6 16 7 17 8 18 9 19 10 20 11
REMARK SMILES IDX 9 12 8 13 7 14 6 15 5 16 4 17 3 18 2 19 1 20
REMARK H PARENT
REMARK Flexibility Score: inf
ROOT
ATOM      1  C   UNL     1      60.345  31.524  58.893  1.00  0.00     0.000 C 
ENDROOT
BRANCH   1   2
ATOM      2  C   UNL     1      60.328  30.318  59.841  1.00  0.00     0.000 C 
BRANCH   2   3
ATOM      3  C   UNL     1      60.886  30.694  61.222  1.00  0.00     0.000 C 
BRANCH   3   4
ATOM      4  C   UNL     1      61.969  29.705  61.705  1.00  0.00     0.000 C 
BRANCH   4   5
ATOM      5  C   UNL     1      63.401  30.137  61.344  1.00  0.00     0.000 C 
BRANCH   5   6
ATOM      6  C   UNL     1      64.087  29.171  60.364  1.00  0.00     0.000 C 
BRANCH   6   7
ATOM      7  C   UNL     1      63.209  27.959  60.016  1.00  0.00     0.006 C 
BRANCH   7   8
ATOM      8  C   UNL     1      63.793  26.640  60.536  1.00  0.00     0.053 C 
BRANCH   8   9
ATOM      9  C   UNL     1      62.874  25.502  60.224  1.00  0.00     0.041 C 
ATOM     10  O   UNL     1      62.180  24.979  61.135  1.00  0.00    -0.550 OA
ATOM     11  O   UNL     1      62.822  24.984  58.936  1.00  0.00    -0.550 OA
ENDBRANCH   8   9
ENDBRANCH   7   8
ENDBRANCH   6   7
ENDBRANCH   5   6
ENDBRANCH   4   5
ENDBRANCH   3   4
ENDBRANCH   2   3
ENDBRANCH   1   2
BRANCH   1  12
ATOM     12  C   UNL     1      61.350  32.584  59.371  1.00  0.00     0.000 C 
BRANCH  12  13
ATOM     13  C   UNL     1      62.623  32.623  58.509  1.00  0.00    -0.000 C 
BRANCH  13  14
ATOM     14  C   UNL     1      63.832  33.194  59.271  1.00  0.00    -0.000 C 
BRANCH  14  15
ATOM     15  C   UNL     1      63.465  33.683  60.681  1.00  0.00    -0.000 C 
BRANCH  15  16
ATOM     16  C   UNL     1      64.500  34.657  61.264  1.00  0.00    -0.000 C 
BRANCH  16  17
ATOM     17  C   UNL     1      63.837  35.982  61.672  1.00  0.00    -0.000 C 
BRANCH  17  18
ATOM     18  C   UNL     1      62.996  36.596  60.542  1.00  0.00    -0.000 C 
BRANCH  18  19
ATOM     19  C   UNL     1      61.545  36.871  60.966  1.00  0.00    -0.003 C 
ATOM     20  C   UNL     1      60.573  35.967  60.214  1.00  0.00     0.004 C 
ENDBRANCH  18  19
ENDBRANCH  17  18
ENDBRANCH  16  17
ENDBRANCH  15  16
ENDBRANCH  14  15
ENDBRANCH  13  14
ENDBRANCH  12  13
ENDBRANCH   1  12
TORSDOF 16
ENDMDL
