MODEL 1
REMARK VINA RESULT:    -3.638      0.000      0.000
REMARK INTER + INTRA:          -9.621
REMARK INTER:                  -7.892
REMARK INTRA:                  -1.730
REMARK UNBOUND:                -1.730
REMARK SMILES CCCCCCCCCCCCCCCCCCCCCC(=O)[O-]
REMARK SMILES IDX 12 1 11 2 10 3 9 4 8 5 7 6 6 7 5 8 4 9 3 10 2 11 1 12 13 13
REMARK SMILES IDX 14 14 15 15 16 16 17 17 18 18 19 19 20 20 21 21 22 22 23 23
REMARK SMILES IDX 24 24
REMARK H PARENT
REMARK Flexibility Score: inf
ROOT
ATOM      1  C   UNL     1     -44.330 -37.496  18.496  1.00  0.00     0.000 C 
ENDROOT
BRANCH   1   2
ATOM      2  C   UNL     1     -45.230 -37.580  17.253  1.00  0.00     0.000 C 
BRANCH   2   3
ATOM      3  C   UNL     1     -44.587 -36.944  16.011  1.00  0.00     0.000 C 
BRANCH   3   4
ATOM      4  C   UNL     1     -43.997 -37.988  15.051  1.00  0.00    -0.000 C 
BRANCH   4   5
ATOM      5  C   UNL     1     -44.504 -37.770  13.621  1.00  0.00    -0.000 C 
BRANCH   5   6
ATOM      6  C   UNL     1     -45.504 -36.604  13.561  1.00  0.00    -0.000 C 
BRANCH   6   7
ATOM      7  C   UNL     1     -45.191 -35.619  12.420  1.00  0.00    -0.000 C 
BRANCH   7   8
ATOM      8  C   UNL     1     -45.641 -34.184  12.742  1.00  0.00    -0.000 C 
BRANCH   8   9
ATOM      9  C   UNL     1     -45.974 -33.989  14.232  1.00  0.00    -0.000 C 
BRANCH   9  10
ATOM     10  C   UNL     1     -45.137 -32.911  14.948  1.00  0.00    -0.000 C 
BRANCH  10  11
ATOM     11  C   UNL     1     -44.656 -33.331  16.353  1.00  0.00    -0.003 C 
ATOM     12  C   UNL     1     -45.755 -33.211  17.407  1.00  0.00     0.004 C 
ENDBRANCH  10  11
ENDBRANCH   9  10
ENDBRANCH   8   9
ENDBRANCH   7   8
ENDBRANCH   6   7
ENDBRANCH   5   6
ENDBRANCH   4   5
ENDBRANCH   3   4
ENDBRANCH   2   3
ENDBRANCH   1   2
BRANCH   1  13
ATOM     13  C   UNL     1     -44.517 -36.151  19.215  1.00  0.00     0.000 C 
BRANCH  13  14
ATOM     14  C   UNL     1     -44.383 -36.272  20.741  1.00  0.00     0.000 C 
BRANCH  14  15
ATOM     15  C   UNL     1     -45.461 -35.469  21.491  1.00  0.00     0.000 C 
BRANCH  15  16
ATOM     16  C   UNL     1     -44.904 -34.165  22.098  1.00  0.00     0.000 C 
BRANCH  16  17
ATOM     17  C   UNL     1     -45.673 -33.680  23.338  1.00  0.00     0.000 C 
BRANCH  17  18
ATOM     18  C   UNL     1     -44.896 -32.638  24.158  1.00  0.00     0.000 C 
BRANCH  18  19
ATOM     19  C   UNL     1     -43.408 -32.648  23.788  1.00  0.00     0.000 C 
BRANCH  19  20
ATOM     20  C   UNL     1     -42.526 -32.385  25.017  1.00  0.00     0.006 C 
BRANCH  20  21
ATOM     21  C   UNL     1     -42.975 -33.242  26.207  1.00  0.00     0.053 C 
BRANCH  21  22
ATOM     22  C   UNL     1     -42.007 -33.143  27.347  1.00  0.00     0.041 C 
ATOM     23  O   UNL     1     -42.404 -33.312  28.533  1.00  0.00    -0.550 OA
ATOM     24  O   UNL     1     -40.657 -32.908  27.097  1.00  0.00    -0.550 OA
ENDBRANCH  21  22
ENDBRANCH  20  21
ENDBRANCH  19  20
ENDBRANCH  18  19
ENDBRANCH  17  18
ENDBRANCH  16  17
ENDBRANCH  15  16
ENDBRANCH  14  15
ENDBRANCH  13  14
ENDBRANCH   1  13
TORSDOF 20
ENDMDL
MODEL 2
REMARK VINA RESULT:    -3.610      1.723      3.465
REMARK INTER + INTRA:          -9.561
REMARK INTER:                  -7.719
REMARK INTRA:                  -1.842
REMARK UNBOUND:                -1.730
REMARK SMILES CCCCCCCCCCCCCCCCCCCCCC(=O)[O-]
REMARK SMILES IDX 12 1 11 2 10 3 9 4 8 5 7 6 6 7 5 8 4 9 3 10 2 11 1 12 13 13
REMARK SMILES IDX 14 14 15 15 16 16 17 17 18 18 19 19 20 20 21 21 22 22 23 23
REMARK SMILES IDX 24 24
REMARK H PARENT
REMARK Flexibility Score: inf
ROOT
ATOM      1  C   UNL     1     -45.751 -35.941  21.735  1.00  0.00     0.000 C 
ENDROOT
BRANCH   1   2
ATOM      2  C   UNL     1     -45.445 -35.541  20.284  1.00  0.00     0.000 C 
BRANCH   2   3
ATOM      3  C   UNL     1     -44.562 -36.569  19.558  1.00  0.00     0.000 C 
BRANCH   3   4
ATOM      4  C   UNL     1     -45.300 -37.274  18.409  1.00  0.00    -0.000 C 
BRANCH   4   5
ATOM      5  C   UNL     1     -44.309 -37.852  17.392  1.00  0.00    -0.000 C 
BRANCH   5   6
ATOM      6  C   UNL     1     -45.015 -38.212  16.074  1.00  0.00    -0.000 C 
BRANCH   6   7
ATOM      7  C   UNL     1     -44.080 -38.097  14.857  1.00  0.00    -0.000 C 
BRANCH   7   8
ATOM      8  C   UNL     1     -44.627 -37.140  13.783  1.00  0.00    -0.000 C 
BRANCH   8   9
ATOM      9  C   UNL     1     -45.863 -36.359  14.263  1.00  0.00    -0.000 C 
BRANCH   9  10
ATOM     10  C   UNL     1     -45.612 -34.868  14.562  1.00  0.00    -0.000 C 
BRANCH  10  11
ATOM     11  C   UNL     1     -45.830 -34.487  16.042  1.00  0.00    -0.003 C 
ATOM     12  C   UNL     1     -44.551 -33.984  16.710  1.00  0.00     0.004 C 
ENDBRANCH  10  11
ENDBRANCH   9  10
ENDBRANCH   8   9
ENDBRANCH   7   8
ENDBRANCH   6   7
ENDBRANCH   5   6
ENDBRANCH   4   5
ENDBRANCH   3   4
ENDBRANCH   2   3
ENDBRANCH   1   2
BRANCH   1  13
ATOM     13  C   UNL     1     -45.725 -34.711  22.657  1.00  0.00     0.000 C 
BRANCH  13  14
ATOM     14  C   UNL     1     -44.429 -33.896  22.522  1.00  0.00     0.000 C 
BRANCH  14  15
ATOM     15  C   UNL     1     -44.410 -32.664  23.443  1.00  0.00     0.000 C 
BRANCH  15  16
ATOM     16  C   UNL     1     -43.129 -32.591  24.298  1.00  0.00     0.000 C 
BRANCH  16  17
ATOM     17  C   UNL     1     -43.289 -33.181  25.709  1.00  0.00     0.000 C 
BRANCH  17  18
ATOM     18  C   UNL     1     -42.846 -32.215  26.819  1.00  0.00     0.000 C 
BRANCH  18  19
ATOM     19  C   UNL     1     -41.513 -32.658  27.432  1.00  0.00     0.000 C 
BRANCH  19  20
ATOM     20  C   UNL     1     -40.323 -32.032  26.690  1.00  0.00     0.006 C 
BRANCH  20  21
ATOM     21  C   UNL     1     -39.291 -33.101  26.309  1.00  0.00     0.053 C 
BRANCH  21  22
ATOM     22  C   UNL     1     -38.784 -32.897  24.913  1.00  0.00     0.041 C 
ATOM     23  O   UNL     1     -39.574 -32.534  23.998  1.00  0.00    -0.550 OA
ATOM     24  O   UNL     1     -37.430 -33.064  24.631  1.00  0.00    -0.550 OA
ENDBRANCH  21  22
ENDBRANCH  20  21
ENDBRANCH  19  20
ENDBRANCH  18  19
ENDBRANCH  17  18
ENDBRANCH  16  17
ENDBRANCH  15  16
ENDBRANCH  14  15
ENDBRANCH  13  14
ENDBRANCH   1  13
TORSDOF 20
ENDMDL
MODEL 3
REMARK VINA RESULT:    -3.585      3.768      9.953
REMARK INTER + INTRA:          -9.506
REMARK INTER:                  -7.842
REMARK INTRA:                  -1.664
REMARK UNBOUND:                -1.730
REMARK SMILES CCCCCCCCCCCCCCCCCCCCCC(=O)[O-]
REMARK SMILES IDX 12 1 11 2 10 3 9 4 8 5 7 6 6 7 5 8 4 9 3 10 2 11 1 12 13 13
REMARK SMILES IDX 14 14 15 15 16 16 17 17 18 18 19 19 20 20 21 21 22 22 23 23
REMARK SMILES IDX 24 24
REMARK H PARENT
REMARK Flexibility Score: inf
ROOT
ATOM      1  C   UNL     1     -45.017 -35.781  18.758  1.00  0.00     0.000 C 
ENDROOT
BRANCH   1   2
ATOM      2  C   UNL     1     -44.849 -36.877  19.821  1.00  0.00     0.000 C 
BRANCH   2   3
ATOM      3  C   UNL     1     -46.064 -36.987  20.755  1.00  0.00     0.000 C 
BRANCH   3   4
ATOM      4  C   UNL     1     -45.793 -36.401  22.150  1.00  0.00    -0.000 C 
BRANCH   4   5
ATOM      5  C   UNL     1     -45.970 -34.878  22.150  1.00  0.00    -0.000 C 
BRANCH   5   6
ATOM      6  C   UNL     1     -44.615 -34.163  22.288  1.00  0.00    -0.000 C 
BRANCH   6   7
ATOM      7  C   UNL     1     -44.534 -33.299  23.559  1.00  0.00    -0.000 C 
BRANCH   7   8
ATOM      8  C   UNL     1     -43.131 -32.707  23.778  1.00  0.00    -0.000 C 
BRANCH   8   9
ATOM      9  C   UNL     1     -42.958 -32.103  25.184  1.00  0.00    -0.000 C 
BRANCH   9  10
ATOM     10  C   UNL     1     -43.669 -32.874  26.313  1.00  0.00    -0.000 C 
BRANCH  10  11
ATOM     11  C   UNL     1     -42.710 -33.678  27.215  1.00  0.00    -0.003 C 
ATOM     12  C   UNL     1     -41.318 -33.052  27.292  1.00  0.00     0.004 C 
ENDBRANCH  10  11
ENDBRANCH   9  10
ENDBRANCH   8   9
ENDBRANCH   7   8
ENDBRANCH   6   7
ENDBRANCH   5   6
ENDBRANCH   4   5
ENDBRANCH   3   4
ENDBRANCH   2   3
ENDBRANCH   1   2
BRANCH   1  13
ATOM     13  C   UNL     1     -44.645 -36.311  17.364  1.00  0.00     0.000 C 
BRANCH  13  14
ATOM     14  C   UNL     1     -45.164 -37.736  17.114  1.00  0.00     0.000 C 
BRANCH  14  15
ATOM     15  C   UNL     1     -45.469 -37.999  15.629  1.00  0.00     0.000 C 
BRANCH  15  16
ATOM     16  C   UNL     1     -44.191 -38.240  14.802  1.00  0.00     0.000 C 
BRANCH  16  17
ATOM     17  C   UNL     1     -44.257 -37.671  13.375  1.00  0.00     0.000 C 
BRANCH  17  18
ATOM     18  C   UNL     1     -45.533 -36.856  13.112  1.00  0.00     0.000 C 
BRANCH  18  19
ATOM     19  C   UNL     1     -45.231 -35.635  12.235  1.00  0.00     0.000 C 
BRANCH  19  20
ATOM     20  C   UNL     1     -45.839 -34.357  12.831  1.00  0.00     0.006 C 
BRANCH  20  21
ATOM     21  C   UNL     1     -45.845 -34.416  14.364  1.00  0.00     0.053 C 
BRANCH  21  22
ATOM     22  C   UNL     1     -45.293 -33.158  14.961  1.00  0.00     0.041 C 
ATOM     23  O   UNL     1     -45.281 -33.001  16.214  1.00  0.00    -0.550 OA
ATOM     24  O   UNL     1     -44.750 -32.174  14.137  1.00  0.00    -0.550 OA
ENDBRANCH  21  22
ENDBRANCH  20  21
ENDBRANCH  19  20
ENDBRANCH  18  19
ENDBRANCH  17  18
ENDBRANCH  16  17
ENDBRANCH  15  16
ENDBRANCH  14  15
ENDBRANCH  13  14
ENDBRANCH   1  13
TORSDOF 20
ENDMDL
MODEL 4
REMARK VINA RESULT:    -3.543      4.475     10.446
REMARK INTER + INTRA:          -9.415
REMARK INTER:                  -8.112
REMARK INTRA:                  -1.303
REMARK UNBOUND:                -1.730
REMARK SMILES CCCCCCCCCCCCCCCCCCCCCC(=O)[O-]
REMARK SMILES IDX 12 1 11 2 10 3 9 4 8 5 7 6 6 7 5 8 4 9 3 10 2 11 1 12 13 13
REMARK SMILES IDX 14 14 15 15 16 16 17 17 18 18 19 19 20 20 21 21 22 22 23 23
REMARK SMILES IDX 24 24
REMARK H PARENT
REMARK Flexibility Score: inf
ROOT
ATOM      1  C   UNL     1     -44.365 -36.554  18.669  1.00  0.00     0.000 C 
ENDROOT
BRANCH   1   2
ATOM      2  C   UNL     1     -44.507 -36.854  20.169  1.00  0.00     0.000 C 
BRANCH   2   3
ATOM      3  C   UNL     1     -44.171 -35.642  21.051  1.00  0.00     0.000 C 
BRANCH   3   4
ATOM      4  C   UNL     1     -45.353 -35.205  21.931  1.00  0.00    -0.000 C 
BRANCH   4   5
ATOM      5  C   UNL     1     -45.063 -33.866  22.618  1.00  0.00    -0.000 C 
BRANCH   5   6
ATOM      6  C   UNL     1     -43.575 -33.745  22.988  1.00  0.00    -0.000 C 
BRANCH   6   7
ATOM      7  C   UNL     1     -43.294 -32.543  23.907  1.00  0.00    -0.000 C 
BRANCH   7   8
ATOM      8  C   UNL     1     -43.103 -32.958  25.376  1.00  0.00    -0.000 C 
BRANCH   8   9
ATOM      9  C   UNL     1     -42.098 -32.058  26.117  1.00  0.00    -0.000 C 
BRANCH   9  10
ATOM     10  C   UNL     1     -40.971 -32.811  26.850  1.00  0.00    -0.000 C 
BRANCH  10  11
ATOM     11  C   UNL     1     -39.607 -32.740  26.131  1.00  0.00    -0.003 C 
ATOM     12  C   UNL     1     -38.540 -33.592  26.816  1.00  0.00     0.004 C 
ENDBRANCH  10  11
ENDBRANCH   9  10
ENDBRANCH   8   9
ENDBRANCH   7   8
ENDBRANCH   6   7
ENDBRANCH   5   6
ENDBRANCH   4   5
ENDBRANCH   3   4
ENDBRANCH   2   3
ENDBRANCH   1   2
BRANCH   1  13
ATOM     13  C   UNL     1     -45.225 -35.345  18.270  1.00  0.00     0.000 C 
BRANCH  13  14
ATOM     14  C   UNL     1     -44.637 -34.566  17.082  1.00  0.00     0.000 C 
BRANCH  14  15
ATOM     15  C   UNL     1     -45.511 -33.365  16.677  1.00  0.00     0.000 C 
BRANCH  15  16
ATOM     16  C   UNL     1     -44.672 -32.173  16.176  1.00  0.00     0.000 C 
BRANCH  16  17
ATOM     17  C   UNL     1     -44.619 -32.050  14.644  1.00  0.00     0.000 C 
BRANCH  17  18
ATOM     18  C   UNL     1     -45.849 -32.656  13.950  1.00  0.00     0.000 C 
BRANCH  18  19
ATOM     19  C   UNL     1     -45.429 -33.679  12.888  1.00  0.00     0.000 C 
BRANCH  19  20
ATOM     20  C   UNL     1     -45.827 -35.104  13.298  1.00  0.00     0.006 C 
BRANCH  20  21
ATOM     21  C   UNL     1     -44.954 -36.144  12.585  1.00  0.00     0.053 C 
BRANCH  21  22
ATOM     22  C   UNL     1     -44.768 -37.370  13.426  1.00  0.00     0.041 C 
ATOM     23  O   UNL     1     -44.249 -37.279  14.573  1.00  0.00    -0.550 OA
ATOM     24  O   UNL     1     -45.206 -38.608  12.962  1.00  0.00    -0.550 OA
ENDBRANCH  21  22
ENDBRANCH  20  21
ENDBRANCH  19  20
ENDBRANCH  18  19
ENDBRANCH  17  18
ENDBRANCH  16  17
ENDBRANCH  15  16
ENDBRANCH  14  15
ENDBRANCH  13  14
ENDBRANCH   1  13
TORSDOF 20
ENDMDL
MODEL 5
REMARK VINA RESULT:    -3.522      4.716     11.490
REMARK INTER + INTRA:          -9.368
REMARK INTER:                  -8.075
REMARK INTRA:                  -1.294
REMARK UNBOUND:                -1.730
REMARK SMILES CCCCCCCCCCCCCCCCCCCCCC(=O)[O-]
REMARK SMILES IDX 12 1 11 2 10 3 9 4 8 5 7 6 6 7 5 8 4 9 3 10 2 11 1 12 13 13
REMARK SMILES IDX 14 14 15 15 16 16 17 17 18 18 19 19 20 20 21 21 22 22 23 23
REMARK SMILES IDX 24 24
REMARK H PARENT
REMARK Flexibility Score: inf
ROOT
ATOM      1  C   UNL     1     -43.843 -33.181  23.253  1.00  0.00     0.000 C 
ENDROOT
BRANCH   1   2
ATOM      2  C   UNL     1     -43.861 -32.272  24.492  1.00  0.00     0.000 C 
BRANCH   2   3
ATOM      3  C   UNL     1     -42.761 -32.628  25.504  1.00  0.00     0.000 C 
BRANCH   3   4
ATOM      4  C   UNL     1     -43.301 -33.406  26.714  1.00  0.00    -0.000 C 
BRANCH   4   5
ATOM      5  C   UNL     1     -42.298 -33.388  27.873  1.00  0.00    -0.000 C 
BRANCH   5   6
ATOM      6  C   UNL     1     -40.894 -32.993  27.384  1.00  0.00    -0.000 C 
BRANCH   6   7
ATOM      7  C   UNL     1     -39.854 -32.997  28.517  1.00  0.00    -0.000 C 
BRANCH   7   8
ATOM      8  C   UNL     1     -38.441 -33.344  28.018  1.00  0.00    -0.000 C 
BRANCH   8   9
ATOM      9  C   UNL     1     -37.701 -32.123  27.443  1.00  0.00    -0.000 C 
BRANCH   9  10
ATOM     10  C   UNL     1     -37.137 -32.317  26.022  1.00  0.00    -0.000 C 
BRANCH  10  11
ATOM     11  C   UNL     1     -37.919 -33.346  25.178  1.00  0.00    -0.003 C 
ATOM     12  C   UNL     1     -38.955 -32.689  24.268  1.00  0.00     0.004 C 
ENDBRANCH  10  11
ENDBRANCH   9  10
ENDBRANCH   8   9
ENDBRANCH   7   8
ENDBRANCH   6   7
ENDBRANCH   5   6
ENDBRANCH   4   5
ENDBRANCH   3   4
ENDBRANCH   2   3
ENDBRANCH   1   2
BRANCH   1  13
ATOM     13  C   UNL     1     -45.155 -33.972  23.138  1.00  0.00     0.000 C 
BRANCH  13  14
ATOM     14  C   UNL     1     -45.438 -34.445  21.703  1.00  0.00     0.000 C 
BRANCH  14  15
ATOM     15  C   UNL     1     -44.788 -35.805  21.393  1.00  0.00     0.000 C 
BRANCH  15  16
ATOM     16  C   UNL     1     -45.293 -36.407  20.066  1.00  0.00     0.000 C 
BRANCH  16  17
ATOM     17  C   UNL     1     -45.176 -35.453  18.867  1.00  0.00     0.000 C 
BRANCH  17  18
ATOM     18  C   UNL     1     -45.419 -36.149  17.518  1.00  0.00     0.000 C 
BRANCH  18  19
ATOM     19  C   UNL     1     -44.879 -35.303  16.360  1.00  0.00     0.000 C 
BRANCH  19  20
ATOM     20  C   UNL     1     -45.364 -35.838  15.005  1.00  0.00     0.006 C 
BRANCH  20  21
ATOM     21  C   UNL     1     -45.424 -37.371  15.010  1.00  0.00     0.053 C 
BRANCH  21  22
ATOM     22  C   UNL     1     -44.228 -37.966  14.333  1.00  0.00     0.041 C 
ATOM     23  O   UNL     1     -44.167 -38.008  13.072  1.00  0.00    -0.550 OA
ATOM     24  O   UNL     1     -43.157 -38.436  15.091  1.00  0.00    -0.550 OA
ENDBRANCH  21  22
ENDBRANCH  20  21
ENDBRANCH  19  20
ENDBRANCH  18  19
ENDBRANCH  17  18
ENDBRANCH  16  17
ENDBRANCH  15  16
ENDBRANCH  14  15
ENDBRANCH  13  14
ENDBRANCH   1  13
TORSDOF 20
ENDMDL
MODEL 6
REMARK VINA RESULT:    -3.483      2.703      6.804
REMARK INTER + INTRA:          -9.285
REMARK INTER:                  -7.851
REMARK INTRA:                  -1.434
REMARK UNBOUND:                -1.730
REMARK SMILES CCCCCCCCCCCCCCCCCCCCCC(=O)[O-]
REMARK SMILES IDX 12 1 11 2 10 3 9 4 8 5 7 6 6 7 5 8 4 9 3 10 2 11 1 12 13 13
REMARK SMILES IDX 14 14 15 15 16 16 17 17 18 18 19 19 20 20 21 21 22 22 23 23
REMARK SMILES IDX 24 24
REMARK H PARENT
REMARK Flexibility Score: inf
ROOT
ATOM      1  C   UNL     1     -42.961 -32.635  23.949  1.00  0.00     0.000 C 
ENDROOT
BRANCH   1   2
ATOM      2  C   UNL     1     -44.422 -32.167  24.032  1.00  0.00     0.000 C 
BRANCH   2   3
ATOM      3  C   UNL     1     -45.379 -33.064  23.231  1.00  0.00     0.000 C 
BRANCH   3   4
ATOM      4  C   UNL     1     -44.652 -34.216  22.520  1.00  0.00    -0.000 C 
BRANCH   4   5
ATOM      5  C   UNL     1     -45.604 -35.389  22.257  1.00  0.00    -0.000 C 
BRANCH   5   6
ATOM      6  C   UNL     1     -45.522 -35.851  20.793  1.00  0.00    -0.000 C 
BRANCH   6   7
ATOM      7  C   UNL     1     -44.166 -36.492  20.453  1.00  0.00    -0.000 C 
BRANCH   7   8
ATOM      8  C   UNL     1     -44.077 -36.938  18.984  1.00  0.00    -0.000 C 
BRANCH   8   9
ATOM      9  C   UNL     1     -45.369 -37.615  18.493  1.00  0.00    -0.000 C 
BRANCH   9  10
ATOM     10  C   UNL     1     -45.274 -38.260  17.096  1.00  0.00    -0.000 C 
BRANCH  10  11
ATOM     11  C   UNL     1     -44.500 -37.407  16.069  1.00  0.00    -0.003 C 
ATOM     12  C   UNL     1     -43.702 -38.259  15.084  1.00  0.00     0.004 C 
ENDBRANCH  10  11
ENDBRANCH   9  10
ENDBRANCH   8   9
ENDBRANCH   7   8
ENDBRANCH   6   7
ENDBRANCH   5   6
ENDBRANCH   4   5
ENDBRANCH   3   4
ENDBRANCH   2   3
ENDBRANCH   1   2
BRANCH   1  13
ATOM     13  C   UNL     1     -42.229 -32.378  25.275  1.00  0.00     0.000 C 
BRANCH  13  14
ATOM     14  C   UNL     1     -42.901 -33.078  26.468  1.00  0.00     0.000 C 
BRANCH  14  15
ATOM     15  C   UNL     1     -43.247 -32.099  27.604  1.00  0.00     0.000 C 
BRANCH  15  16
ATOM     16  C   UNL     1     -42.198 -32.119  28.735  1.00  0.00     0.000 C 
BRANCH  16  17
ATOM     17  C   UNL     1     -40.952 -32.960  28.411  1.00  0.00     0.000 C 
BRANCH  17  18
ATOM     18  C   UNL     1     -39.638 -32.259  28.790  1.00  0.00     0.000 C 
BRANCH  18  19
ATOM     19  C   UNL     1     -38.475 -32.775  27.935  1.00  0.00     0.000 C 
BRANCH  19  20
ATOM     20  C   UNL     1     -38.985 -33.530  26.698  1.00  0.00     0.006 C 
BRANCH  20  21
ATOM     21  C   UNL     1     -37.839 -33.817  25.720  1.00  0.00     0.053 C 
BRANCH  21  22
ATOM     22  C   UNL     1     -37.962 -32.989  24.477  1.00  0.00     0.041 C 
ATOM     23  O   UNL     1     -39.093 -32.801  23.949  1.00  0.00    -0.550 OA
ATOM     24  O   UNL     1     -36.833 -32.388  23.925  1.00  0.00    -0.550 OA
ENDBRANCH  21  22
ENDBRANCH  20  21
ENDBRANCH  19  20
ENDBRANCH  18  19
ENDBRANCH  17  18
ENDBRANCH  16  17
ENDBRANCH  15  16
ENDBRANCH  14  15
ENDBRANCH  13  14
ENDBRANCH   1  13
TORSDOF 20
ENDMDL
MODEL 7
REMARK VINA RESULT:    -3.336      3.472      8.857
REMARK INTER + INTRA:          -8.966
REMARK INTER:                  -7.632
REMARK INTRA:                  -1.334
REMARK UNBOUND:                -1.730
REMARK SMILES CCCCCCCCCCCCCCCCCCCCCC(=O)[O-]
REMARK SMILES IDX 12 1 11 2 10 3 9 4 8 5 7 6 6 7 5 8 4 9 3 10 2 11 1 12 13 13
REMARK SMILES IDX 14 14 15 15 16 16 17 17 18 18 19 19 20 20 21 21 22 22 23 23
REMARK SMILES IDX 24 24
REMARK H PARENT
REMARK Flexibility Score: inf
ROOT
ATOM      1  C   UNL     1     -44.301 -37.946  17.107  1.00  0.00     0.000 C 
ENDROOT
BRANCH   1   2
ATOM      2  C   UNL     1     -45.683 -38.435  17.567  1.00  0.00     0.000 C 
BRANCH   2   3
ATOM      3  C   UNL     1     -46.086 -37.870  18.938  1.00  0.00     0.000 C 
BRANCH   3   4
ATOM      4  C   UNL     1     -45.157 -36.739  19.407  1.00  0.00    -0.000 C 
BRANCH   4   5
ATOM      5  C   UNL     1     -45.270 -36.526  20.921  1.00  0.00    -0.000 C 
BRANCH   5   6
ATOM      6  C   UNL     1     -44.919 -35.078  21.303  1.00  0.00    -0.000 C 
BRANCH   6   7
ATOM      7  C   UNL     1     -46.051 -34.386  22.084  1.00  0.00    -0.000 C 
BRANCH   7   8
ATOM      8  C   UNL     1     -45.827 -32.871  22.224  1.00  0.00    -0.000 C 
BRANCH   8   9
ATOM      9  C   UNL     1     -45.326 -32.475  23.624  1.00  0.00    -0.000 C 
BRANCH   9  10
ATOM     10  C   UNL     1     -44.091 -33.254  24.116  1.00  0.00    -0.000 C 
BRANCH  10  11
ATOM     11  C   UNL     1     -42.754 -32.533  23.848  1.00  0.00    -0.003 C 
ATOM     12  C   UNL     1     -42.054 -32.102  25.135  1.00  0.00     0.004 C 
ENDBRANCH  10  11
ENDBRANCH   9  10
ENDBRANCH   8   9
ENDBRANCH   7   8
ENDBRANCH   6   7
ENDBRANCH   5   6
ENDBRANCH   4   5
ENDBRANCH   3   4
ENDBRANCH   2   3
ENDBRANCH   1   2
BRANCH   1  13
ATOM     13  C   UNL     1     -44.258 -37.788  15.579  1.00  0.00     0.000 C 
BRANCH  13  14
ATOM     14  C   UNL     1     -45.647 -37.907  14.932  1.00  0.00     0.000 C 
BRANCH  14  15
ATOM     15  C   UNL     1     -45.571 -38.233  13.430  1.00  0.00     0.000 C 
BRANCH  15  16
ATOM     16  C   UNL     1     -45.933 -37.021  12.548  1.00  0.00     0.000 C 
BRANCH  16  17
ATOM     17  C   UNL     1     -45.593 -35.665  13.187  1.00  0.00     0.000 C 
BRANCH  17  18
ATOM     18  C   UNL     1     -46.059 -34.468  12.342  1.00  0.00     0.000 C 
BRANCH  18  19
ATOM     19  C   UNL     1     -46.117 -33.191  13.187  1.00  0.00     0.000 C 
BRANCH  19  20
ATOM     20  C   UNL     1     -46.101 -33.514  14.688  1.00  0.00     0.006 C 
BRANCH  20  21
ATOM     21  C   UNL     1     -45.364 -32.424  15.476  1.00  0.00     0.053 C 
BRANCH  21  22
ATOM     22  C   UNL     1     -44.245 -33.000  16.289  1.00  0.00     0.041 C 
ATOM     23  O   UNL     1     -44.389 -34.112  16.869  1.00  0.00    -0.550 OA
ATOM     24  O   UNL     1     -43.026 -32.331  16.372  1.00  0.00    -0.550 OA
ENDBRANCH  21  22
ENDBRANCH  20  21
ENDBRANCH  19  20
ENDBRANCH  18  19
ENDBRANCH  17  18
ENDBRANCH  16  17
ENDBRANCH  15  16
ENDBRANCH  14  15
ENDBRANCH  13  14
ENDBRANCH   1  13
TORSDOF 20
ENDMDL
MODEL 8
REMARK VINA RESULT:    -3.304      1.222      2.808
REMARK INTER + INTRA:          -8.898
REMARK INTER:                  -7.182
REMARK INTRA:                  -1.716
REMARK UNBOUND:                -1.730
REMARK SMILES CCCCCCCCCCCCCCCCCCCCCC(=O)[O-]
REMARK SMILES IDX 12 1 11 2 10 3 9 4 8 5 7 6 6 7 5 8 4 9 3 10 2 11 1 12 13 13
REMARK SMILES IDX 14 14 15 15 16 16 17 17 18 18 19 19 20 20 21 21 22 22 23 23
REMARK SMILES IDX 24 24
REMARK H PARENT
REMARK Flexibility Score: inf
ROOT
ATOM      1  C   UNL     1     -44.604 -37.122  18.633  1.00  0.00     0.000 C 
ENDROOT
BRANCH   1   2
ATOM      2  C   UNL     1     -45.843 -36.297  18.252  1.00  0.00     0.000 C 
BRANCH   2   3
ATOM      3  C   UNL     1     -45.669 -35.547  16.922  1.00  0.00     0.000 C 
BRANCH   3   4
ATOM      4  C   UNL     1     -45.175 -34.105  17.118  1.00  0.00    -0.000 C 
BRANCH   4   5
ATOM      5  C   UNL     1     -44.910 -33.426  15.768  1.00  0.00    -0.000 C 
BRANCH   5   6
ATOM      6  C   UNL     1     -46.097 -33.620  14.809  1.00  0.00    -0.000 C 
BRANCH   6   7
ATOM      7  C   UNL     1     -45.721 -33.338  13.344  1.00  0.00    -0.000 C 
BRANCH   7   8
ATOM      8  C   UNL     1     -46.088 -34.501  12.407  1.00  0.00    -0.000 C 
BRANCH   8   9
ATOM      9  C   UNL     1     -45.989 -35.871  13.100  1.00  0.00    -0.000 C 
BRANCH   9  10
ATOM     10  C   UNL     1     -44.614 -36.558  12.987  1.00  0.00    -0.000 C 
BRANCH  10  11
ATOM     11  C   UNL     1     -44.602 -38.014  13.499  1.00  0.00    -0.003 C 
ATOM     12  C   UNL     1     -43.890 -38.155  14.843  1.00  0.00     0.004 C 
ENDBRANCH  10  11
ENDBRANCH   9  10
ENDBRANCH   8   9
ENDBRANCH   7   8
ENDBRANCH   6   7
ENDBRANCH   5   6
ENDBRANCH   4   5
ENDBRANCH   3   4
ENDBRANCH   2   3
ENDBRANCH   1   2
BRANCH   1  13
ATOM     13  C   UNL     1     -44.245 -36.915  20.113  1.00  0.00     0.000 C 
BRANCH  13  14
ATOM     14  C   UNL     1     -45.253 -36.017  20.848  1.00  0.00     0.000 C 
BRANCH  14  15
ATOM     15  C   UNL     1     -44.569 -34.886  21.635  1.00  0.00     0.000 C 
BRANCH  15  16
ATOM     16  C   UNL     1     -45.493 -34.278  22.710  1.00  0.00     0.000 C 
BRANCH  16  17
ATOM     17  C   UNL     1     -45.767 -32.777  22.516  1.00  0.00     0.000 C 
BRANCH  17  18
ATOM     18  C   UNL     1     -45.853 -32.006  23.842  1.00  0.00     0.000 C 
BRANCH  18  19
ATOM     19  C   UNL     1     -44.739 -32.439  24.802  1.00  0.00     0.000 C 
BRANCH  19  20
ATOM     20  C   UNL     1     -45.317 -33.006  26.107  1.00  0.00     0.006 C 
BRANCH  20  21
ATOM     21  C   UNL     1     -44.492 -32.547  27.316  1.00  0.00     0.053 C 
BRANCH  21  22
ATOM     22  C   UNL     1     -43.561 -33.625  27.783  1.00  0.00     0.041 C 
ATOM     23  O   UNL     1     -43.979 -34.536  28.551  1.00  0.00    -0.550 OA
ATOM     24  O   UNL     1     -42.243 -33.652  27.334  1.00  0.00    -0.550 OA
ENDBRANCH  21  22
ENDBRANCH  20  21
ENDBRANCH  19  20
ENDBRANCH  18  19
ENDBRANCH  17  18
ENDBRANCH  16  17
ENDBRANCH  15  16
ENDBRANCH  14  15
ENDBRANCH  13  14
ENDBRANCH   1  13
TORSDOF 20
ENDMDL
MODEL 9
REMARK VINA RESULT:    -1.531      4.567     11.129
REMARK INTER + INTRA:          -5.051
REMARK INTER:                  -3.912
REMARK INTRA:                  -1.139
REMARK UNBOUND:                -1.730
REMARK SMILES CCCCCCCCCCCCCCCCCCCCCC(=O)[O-]
REMARK SMILES IDX 12 1 11 2 10 3 9 4 8 5 7 6 6 7 5 8 4 9 3 10 2 11 1 12 13 13
REMARK SMILES IDX 14 14 15 15 16 16 17 17 18 18 19 19 20 20 21 21 22 22 23 23
REMARK SMILES IDX 24 24
REMARK H PARENT
REMARK Flexibility Score: inf
ROOT
ATOM      1  C   UNL     1     -43.352 -33.081  23.544  1.00  0.00     0.000 C 
ENDROOT
BRANCH   1   2
ATOM      2  C   UNL     1     -42.340 -32.651  24.616  1.00  0.00     0.000 C 
BRANCH   2   3
ATOM      3  C   UNL     1     -41.149 -31.875  24.030  1.00  0.00     0.000 C 
BRANCH   3   4
ATOM      4  C   UNL     1     -39.882 -32.001  24.890  1.00  0.00    -0.000 C 
BRANCH   4   5
ATOM      5  C   UNL     1     -38.747 -32.667  24.104  1.00  0.00    -0.000 C 
BRANCH   5   6
ATOM      6  C   UNL     1     -37.568 -33.020  25.026  1.00  0.00    -0.000 C 
BRANCH   6   7
ATOM      7  C   UNL     1     -38.003 -33.859  26.241  1.00  0.00    -0.000 C 
BRANCH   7   8
ATOM      8  C   UNL     1     -37.445 -33.310  27.565  1.00  0.00    -0.000 C 
BRANCH   8   9
ATOM      9  C   UNL     1     -38.126 -32.000  27.996  1.00  0.00    -0.000 C 
BRANCH   9  10
ATOM     10  C   UNL     1     -39.165 -32.149  29.125  1.00  0.00    -0.000 C 
BRANCH  10  11
ATOM     11  C   UNL     1     -40.302 -33.139  28.796  1.00  0.00    -0.003 C 
ATOM     12  C   UNL     1     -41.590 -32.431  28.379  1.00  0.00     0.004 C 
ENDBRANCH  10  11
ENDBRANCH   9  10
ENDBRANCH   8   9
ENDBRANCH   7   8
ENDBRANCH   6   7
ENDBRANCH   5   6
ENDBRANCH   4   5
ENDBRANCH   3   4
ENDBRANCH   2   3
ENDBRANCH   1   2
BRANCH   1  13
ATOM     13  C   UNL     1     -44.783 -33.054  24.102  1.00  0.00     0.000 C 
BRANCH  13  14
ATOM     14  C   UNL     1     -45.767 -33.875  23.253  1.00  0.00     0.000 C 
BRANCH  14  15
ATOM     15  C   UNL     1     -45.372 -33.909  21.765  1.00  0.00     0.000 C 
BRANCH  15  16
ATOM     16  C   UNL     1     -44.488 -35.125  21.422  1.00  0.00     0.000 C 
BRANCH  16  17
ATOM     17  C   UNL     1     -45.271 -36.439  21.268  1.00  0.00     0.000 C 
BRANCH  17  18
ATOM     18  C   UNL     1     -46.105 -36.494  19.979  1.00  0.00     0.000 C 
BRANCH  18  19
ATOM     19  C   UNL     1     -45.297 -35.981  18.781  1.00  0.00     0.000 C 
BRANCH  19  20
ATOM     20  C   UNL     1     -45.706 -36.695  17.485  1.00  0.00     0.006 C 
BRANCH  20  21
ATOM     21  C   UNL     1     -44.716 -37.815  17.140  1.00  0.00     0.053 C 
BRANCH  21  22
ATOM     22  C   UNL     1     -44.228 -37.696  15.728  1.00  0.00     0.041 C 
ATOM     23  O   UNL     1     -43.216 -38.349  15.350  1.00  0.00    -0.550 OA
ATOM     24  O   UNL     1     -44.917 -36.900  14.816  1.00  0.00    -0.550 OA
ENDBRANCH  21  22
ENDBRANCH  20  21
ENDBRANCH  19  20
ENDBRANCH  18  19
ENDBRANCH  17  18
ENDBRANCH  16  17
ENDBRANCH  15  16
ENDBRANCH  14  15
ENDBRANCH  13  14
ENDBRANCH   1  13
TORSDOF 20
ENDMDL
