MODEL 1
REMARK VINA RESULT:    -4.913      0.000      0.000
REMARK INTER + INTRA:          -5.056
REMARK INTER:                  -5.056
REMARK INTRA:                   0.000
REMARK UNBOUND:                 0.000
REMARK SMILES O=c1ccc2ccc(O)cc2o1
REMARK SMILES IDX 6 1 7 2 8 3 10 4 11 5 5 6 4 7 3 8 2 9 1 10 12 11 9 12
REMARK H PARENT 9 13
REMARK Flexibility Score: inf
ROOT
ATOM      1  C   UNL     1      12.231  16.806   8.108  1.00  0.00     0.016 A 
ATOM      2  C   UNL     1      11.170  16.597   8.995  1.00  0.00     0.047 A 
ATOM      3  C   UNL     1      11.396  16.582  10.377  1.00  0.00     0.119 A 
ATOM      4  C   UNL     1      12.693  16.776  10.877  1.00  0.00     0.094 A 
ATOM      5  C   UNL     1      13.760  16.985   9.997  1.00  0.00     0.142 A 
ATOM      6  C   UNL     1      13.528  17.000   8.603  1.00  0.00     0.018 A 
ATOM      7  C   UNL     1      14.615  17.212   7.748  1.00  0.00     0.019 A 
ATOM      8  C   UNL     1      15.885  17.401   8.292  1.00  0.00     0.094 A 
ATOM      9  C   UNL     1      16.041  17.372   9.683  1.00  0.00     0.336 A 
ATOM     10  O   UNL     1      17.179  17.541  10.192  1.00  0.00    -0.246 OA
ATOM     11  O   UNL     1      14.989  17.169  10.473  1.00  0.00    -0.423 OA
ENDROOT
BRANCH   3  12
ATOM     12  O   UNL     1      10.327  16.372  11.244  1.00  0.00    -0.508 OA
ATOM     13  H   UNL     1      10.474  16.134  12.219  1.00  0.00     0.293 HD
ENDBRANCH   3  12
TORSDOF 1
ENDMDL
MODEL 2
REMARK VINA RESULT:    -4.683      0.872      4.267
REMARK INTER + INTRA:          -4.819
REMARK INTER:                  -4.819
REMARK INTRA:                   0.000
REMARK UNBOUND:                 0.000
REMARK SMILES O=c1ccc2ccc(O)cc2o1
REMARK SMILES IDX 6 1 7 2 8 3 10 4 11 5 5 6 4 7 3 8 2 9 1 10 12 11 9 12
REMARK H PARENT 9 13
REMARK Flexibility Score: inf
ROOT
ATOM      1  C   UNL     1      14.983  17.058   7.364  1.00  0.00     0.016 A 
ATOM      2  C   UNL     1      16.313  17.190   7.778  1.00  0.00     0.047 A 
ATOM      3  C   UNL     1      16.619  17.331   9.137  1.00  0.00     0.119 A 
ATOM      4  C   UNL     1      15.589  17.340  10.090  1.00  0.00     0.094 A 
ATOM      5  C   UNL     1      14.257  17.209   9.684  1.00  0.00     0.142 A 
ATOM      6  C   UNL     1      13.951  17.067   8.312  1.00  0.00     0.018 A 
ATOM      7  C   UNL     1      12.610  16.938   7.938  1.00  0.00     0.019 A 
ATOM      8  C   UNL     1      11.621  16.953   8.921  1.00  0.00     0.094 A 
ATOM      9  C   UNL     1      11.998  17.098  10.261  1.00  0.00     0.336 A 
ATOM     10  O   UNL     1      11.120  17.114  11.162  1.00  0.00    -0.246 OA
ATOM     11  O   UNL     1      13.282  17.219  10.590  1.00  0.00    -0.423 OA
ENDROOT
BRANCH   3  12
ATOM     12  O   UNL     1      17.949  17.461   9.530  1.00  0.00    -0.508 OA
ATOM     13  H   UNL     1      18.362  18.370   9.710  1.00  0.00     0.293 HD
ENDBRANCH   3  12
TORSDOF 1
ENDMDL
MODEL 3
REMARK VINA RESULT:    -4.601      1.638      2.434
REMARK INTER + INTRA:          -4.735
REMARK INTER:                  -4.735
REMARK INTRA:                   0.000
REMARK UNBOUND:                 0.000
REMARK SMILES O=c1ccc2ccc(O)cc2o1
REMARK SMILES IDX 6 1 7 2 8 3 10 4 11 5 5 6 4 7 3 8 2 9 1 10 12 11 9 12
REMARK H PARENT 9 13
REMARK Flexibility Score: inf
ROOT
ATOM      1  C   UNL     1      13.542  17.485  11.930  1.00  0.00     0.016 A 
ATOM      2  C   UNL     1      12.208  17.184  12.224  1.00  0.00     0.047 A 
ATOM      3  C   UNL     1      11.331  16.791  11.206  1.00  0.00     0.119 A 
ATOM      4  C   UNL     1      11.790  16.697   9.884  1.00  0.00     0.094 A 
ATOM      5  C   UNL     1      13.123  16.995   9.580  1.00  0.00     0.142 A 
ATOM      6  C   UNL     1      14.005  17.393  10.610  1.00  0.00     0.018 A 
ATOM      7  C   UNL     1      15.332  17.685  10.276  1.00  0.00     0.019 A 
ATOM      8  C   UNL     1      15.741  17.576   8.948  1.00  0.00     0.094 A 
ATOM      9  C   UNL     1      14.813  17.178   7.980  1.00  0.00     0.336 A 
ATOM     10  O   UNL     1      15.164  17.074   6.776  1.00  0.00    -0.246 OA
ATOM     11  O   UNL     1      13.556  16.906   8.326  1.00  0.00    -0.423 OA
ENDROOT
BRANCH   3  12
ATOM     12  O   UNL     1      10.006  16.496  11.519  1.00  0.00    -0.508 OA
ATOM     13  H   UNL     1       9.658  16.565  12.468  1.00  0.00     0.293 HD
ENDBRANCH   3  12
TORSDOF 1
ENDMDL
MODEL 4
REMARK VINA RESULT:    -4.563      1.227      1.864
REMARK INTER + INTRA:          -4.696
REMARK INTER:                  -4.696
REMARK INTRA:                   0.000
REMARK UNBOUND:                 0.000
REMARK SMILES O=c1ccc2ccc(O)cc2o1
REMARK SMILES IDX 6 1 7 2 8 3 10 4 11 5 5 6 4 7 3 8 2 9 1 10 12 11 9 12
REMARK H PARENT 9 13
REMARK Flexibility Score: inf
ROOT
ATOM      1  C   UNL     1      14.427  17.267   7.444  1.00  0.00     0.016 A 
ATOM      2  C   UNL     1      13.109  17.117   7.886  1.00  0.00     0.047 A 
ATOM      3  C   UNL     1      12.827  17.036   9.255  1.00  0.00     0.119 A 
ATOM      4  C   UNL     1      13.870  17.104  10.190  1.00  0.00     0.094 A 
ATOM      5  C   UNL     1      15.192  17.253   9.757  1.00  0.00     0.142 A 
ATOM      6  C   UNL     1      15.473  17.335   8.375  1.00  0.00     0.018 A 
ATOM      7  C   UNL     1      16.805  17.484   7.972  1.00  0.00     0.019 A 
ATOM      8  C   UNL     1      17.807  17.547   8.939  1.00  0.00     0.094 A 
ATOM      9  C   UNL     1      17.456  17.459  10.290  1.00  0.00     0.336 A 
ATOM     10  O   UNL     1      18.347  17.514  11.177  1.00  0.00    -0.246 OA
ATOM     11  O   UNL     1      16.180  17.317  10.646  1.00  0.00    -0.423 OA
ENDROOT
BRANCH   3  12
ATOM     12  O   UNL     1      11.507  16.886   9.675  1.00  0.00    -0.508 OA
ATOM     13  H   UNL     1      11.162  16.003  10.033  1.00  0.00     0.293 HD
ENDBRANCH   3  12
TORSDOF 1
ENDMDL
MODEL 5
REMARK VINA RESULT:    -4.443      2.203      3.754
REMARK INTER + INTRA:          -4.573
REMARK INTER:                  -4.573
REMARK INTRA:                   0.000
REMARK UNBOUND:                 0.000
REMARK SMILES O=c1ccc2ccc(O)cc2o1
REMARK SMILES IDX 6 1 7 2 8 3 10 4 11 5 5 6 4 7 3 8 2 9 1 10 12 11 9 12
REMARK H PARENT 9 13
REMARK Flexibility Score: inf
ROOT
ATOM      1  C   UNL     1      16.271  18.072  10.968  1.00  0.00     0.016 A 
ATOM      2  C   UNL     1      16.021  18.079  12.344  1.00  0.00     0.047 A 
ATOM      3  C   UNL     1      14.758  17.726  12.835  1.00  0.00     0.119 A 
ATOM      4  C   UNL     1      13.738  17.362  11.944  1.00  0.00     0.094 A 
ATOM      5  C   UNL     1      13.979  17.352  10.566  1.00  0.00     0.142 A 
ATOM      6  C   UNL     1      15.254  17.710  10.075  1.00  0.00     0.018 A 
ATOM      7  C   UNL     1      15.465  17.691   8.692  1.00  0.00     0.019 A 
ATOM      8  C   UNL     1      14.420  17.322   7.846  1.00  0.00     0.094 A 
ATOM      9  C   UNL     1      13.183  16.981   8.404  1.00  0.00     0.336 A 
ATOM     10  O   UNL     1      12.228  16.645   7.657  1.00  0.00    -0.246 OA
ATOM     11  O   UNL     1      13.009  17.007   9.723  1.00  0.00    -0.423 OA
ENDROOT
BRANCH   3  12
ATOM     12  O   UNL     1      14.529  17.740  14.209  1.00  0.00    -0.508 OA
ATOM     13  H   UNL     1      14.171  16.925  14.694  1.00  0.00     0.293 HD
ENDBRANCH   3  12
TORSDOF 1
ENDMDL
MODEL 6
REMARK VINA RESULT:    -4.438      1.691      4.806
REMARK INTER + INTRA:          -4.568
REMARK INTER:                  -4.568
REMARK INTRA:                   0.000
REMARK UNBOUND:                 0.000
REMARK SMILES O=c1ccc2ccc(O)cc2o1
REMARK SMILES IDX 6 1 7 2 8 3 10 4 11 5 5 6 4 7 3 8 2 9 1 10 12 11 9 12
REMARK H PARENT 9 13
REMARK Flexibility Score: inf
ROOT
ATOM      1  C   UNL     1      15.414  17.684  10.604  1.00  0.00     0.016 A 
ATOM      2  C   UNL     1      16.613  17.891   9.916  1.00  0.00     0.047 A 
ATOM      3  C   UNL     1      16.682  17.674   8.534  1.00  0.00     0.119 A 
ATOM      4  C   UNL     1      15.543  17.247   7.835  1.00  0.00     0.094 A 
ATOM      5  C   UNL     1      14.339  17.037   8.516  1.00  0.00     0.142 A 
ATOM      6  C   UNL     1      14.274  17.257   9.910  1.00  0.00     0.018 A 
ATOM      7  C   UNL     1      13.056  17.039  10.563  1.00  0.00     0.019 A 
ATOM      8  C   UNL     1      11.951  16.614   9.825  1.00  0.00     0.094 A 
ATOM      9  C   UNL     1      12.090  16.416   8.447  1.00  0.00     0.336 A 
ATOM     10  O   UNL     1      11.104  16.034   7.765  1.00  0.00    -0.246 OA
ATOM     11  O   UNL     1      13.261  16.631   7.851  1.00  0.00    -0.423 OA
ENDROOT
BRANCH   3  12
ATOM     12  O   UNL     1      17.886  17.885   7.866  1.00  0.00    -0.508 OA
ATOM     13  H   UNL     1      17.933  18.445   7.022  1.00  0.00     0.293 HD
ENDBRANCH   3  12
TORSDOF 1
ENDMDL
MODEL 7
REMARK VINA RESULT:    -4.434      2.876      4.118
REMARK INTER + INTRA:          -4.564
REMARK INTER:                  -4.564
REMARK INTRA:                   0.000
REMARK UNBOUND:                 0.000
REMARK SMILES O=c1ccc2ccc(O)cc2o1
REMARK SMILES IDX 6 1 7 2 8 3 10 4 11 5 5 6 4 7 3 8 2 9 1 10 12 11 9 12
REMARK H PARENT 9 13
REMARK Flexibility Score: inf
ROOT
ATOM      1  C   UNL     1      16.956  16.006   7.787  1.00  0.00     0.016 A 
ATOM      2  C   UNL     1      15.676  16.517   7.550  1.00  0.00     0.047 A 
ATOM      3  C   UNL     1      15.133  17.487   8.401  1.00  0.00     0.119 A 
ATOM      4  C   UNL     1      15.875  17.949   9.498  1.00  0.00     0.094 A 
ATOM      5  C   UNL     1      17.157  17.443   9.743  1.00  0.00     0.142 A 
ATOM      6  C   UNL     1      17.700  16.464   8.882  1.00  0.00     0.018 A 
ATOM      7  C   UNL     1      18.984  15.978   9.152  1.00  0.00     0.019 A 
ATOM      8  C   UNL     1      19.683  16.469  10.254  1.00  0.00     0.094 A 
ATOM      9  C   UNL     1      19.081  17.437  11.064  1.00  0.00     0.336 A 
ATOM     10  O   UNL     1      19.696  17.892  12.063  1.00  0.00    -0.246 OA
ATOM     11  O   UNL     1      17.858  17.883  10.784  1.00  0.00    -0.423 OA
ENDROOT
BRANCH   3  12
ATOM     12  O   UNL     1      13.857  17.983   8.149  1.00  0.00    -0.508 OA
ATOM     13  H   UNL     1      13.098  17.853   8.809  1.00  0.00     0.293 HD
ENDBRANCH   3  12
TORSDOF 1
ENDMDL
MODEL 8
REMARK VINA RESULT:    -4.397      2.050      3.158
REMARK INTER + INTRA:          -4.526
REMARK INTER:                  -4.526
REMARK INTRA:                   0.000
REMARK UNBOUND:                 0.000
REMARK SMILES O=c1ccc2ccc(O)cc2o1
REMARK SMILES IDX 6 1 7 2 8 3 10 4 11 5 5 6 4 7 3 8 2 9 1 10 12 11 9 12
REMARK H PARENT 9 13
REMARK Flexibility Score: inf
ROOT
ATOM      1  C   UNL     1      15.603  17.641   8.452  1.00  0.00     0.016 A 
ATOM      2  C   UNL     1      14.525  17.284   7.636  1.00  0.00     0.047 A 
ATOM      3  C   UNL     1      13.281  16.979   8.201  1.00  0.00     0.119 A 
ATOM      4  C   UNL     1      13.113  17.030   9.593  1.00  0.00     0.094 A 
ATOM      5  C   UNL     1      14.186  17.386  10.417  1.00  0.00     0.142 A 
ATOM      6  C   UNL     1      15.440  17.693   9.843  1.00  0.00     0.018 A 
ATOM      7  C   UNL     1      16.494  18.046  10.693  1.00  0.00     0.019 A 
ATOM      8  C   UNL     1      16.278  18.083  12.070  1.00  0.00     0.094 A 
ATOM      9  C   UNL     1      15.009  17.765  12.568  1.00  0.00     0.336 A 
ATOM     10  O   UNL     1      14.796  17.793  13.807  1.00  0.00    -0.246 OA
ATOM     11  O   UNL     1      14.024  17.433  11.737  1.00  0.00    -0.423 OA
ENDROOT
BRANCH   3  12
ATOM     12  O   UNL     1      12.220  16.625   7.371  1.00  0.00    -0.508 OA
ATOM     13  H   UNL     1      12.368  16.102   6.516  1.00  0.00     0.293 HD
ENDBRANCH   3  12
TORSDOF 1
ENDMDL
MODEL 9
REMARK VINA RESULT:    -4.268      2.083      3.357
REMARK INTER + INTRA:          -4.393
REMARK INTER:                  -4.393
REMARK INTRA:                   0.000
REMARK UNBOUND:                 0.000
REMARK SMILES O=c1ccc2ccc(O)cc2o1
REMARK SMILES IDX 6 1 7 2 8 3 10 4 11 5 5 6 4 7 3 8 2 9 1 10 12 11 9 12
REMARK H PARENT 9 13
REMARK Flexibility Score: inf
ROOT
ATOM      1  C   UNL     1      14.507  16.694  10.720  1.00  0.00     0.016 A 
ATOM      2  C   UNL     1      13.527  16.966   9.758  1.00  0.00     0.047 A 
ATOM      3  C   UNL     1      13.896  17.356   8.465  1.00  0.00     0.119 A 
ATOM      4  C   UNL     1      15.252  17.476   8.129  1.00  0.00     0.094 A 
ATOM      5  C   UNL     1      16.238  17.206   9.085  1.00  0.00     0.142 A 
ATOM      6  C   UNL     1      15.863  16.813  10.389  1.00  0.00     0.018 A 
ATOM      7  C   UNL     1      16.872  16.550  11.322  1.00  0.00     0.019 A 
ATOM      8  C   UNL     1      18.206  16.682  10.941  1.00  0.00     0.094 A 
ATOM      9  C   UNL     1      18.504  17.076   9.632  1.00  0.00     0.336 A 
ATOM     10  O   UNL     1      19.702  17.201   9.269  1.00  0.00    -0.246 OA
ATOM     11  O   UNL     1      17.524  17.320   8.764  1.00  0.00    -0.423 OA
ENDROOT
BRANCH   3  12
ATOM     12  O   UNL     1      12.906  17.623   7.522  1.00  0.00    -0.508 OA
ATOM     13  H   UNL     1      12.057  18.118   7.771  1.00  0.00     0.293 HD
ENDBRANCH   3  12
TORSDOF 1
ENDMDL
