MODEL 1
REMARK VINA RESULT:    -5.352      0.000      0.000
REMARK INTER + INTRA:          -6.442
REMARK INTER:                  -6.291
REMARK INTRA:                  -0.151
REMARK UNBOUND:                -0.151
REMARK SMILES O=C([O-])C=Cc1ccc(O)c(O)c1
REMARK SMILES IDX 6 1 13 2 7 3 11 4 8 5 9 6 5 7 4 8 2 9 1 10 3 11 12 12 10 14
REMARK H PARENT 12 13 10 15
REMARK Flexibility Score: inf
ROOT
ATOM      1  C   UNL     1      -4.963  37.747  20.465  1.00  0.00    -0.022 A 
ATOM      2  C   UNL     1      -5.550  37.336  21.678  1.00  0.00     0.058 A 
ATOM      3  C   UNL     1      -5.573  38.777  19.734  1.00  0.00     0.012 A 
ATOM      4  C   UNL     1      -6.707  37.957  22.167  1.00  0.00     0.157 A 
ATOM      5  C   UNL     1      -6.724  39.402  20.215  1.00  0.00     0.051 A 
ATOM      6  C   UNL     1      -7.298  39.008  21.428  1.00  0.00     0.157 A 
ENDROOT
BRANCH   1   7
ATOM      7  C   UNL     1      -3.746  37.106  19.909  1.00  0.00     0.010 C 
ATOM      8  C   UNL     1      -3.188  37.456  18.741  1.00  0.00     0.025 C 
BRANCH   8   9
ATOM      9  C   UNL     1      -1.986  36.789  18.213  1.00  0.00     0.064 C 
ATOM     10  O   UNL     1      -2.034  35.608  17.776  1.00  0.00    -0.545 OA
ATOM     11  O   UNL     1      -0.777  37.472  18.198  1.00  0.00    -0.545 OA
ENDBRANCH   8   9
ENDBRANCH   1   7
BRANCH   4  12
ATOM     12  O   UNL     1      -7.232  37.497  23.375  1.00  0.00    -0.504 OA
ATOM     13  H   UNL     1      -7.342  38.071  24.199  1.00  0.00     0.293 HD
ENDBRANCH   4  12
BRANCH   6  14
ATOM     14  O   UNL     1      -8.446  39.680  21.856  1.00  0.00    -0.504 OA
ATOM     15  H   UNL     1      -9.360  39.551  21.447  1.00  0.00     0.293 HD
ENDBRANCH   6  14
TORSDOF 4
ENDMDL
MODEL 2
REMARK VINA RESULT:    -5.347      1.709      2.646
REMARK INTER + INTRA:          -6.436
REMARK INTER:                  -6.297
REMARK INTRA:                  -0.139
REMARK UNBOUND:                -0.151
REMARK SMILES O=C([O-])C=Cc1ccc(O)c(O)c1
REMARK SMILES IDX 6 1 13 2 7 3 11 4 8 5 9 6 5 7 4 8 2 9 1 10 3 11 12 12 10 14
REMARK H PARENT 12 13 10 15
REMARK Flexibility Score: inf
ROOT
ATOM      1  C   UNL     1      -6.089  37.920  19.693  1.00  0.00    -0.022 A 
ATOM      2  C   UNL     1      -7.059  38.855  20.102  1.00  0.00     0.058 A 
ATOM      3  C   UNL     1      -5.502  37.089  20.658  1.00  0.00     0.012 A 
ATOM      4  C   UNL     1      -7.457  38.942  21.442  1.00  0.00     0.157 A 
ATOM      5  C   UNL     1      -5.894  37.168  21.995  1.00  0.00     0.051 A 
ATOM      6  C   UNL     1      -6.871  38.084  22.401  1.00  0.00     0.157 A 
ENDROOT
BRANCH   1   7
ATOM      7  C   UNL     1      -5.632  37.805  18.285  1.00  0.00     0.010 C 
ATOM      8  C   UNL     1      -4.342  37.773  17.921  1.00  0.00     0.025 C 
BRANCH   8   9
ATOM      9  C   UNL     1      -3.925  37.671  16.513  1.00  0.00     0.064 C 
ATOM     10  O   UNL     1      -3.530  38.683  15.875  1.00  0.00    -0.545 OA
ATOM     11  O   UNL     1      -3.971  36.439  15.875  1.00  0.00    -0.545 OA
ENDBRANCH   8   9
ENDBRANCH   1   7
BRANCH   4  12
ATOM     12  O   UNL     1      -8.424  39.893  21.774  1.00  0.00    -0.504 OA
ATOM     13  H   UNL     1      -8.683  40.667  21.178  1.00  0.00     0.293 HD
ENDBRANCH   4  12
BRANCH   6  14
ATOM     14  O   UNL     1      -7.223  38.107  23.752  1.00  0.00    -0.504 OA
ATOM     15  H   UNL     1      -8.159  37.946  24.094  1.00  0.00     0.293 HD
ENDBRANCH   6  14
TORSDOF 4
ENDMDL
MODEL 3
REMARK VINA RESULT:    -4.796     16.869     18.458
REMARK INTER + INTRA:          -5.789
REMARK INTER:                  -5.651
REMARK INTRA:                  -0.138
REMARK UNBOUND:                -0.151
REMARK SMILES O=C([O-])C=Cc1ccc(O)c(O)c1
REMARK SMILES IDX 6 1 13 2 7 3 11 4 8 5 9 6 5 7 4 8 2 9 1 10 3 11 12 12 10 14
REMARK H PARENT 12 13 10 15
REMARK Flexibility Score: inf
ROOT
ATOM      1  C   UNL     1      -6.371  25.511  33.872  1.00  0.00    -0.022 A 
ATOM      2  C   UNL     1      -7.379  26.099  34.660  1.00  0.00     0.058 A 
ATOM      3  C   UNL     1      -5.405  26.340  33.282  1.00  0.00     0.012 A 
ATOM      4  C   UNL     1      -7.410  27.482  34.879  1.00  0.00     0.157 A 
ATOM      5  C   UNL     1      -5.427  27.719  33.497  1.00  0.00     0.051 A 
ATOM      6  C   UNL     1      -6.417  28.302  34.294  1.00  0.00     0.157 A 
ENDROOT
BRANCH   1   7
ATOM      7  C   UNL     1      -6.312  24.052  33.607  1.00  0.00     0.010 C 
ATOM      8  C   UNL     1      -6.373  23.515  32.380  1.00  0.00     0.025 C 
BRANCH   8   9
ATOM      9  C   UNL     1      -6.324  22.061  32.155  1.00  0.00     0.064 C 
ATOM     10  O   UNL     1      -6.571  21.248  33.085  1.00  0.00    -0.545 OA
ATOM     11  O   UNL     1      -5.997  21.576  30.896  1.00  0.00    -0.545 OA
ENDBRANCH   8   9
ENDBRANCH   1   7
BRANCH   4  12
ATOM     12  O   UNL     1      -8.439  27.994  35.671  1.00  0.00    -0.504 OA
ATOM     13  H   UNL     1      -9.395  28.093  35.360  1.00  0.00     0.293 HD
ENDBRANCH   4  12
BRANCH   6  14
ATOM     14  O   UNL     1      -6.378  29.687  34.475  1.00  0.00    -0.504 OA
ATOM     15  H   UNL     1      -6.016  30.334  33.790  1.00  0.00     0.293 HD
ENDBRANCH   6  14
TORSDOF 4
ENDMDL
MODEL 4
REMARK VINA RESULT:    -4.774      0.949      2.020
REMARK INTER + INTRA:          -5.762
REMARK INTER:                  -5.610
REMARK INTRA:                  -0.152
REMARK UNBOUND:                -0.151
REMARK SMILES O=C([O-])C=Cc1ccc(O)c(O)c1
REMARK SMILES IDX 6 1 13 2 7 3 11 4 8 5 9 6 5 7 4 8 2 9 1 10 3 11 12 12 10 14
REMARK H PARENT 12 13 10 15
REMARK Flexibility Score: inf
ROOT
ATOM      1  C   UNL     1      -4.711  37.620  19.907  1.00  0.00    -0.022 A 
ATOM      2  C   UNL     1      -5.902  38.371  19.897  1.00  0.00     0.058 A 
ATOM      3  C   UNL     1      -4.369  36.912  21.068  1.00  0.00     0.012 A 
ATOM      4  C   UNL     1      -6.750  38.396  21.013  1.00  0.00     0.157 A 
ATOM      5  C   UNL     1      -5.208  36.931  22.184  1.00  0.00     0.051 A 
ATOM      6  C   UNL     1      -6.400  37.662  22.169  1.00  0.00     0.157 A 
ENDROOT
BRANCH   1   7
ATOM      7  C   UNL     1      -3.783  37.578  18.750  1.00  0.00     0.010 C 
ATOM      8  C   UNL     1      -2.567  37.015  18.792  1.00  0.00     0.025 C 
BRANCH   8   9
ATOM      9  C   UNL     1      -1.666  37.003  17.627  1.00  0.00     0.064 C 
ATOM     10  O   UNL     1      -0.897  36.030  17.408  1.00  0.00    -0.545 OA
ATOM     11  O   UNL     1      -1.661  38.085  16.757  1.00  0.00    -0.545 OA
ENDBRANCH   8   9
ENDBRANCH   1   7
BRANCH   4  12
ATOM     12  O   UNL     1      -7.913  39.163  20.930  1.00  0.00    -0.504 OA
ATOM     13  H   UNL     1      -8.480  39.242  20.098  1.00  0.00     0.293 HD
ENDBRANCH   4  12
BRANCH   6  14
ATOM     14  O   UNL     1      -7.198  37.632  23.315  1.00  0.00    -0.504 OA
ATOM     15  H   UNL     1      -7.582  36.788  23.713  1.00  0.00     0.293 HD
ENDBRANCH   6  14
TORSDOF 4
ENDMDL
MODEL 5
REMARK VINA RESULT:    -4.675     12.500     14.555
REMARK INTER + INTRA:          -5.646
REMARK INTER:                  -5.521
REMARK INTRA:                  -0.124
REMARK UNBOUND:                -0.151
REMARK SMILES O=C([O-])C=Cc1ccc(O)c(O)c1
REMARK SMILES IDX 6 1 13 2 7 3 11 4 8 5 9 6 5 7 4 8 2 9 1 10 3 11 12 12 10 14
REMARK H PARENT 12 13 10 15
REMARK Flexibility Score: inf
ROOT
ATOM      1  C   UNL     1      -5.213  35.668  34.628  1.00  0.00    -0.022 A 
ATOM      2  C   UNL     1      -4.867  34.325  34.386  1.00  0.00     0.058 A 
ATOM      3  C   UNL     1      -6.388  35.944  35.343  1.00  0.00     0.012 A 
ATOM      4  C   UNL     1      -5.660  33.275  34.869  1.00  0.00     0.157 A 
ATOM      5  C   UNL     1      -7.184  34.905  35.829  1.00  0.00     0.051 A 
ATOM      6  C   UNL     1      -6.831  33.570  35.605  1.00  0.00     0.157 A 
ENDROOT
BRANCH   1   7
ATOM      7  C   UNL     1      -4.406  36.805  34.123  1.00  0.00     0.010 C 
ATOM      8  C   UNL     1      -3.808  36.820  32.924  1.00  0.00     0.025 C 
BRANCH   8   9
ATOM      9  C   UNL     1      -3.002  37.962  32.460  1.00  0.00     0.064 C 
ATOM     10  O   UNL     1      -2.892  39.007  33.155  1.00  0.00    -0.545 OA
ATOM     11  O   UNL     1      -2.355  37.887  31.234  1.00  0.00    -0.545 OA
ENDBRANCH   8   9
ENDBRANCH   1   7
BRANCH   4  12
ATOM     12  O   UNL     1      -5.254  31.970  34.590  1.00  0.00    -0.504 OA
ATOM     13  H   UNL     1      -5.632  31.408  33.839  1.00  0.00     0.293 HD
ENDBRANCH   4  12
BRANCH   6  14
ATOM     14  O   UNL     1      -7.666  32.578  36.125  1.00  0.00    -0.504 OA
ATOM     15  H   UNL     1      -7.376  31.900  36.814  1.00  0.00     0.293 HD
ENDBRANCH   6  14
TORSDOF 4
ENDMDL
MODEL 6
REMARK VINA RESULT:    -4.554      2.246      2.775
REMARK INTER + INTRA:          -5.504
REMARK INTER:                  -5.375
REMARK INTRA:                  -0.129
REMARK UNBOUND:                -0.151
REMARK SMILES O=C([O-])C=Cc1ccc(O)c(O)c1
REMARK SMILES IDX 6 1 13 2 7 3 11 4 8 5 9 6 5 7 4 8 2 9 1 10 3 11 12 12 10 14
REMARK H PARENT 12 13 10 15
REMARK Flexibility Score: inf
ROOT
ATOM      1  C   UNL     1      -4.675  38.190  19.539  1.00  0.00    -0.022 A 
ATOM      2  C   UNL     1      -4.088  37.273  20.431  1.00  0.00     0.058 A 
ATOM      3  C   UNL     1      -5.967  38.665  19.811  1.00  0.00     0.012 A 
ATOM      4  C   UNL     1      -4.763  36.856  21.586  1.00  0.00     0.157 A 
ATOM      5  C   UNL     1      -6.645  38.256  20.960  1.00  0.00     0.051 A 
ATOM      6  C   UNL     1      -6.057  37.359  21.857  1.00  0.00     0.157 A 
ENDROOT
BRANCH   1   7
ATOM      7  C   UNL     1      -3.998  38.646  18.300  1.00  0.00     0.010 C 
ATOM      8  C   UNL     1      -3.187  39.712  18.244  1.00  0.00     0.025 C 
BRANCH   8   9
ATOM      9  C   UNL     1      -2.541  40.144  16.994  1.00  0.00     0.064 C 
ATOM     10  O   UNL     1      -2.935  39.718  15.875  1.00  0.00    -0.545 OA
ATOM     11  O   UNL     1      -1.477  41.034  17.047  1.00  0.00    -0.545 OA
ENDBRANCH   8   9
ENDBRANCH   1   7
BRANCH   4  12
ATOM     12  O   UNL     1      -4.119  35.944  22.424  1.00  0.00    -0.504 OA
ATOM     13  H   UNL     1      -3.967  34.972  22.191  1.00  0.00     0.293 HD
ENDBRANCH   4  12
BRANCH   6  14
ATOM     14  O   UNL     1      -6.787  36.996  22.991  1.00  0.00    -0.504 OA
ATOM     15  H   UNL     1      -7.286  36.124  23.085  1.00  0.00     0.293 HD
ENDBRANCH   6  14
TORSDOF 4
ENDMDL
MODEL 7
REMARK VINA RESULT:    -4.533     10.657     13.093
REMARK INTER + INTRA:          -5.480
REMARK INTER:                  -5.356
REMARK INTRA:                  -0.124
REMARK UNBOUND:                -0.151
REMARK SMILES O=C([O-])C=Cc1ccc(O)c(O)c1
REMARK SMILES IDX 6 1 13 2 7 3 11 4 8 5 9 6 5 7 4 8 2 9 1 10 3 11 12 12 10 14
REMARK H PARENT 12 13 10 15
REMARK Flexibility Score: inf
ROOT
ATOM      1  C   UNL     1      -3.745  36.690  32.310  1.00  0.00    -0.022 A 
ATOM      2  C   UNL     1      -3.763  36.202  30.989  1.00  0.00     0.058 A 
ATOM      3  C   UNL     1      -3.007  37.849  32.592  1.00  0.00     0.012 A 
ATOM      4  C   UNL     1      -3.080  36.869  29.963  1.00  0.00     0.157 A 
ATOM      5  C   UNL     1      -2.325  38.521  31.576  1.00  0.00     0.051 A 
ATOM      6  C   UNL     1      -2.357  38.048  30.260  1.00  0.00     0.157 A 
ENDROOT
BRANCH   1   7
ATOM      7  C   UNL     1      -4.445  36.006  33.425  1.00  0.00     0.010 C 
ATOM      8  C   UNL     1      -4.517  34.673  33.552  1.00  0.00     0.025 C 
BRANCH   8   9
ATOM      9  C   UNL     1      -5.232  34.027  34.666  1.00  0.00     0.064 C 
ATOM     10  O   UNL     1      -5.393  32.778  34.700  1.00  0.00    -0.545 OA
ATOM     11  O   UNL     1      -5.739  34.808  35.696  1.00  0.00    -0.545 OA
ENDBRANCH   8   9
ENDBRANCH   1   7
BRANCH   4  12
ATOM     12  O   UNL     1      -3.143  36.327  28.679  1.00  0.00    -0.504 OA
ATOM     13  H   UNL     1      -3.302  35.348  28.486  1.00  0.00     0.293 HD
ENDBRANCH   4  12
BRANCH   6  14
ATOM     14  O   UNL     1      -1.659  38.771  29.290  1.00  0.00    -0.504 OA
ATOM     15  H   UNL     1      -0.787  39.248  29.461  1.00  0.00     0.293 HD
ENDBRANCH   6  14
TORSDOF 4
ENDMDL
MODEL 8
REMARK VINA RESULT:    -4.421     10.658     12.259
REMARK INTER + INTRA:          -5.347
REMARK INTER:                  -5.201
REMARK INTRA:                  -0.146
REMARK UNBOUND:                -0.151
REMARK SMILES O=C([O-])C=Cc1ccc(O)c(O)c1
REMARK SMILES IDX 6 1 13 2 7 3 11 4 8 5 9 6 5 7 4 8 2 9 1 10 3 11 12 12 10 14
REMARK H PARENT 12 13 10 15
REMARK Flexibility Score: inf
ROOT
ATOM      1  C   UNL     1      -3.375  37.061  32.069  1.00  0.00    -0.022 A 
ATOM      2  C   UNL     1      -3.795  37.135  33.410  1.00  0.00     0.058 A 
ATOM      3  C   UNL     1      -3.534  35.851  31.377  1.00  0.00     0.012 A 
ATOM      4  C   UNL     1      -4.387  36.034  34.044  1.00  0.00     0.157 A 
ATOM      5  C   UNL     1      -4.124  34.750  32.000  1.00  0.00     0.051 A 
ATOM      6  C   UNL     1      -4.559  34.828  33.327  1.00  0.00     0.157 A 
ENDROOT
BRANCH   1   7
ATOM      7  C   UNL     1      -2.734  38.200  31.367  1.00  0.00     0.010 C 
ATOM      8  C   UNL     1      -1.799  38.058  30.416  1.00  0.00     0.025 C 
BRANCH   8   9
ATOM      9  C   UNL     1      -1.175  39.213  29.750  1.00  0.00     0.064 C 
ATOM     10  O   UNL     1      -1.854  40.004  29.042  1.00  0.00    -0.545 OA
ATOM     11  O   UNL     1       0.188  39.434  29.902  1.00  0.00    -0.545 OA
ENDBRANCH   8   9
ENDBRANCH   1   7
BRANCH   4  12
ATOM     12  O   UNL     1      -4.779  36.182  35.375  1.00  0.00    -0.504 OA
ATOM     13  H   UNL     1      -5.391  36.915  35.707  1.00  0.00     0.293 HD
ENDBRANCH   4  12
BRANCH   6  14
ATOM     14  O   UNL     1      -5.148  33.692  33.889  1.00  0.00    -0.504 OA
ATOM     15  H   UNL     1      -4.750  32.766  33.836  1.00  0.00     0.293 HD
ENDBRANCH   6  14
TORSDOF 4
ENDMDL
MODEL 9
REMARK VINA RESULT:    -4.389     10.826     12.627
REMARK INTER + INTRA:          -5.310
REMARK INTER:                  -5.181
REMARK INTRA:                  -0.128
REMARK UNBOUND:                -0.151
REMARK SMILES O=C([O-])C=Cc1ccc(O)c(O)c1
REMARK SMILES IDX 6 1 13 2 7 3 11 4 8 5 9 6 5 7 4 8 2 9 1 10 3 11 12 12 10 14
REMARK H PARENT 12 13 10 15
REMARK Flexibility Score: inf
ROOT
ATOM      1  C   UNL     1      -0.613  39.497  30.845  1.00  0.00    -0.022 A 
ATOM      2  C   UNL     1       0.234  39.511  29.720  1.00  0.00     0.058 A 
ATOM      3  C   UNL     1      -0.130  40.004  32.060  1.00  0.00     0.012 A 
ATOM      4  C   UNL     1       1.528  40.044  29.796  1.00  0.00     0.157 A 
ATOM      5  C   UNL     1       1.157  40.539  32.145  1.00  0.00     0.051 A 
ATOM      6  C   UNL     1       1.993  40.570  31.024  1.00  0.00     0.157 A 
ENDROOT
BRANCH   1   7
ATOM      7  C   UNL     1      -1.984  38.931  30.807  1.00  0.00     0.010 C 
ATOM      8  C   UNL     1      -2.251  37.621  30.902  1.00  0.00     0.025 C 
BRANCH   8   9
ATOM      9  C   UNL     1      -3.624  37.093  30.848  1.00  0.00     0.064 C 
ATOM     10  O   UNL     1      -4.599  37.765  31.277  1.00  0.00    -0.545 OA
ATOM     11  O   UNL     1      -3.849  35.830  30.315  1.00  0.00    -0.545 OA
ENDBRANCH   8   9
ENDBRANCH   1   7
BRANCH   4  12
ATOM     12  O   UNL     1       2.310  40.024  28.641  1.00  0.00    -0.504 OA
ATOM     13  H   UNL     1       2.159  40.628  27.845  1.00  0.00     0.293 HD
ENDBRANCH   4  12
BRANCH   6  14
ATOM     14  O   UNL     1       3.266  41.125  31.174  1.00  0.00    -0.504 OA
ATOM     15  H   UNL     1       3.949  40.796  31.840  1.00  0.00     0.293 HD
ENDBRANCH   6  14
TORSDOF 4
ENDMDL
