MODEL 1
REMARK VINA RESULT:     1.043      0.000      0.000
REMARK INTER + INTRA:           0.953
REMARK INTER:                   1.226
REMARK INTRA:                  -0.273
REMARK UNBOUND:                -0.273
REMARK SMILES O=c1cc(-c2ccc(O)c(O)c2)oc2cc(O)cc(O)c12
REMARK SMILES IDX 4 1 3 2 2 3 1 4 21 5 19 6 18 7 16 8 15 9 14 10 13 11 5 12
REMARK SMILES IDX 6 13 7 14 8 15 12 16 10 17 9 18 11 20 20 22 17 24
REMARK H PARENT 9 19 11 21 20 23 17 25
REMARK Flexibility Score: inf
ROOT
ATOM      1  C   UNL     1      19.656  11.303  -8.922  1.00  0.00     0.138 A 
ATOM      2  C   UNL     1      18.328  10.993  -9.248  1.00  0.00     0.100 A 
ATOM      3  C   UNL     1      17.502  11.978  -9.790  1.00  0.00     0.197 A 
ATOM      4  O   UNL     1      16.301  11.683 -10.021  1.00  0.00    -0.289 OA
ATOM      5  C   UNL     1      18.019  13.272 -10.039  1.00  0.00     0.107 A 
ATOM      6  C   UNL     1      17.280  14.347 -10.620  1.00  0.00     0.134 A 
ATOM      7  C   UNL     1      17.871  15.612 -10.726  1.00  0.00     0.093 A 
ATOM      8  C   UNL     1      19.189  15.828 -10.328  1.00  0.00     0.123 A 
ATOM      9  C   UNL     1      19.937  14.773  -9.806  1.00  0.00     0.094 A 
ATOM     10  C   UNL     1      19.366  13.508  -9.654  1.00  0.00     0.146 A 
ATOM     11  O   UNL     1      20.108  12.534  -9.136  1.00  0.00    -0.456 OA
ENDROOT
BRANCH   1  12
ATOM     12  C   UNL     1      20.580  10.294  -8.346  1.00  0.00     0.021 A 
ATOM     13  C   UNL     1      21.874  10.093  -8.866  1.00  0.00     0.016 A 
ATOM     14  C   UNL     1      22.718   9.128  -8.310  1.00  0.00     0.051 A 
ATOM     15  C   UNL     1      22.284   8.344  -7.234  1.00  0.00     0.157 A 
ATOM     16  C   UNL     1      20.149   9.492  -7.275  1.00  0.00     0.062 A 
ATOM     17  C   UNL     1      20.997   8.525  -6.718  1.00  0.00     0.158 A 
BRANCH  15  18
ATOM     18  O   UNL     1      23.125   7.382  -6.678  1.00  0.00    -0.504 OA
ATOM     19  H   UNL     1      23.997   7.635  -6.228  1.00  0.00     0.293 HD
ENDBRANCH  15  18
BRANCH  17  20
ATOM     20  O   UNL     1      20.565   7.740  -5.649  1.00  0.00    -0.504 OA
ATOM     21  H   UNL     1      19.581   7.573  -5.476  1.00  0.00     0.293 HD
ENDBRANCH  17  20
ENDBRANCH   1  12
BRANCH   6  22
ATOM     22  O   UNL     1      15.981  14.223 -11.125  1.00  0.00    -0.507 OA
ATOM     23  H   UNL     1      15.742  14.174 -12.103  1.00  0.00     0.293 HD
ENDBRANCH   6  22
BRANCH   8  24
ATOM     24  O   UNL     1      19.748  17.097 -10.463  1.00  0.00    -0.508 OA
ATOM     25  H   UNL     1      19.702  17.779  -9.715  1.00  0.00     0.293 HD
ENDBRANCH   8  24
TORSDOF 5
ENDMDL
MODEL 2
REMARK VINA RESULT:     2.244      2.532      4.602
REMARK INTER + INTRA:           2.364
REMARK INTER:                   2.627
REMARK INTRA:                  -0.263
REMARK UNBOUND:                -0.273
REMARK SMILES O=c1cc(-c2ccc(O)c(O)c2)oc2cc(O)cc(O)c12
REMARK SMILES IDX 4 1 3 2 2 3 1 4 21 5 19 6 18 7 16 8 15 9 14 10 13 11 5 12
REMARK SMILES IDX 6 13 7 14 8 15 12 16 10 17 9 18 11 20 20 22 17 24
REMARK H PARENT 9 19 11 21 20 23 17 25
REMARK Flexibility Score: inf
ROOT
ATOM      1  C   UNL     1      20.680   9.440  -6.418  1.00  0.00     0.138 A 
ATOM      2  C   UNL     1      21.773   9.906  -7.162  1.00  0.00     0.100 A 
ATOM      3  C   UNL     1      21.552  10.578  -8.365  1.00  0.00     0.197 A 
ATOM      4  O   UNL     1      22.555  10.935  -9.036  1.00  0.00    -0.289 OA
ATOM      5  C   UNL     1      20.228  10.814  -8.807  1.00  0.00     0.107 A 
ATOM      6  C   UNL     1      19.882  11.517 -10.001  1.00  0.00     0.134 A 
ATOM      7  C   UNL     1      18.538  11.602 -10.385  1.00  0.00     0.093 A 
ATOM      8  C   UNL     1      17.526  11.062  -9.594  1.00  0.00     0.123 A 
ATOM      9  C   UNL     1      17.849  10.416  -8.400  1.00  0.00     0.094 A 
ATOM     10  C   UNL     1      19.182  10.284  -8.006  1.00  0.00     0.146 A 
ATOM     11  O   UNL     1      19.449   9.646  -6.870  1.00  0.00    -0.456 OA
ENDROOT
BRANCH   1  12
ATOM     12  C   UNL     1      20.856   8.722  -5.129  1.00  0.00     0.021 A 
ATOM     13  C   UNL     1      20.876   9.406  -3.897  1.00  0.00     0.016 A 
ATOM     14  C   UNL     1      21.053   8.706  -2.702  1.00  0.00     0.051 A 
ATOM     15  C   UNL     1      21.220   7.316  -2.715  1.00  0.00     0.157 A 
ATOM     16  C   UNL     1      21.039   7.328  -5.133  1.00  0.00     0.062 A 
ATOM     17  C   UNL     1      21.216   6.626  -3.932  1.00  0.00     0.158 A 
BRANCH  15  18
ATOM     18  O   UNL     1      21.396   6.615  -1.523  1.00  0.00    -0.504 OA
ATOM     19  H   UNL     1      20.610   6.360  -0.937  1.00  0.00     0.293 HD
ENDBRANCH  15  18
BRANCH  17  20
ATOM     20  O   UNL     1      21.387   5.243  -3.943  1.00  0.00    -0.504 OA
ATOM     21  H   UNL     1      20.858   4.638  -3.326  1.00  0.00     0.293 HD
ENDBRANCH  17  20
ENDBRANCH   1  12
BRANCH   6  22
ATOM     22  O   UNL     1      20.807  12.165 -10.826  1.00  0.00    -0.507 OA
ATOM     23  H   UNL     1      21.770  12.344 -10.587  1.00  0.00     0.293 HD
ENDBRANCH   6  22
BRANCH   8  24
ATOM     24  O   UNL     1      16.198  11.179 -10.001  1.00  0.00    -0.508 OA
ATOM     25  H   UNL     1      15.921  11.837 -10.720  1.00  0.00     0.293 HD
ENDBRANCH   8  24
TORSDOF 5
ENDMDL
MODEL 3
REMARK VINA RESULT:     2.396      2.503      4.593
REMARK INTER + INTRA:           2.543
REMARK INTER:                   2.806
REMARK INTRA:                  -0.263
REMARK UNBOUND:                -0.273
REMARK SMILES O=c1cc(-c2ccc(O)c(O)c2)oc2cc(O)cc(O)c12
REMARK SMILES IDX 4 1 3 2 2 3 1 4 21 5 19 6 18 7 16 8 15 9 14 10 13 11 5 12
REMARK SMILES IDX 6 13 7 14 8 15 12 16 10 17 9 18 11 20 20 22 17 24
REMARK H PARENT 9 19 11 21 20 23 17 25
REMARK Flexibility Score: inf
ROOT
ATOM      1  C   UNL     1      20.705   9.295  -6.541  1.00  0.00     0.138 A 
ATOM      2  C   UNL     1      21.810   9.760  -7.269  1.00  0.00     0.100 A 
ATOM      3  C   UNL     1      21.606  10.495  -8.438  1.00  0.00     0.197 A 
ATOM      4  O   UNL     1      22.617  10.850  -9.096  1.00  0.00    -0.289 OA
ATOM      5  C   UNL     1      20.289  10.795  -8.861  1.00  0.00     0.107 A 
ATOM      6  C   UNL     1      19.961  11.565 -10.018  1.00  0.00     0.134 A 
ATOM      7  C   UNL     1      18.619  11.712 -10.390  1.00  0.00     0.093 A 
ATOM      8  C   UNL     1      17.593  11.168  -9.619  1.00  0.00     0.123 A 
ATOM      9  C   UNL     1      17.899  10.457  -8.459  1.00  0.00     0.094 A 
ATOM     10  C   UNL     1      19.229  10.262  -8.079  1.00  0.00     0.146 A 
ATOM     11  O   UNL     1      19.479   9.563  -6.977  1.00  0.00    -0.456 OA
ENDROOT
BRANCH   1  12
ATOM     12  C   UNL     1      20.863   8.512  -5.289  1.00  0.00     0.021 A 
ATOM     13  C   UNL     1      20.947   7.105  -5.301  1.00  0.00     0.016 A 
ATOM     14  C   UNL     1      21.084   6.395  -4.105  1.00  0.00     0.051 A 
ATOM     15  C   UNL     1      21.133   7.073  -2.881  1.00  0.00     0.157 A 
ATOM     16  C   UNL     1      20.899   9.182  -4.054  1.00  0.00     0.062 A 
ATOM     17  C   UNL     1      21.038   8.468  -2.855  1.00  0.00     0.158 A 
BRANCH  15  18
ATOM     18  O   UNL     1      21.271   6.366  -1.688  1.00  0.00    -0.504 OA
ATOM     19  H   UNL     1      21.025   6.778  -0.796  1.00  0.00     0.293 HD
ENDBRANCH  15  18
BRANCH  17  20
ATOM     20  O   UNL     1      21.082   9.141  -1.635  1.00  0.00    -0.504 OA
ATOM     21  H   UNL     1      21.224  10.143  -1.586  1.00  0.00     0.293 HD
ENDBRANCH  17  20
ENDBRANCH   1  12
BRANCH   6  22
ATOM     22  O   UNL     1      20.903  12.220 -10.816  1.00  0.00    -0.507 OA
ATOM     23  H   UNL     1      21.872  11.956 -10.904  1.00  0.00     0.293 HD
ENDBRANCH   6  22
BRANCH   8  24
ATOM     24  O   UNL     1      16.268  11.348 -10.012  1.00  0.00    -0.508 OA
ATOM     25  H   UNL     1      15.899  12.268 -10.224  1.00  0.00     0.293 HD
ENDBRANCH   8  24
TORSDOF 5
ENDMDL
MODEL 4
REMARK VINA RESULT:     3.763      2.705      3.788
REMARK INTER + INTRA:           4.150
REMARK INTER:                   4.414
REMARK INTRA:                  -0.264
REMARK UNBOUND:                -0.273
REMARK SMILES O=c1cc(-c2ccc(O)c(O)c2)oc2cc(O)cc(O)c12
REMARK SMILES IDX 4 1 3 2 2 3 1 4 21 5 19 6 18 7 16 8 15 9 14 10 13 11 5 12
REMARK SMILES IDX 6 13 7 14 8 15 12 16 10 17 9 18 11 20 20 22 17 24
REMARK H PARENT 9 19 11 21 20 23 17 25
REMARK Flexibility Score: inf
ROOT
ATOM      1  C   UNL     1      20.271   9.684  -6.685  1.00  0.00     0.138 A 
ATOM      2  C   UNL     1      18.945   9.872  -7.097  1.00  0.00     0.100 A 
ATOM      3  C   UNL     1      18.681  10.565  -8.280  1.00  0.00     0.197 A 
ATOM      4  O   UNL     1      17.479  10.764  -8.594  1.00  0.00    -0.289 OA
ATOM      5  C   UNL     1      19.754  11.043  -9.070  1.00  0.00     0.107 A 
ATOM      6  C   UNL     1      19.607  11.733 -10.311  1.00  0.00     0.134 A 
ATOM      7  C   UNL     1      20.741  12.244 -10.955  1.00  0.00     0.093 A 
ATOM      8  C   UNL     1      22.018  12.041 -10.434  1.00  0.00     0.123 A 
ATOM      9  C   UNL     1      22.178  11.325  -9.248  1.00  0.00     0.094 A 
ATOM     10  C   UNL     1      21.065  10.831  -8.564  1.00  0.00     0.146 A 
ATOM     11  O   UNL     1      21.259  10.169  -7.428  1.00  0.00    -0.456 OA
ENDROOT
BRANCH   1  12
ATOM     12  C   UNL     1      20.610   8.951  -5.438  1.00  0.00     0.021 A 
ATOM     13  C   UNL     1      20.628   9.592  -4.183  1.00  0.00     0.016 A 
ATOM     14  C   UNL     1      20.960   8.879  -3.029  1.00  0.00     0.051 A 
ATOM     15  C   UNL     1      21.286   7.520  -3.107  1.00  0.00     0.157 A 
ATOM     16  C   UNL     1      20.952   7.589  -5.508  1.00  0.00     0.062 A 
ATOM     17  C   UNL     1      21.285   6.875  -4.348  1.00  0.00     0.158 A 
BRANCH  15  18
ATOM     18  O   UNL     1      21.617   6.806  -1.957  1.00  0.00    -0.504 OA
ATOM     19  H   UNL     1      22.013   5.875  -2.005  1.00  0.00     0.293 HD
ENDBRANCH  15  18
BRANCH  17  20
ATOM     20  O   UNL     1      21.613   5.522  -4.424  1.00  0.00    -0.504 OA
ATOM     21  H   UNL     1      22.573   5.205  -4.360  1.00  0.00     0.293 HD
ENDBRANCH  17  20
ENDBRANCH   1  12
BRANCH   6  22
ATOM     22  O   UNL     1      18.384  11.923 -10.962  1.00  0.00    -0.507 OA
ATOM     23  H   UNL     1      18.270  12.345 -11.871  1.00  0.00     0.293 HD
ENDBRANCH   6  22
BRANCH   8  24
ATOM     24  O   UNL     1      23.124  12.552 -11.111  1.00  0.00    -0.508 OA
ATOM     25  H   UNL     1      24.020  12.079 -11.093  1.00  0.00     0.293 HD
ENDBRANCH   8  24
TORSDOF 5
ENDMDL
