MODEL 1
REMARK VINA RESULT:    -5.702      0.000      0.000
REMARK INTER + INTRA:          -9.999
REMARK INTER:                  -9.036
REMARK INTRA:                  -0.963
REMARK UNBOUND:                -0.963
REMARK SMILES CCCCCCCCCCCC(=O)[O-]
REMARK SMILES IDX 7 1 8 2 9 3 10 4 11 5 12 6 13 7 14 8 6 9 5 10 4 11 3 12 2 13
REMARK SMILES IDX 1 14
REMARK H PARENT
REMARK Flexibility Score: inf
ROOT
ATOM      1  C   UNL     1      -6.183 -13.903  -2.657  1.00  0.00     0.000 C 
ENDROOT
BRANCH   1   2
ATOM      2  C   UNL     1      -6.788 -15.317  -2.653  1.00  0.00     0.000 C 
BRANCH   2   3
ATOM      3  C   UNL     1      -5.715 -16.417  -2.735  1.00  0.00     0.000 C 
BRANCH   3   4
ATOM      4  C   UNL     1      -4.450 -16.068  -1.934  1.00  0.00     0.006 C 
BRANCH   4   5
ATOM      5  C   UNL     1      -4.133 -17.104  -0.847  1.00  0.00     0.053 C 
BRANCH   5   6
ATOM      6  C   UNL     1      -2.654 -17.279  -0.710  1.00  0.00     0.041 C 
ATOM      7  O   UNL     1      -2.186 -18.060   0.160  1.00  0.00    -0.550 OA
ATOM      8  O   UNL     1      -1.789 -16.542  -1.509  1.00  0.00    -0.550 OA
ENDBRANCH   5   6
ENDBRANCH   4   5
ENDBRANCH   3   4
ENDBRANCH   2   3
ENDBRANCH   1   2
BRANCH   1   9
ATOM      9  C   UNL     1      -6.898 -12.955  -3.637  1.00  0.00     0.000 C 
BRANCH   9  10
ATOM     10  C   UNL     1      -6.903 -13.488  -5.079  1.00  0.00    -0.000 C 
BRANCH  10  11
ATOM     11  C   UNL     1      -8.326 -13.717  -5.618  1.00  0.00    -0.000 C 
BRANCH  11  12
ATOM     12  C   UNL     1      -8.609 -15.196  -5.926  1.00  0.00    -0.000 C 
BRANCH  12  13
ATOM     13  C   UNL     1      -7.486 -15.858  -6.739  1.00  0.00    -0.003 C 
ATOM     14  C   UNL     1      -6.989 -17.129  -6.054  1.00  0.00     0.004 C 
ENDBRANCH  12  13
ENDBRANCH  11  12
ENDBRANCH  10  11
ENDBRANCH   9  10
ENDBRANCH   1   9
TORSDOF 10
ENDMDL
MODEL 2
REMARK VINA RESULT:    -5.674      2.840      5.635
REMARK INTER + INTRA:          -9.954
REMARK INTER:                  -9.079
REMARK INTRA:                  -0.875
REMARK UNBOUND:                -0.963
REMARK SMILES CCCCCCCCCCCC(=O)[O-]
REMARK SMILES IDX 7 1 8 2 9 3 10 4 11 5 12 6 13 7 14 8 6 9 5 10 4 11 3 12 2 13
REMARK SMILES IDX 1 14
REMARK H PARENT
REMARK Flexibility Score: inf
ROOT
ATOM      1  C   UNL     1      -6.713 -13.016  -3.853  1.00  0.00     0.000 C 
ENDROOT
BRANCH   1   2
ATOM      2  C   UNL     1      -6.898 -13.781  -5.174  1.00  0.00     0.000 C 
BRANCH   2   3
ATOM      3  C   UNL     1      -8.361 -13.792  -5.650  1.00  0.00     0.000 C 
BRANCH   3   4
ATOM      4  C   UNL     1      -8.748 -15.112  -6.336  1.00  0.00     0.006 C 
BRANCH   4   5
ATOM      5  C   UNL     1      -7.535 -16.007  -6.625  1.00  0.00     0.053 C 
BRANCH   5   6
ATOM      6  C   UNL     1      -7.691 -17.331  -5.946  1.00  0.00     0.041 C 
ATOM      7  O   UNL     1      -8.687 -17.553  -5.209  1.00  0.00    -0.550 OA
ATOM      8  O   UNL     1      -6.709 -18.304  -6.087  1.00  0.00    -0.550 OA
ENDBRANCH   5   6
ENDBRANCH   4   5
ENDBRANCH   3   4
ENDBRANCH   2   3
ENDBRANCH   1   2
BRANCH   1   9
ATOM      9  C   UNL     1      -6.454 -13.951  -2.658  1.00  0.00     0.000 C 
BRANCH   9  10
ATOM     10  C   UNL     1      -6.934 -15.389  -2.916  1.00  0.00    -0.000 C 
BRANCH  10  11
ATOM     11  C   UNL     1      -5.865 -16.439  -2.566  1.00  0.00    -0.000 C 
BRANCH  11  12
ATOM     12  C   UNL     1      -4.629 -15.821  -1.894  1.00  0.00    -0.000 C 
BRANCH  12  13
ATOM     13  C   UNL     1      -3.833 -16.841  -1.066  1.00  0.00    -0.003 C 
ATOM     14  C   UNL     1      -2.388 -16.934  -1.552  1.00  0.00     0.004 C 
ENDBRANCH  12  13
ENDBRANCH  11  12
ENDBRANCH  10  11
ENDBRANCH   9  10
ENDBRANCH   1   9
TORSDOF 10
ENDMDL
MODEL 3
REMARK VINA RESULT:    -5.590      1.057      2.474
REMARK INTER + INTRA:          -9.820
REMARK INTER:                  -8.895
REMARK INTRA:                  -0.926
REMARK UNBOUND:                -0.963
REMARK SMILES CCCCCCCCCCCC(=O)[O-]
REMARK SMILES IDX 7 1 8 2 9 3 10 4 11 5 12 6 13 7 14 8 6 9 5 10 4 11 3 12 2 13
REMARK SMILES IDX 1 14
REMARK H PARENT
REMARK Flexibility Score: inf
ROOT
ATOM      1  C   UNL     1      -7.370 -16.892  -3.543  1.00  0.00     0.000 C 
ENDROOT
BRANCH   1   2
ATOM      2  C   UNL     1      -6.598 -15.957  -2.598  1.00  0.00     0.000 C 
BRANCH   2   3
ATOM      3  C   UNL     1      -5.073 -16.131  -2.711  1.00  0.00     0.000 C 
BRANCH   3   4
ATOM      4  C   UNL     1      -4.423 -16.513  -1.371  1.00  0.00     0.006 C 
BRANCH   4   5
ATOM      5  C   UNL     1      -2.909 -16.736  -1.491  1.00  0.00     0.053 C 
BRANCH   5   6
ATOM      6  C   UNL     1      -2.375 -17.368  -0.244  1.00  0.00     0.041 C 
ATOM      7  O   UNL     1      -1.694 -18.424  -0.310  1.00  0.00    -0.550 OA
ATOM      8  O   UNL     1      -2.671 -16.816   0.996  1.00  0.00    -0.550 OA
ENDBRANCH   5   6
ENDBRANCH   4   5
ENDBRANCH   3   4
ENDBRANCH   2   3
ENDBRANCH   1   2
BRANCH   1   9
ATOM      9  C   UNL     1      -6.582 -17.223  -4.823  1.00  0.00     0.000 C 
BRANCH   9  10
ATOM     10  C   UNL     1      -7.383 -16.934  -6.103  1.00  0.00    -0.000 C 
BRANCH  10  11
ATOM     11  C   UNL     1      -7.356 -15.446  -6.493  1.00  0.00    -0.000 C 
BRANCH  11  12
ATOM     12  C   UNL     1      -8.654 -14.714  -6.116  1.00  0.00    -0.000 C 
BRANCH  12  13
ATOM     13  C   UNL     1      -8.395 -13.356  -5.445  1.00  0.00    -0.003 C 
ATOM     14  C   UNL     1      -6.914 -13.183  -5.111  1.00  0.00     0.004 C 
ENDBRANCH  12  13
ENDBRANCH  11  12
ENDBRANCH  10  11
ENDBRANCH   9  10
ENDBRANCH   1   9
TORSDOF 10
ENDMDL
MODEL 4
REMARK VINA RESULT:    -5.330      1.470      2.840
REMARK INTER + INTRA:          -9.409
REMARK INTER:                  -8.754
REMARK INTRA:                  -0.655
REMARK UNBOUND:                -0.963
REMARK SMILES CCCCCCCCCCCC(=O)[O-]
REMARK SMILES IDX 7 1 8 2 9 3 10 4 11 5 12 6 13 7 14 8 6 9 5 10 4 11 3 12 2 13
REMARK SMILES IDX 1 14
REMARK H PARENT
REMARK Flexibility Score: inf
ROOT
ATOM      1  C   UNL     1      -5.659 -15.736  -2.322  1.00  0.00     0.000 C 
ENDROOT
BRANCH   1   2
ATOM      2  C   UNL     1      -4.633 -16.528  -1.494  1.00  0.00     0.000 C 
BRANCH   2   3
ATOM      3  C   UNL     1      -3.181 -16.160  -1.847  1.00  0.00     0.000 C 
BRANCH   3   4
ATOM      4  C   UNL     1      -2.194 -17.301  -1.548  1.00  0.00     0.006 C 
BRANCH   4   5
ATOM      5  C   UNL     1      -1.095 -16.889  -0.560  1.00  0.00     0.053 C 
BRANCH   5   6
ATOM      6  C   UNL     1      -1.363 -17.475   0.791  1.00  0.00     0.041 C 
ATOM      7  O   UNL     1      -1.026 -18.661   1.045  1.00  0.00    -0.550 OA
ATOM      8  O   UNL     1      -2.028 -16.727   1.754  1.00  0.00    -0.550 OA
ENDBRANCH   5   6
ENDBRANCH   4   5
ENDBRANCH   3   4
ENDBRANCH   2   3
ENDBRANCH   1   2
BRANCH   1   9
ATOM      9  C   UNL     1      -6.116 -16.494  -3.581  1.00  0.00     0.000 C 
BRANCH   9  10
ATOM     10  C   UNL     1      -7.645 -16.615  -3.678  1.00  0.00    -0.000 C 
BRANCH  10  11
ATOM     11  C   UNL     1      -8.188 -16.162  -5.044  1.00  0.00    -0.000 C 
BRANCH  11  12
ATOM     12  C   UNL     1      -7.341 -15.045  -5.674  1.00  0.00    -0.000 C 
BRANCH  12  13
ATOM     13  C   UNL     1      -7.850 -13.641  -5.314  1.00  0.00    -0.003 C 
ATOM     14  C   UNL     1      -6.810 -12.872  -4.502  1.00  0.00     0.004 C 
ENDBRANCH  12  13
ENDBRANCH  11  12
ENDBRANCH  10  11
ENDBRANCH   9  10
ENDBRANCH   1   9
TORSDOF 10
ENDMDL
MODEL 5
REMARK VINA RESULT:    -5.223      3.404      6.463
REMARK INTER + INTRA:          -9.239
REMARK INTER:                  -8.699
REMARK INTRA:                  -0.541
REMARK UNBOUND:                -0.963
REMARK SMILES CCCCCCCCCCCC(=O)[O-]
REMARK SMILES IDX 7 1 8 2 9 3 10 4 11 5 12 6 13 7 14 8 6 9 5 10 4 11 3 12 2 13
REMARK SMILES IDX 1 14
REMARK H PARENT
REMARK Flexibility Score: inf
ROOT
ATOM      1  C   UNL     1      -6.810 -14.867  -2.682  1.00  0.00     0.000 C 
ENDROOT
BRANCH   1   2
ATOM      2  C   UNL     1      -6.178 -13.517  -3.057  1.00  0.00     0.000 C 
BRANCH   2   3
ATOM      3  C   UNL     1      -6.962 -12.786  -4.162  1.00  0.00     0.000 C 
BRANCH   3   4
ATOM      4  C   UNL     1      -7.083 -13.619  -5.448  1.00  0.00     0.006 C 
BRANCH   4   5
ATOM      5  C   UNL     1      -8.534 -14.002  -5.770  1.00  0.00     0.053 C 
BRANCH   5   6
ATOM      6  C   UNL     1      -8.613 -15.438  -6.185  1.00  0.00     0.041 C 
ATOM      7  O   UNL     1      -9.525 -16.179  -5.732  1.00  0.00    -0.550 OA
ATOM      8  O   UNL     1      -7.651 -15.971  -7.033  1.00  0.00    -0.550 OA
ENDBRANCH   5   6
ENDBRANCH   4   5
ENDBRANCH   3   4
ENDBRANCH   2   3
ENDBRANCH   1   2
BRANCH   1   9
ATOM      9  C   UNL     1      -5.933 -16.065  -3.089  1.00  0.00     0.000 C 
BRANCH   9  10
ATOM     10  C   UNL     1      -5.251 -16.737  -1.886  1.00  0.00    -0.000 C 
BRANCH  10  11
ATOM     11  C   UNL     1      -3.891 -16.103  -1.549  1.00  0.00    -0.000 C 
BRANCH  11  12
ATOM     12  C   UNL     1      -3.210 -16.773  -0.345  1.00  0.00    -0.000 C 
BRANCH  12  13
ATOM     13  C   UNL     1      -2.041 -17.682  -0.757  1.00  0.00    -0.003 C 
ATOM     14  C   UNL     1      -1.236 -17.058  -1.895  1.00  0.00     0.004 C 
ENDBRANCH  12  13
ENDBRANCH  11  12
ENDBRANCH  10  11
ENDBRANCH   9  10
ENDBRANCH   1   9
TORSDOF 10
ENDMDL
MODEL 6
REMARK VINA RESULT:    -5.177      3.198      6.515
REMARK INTER + INTRA:          -9.167
REMARK INTER:                  -8.480
REMARK INTRA:                  -0.687
REMARK UNBOUND:                -0.963
REMARK SMILES CCCCCCCCCCCC(=O)[O-]
REMARK SMILES IDX 7 1 8 2 9 3 10 4 11 5 12 6 13 7 14 8 6 9 5 10 4 11 3 12 2 13
REMARK SMILES IDX 1 14
REMARK H PARENT
REMARK Flexibility Score: inf
ROOT
ATOM      1  C   UNL     1      -6.114 -16.795  -4.464  1.00  0.00     0.000 C 
ENDROOT
BRANCH   1   2
ATOM      2  C   UNL     1      -7.242 -17.213  -5.422  1.00  0.00     0.000 C 
BRANCH   2   3
ATOM      3  C   UNL     1      -7.256 -16.379  -6.715  1.00  0.00     0.000 C 
BRANCH   3   4
ATOM      4  C   UNL     1      -8.542 -15.551  -6.868  1.00  0.00     0.006 C 
BRANCH   4   5
ATOM      5  C   UNL     1      -8.936 -14.825  -5.574  1.00  0.00     0.053 C 
BRANCH   5   6
ATOM      6  C   UNL     1      -8.249 -13.498  -5.492  1.00  0.00     0.041 C 
ATOM      7  O   UNL     1      -8.803 -12.469  -5.959  1.00  0.00    -0.550 OA
ATOM      8  O   UNL     1      -6.977 -13.406  -4.942  1.00  0.00    -0.550 OA
ENDBRANCH   5   6
ENDBRANCH   4   5
ENDBRANCH   3   4
ENDBRANCH   2   3
ENDBRANCH   1   2
BRANCH   1   9
ATOM      9  C   UNL     1      -6.612 -16.571  -3.025  1.00  0.00     0.000 C 
BRANCH   9  10
ATOM     10  C   UNL     1      -5.734 -15.580  -2.241  1.00  0.00    -0.000 C 
BRANCH  10  11
ATOM     11  C   UNL     1      -4.321 -16.126  -1.978  1.00  0.00    -0.000 C 
BRANCH  11  12
ATOM     12  C   UNL     1      -4.267 -17.063  -0.761  1.00  0.00    -0.000 C 
BRANCH  12  13
ATOM     13  C   UNL     1      -2.921 -17.001  -0.024  1.00  0.00    -0.003 C 
ATOM     14  C   UNL     1      -1.755 -17.022  -1.010  1.00  0.00     0.004 C 
ENDBRANCH  12  13
ENDBRANCH  11  12
ENDBRANCH  10  11
ENDBRANCH   9  10
ENDBRANCH   1   9
TORSDOF 10
ENDMDL
MODEL 7
REMARK VINA RESULT:    -5.176      3.503      6.753
REMARK INTER + INTRA:          -9.164
REMARK INTER:                  -8.617
REMARK INTRA:                  -0.547
REMARK UNBOUND:                -0.963
REMARK SMILES CCCCCCCCCCCC(=O)[O-]
REMARK SMILES IDX 7 1 8 2 9 3 10 4 11 5 12 6 13 7 14 8 6 9 5 10 4 11 3 12 2 13
REMARK SMILES IDX 1 14
REMARK H PARENT
REMARK Flexibility Score: inf
ROOT
ATOM      1  C   UNL     1      -6.147 -15.430  -2.638  1.00  0.00     0.000 C 
ENDROOT
BRANCH   1   2
ATOM      2  C   UNL     1      -7.385 -15.967  -3.376  1.00  0.00     0.000 C 
BRANCH   2   3
ATOM      3  C   UNL     1      -7.050 -16.496  -4.782  1.00  0.00     0.000 C 
BRANCH   3   4
ATOM      4  C   UNL     1      -7.241 -15.430  -5.873  1.00  0.00     0.006 C 
BRANCH   4   5
ATOM      5  C   UNL     1      -8.613 -14.745  -5.798  1.00  0.00     0.053 C 
BRANCH   5   6
ATOM      6  C   UNL     1      -8.449 -13.262  -5.687  1.00  0.00     0.041 C 
ATOM      7  O   UNL     1      -9.201 -12.491  -6.338  1.00  0.00    -0.550 OA
ATOM      8  O   UNL     1      -7.434 -12.731  -4.901  1.00  0.00    -0.550 OA
ENDBRANCH   5   6
ENDBRANCH   4   5
ENDBRANCH   3   4
ENDBRANCH   2   3
ENDBRANCH   1   2
BRANCH   1   9
ATOM      9  C   UNL     1      -5.325 -16.546  -1.970  1.00  0.00     0.000 C 
BRANCH   9  10
ATOM     10  C   UNL     1      -3.932 -16.070  -1.524  1.00  0.00    -0.000 C 
BRANCH  10  11
ATOM     11  C   UNL     1      -3.386 -16.877  -0.334  1.00  0.00    -0.000 C 
BRANCH  11  12
ATOM     12  C   UNL     1      -2.249 -17.829  -0.738  1.00  0.00    -0.000 C 
BRANCH  12  13
ATOM     13  C   UNL     1      -1.243 -17.176  -1.698  1.00  0.00    -0.003 C 
ATOM     14  C   UNL     1      -0.740 -18.181  -2.731  1.00  0.00     0.004 C 
ENDBRANCH  12  13
ENDBRANCH  11  12
ENDBRANCH  10  11
ENDBRANCH   9  10
ENDBRANCH   1   9
TORSDOF 10
ENDMDL
MODEL 8
REMARK VINA RESULT:    -5.133     14.689     17.358
REMARK INTER + INTRA:          -9.096
REMARK INTER:                  -8.219
REMARK INTRA:                  -0.878
REMARK UNBOUND:                -0.963
REMARK SMILES CCCCCCCCCCCC(=O)[O-]
REMARK SMILES IDX 7 1 8 2 9 3 10 4 11 5 12 6 13 7 14 8 6 9 5 10 4 11 3 12 2 13
REMARK SMILES IDX 1 14
REMARK H PARENT
REMARK Flexibility Score: inf
ROOT
ATOM      1  C   UNL     1     -11.929  -2.611  -8.284  1.00  0.00     0.000 C 
ENDROOT
BRANCH   1   2
ATOM      2  C   UNL     1     -13.101  -1.873  -7.616  1.00  0.00     0.000 C 
BRANCH   2   3
ATOM      3  C   UNL     1     -13.784  -0.871  -8.564  1.00  0.00     0.000 C 
BRANCH   3   4
ATOM      4  C   UNL     1     -15.028  -1.461  -9.248  1.00  0.00     0.006 C 
BRANCH   4   5
ATOM      5  C   UNL     1     -14.843  -1.639 -10.761  1.00  0.00     0.053 C 
BRANCH   5   6
ATOM      6  C   UNL     1     -14.492  -0.332 -11.400  1.00  0.00     0.041 C 
ATOM      7  O   UNL     1     -13.395  -0.195 -12.003  1.00  0.00    -0.550 OA
ATOM      8  O   UNL     1     -15.356   0.750 -11.289  1.00  0.00    -0.550 OA
ENDBRANCH   5   6
ENDBRANCH   4   5
ENDBRANCH   3   4
ENDBRANCH   2   3
ENDBRANCH   1   2
BRANCH   1   9
ATOM      9  C   UNL     1     -11.329  -1.825  -9.465  1.00  0.00     0.000 C 
BRANCH   9  10
ATOM     10  C   UNL     1      -9.912  -2.295  -9.830  1.00  0.00    -0.000 C 
BRANCH  10  11
ATOM     11  C   UNL     1      -8.914  -2.115  -8.674  1.00  0.00    -0.000 C 
BRANCH  11  12
ATOM     12  C   UNL     1      -8.043  -3.361  -8.446  1.00  0.00    -0.000 C 
BRANCH  12  13
ATOM     13  C   UNL     1      -8.858  -4.663  -8.462  1.00  0.00    -0.003 C 
ATOM     14  C   UNL     1      -8.123  -5.760  -9.230  1.00  0.00     0.004 C 
ENDBRANCH  12  13
ENDBRANCH  11  12
ENDBRANCH  10  11
ENDBRANCH   9  10
ENDBRANCH   1   9
TORSDOF 10
ENDMDL
MODEL 9
REMARK VINA RESULT:    -5.127      3.438      6.353
REMARK INTER + INTRA:          -9.087
REMARK INTER:                  -8.234
REMARK INTRA:                  -0.852
REMARK UNBOUND:                -0.963
REMARK SMILES CCCCCCCCCCCC(=O)[O-]
REMARK SMILES IDX 7 1 8 2 9 3 10 4 11 5 12 6 13 7 14 8 6 9 5 10 4 11 3 12 2 13
REMARK SMILES IDX 1 14
REMARK H PARENT
REMARK Flexibility Score: inf
ROOT
ATOM      1  C   UNL     1      -7.249 -18.068  -5.580  1.00  0.00     0.000 C 
ENDROOT
BRANCH   1   2
ATOM      2  C   UNL     1      -8.230 -18.246  -6.750  1.00  0.00     0.000 C 
BRANCH   2   3
ATOM      3  C   UNL     1      -8.934 -16.932  -7.134  1.00  0.00     0.000 C 
BRANCH   3   4
ATOM      4  C   UNL     1      -8.148 -15.690  -6.686  1.00  0.00     0.006 C 
BRANCH   4   5
ATOM      5  C   UNL     1      -8.955 -14.787  -5.742  1.00  0.00     0.053 C 
BRANCH   5   6
ATOM      6  C   UNL     1      -8.347 -13.422  -5.680  1.00  0.00     0.041 C 
ATOM      7  O   UNL     1      -7.274 -13.234  -5.049  1.00  0.00    -0.550 OA
ATOM      8  O   UNL     1      -8.991 -12.346  -6.279  1.00  0.00    -0.550 OA
ENDBRANCH   5   6
ENDBRANCH   4   5
ENDBRANCH   3   4
ENDBRANCH   2   3
ENDBRANCH   1   2
BRANCH   1   9
ATOM      9  C   UNL     1      -7.937 -18.173  -4.207  1.00  0.00     0.000 C 
BRANCH   9  10
ATOM     10  C   UNL     1      -7.633 -16.971  -3.298  1.00  0.00    -0.000 C 
BRANCH  10  11
ATOM     11  C   UNL     1      -6.210 -16.423  -3.501  1.00  0.00    -0.000 C 
BRANCH  11  12
ATOM     12  C   UNL     1      -5.702 -15.635  -2.283  1.00  0.00    -0.000 C 
BRANCH  12  13
ATOM     13  C   UNL     1      -4.269 -16.019  -1.885  1.00  0.00    -0.003 C 
ATOM     14  C   UNL     1      -4.270 -17.135  -0.842  1.00  0.00     0.004 C 
ENDBRANCH  12  13
ENDBRANCH  11  12
ENDBRANCH  10  11
ENDBRANCH   9  10
ENDBRANCH   1   9
TORSDOF 10
ENDMDL
