MODEL 1
REMARK VINA RESULT:    -5.560      0.000      0.000
REMARK INTER + INTRA:         -17.566
REMARK INTER:                 -14.661
REMARK INTRA:                  -2.905
REMARK UNBOUND:                -2.905
REMARK SMILES CCCCCCCCCCCCCCCCCCCCCCCCCCCCCC(=O)[O-]
REMARK SMILES IDX 16 1 17 2 18 3 19 4 20 5 21 6 22 7 23 8 24 9 25 10 26 11
REMARK SMILES IDX 27 12 28 13 29 14 30 15 31 16 32 17 15 18 14 19 13 20 12 21
REMARK SMILES IDX 11 22 10 23 9 24 8 25 7 26 6 27 5 28 4 29 3 30 2 31 1 32
REMARK H PARENT
REMARK Flexibility Score: inf
ROOT
ATOM      1  C   UNL     1      22.302  20.809   7.583  1.00  0.00     0.000 C 
ENDROOT
BRANCH   1   2
ATOM      2  C   UNL     1      22.164  19.713   6.510  1.00  0.00     0.000 C 
BRANCH   2   3
ATOM      3  C   UNL     1      23.504  19.043   6.165  1.00  0.00     0.000 C 
BRANCH   3   4
ATOM      4  C   UNL     1      23.776  19.006   4.652  1.00  0.00     0.000 C 
BRANCH   4   5
ATOM      5  C   UNL     1      25.136  18.382   4.304  1.00  0.00     0.000 C 
BRANCH   5   6
ATOM      6  C   UNL     1      25.167  16.890   4.675  1.00  0.00     0.000 C 
BRANCH   6   7
ATOM      7  C   UNL     1      26.493  16.210   4.299  1.00  0.00     0.000 C 
BRANCH   7   8
ATOM      8  C   UNL     1      27.565  16.358   5.393  1.00  0.00     0.000 C 
BRANCH   8   9
ATOM      9  C   UNL     1      28.996  16.397   4.829  1.00  0.00     0.000 C 
BRANCH   9  10
ATOM     10  C   UNL     1      29.893  15.213   5.232  1.00  0.00     0.000 C 
BRANCH  10  11
ATOM     11  C   UNL     1      31.112  15.044   4.309  1.00  0.00     0.000 C 
BRANCH  11  12
ATOM     12  C   UNL     1      32.414  15.546   4.958  1.00  0.00     0.000 C 
BRANCH  12  13
ATOM     13  C   UNL     1      33.548  14.508   4.882  1.00  0.00     0.006 C 
BRANCH  13  14
ATOM     14  C   UNL     1      34.245  14.311   6.235  1.00  0.00     0.053 C 
BRANCH  14  15
ATOM     15  C   UNL     1      33.487  13.372   7.124  1.00  0.00     0.041 C 
ATOM     16  O   UNL     1      33.796  13.263   8.341  1.00  0.00    -0.550 OA
ATOM     17  O   UNL     1      32.458  12.598   6.602  1.00  0.00    -0.550 OA
ENDBRANCH  14  15
ENDBRANCH  13  14
ENDBRANCH  12  13
ENDBRANCH  11  12
ENDBRANCH  10  11
ENDBRANCH   9  10
ENDBRANCH   8   9
ENDBRANCH   7   8
ENDBRANCH   6   7
ENDBRANCH   5   6
ENDBRANCH   4   5
ENDBRANCH   3   4
ENDBRANCH   2   3
ENDBRANCH   1   2
BRANCH   1  18
ATOM     18  C   UNL     1      21.558  22.125   7.272  1.00  0.00     0.000 C 
BRANCH  18  19
ATOM     19  C   UNL     1      20.679  22.093   6.007  1.00  0.00     0.000 C 
BRANCH  19  20
ATOM     20  C   UNL     1      19.168  21.925   6.268  1.00  0.00     0.000 C 
BRANCH  20  21
ATOM     21  C   UNL     1      18.338  23.215   6.128  1.00  0.00     0.000 C 
BRANCH  21  22
ATOM     22  C   UNL     1      17.052  23.189   6.966  1.00  0.00     0.000 C 
BRANCH  22  23
ATOM     23  C   UNL     1      17.023  24.353   7.967  1.00  0.00     0.000 C 
BRANCH  23  24
ATOM     24  C   UNL     1      18.262  25.256   7.856  1.00  0.00    -0.000 C 
BRANCH  24  25
ATOM     25  C   UNL     1      18.501  26.084   9.132  1.00  0.00    -0.000 C 
BRANCH  25  26
ATOM     26  C   UNL     1      19.220  25.286  10.233  1.00  0.00    -0.000 C 
BRANCH  26  27
ATOM     27  C   UNL     1      20.066  24.099   9.730  1.00  0.00    -0.000 C 
BRANCH  27  28
ATOM     28  C   UNL     1      19.950  22.833  10.608  1.00  0.00    -0.000 C 
BRANCH  28  29
ATOM     29  C   UNL     1      18.497  22.552  11.030  1.00  0.00    -0.000 C 
BRANCH  29  30
ATOM     30  C   UNL     1      18.055  21.113  10.724  1.00  0.00    -0.000 C 
BRANCH  30  31
ATOM     31  C   UNL     1      18.355  20.694   9.276  1.00  0.00    -0.003 C 
ATOM     32  C   UNL     1      17.298  19.724   8.755  1.00  0.00     0.004 C 
ENDBRANCH  30  31
ENDBRANCH  29  30
ENDBRANCH  28  29
ENDBRANCH  27  28
ENDBRANCH  26  27
ENDBRANCH  25  26
ENDBRANCH  24  25
ENDBRANCH  23  24
ENDBRANCH  22  23
ENDBRANCH  21  22
ENDBRANCH  20  21
ENDBRANCH  19  20
ENDBRANCH  18  19
ENDBRANCH   1  18
TORSDOF 28
ENDMDL
MODEL 2
REMARK VINA RESULT:    -5.446      6.616     11.657
REMARK INTER + INTRA:         -17.266
REMARK INTER:                 -12.934
REMARK INTRA:                  -4.332
REMARK UNBOUND:                -2.905
REMARK SMILES CCCCCCCCCCCCCCCCCCCCCCCCCCCCCC(=O)[O-]
REMARK SMILES IDX 16 1 17 2 18 3 19 4 20 5 21 6 22 7 23 8 24 9 25 10 26 11
REMARK SMILES IDX 27 12 28 13 29 14 30 15 31 16 32 17 15 18 14 19 13 20 12 21
REMARK SMILES IDX 11 22 10 23 9 24 8 25 7 26 6 27 5 28 4 29 3 30 2 31 1 32
REMARK H PARENT
REMARK Flexibility Score: inf
ROOT
ATOM      1  C   UNL     1      21.316  23.121  10.076  1.00  0.00     0.000 C 
ENDROOT
BRANCH   1   2
ATOM      2  C   UNL     1      19.934  23.440  10.676  1.00  0.00     0.000 C 
BRANCH   2   3
ATOM      3  C   UNL     1      19.249  22.206  11.286  1.00  0.00     0.000 C 
BRANCH   3   4
ATOM      4  C   UNL     1      17.719  22.350  11.352  1.00  0.00     0.000 C 
BRANCH   4   5
ATOM      5  C   UNL     1      16.989  21.419  10.372  1.00  0.00     0.000 C 
BRANCH   5   6
ATOM      6  C   UNL     1      17.986  20.521   9.621  1.00  0.00     0.000 C 
BRANCH   6   7
ATOM      7  C   UNL     1      17.337  19.753   8.458  1.00  0.00     0.000 C 
BRANCH   7   8
ATOM      8  C   UNL     1      18.306  19.523   7.287  1.00  0.00     0.000 C 
BRANCH   8   9
ATOM      9  C   UNL     1      18.219  20.620   6.212  1.00  0.00     0.000 C 
BRANCH   9  10
ATOM     10  C   UNL     1      16.875  21.366   6.143  1.00  0.00     0.000 C 
BRANCH  10  11
ATOM     11  C   UNL     1      17.031  22.893   6.258  1.00  0.00     0.000 C 
BRANCH  11  12
ATOM     12  C   UNL     1      17.442  23.337   7.672  1.00  0.00     0.000 C 
BRANCH  12  13
ATOM     13  C   UNL     1      17.407  24.866   7.843  1.00  0.00     0.006 C 
BRANCH  13  14
ATOM     14  C   UNL     1      18.308  25.342   8.990  1.00  0.00     0.053 C 
BRANCH  14  15
ATOM     15  C   UNL     1      18.564  26.818   8.925  1.00  0.00     0.041 C 
ATOM     16  O   UNL     1      19.714  27.273   9.169  1.00  0.00    -0.550 OA
ATOM     17  O   UNL     1      17.527  27.692   8.625  1.00  0.00    -0.550 OA
ENDBRANCH  14  15
ENDBRANCH  13  14
ENDBRANCH  12  13
ENDBRANCH  11  12
ENDBRANCH  10  11
ENDBRANCH   9  10
ENDBRANCH   8   9
ENDBRANCH   7   8
ENDBRANCH   6   7
ENDBRANCH   5   6
ENDBRANCH   4   5
ENDBRANCH   3   4
ENDBRANCH   2   3
ENDBRANCH   1   2
BRANCH   1  18
ATOM     18  C   UNL     1      21.407  23.244   8.541  1.00  0.00     0.000 C 
BRANCH  18  19
ATOM     19  C   UNL     1      21.280  21.915   7.772  1.00  0.00     0.000 C 
BRANCH  19  20
ATOM     20  C   UNL     1      21.341  22.041   6.237  1.00  0.00     0.000 C 
BRANCH  20  21
ATOM     21  C   UNL     1      21.953  20.830   5.509  1.00  0.00     0.000 C 
BRANCH  21  22
ATOM     22  C   UNL     1      21.946  19.555   6.365  1.00  0.00     0.000 C 
BRANCH  22  23
ATOM     23  C   UNL     1      23.360  18.972   6.497  1.00  0.00     0.000 C 
BRANCH  23  24
ATOM     24  C   UNL     1      24.111  18.938   5.155  1.00  0.00    -0.000 C 
BRANCH  24  25
ATOM     25  C   UNL     1      23.687  17.748   4.276  1.00  0.00    -0.000 C 
BRANCH  25  26
ATOM     26  C   UNL     1      23.285  16.513   5.099  1.00  0.00    -0.000 C 
BRANCH  26  27
ATOM     27  C   UNL     1      22.070  15.735   4.554  1.00  0.00    -0.000 C 
BRANCH  27  28
ATOM     28  C   UNL     1      20.963  16.639   3.968  1.00  0.00    -0.000 C 
BRANCH  28  29
ATOM     29  C   UNL     1      19.843  16.918   4.986  1.00  0.00    -0.000 C 
BRANCH  29  30
ATOM     30  C   UNL     1      19.976  16.077   6.265  1.00  0.00    -0.000 C 
BRANCH  30  31
ATOM     31  C   UNL     1      18.626  15.829   6.957  1.00  0.00    -0.003 C 
ATOM     32  C   UNL     1      18.693  14.606   7.868  1.00  0.00     0.004 C 
ENDBRANCH  30  31
ENDBRANCH  29  30
ENDBRANCH  28  29
ENDBRANCH  27  28
ENDBRANCH  26  27
ENDBRANCH  25  26
ENDBRANCH  24  25
ENDBRANCH  23  24
ENDBRANCH  22  23
ENDBRANCH  21  22
ENDBRANCH  20  21
ENDBRANCH  19  20
ENDBRANCH  18  19
ENDBRANCH   1  18
TORSDOF 28
ENDMDL
MODEL 3
REMARK VINA RESULT:    -5.437      2.028      4.762
REMARK INTER + INTRA:         -17.241
REMARK INTER:                 -13.177
REMARK INTRA:                  -4.064
REMARK UNBOUND:                -2.905
REMARK SMILES CCCCCCCCCCCCCCCCCCCCCCCCCCCCCC(=O)[O-]
REMARK SMILES IDX 16 1 17 2 18 3 19 4 20 5 21 6 22 7 23 8 24 9 25 10 26 11
REMARK SMILES IDX 27 12 28 13 29 14 30 15 31 16 32 17 15 18 14 19 13 20 12 21
REMARK SMILES IDX 11 22 10 23 9 24 8 25 7 26 6 27 5 28 4 29 3 30 2 31 1 32
REMARK H PARENT
REMARK Flexibility Score: inf
ROOT
ATOM      1  C   UNL     1      17.638  20.775   7.436  1.00  0.00     0.000 C 
ENDROOT
BRANCH   1   2
ATOM      2  C   UNL     1      18.414  19.459   7.631  1.00  0.00     0.000 C 
BRANCH   2   3
ATOM      3  C   UNL     1      17.607  18.221   7.204  1.00  0.00     0.000 C 
BRANCH   3   4
ATOM      4  C   UNL     1      18.018  17.694   5.820  1.00  0.00     0.000 C 
BRANCH   4   5
ATOM      5  C   UNL     1      19.427  18.143   5.404  1.00  0.00     0.000 C 
BRANCH   5   6
ATOM      6  C   UNL     1      20.467  17.058   5.729  1.00  0.00     0.000 C 
BRANCH   6   7
ATOM      7  C   UNL     1      21.896  17.616   5.838  1.00  0.00     0.000 C 
BRANCH   7   8
ATOM      8  C   UNL     1      22.175  18.732   4.817  1.00  0.00     0.000 C 
BRANCH   8   9
ATOM      9  C   UNL     1      23.677  18.953   4.565  1.00  0.00     0.000 C 
BRANCH   9  10
ATOM     10  C   UNL     1      24.618  18.031   5.362  1.00  0.00     0.000 C 
BRANCH  10  11
ATOM     11  C   UNL     1      25.935  17.737   4.622  1.00  0.00     0.000 C 
BRANCH  11  12
ATOM     12  C   UNL     1      26.367  16.267   4.754  1.00  0.00     0.000 C 
BRANCH  12  13
ATOM     13  C   UNL     1      27.788  16.020   4.217  1.00  0.00     0.006 C 
BRANCH  13  14
ATOM     14  C   UNL     1      28.863  16.649   5.114  1.00  0.00     0.053 C 
BRANCH  14  15
ATOM     15  C   UNL     1      30.096  15.799   5.189  1.00  0.00     0.041 C 
ATOM     16  O   UNL     1      30.045  14.652   5.709  1.00  0.00    -0.550 OA
ATOM     17  O   UNL     1      31.307  16.286   4.712  1.00  0.00    -0.550 OA
ENDBRANCH  14  15
ENDBRANCH  13  14
ENDBRANCH  12  13
ENDBRANCH  11  12
ENDBRANCH  10  11
ENDBRANCH   9  10
ENDBRANCH   8   9
ENDBRANCH   7   8
ENDBRANCH   6   7
ENDBRANCH   5   6
ENDBRANCH   4   5
ENDBRANCH   3   4
ENDBRANCH   2   3
ENDBRANCH   1   2
BRANCH   1  18
ATOM     18  C   UNL     1      17.569  21.284   5.981  1.00  0.00     0.000 C 
BRANCH  18  19
ATOM     19  C   UNL     1      18.930  21.626   5.345  1.00  0.00     0.000 C 
BRANCH  19  20
ATOM     20  C   UNL     1      19.891  22.420   6.252  1.00  0.00     0.000 C 
BRANCH  20  21
ATOM     21  C   UNL     1      21.233  21.723   6.544  1.00  0.00     0.000 C 
BRANCH  21  22
ATOM     22  C   UNL     1      21.639  21.807   8.022  1.00  0.00     0.000 C 
BRANCH  22  23
ATOM     23  C   UNL     1      21.406  23.220   8.578  1.00  0.00     0.000 C 
BRANCH  23  24
ATOM     24  C   UNL     1      20.796  23.204   9.989  1.00  0.00    -0.000 C 
BRANCH  24  25
ATOM     25  C   UNL     1      19.876  21.992  10.218  1.00  0.00    -0.000 C 
BRANCH  25  26
ATOM     26  C   UNL     1      18.855  22.224  11.345  1.00  0.00    -0.000 C 
BRANCH  26  27
ATOM     27  C   UNL     1      17.437  22.602  10.870  1.00  0.00    -0.000 C 
BRANCH  27  28
ATOM     28  C   UNL     1      16.967  23.990  11.355  1.00  0.00    -0.000 C 
BRANCH  28  29
ATOM     29  C   UNL     1      16.875  25.006  10.203  1.00  0.00    -0.000 C 
BRANCH  29  30
ATOM     30  C   UNL     1      18.251  25.517   9.748  1.00  0.00    -0.000 C 
BRANCH  30  31
ATOM     31  C   UNL     1      18.555  25.181   8.280  1.00  0.00    -0.003 C 
ATOM     32  C   UNL     1      17.310  24.658   7.567  1.00  0.00     0.004 C 
ENDBRANCH  30  31
ENDBRANCH  29  30
ENDBRANCH  28  29
ENDBRANCH  27  28
ENDBRANCH  26  27
ENDBRANCH  25  26
ENDBRANCH  24  25
ENDBRANCH  23  24
ENDBRANCH  22  23
ENDBRANCH  21  22
ENDBRANCH  20  21
ENDBRANCH  19  20
ENDBRANCH  18  19
ENDBRANCH   1  18
TORSDOF 28
ENDMDL
MODEL 4
REMARK VINA RESULT:    -5.343      1.321      3.083
REMARK INTER + INTRA:         -16.995
REMARK INTER:                 -14.126
REMARK INTRA:                  -2.869
REMARK UNBOUND:                -2.905
REMARK SMILES CCCCCCCCCCCCCCCCCCCCCCCCCCCCCC(=O)[O-]
REMARK SMILES IDX 16 1 17 2 18 3 19 4 20 5 21 6 22 7 23 8 24 9 25 10 26 11
REMARK SMILES IDX 27 12 28 13 29 14 30 15 31 16 32 17 15 18 14 19 13 20 12 21
REMARK SMILES IDX 11 22 10 23 9 24 8 25 7 26 6 27 5 28 4 29 3 30 2 31 1 32
REMARK H PARENT
REMARK Flexibility Score: inf
ROOT
ATOM      1  C   UNL     1      24.155  18.646   5.761  1.00  0.00     0.000 C 
ENDROOT
BRANCH   1   2
ATOM      2  C   UNL     1      23.902  17.787   4.508  1.00  0.00     0.000 C 
BRANCH   2   3
ATOM      3  C   UNL     1      25.131  16.962   4.091  1.00  0.00     0.000 C 
BRANCH   3   4
ATOM      4  C   UNL     1      26.325  17.158   5.039  1.00  0.00     0.000 C 
BRANCH   4   5
ATOM      5  C   UNL     1      27.314  15.982   5.005  1.00  0.00     0.000 C 
BRANCH   5   6
ATOM      6  C   UNL     1      28.663  16.381   5.626  1.00  0.00     0.000 C 
BRANCH   6   7
ATOM      7  C   UNL     1      29.762  15.332   5.388  1.00  0.00     0.000 C 
BRANCH   7   8
ATOM      8  C   UNL     1      31.003  15.921   4.698  1.00  0.00     0.000 C 
BRANCH   8   9
ATOM      9  C   UNL     1      32.168  14.920   4.602  1.00  0.00     0.000 C 
BRANCH   9  10
ATOM     10  C   UNL     1      33.382  15.238   5.493  1.00  0.00     0.000 C 
BRANCH  10  11
ATOM     11  C   UNL     1      33.667  14.140   6.532  1.00  0.00     0.000 C 
BRANCH  11  12
ATOM     12  C   UNL     1      32.720  12.936   6.388  1.00  0.00     0.000 C 
BRANCH  12  13
ATOM     13  C   UNL     1      32.264  12.380   7.749  1.00  0.00     0.006 C 
BRANCH  13  14
ATOM     14  C   UNL     1      33.279  12.671   8.863  1.00  0.00     0.053 C 
BRANCH  14  15
ATOM     15  C   UNL     1      33.941  11.421   9.358  1.00  0.00     0.041 C 
ATOM     16  O   UNL     1      33.398  10.299   9.169  1.00  0.00    -0.550 OA
ATOM     17  O   UNL     1      35.142  11.496  10.053  1.00  0.00    -0.550 OA
ENDBRANCH  14  15
ENDBRANCH  13  14
ENDBRANCH  12  13
ENDBRANCH  11  12
ENDBRANCH  10  11
ENDBRANCH   9  10
ENDBRANCH   8   9
ENDBRANCH   7   8
ENDBRANCH   6   7
ENDBRANCH   5   6
ENDBRANCH   4   5
ENDBRANCH   3   4
ENDBRANCH   2   3
ENDBRANCH   1   2
BRANCH   1  18
ATOM     18  C   UNL     1      22.914  19.379   6.312  1.00  0.00     0.000 C 
BRANCH  18  19
ATOM     19  C   UNL     1      22.322  20.450   5.377  1.00  0.00     0.000 C 
BRANCH  19  20
ATOM     20  C   UNL     1      21.276  21.378   6.028  1.00  0.00     0.000 C 
BRANCH  20  21
ATOM     21  C   UNL     1      20.074  21.731   5.133  1.00  0.00     0.000 C 
BRANCH  21  22
ATOM     22  C   UNL     1      19.083  22.684   5.816  1.00  0.00     0.000 C 
BRANCH  22  23
ATOM     23  C   UNL     1      17.892  21.911   6.402  1.00  0.00     0.000 C 
BRANCH  23  24
ATOM     24  C   UNL     1      16.915  22.823   7.162  1.00  0.00    -0.000 C 
BRANCH  24  25
ATOM     25  C   UNL     1      17.354  24.298   7.144  1.00  0.00    -0.000 C 
BRANCH  25  26
ATOM     26  C   UNL     1      17.345  24.939   8.542  1.00  0.00    -0.000 C 
BRANCH  26  27
ATOM     27  C   UNL     1      18.696  25.527   8.997  1.00  0.00    -0.000 C 
BRANCH  27  28
ATOM     28  C   UNL     1      19.895  24.580   8.774  1.00  0.00    -0.000 C 
BRANCH  28  29
ATOM     29  C   UNL     1      20.074  23.589   9.937  1.00  0.00    -0.000 C 
BRANCH  29  30
ATOM     30  C   UNL     1      19.922  22.124   9.500  1.00  0.00    -0.000 C 
BRANCH  30  31
ATOM     31  C   UNL     1      18.660  21.460  10.074  1.00  0.00    -0.003 C 
ATOM     32  C   UNL     1      18.119  22.247  11.264  1.00  0.00     0.004 C 
ENDBRANCH  30  31
ENDBRANCH  29  30
ENDBRANCH  28  29
ENDBRANCH  27  28
ENDBRANCH  26  27
ENDBRANCH  25  26
ENDBRANCH  24  25
ENDBRANCH  23  24
ENDBRANCH  22  23
ENDBRANCH  21  22
ENDBRANCH  20  21
ENDBRANCH  19  20
ENDBRANCH  18  19
ENDBRANCH   1  18
TORSDOF 28
ENDMDL
MODEL 5
REMARK VINA RESULT:    -5.171      3.748     13.304
REMARK INTER + INTRA:         -16.542
REMARK INTER:                 -13.605
REMARK INTRA:                  -2.937
REMARK UNBOUND:                -2.905
REMARK SMILES CCCCCCCCCCCCCCCCCCCCCCCCCCCCCC(=O)[O-]
REMARK SMILES IDX 16 1 17 2 18 3 19 4 20 5 21 6 22 7 23 8 24 9 25 10 26 11
REMARK SMILES IDX 27 12 28 13 29 14 30 15 31 16 32 17 15 18 14 19 13 20 12 21
REMARK SMILES IDX 11 22 10 23 9 24 8 25 7 26 6 27 5 28 4 29 3 30 2 31 1 32
REMARK H PARENT
REMARK Flexibility Score: inf
ROOT
ATOM      1  C   UNL     1      22.413  20.664   6.628  1.00  0.00     0.000 C 
ENDROOT
BRANCH   1   2
ATOM      2  C   UNL     1      21.726  21.099   7.936  1.00  0.00     0.000 C 
BRANCH   2   3
ATOM      3  C   UNL     1      21.660  22.627   8.096  1.00  0.00     0.000 C 
BRANCH   3   4
ATOM      4  C   UNL     1      21.781  23.075   9.562  1.00  0.00     0.000 C 
BRANCH   4   5
ATOM      5  C   UNL     1      20.480  23.678  10.113  1.00  0.00     0.000 C 
BRANCH   5   6
ATOM      6  C   UNL     1      19.550  22.579  10.652  1.00  0.00     0.000 C 
BRANCH   6   7
ATOM      7  C   UNL     1      18.076  22.813  10.285  1.00  0.00     0.000 C 
BRANCH   7   8
ATOM      8  C   UNL     1      17.817  24.231   9.749  1.00  0.00     0.000 C 
BRANCH   8   9
ATOM      9  C   UNL     1      17.234  24.237   8.325  1.00  0.00     0.000 C 
BRANCH   9  10
ATOM     10  C   UNL     1      18.257  24.012   7.197  1.00  0.00     0.000 C 
BRANCH  10  11
ATOM     11  C   UNL     1      18.139  22.620   6.551  1.00  0.00     0.000 C 
BRANCH  11  12
ATOM     12  C   UNL     1      19.196  22.387   5.458  1.00  0.00     0.000 C 
BRANCH  12  13
ATOM     13  C   UNL     1      19.202  20.937   4.944  1.00  0.00     0.006 C 
BRANCH  13  14
ATOM     14  C   UNL     1      18.885  19.927   6.056  1.00  0.00     0.053 C 
BRANCH  14  15
ATOM     15  C   UNL     1      19.216  18.523   5.648  1.00  0.00     0.041 C 
ATOM     16  O   UNL     1      20.021  17.837   6.334  1.00  0.00    -0.550 OA
ATOM     17  O   UNL     1      18.659  17.983   4.496  1.00  0.00    -0.550 OA
ENDBRANCH  14  15
ENDBRANCH  13  14
ENDBRANCH  12  13
ENDBRANCH  11  12
ENDBRANCH  10  11
ENDBRANCH   9  10
ENDBRANCH   8   9
ENDBRANCH   7   8
ENDBRANCH   6   7
ENDBRANCH   5   6
ENDBRANCH   4   5
ENDBRANCH   3   4
ENDBRANCH   2   3
ENDBRANCH   1   2
BRANCH   1  18
ATOM     18  C   UNL     1      23.209  19.346   6.715  1.00  0.00     0.000 C 
BRANCH  18  19
ATOM     19  C   UNL     1      23.540  18.694   5.359  1.00  0.00     0.000 C 
BRANCH  19  20
ATOM     20  C   UNL     1      25.040  18.440   5.106  1.00  0.00     0.000 C 
BRANCH  20  21
ATOM     21  C   UNL     1      25.398  16.992   4.723  1.00  0.00     0.000 C 
BRANCH  21  22
ATOM     22  C   UNL     1      26.885  16.817   4.381  1.00  0.00     0.000 C 
BRANCH  22  23
ATOM     23  C   UNL     1      27.607  16.001   5.462  1.00  0.00     0.000 C 
BRANCH  23  24
ATOM     24  C   UNL     1      29.080  16.411   5.626  1.00  0.00    -0.000 C 
BRANCH  24  25
ATOM     25  C   UNL     1      30.050  15.308   5.169  1.00  0.00    -0.000 C 
BRANCH  25  26
ATOM     26  C   UNL     1      31.158  15.836   4.240  1.00  0.00    -0.000 C 
BRANCH  26  27
ATOM     27  C   UNL     1      32.497  15.076   4.327  1.00  0.00    -0.000 C 
BRANCH  27  28
ATOM     28  C   UNL     1      33.261  15.308   5.648  1.00  0.00    -0.000 C 
BRANCH  28  29
ATOM     29  C   UNL     1      34.409  14.301   5.838  1.00  0.00    -0.000 C 
BRANCH  29  30
ATOM     30  C   UNL     1      34.296  13.507   7.149  1.00  0.00    -0.000 C 
BRANCH  30  31
ATOM     31  C   UNL     1      32.880  12.961   7.393  1.00  0.00    -0.003 C 
ATOM     32  C   UNL     1      32.594  11.757   6.499  1.00  0.00     0.004 C 
ENDBRANCH  30  31
ENDBRANCH  29  30
ENDBRANCH  28  29
ENDBRANCH  27  28
ENDBRANCH  26  27
ENDBRANCH  25  26
ENDBRANCH  24  25
ENDBRANCH  23  24
ENDBRANCH  22  23
ENDBRANCH  21  22
ENDBRANCH  20  21
ENDBRANCH  19  20
ENDBRANCH  18  19
ENDBRANCH   1  18
TORSDOF 28
ENDMDL
MODEL 6
REMARK VINA RESULT:    -5.085      2.217      3.907
REMARK INTER + INTRA:         -16.314
REMARK INTER:                 -12.423
REMARK INTRA:                  -3.891
REMARK UNBOUND:                -2.905
REMARK SMILES CCCCCCCCCCCCCCCCCCCCCCCCCCCCCC(=O)[O-]
REMARK SMILES IDX 16 1 17 2 18 3 19 4 20 5 21 6 22 7 23 8 24 9 25 10 26 11
REMARK SMILES IDX 27 12 28 13 29 14 30 15 31 16 32 17 15 18 14 19 13 20 12 21
REMARK SMILES IDX 11 22 10 23 9 24 8 25 7 26 6 27 5 28 4 29 3 30 2 31 1 32
REMARK H PARENT
REMARK Flexibility Score: inf
ROOT
ATOM      1  C   UNL     1      22.152  21.053   7.462  1.00  0.00     0.000 C 
ENDROOT
BRANCH   1   2
ATOM      2  C   UNL     1      22.592  19.814   6.660  1.00  0.00     0.000 C 
BRANCH   2   3
ATOM      3  C   UNL     1      22.394  19.984   5.144  1.00  0.00     0.000 C 
BRANCH   3   4
ATOM      4  C   UNL     1      20.999  19.539   4.675  1.00  0.00     0.000 C 
BRANCH   4   5
ATOM      5  C   UNL     1      20.893  18.020   4.471  1.00  0.00     0.000 C 
BRANCH   5   6
ATOM      6  C   UNL     1      20.572  17.309   5.796  1.00  0.00     0.000 C 
BRANCH   6   7
ATOM      7  C   UNL     1      21.559  16.175   6.117  1.00  0.00     0.000 C 
BRANCH   7   8
ATOM      8  C   UNL     1      21.850  15.281   4.900  1.00  0.00     0.000 C 
BRANCH   8   9
ATOM      9  C   UNL     1      23.302  14.773   4.862  1.00  0.00     0.000 C 
BRANCH   9  10
ATOM     10  C   UNL     1      24.257  15.584   3.968  1.00  0.00     0.000 C 
BRANCH  10  11
ATOM     11  C   UNL     1      24.492  17.014   4.485  1.00  0.00     0.000 C 
BRANCH  11  12
ATOM     12  C   UNL     1      25.941  17.241   4.947  1.00  0.00     0.000 C 
BRANCH  12  13
ATOM     13  C   UNL     1      26.937  16.300   4.247  1.00  0.00     0.006 C 
BRANCH  13  14
ATOM     14  C   UNL     1      27.596  15.320   5.228  1.00  0.00     0.053 C 
BRANCH  14  15
ATOM     15  C   UNL     1      29.052  15.618   5.422  1.00  0.00     0.041 C 
ATOM     16  O   UNL     1      29.413  16.718   5.920  1.00  0.00    -0.550 OA
ATOM     17  O   UNL     1      30.011  14.694   5.027  1.00  0.00    -0.550 OA
ENDBRANCH  14  15
ENDBRANCH  13  14
ENDBRANCH  12  13
ENDBRANCH  11  12
ENDBRANCH  10  11
ENDBRANCH   9  10
ENDBRANCH   8   9
ENDBRANCH   7   8
ENDBRANCH   6   7
ENDBRANCH   5   6
ENDBRANCH   4   5
ENDBRANCH   3   4
ENDBRANCH   2   3
ENDBRANCH   1   2
BRANCH   1  18
ATOM     18  C   UNL     1      20.627  21.273   7.542  1.00  0.00     0.000 C 
BRANCH  18  19
ATOM     19  C   UNL     1      20.123  22.580   6.900  1.00  0.00     0.000 C 
BRANCH  19  20
ATOM     20  C   UNL     1      18.708  22.503   6.293  1.00  0.00     0.000 C 
BRANCH  20  21
ATOM     21  C   UNL     1      17.887  23.802   6.393  1.00  0.00     0.000 C 
BRANCH  21  22
ATOM     22  C   UNL     1      16.909  23.798   7.577  1.00  0.00     0.000 C 
BRANCH  22  23
ATOM     23  C   UNL     1      17.179  24.981   8.519  1.00  0.00     0.000 C 
BRANCH  23  24
ATOM     24  C   UNL     1      18.666  25.370   8.564  1.00  0.00    -0.000 C 
BRANCH  24  25
ATOM     25  C   UNL     1      19.292  25.138   9.951  1.00  0.00    -0.000 C 
BRANCH  25  26
ATOM     26  C   UNL     1      19.619  23.658  10.217  1.00  0.00    -0.000 C 
BRANCH  26  27
ATOM     27  C   UNL     1      18.566  22.899  11.050  1.00  0.00    -0.000 C 
BRANCH  27  28
ATOM     28  C   UNL     1      18.457  21.399  10.700  1.00  0.00    -0.000 C 
BRANCH  28  29
ATOM     29  C   UNL     1      17.519  21.148   9.507  1.00  0.00    -0.000 C 
BRANCH  29  30
ATOM     30  C   UNL     1      17.400  19.660   9.144  1.00  0.00    -0.000 C 
BRANCH  30  31
ATOM     31  C   UNL     1      17.068  19.434   7.661  1.00  0.00    -0.003 C 
ATOM     32  C   UNL     1      17.322  17.984   7.256  1.00  0.00     0.004 C 
ENDBRANCH  30  31
ENDBRANCH  29  30
ENDBRANCH  28  29
ENDBRANCH  27  28
ENDBRANCH  26  27
ENDBRANCH  25  26
ENDBRANCH  24  25
ENDBRANCH  23  24
ENDBRANCH  22  23
ENDBRANCH  21  22
ENDBRANCH  20  21
ENDBRANCH  19  20
ENDBRANCH  18  19
ENDBRANCH   1  18
TORSDOF 28
ENDMDL
MODEL 7
REMARK VINA RESULT:    -5.065      1.823      4.172
REMARK INTER + INTRA:         -16.261
REMARK INTER:                 -12.604
REMARK INTRA:                  -3.657
REMARK UNBOUND:                -2.905
REMARK SMILES CCCCCCCCCCCCCCCCCCCCCCCCCCCCCC(=O)[O-]
REMARK SMILES IDX 16 1 17 2 18 3 19 4 20 5 21 6 22 7 23 8 24 9 25 10 26 11
REMARK SMILES IDX 27 12 28 13 29 14 30 15 31 16 32 17 15 18 14 19 13 20 12 21
REMARK SMILES IDX 11 22 10 23 9 24 8 25 7 26 6 27 5 28 4 29 3 30 2 31 1 32
REMARK H PARENT
REMARK Flexibility Score: inf
ROOT
ATOM      1  C   UNL     1      21.470  21.986   8.730  1.00  0.00     0.000 C 
ENDROOT
BRANCH   1   2
ATOM      2  C   UNL     1      21.389  22.241   7.213  1.00  0.00     0.000 C 
BRANCH   2   3
ATOM      3  C   UNL     1      21.885  21.047   6.380  1.00  0.00     0.000 C 
BRANCH   3   4
ATOM      4  C   UNL     1      21.588  21.207   4.880  1.00  0.00     0.000 C 
BRANCH   4   5
ATOM      5  C   UNL     1      22.564  20.423   3.990  1.00  0.00     0.000 C 
BRANCH   5   6
ATOM      6  C   UNL     1      23.421  19.461   4.829  1.00  0.00     0.000 C 
BRANCH   6   7
ATOM      7  C   UNL     1      23.812  18.188   4.061  1.00  0.00     0.000 C 
BRANCH   7   8
ATOM      8  C   UNL     1      25.234  17.708   4.398  1.00  0.00     0.000 C 
BRANCH   8   9
ATOM      9  C   UNL     1      25.371  16.175   4.375  1.00  0.00     0.000 C 
BRANCH   9  10
ATOM     10  C   UNL     1      26.774  15.636   4.709  1.00  0.00     0.000 C 
BRANCH  10  11
ATOM     11  C   UNL     1      27.836  16.746   4.796  1.00  0.00     0.000 C 
BRANCH  11  12
ATOM     12  C   UNL     1      29.032  16.347   5.677  1.00  0.00     0.000 C 
BRANCH  12  13
ATOM     13  C   UNL     1      30.324  16.152   4.862  1.00  0.00     0.006 C 
BRANCH  13  14
ATOM     14  C   UNL     1      30.842  14.709   4.933  1.00  0.00     0.053 C 
BRANCH  14  15
ATOM     15  C   UNL     1      32.338  14.655   5.004  1.00  0.00     0.041 C 
ATOM     16  O   UNL     1      32.988  15.637   5.453  1.00  0.00    -0.550 OA
ATOM     17  O   UNL     1      33.016  13.532   4.546  1.00  0.00    -0.550 OA
ENDBRANCH  14  15
ENDBRANCH  13  14
ENDBRANCH  12  13
ENDBRANCH  11  12
ENDBRANCH  10  11
ENDBRANCH   9  10
ENDBRANCH   8   9
ENDBRANCH   7   8
ENDBRANCH   6   7
ENDBRANCH   5   6
ENDBRANCH   4   5
ENDBRANCH   3   4
ENDBRANCH   2   3
ENDBRANCH   1   2
BRANCH   1  18
ATOM     18  C   UNL     1      21.115  23.198   9.616  1.00  0.00     0.000 C 
BRANCH  18  19
ATOM     19  C   UNL     1      20.378  24.340   8.892  1.00  0.00     0.000 C 
BRANCH  19  20
ATOM     20  C   UNL     1      18.892  24.500   9.271  1.00  0.00     0.000 C 
BRANCH  20  21
ATOM     21  C   UNL     1      18.008  25.135   8.181  1.00  0.00     0.000 C 
BRANCH  21  22
ATOM     22  C   UNL     1      16.990  24.149   7.591  1.00  0.00     0.000 C 
BRANCH  22  23
ATOM     23  C   UNL     1      17.642  23.253   6.529  1.00  0.00     0.000 C 
BRANCH  23  24
ATOM     24  C   UNL     1      17.344  21.761   6.752  1.00  0.00    -0.000 C 
BRANCH  24  25
ATOM     25  C   UNL     1      18.023  21.210   8.018  1.00  0.00    -0.000 C 
BRANCH  25  26
ATOM     26  C   UNL     1      17.586  19.773   8.351  1.00  0.00    -0.000 C 
BRANCH  26  27
ATOM     27  C   UNL     1      17.788  18.752   7.213  1.00  0.00    -0.000 C 
BRANCH  27  28
ATOM     28  C   UNL     1      19.176  18.832   6.541  1.00  0.00    -0.000 C 
BRANCH  28  29
ATOM     29  C   UNL     1      19.200  18.125   5.175  1.00  0.00    -0.000 C 
BRANCH  29  30
ATOM     30  C   UNL     1      20.431  17.225   4.991  1.00  0.00    -0.000 C 
BRANCH  30  31
ATOM     31  C   UNL     1      20.874  16.548   6.298  1.00  0.00    -0.003 C 
ATOM     32  C   UNL     1      22.010  15.559   6.046  1.00  0.00     0.004 C 
ENDBRANCH  30  31
ENDBRANCH  29  30
ENDBRANCH  28  29
ENDBRANCH  27  28
ENDBRANCH  26  27
ENDBRANCH  25  26
ENDBRANCH  24  25
ENDBRANCH  23  24
ENDBRANCH  22  23
ENDBRANCH  21  22
ENDBRANCH  20  21
ENDBRANCH  19  20
ENDBRANCH  18  19
ENDBRANCH   1  18
TORSDOF 28
ENDMDL
MODEL 8
REMARK VINA RESULT:    -4.998      4.676     13.081
REMARK INTER + INTRA:         -16.084
REMARK INTER:                 -12.688
REMARK INTRA:                  -3.396
REMARK UNBOUND:                -2.905
REMARK SMILES CCCCCCCCCCCCCCCCCCCCCCCCCCCCCC(=O)[O-]
REMARK SMILES IDX 16 1 17 2 18 3 19 4 20 5 21 6 22 7 23 8 24 9 25 10 26 11
REMARK SMILES IDX 27 12 28 13 29 14 30 15 31 16 32 17 15 18 14 19 13 20 12 21
REMARK SMILES IDX 11 22 10 23 9 24 8 25 7 26 6 27 5 28 4 29 3 30 2 31 1 32
REMARK H PARENT
REMARK Flexibility Score: inf
ROOT
ATOM      1  C   UNL     1      21.908  20.928   7.649  1.00  0.00     0.000 C 
ENDROOT
BRANCH   1   2
ATOM      2  C   UNL     1      21.487  21.947   6.573  1.00  0.00     0.000 C 
BRANCH   2   3
ATOM      3  C   UNL     1      21.809  21.475   5.145  1.00  0.00     0.000 C 
BRANCH   3   4
ATOM      4  C   UNL     1      20.573  20.938   4.406  1.00  0.00     0.000 C 
BRANCH   4   5
ATOM      5  C   UNL     1      20.232  19.489   4.786  1.00  0.00     0.000 C 
BRANCH   5   6
ATOM      6  C   UNL     1      18.745  19.190   4.535  1.00  0.00     0.000 C 
BRANCH   6   7
ATOM      7  C   UNL     1      17.972  18.883   5.828  1.00  0.00     0.000 C 
BRANCH   7   8
ATOM      8  C   UNL     1      18.762  19.261   7.093  1.00  0.00     0.000 C 
BRANCH   8   9
ATOM      9  C   UNL     1      18.183  20.490   7.817  1.00  0.00     0.000 C 
BRANCH   9  10
ATOM     10  C   UNL     1      17.248  21.370   6.969  1.00  0.00     0.000 C 
BRANCH  10  11
ATOM     11  C   UNL     1      17.948  22.621   6.410  1.00  0.00     0.000 C 
BRANCH  11  12
ATOM     12  C   UNL     1      17.171  23.914   6.713  1.00  0.00     0.000 C 
BRANCH  12  13
ATOM     13  C   UNL     1      17.742  24.674   7.923  1.00  0.00     0.006 C 
BRANCH  13  14
ATOM     14  C   UNL     1      19.201  24.294   8.210  1.00  0.00     0.053 C 
BRANCH  14  15
ATOM     15  C   UNL     1      19.501  24.295   9.679  1.00  0.00     0.041 C 
ATOM     16  O   UNL     1      19.774  23.216  10.271  1.00  0.00    -0.550 OA
ATOM     17  O   UNL     1      19.451  25.482  10.399  1.00  0.00    -0.550 OA
ENDBRANCH  14  15
ENDBRANCH  13  14
ENDBRANCH  12  13
ENDBRANCH  11  12
ENDBRANCH  10  11
ENDBRANCH   9  10
ENDBRANCH   8   9
ENDBRANCH   7   8
ENDBRANCH   6   7
ENDBRANCH   5   6
ENDBRANCH   4   5
ENDBRANCH   3   4
ENDBRANCH   2   3
ENDBRANCH   1   2
BRANCH   1  18
ATOM     18  C   UNL     1      23.285  20.269   7.422  1.00  0.00     0.000 C 
BRANCH  18  19
ATOM     19  C   UNL     1      23.235  18.824   6.892  1.00  0.00     0.000 C 
BRANCH  19  20
ATOM     20  C   UNL     1      24.076  18.565   5.625  1.00  0.00     0.000 C 
BRANCH  20  21
ATOM     21  C   UNL     1      23.867  17.184   4.977  1.00  0.00     0.000 C 
BRANCH  21  22
ATOM     22  C   UNL     1      25.187  16.494   4.606  1.00  0.00     0.000 C 
BRANCH  22  23
ATOM     23  C   UNL     1      26.286  17.527   4.319  1.00  0.00     0.000 C 
BRANCH  23  24
ATOM     24  C   UNL     1      27.678  16.886   4.190  1.00  0.00    -0.000 C 
BRANCH  24  25
ATOM     25  C   UNL     1      27.935  15.821   5.271  1.00  0.00    -0.000 C 
BRANCH  25  26
ATOM     26  C   UNL     1      29.382  15.298   5.259  1.00  0.00    -0.000 C 
BRANCH  26  27
ATOM     27  C   UNL     1      30.322  16.005   4.261  1.00  0.00    -0.000 C 
BRANCH  27  28
ATOM     28  C   UNL     1      31.808  15.983   4.679  1.00  0.00    -0.000 C 
BRANCH  28  29
ATOM     29  C   UNL     1      32.586  14.846   3.993  1.00  0.00    -0.000 C 
BRANCH  29  30
ATOM     30  C   UNL     1      33.366  13.973   4.987  1.00  0.00    -0.000 C 
BRANCH  30  31
ATOM     31  C   UNL     1      33.868  14.763   6.206  1.00  0.00    -0.003 C 
ATOM     32  C   UNL     1      34.197  13.829   7.368  1.00  0.00     0.004 C 
ENDBRANCH  30  31
ENDBRANCH  29  30
ENDBRANCH  28  29
ENDBRANCH  27  28
ENDBRANCH  26  27
ENDBRANCH  25  26
ENDBRANCH  24  25
ENDBRANCH  23  24
ENDBRANCH  22  23
ENDBRANCH  21  22
ENDBRANCH  20  21
ENDBRANCH  19  20
ENDBRANCH  18  19
ENDBRANCH   1  18
TORSDOF 28
ENDMDL
MODEL 9
REMARK VINA RESULT:    -4.977      1.095      2.802
REMARK INTER + INTRA:         -16.029
REMARK INTER:                 -13.370
REMARK INTRA:                  -2.660
REMARK UNBOUND:                -2.905
REMARK SMILES CCCCCCCCCCCCCCCCCCCCCCCCCCCCCC(=O)[O-]
REMARK SMILES IDX 16 1 17 2 18 3 19 4 20 5 21 6 22 7 23 8 24 9 25 10 26 11
REMARK SMILES IDX 27 12 28 13 29 14 30 15 31 16 32 17 15 18 14 19 13 20 12 21
REMARK SMILES IDX 11 22 10 23 9 24 8 25 7 26 6 27 5 28 4 29 3 30 2 31 1 32
REMARK H PARENT
REMARK Flexibility Score: inf
ROOT
ATOM      1  C   UNL     1      21.886  20.061   6.798  1.00  0.00     0.000 C 
ENDROOT
BRANCH   1   2
ATOM      2  C   UNL     1      23.274  19.397   6.748  1.00  0.00     0.000 C 
BRANCH   2   3
ATOM      3  C   UNL     1      23.722  19.057   5.317  1.00  0.00     0.000 C 
BRANCH   3   4
ATOM      4  C   UNL     1      24.377  17.669   5.215  1.00  0.00     0.000 C 
BRANCH   4   5
ATOM      5  C   UNL     1      25.710  17.693   4.450  1.00  0.00     0.000 C 
BRANCH   5   6
ATOM      6  C   UNL     1      26.409  16.325   4.523  1.00  0.00     0.000 C 
BRANCH   6   7
ATOM      7  C   UNL     1      27.707  16.363   5.347  1.00  0.00     0.000 C 
BRANCH   7   8
ATOM      8  C   UNL     1      28.917  15.817   4.569  1.00  0.00     0.000 C 
BRANCH   8   9
ATOM      9  C   UNL     1      30.246  15.999   5.323  1.00  0.00     0.000 C 
BRANCH   9  10
ATOM     10  C   UNL     1      31.513  15.875   4.458  1.00  0.00     0.000 C 
BRANCH  10  11
ATOM     11  C   UNL     1      32.801  15.779   5.294  1.00  0.00     0.000 C 
BRANCH  11  12
ATOM     12  C   UNL     1      33.375  14.352   5.328  1.00  0.00     0.000 C 
BRANCH  12  13
ATOM     13  C   UNL     1      34.263  14.104   6.560  1.00  0.00     0.006 C 
BRANCH  13  14
ATOM     14  C   UNL     1      34.182  12.652   7.050  1.00  0.00     0.053 C 
BRANCH  14  15
ATOM     15  C   UNL     1      33.849  12.570   8.509  1.00  0.00     0.041 C 
ATOM     16  O   UNL     1      34.558  11.873   9.283  1.00  0.00    -0.550 OA
ATOM     17  O   UNL     1      32.739  13.240   9.008  1.00  0.00    -0.550 OA
ENDBRANCH  14  15
ENDBRANCH  13  14
ENDBRANCH  12  13
ENDBRANCH  11  12
ENDBRANCH  10  11
ENDBRANCH   9  10
ENDBRANCH   8   9
ENDBRANCH   7   8
ENDBRANCH   6   7
ENDBRANCH   5   6
ENDBRANCH   4   5
ENDBRANCH   3   4
ENDBRANCH   2   3
ENDBRANCH   1   2
BRANCH   1  18
ATOM     18  C   UNL     1      21.787  21.426   6.086  1.00  0.00     0.000 C 
BRANCH  18  19
ATOM     19  C   UNL     1      20.770  22.408   6.698  1.00  0.00     0.000 C 
BRANCH  19  20
ATOM     20  C   UNL     1      19.424  22.501   5.952  1.00  0.00     0.000 C 
BRANCH  20  21
ATOM     21  C   UNL     1      19.173  21.383   4.923  1.00  0.00     0.000 C 
BRANCH  21  22
ATOM     22  C   UNL     1      17.753  20.806   5.006  1.00  0.00     0.000 C 
BRANCH  22  23
ATOM     23  C   UNL     1      17.205  20.893   6.438  1.00  0.00     0.000 C 
BRANCH  23  24
ATOM     24  C   UNL     1      17.413  19.591   7.229  1.00  0.00    -0.000 C 
BRANCH  24  25
ATOM     25  C   UNL     1      17.751  19.851   8.707  1.00  0.00    -0.000 C 
BRANCH  25  26
ATOM     26  C   UNL     1      17.874  21.349   9.036  1.00  0.00    -0.000 C 
BRANCH  26  27
ATOM     27  C   UNL     1      18.810  21.682  10.216  1.00  0.00    -0.000 C 
BRANCH  27  28
ATOM     28  C   UNL     1      18.814  23.175  10.607  1.00  0.00    -0.000 C 
BRANCH  28  29
ATOM     29  C   UNL     1      19.948  23.953   9.916  1.00  0.00    -0.000 C 
BRANCH  29  30
ATOM     30  C   UNL     1      19.431  24.999   8.917  1.00  0.00    -0.000 C 
BRANCH  30  31
ATOM     31  C   UNL     1      17.903  25.157   8.959  1.00  0.00    -0.003 C 
ATOM     32  C   UNL     1      17.269  24.708   7.644  1.00  0.00     0.004 C 
ENDBRANCH  30  31
ENDBRANCH  29  30
ENDBRANCH  28  29
ENDBRANCH  27  28
ENDBRANCH  26  27
ENDBRANCH  25  26
ENDBRANCH  24  25
ENDBRANCH  23  24
ENDBRANCH  22  23
ENDBRANCH  21  22
ENDBRANCH  20  21
ENDBRANCH  19  20
ENDBRANCH  18  19
ENDBRANCH   1  18
TORSDOF 28
ENDMDL
