MODEL 1
REMARK VINA RESULT:    -5.213      0.000      0.000
REMARK INTER + INTRA:         -16.599
REMARK INTER:                 -13.136
REMARK INTRA:                  -3.463
REMARK UNBOUND:                -3.463
REMARK SMILES CCCCCCCCCCCCCCCCCCCCCCCCCCCC(=O)[O-]
REMARK SMILES IDX 15 1 16 2 17 3 18 4 19 5 20 6 21 7 22 8 23 9 24 10 25 11
REMARK SMILES IDX 26 12 27 13 28 14 29 15 30 16 14 17 13 18 12 19 11 20 10 21
REMARK SMILES IDX 9 22 8 23 7 24 6 25 5 26 4 27 3 28 2 29 1 30
REMARK H PARENT
REMARK Flexibility Score: inf
ROOT
ATOM      1  C   UNL     1     -47.453   9.730 -29.250  1.00  0.00     0.000 C 
ENDROOT
BRANCH   1   2
ATOM      2  C   UNL     1     -47.232   8.629 -30.309  1.00  0.00     0.000 C 
BRANCH   2   3
ATOM      3  C   UNL     1     -47.923   7.286 -29.991  1.00  0.00     0.000 C 
BRANCH   3   4
ATOM      4  C   UNL     1     -48.515   6.595 -31.233  1.00  0.00     0.000 C 
BRANCH   4   5
ATOM      5  C   UNL     1     -48.626   7.550 -32.444  1.00  0.00     0.000 C 
BRANCH   5   6
ATOM      6  C   UNL     1     -49.380   6.919 -33.629  1.00  0.00     0.000 C 
BRANCH   6   7
ATOM      7  C   UNL     1     -50.624   6.113 -33.199  1.00  0.00     0.000 C 
BRANCH   7   8
ATOM      8  C   UNL     1     -51.937   6.631 -33.814  1.00  0.00     0.000 C 
BRANCH   8   9
ATOM      9  C   UNL     1     -53.178   6.097 -33.076  1.00  0.00     0.000 C 
BRANCH   9  10
ATOM     10  C   UNL     1     -53.826   7.154 -32.167  1.00  0.00     0.000 C 
BRANCH  10  11
ATOM     11  C   UNL     1     -53.273   7.128 -30.734  1.00  0.00     0.000 C 
BRANCH  11  12
ATOM     12  C   UNL     1     -52.894   8.543 -30.269  1.00  0.00     0.006 C 
BRANCH  12  13
ATOM     13  C   UNL     1     -51.694   9.110 -31.040  1.00  0.00     0.053 C 
BRANCH  13  14
ATOM     14  C   UNL     1     -52.065  10.307 -31.859  1.00  0.00     0.041 C 
ATOM     15  O   UNL     1     -51.856  10.314 -33.101  1.00  0.00    -0.550 OA
ATOM     16  O   UNL     1     -52.636  11.419 -31.251  1.00  0.00    -0.550 OA
ENDBRANCH  13  14
ENDBRANCH  12  13
ENDBRANCH  11  12
ENDBRANCH  10  11
ENDBRANCH   9  10
ENDBRANCH   8   9
ENDBRANCH   7   8
ENDBRANCH   6   7
ENDBRANCH   5   6
ENDBRANCH   4   5
ENDBRANCH   3   4
ENDBRANCH   2   3
ENDBRANCH   1   2
BRANCH   1  17
ATOM     17  C   UNL     1     -48.858  10.367 -29.247  1.00  0.00     0.000 C 
BRANCH  17  18
ATOM     18  C   UNL     1     -48.903  11.852 -28.839  1.00  0.00     0.000 C 
BRANCH  18  19
ATOM     19  C   UNL     1     -50.336  12.412 -28.805  1.00  0.00     0.000 C 
BRANCH  19  20
ATOM     20  C   UNL     1     -50.382  13.943 -28.924  1.00  0.00     0.000 C 
BRANCH  20  21
ATOM     21  C   UNL     1     -50.079  14.432 -30.352  1.00  0.00     0.000 C 
BRANCH  21  22
ATOM     22  C   UNL     1     -50.546  15.877 -30.592  1.00  0.00    -0.000 C 
BRANCH  22  23
ATOM     23  C   UNL     1     -51.526  15.998 -31.775  1.00  0.00    -0.000 C 
BRANCH  23  24
ATOM     24  C   UNL     1     -52.735  16.891 -31.458  1.00  0.00    -0.000 C 
BRANCH  24  25
ATOM     25  C   UNL     1     -52.329  18.229 -30.816  1.00  0.00    -0.000 C 
BRANCH  25  26
ATOM     26  C   UNL     1     -53.483  18.886 -30.034  1.00  0.00    -0.000 C 
BRANCH  26  27
ATOM     27  C   UNL     1     -53.873  18.157 -28.733  1.00  0.00    -0.000 C 
BRANCH  27  28
ATOM     28  C   UNL     1     -52.660  17.841 -27.839  1.00  0.00    -0.000 C 
BRANCH  28  29
ATOM     29  C   UNL     1     -52.650  16.382 -27.356  1.00  0.00    -0.003 C 
ATOM     30  C   UNL     1     -53.677  15.513 -28.084  1.00  0.00     0.004 C 
ENDBRANCH  28  29
ENDBRANCH  27  28
ENDBRANCH  26  27
ENDBRANCH  25  26
ENDBRANCH  24  25
ENDBRANCH  23  24
ENDBRANCH  22  23
ENDBRANCH  21  22
ENDBRANCH  20  21
ENDBRANCH  19  20
ENDBRANCH  18  19
ENDBRANCH  17  18
ENDBRANCH   1  17
TORSDOF 26
ENDMDL
MODEL 2
REMARK VINA RESULT:    -5.085      1.234      2.364
REMARK INTER + INTRA:         -16.276
REMARK INTER:                 -12.372
REMARK INTRA:                  -3.904
REMARK UNBOUND:                -3.463
REMARK SMILES CCCCCCCCCCCCCCCCCCCCCCCCCCCC(=O)[O-]
REMARK SMILES IDX 15 1 16 2 17 3 18 4 19 5 20 6 21 7 22 8 23 9 24 10 25 11
REMARK SMILES IDX 26 12 27 13 28 14 29 15 30 16 14 17 13 18 12 19 11 20 10 21
REMARK SMILES IDX 9 22 8 23 7 24 6 25 5 26 4 27 3 28 2 29 1 30
REMARK H PARENT
REMARK Flexibility Score: inf
ROOT
ATOM      1  C   UNL     1     -48.599  10.259 -29.497  1.00  0.00     0.000 C 
ENDROOT
BRANCH   1   2
ATOM      2  C   UNL     1     -47.213   9.582 -29.459  1.00  0.00     0.000 C 
BRANCH   2   3
ATOM      3  C   UNL     1     -47.233   8.065 -29.742  1.00  0.00     0.000 C 
BRANCH   3   4
ATOM      4  C   UNL     1     -48.644   7.512 -30.010  1.00  0.00     0.000 C 
BRANCH   4   5
ATOM      5  C   UNL     1     -48.698   6.612 -31.266  1.00  0.00     0.000 C 
BRANCH   5   6
ATOM      6  C   UNL     1     -48.515   7.405 -32.573  1.00  0.00     0.000 C 
BRANCH   6   7
ATOM      7  C   UNL     1     -49.237   6.765 -33.779  1.00  0.00     0.000 C 
BRANCH   7   8
ATOM      8  C   UNL     1     -50.515   5.997 -33.394  1.00  0.00     0.000 C 
BRANCH   8   9
ATOM      9  C   UNL     1     -51.784   6.651 -33.972  1.00  0.00     0.000 C 
BRANCH   9  10
ATOM     10  C   UNL     1     -52.885   6.842 -32.916  1.00  0.00     0.000 C 
BRANCH  10  11
ATOM     11  C   UNL     1     -53.396   8.289 -32.843  1.00  0.00     0.000 C 
BRANCH  11  12
ATOM     12  C   UNL     1     -52.230   9.286 -32.937  1.00  0.00     0.006 C 
BRANCH  12  13
ATOM     13  C   UNL     1     -51.415   9.357 -31.639  1.00  0.00     0.053 C 
BRANCH  13  14
ATOM     14  C   UNL     1     -52.291   9.440 -30.427  1.00  0.00     0.041 C 
ATOM     15  O   UNL     1     -52.805  10.539 -30.091  1.00  0.00    -0.550 OA
ATOM     16  O   UNL     1     -52.535   8.304 -29.663  1.00  0.00    -0.550 OA
ENDBRANCH  13  14
ENDBRANCH  12  13
ENDBRANCH  11  12
ENDBRANCH  10  11
ENDBRANCH   9  10
ENDBRANCH   8   9
ENDBRANCH   7   8
ENDBRANCH   6   7
ENDBRANCH   5   6
ENDBRANCH   4   5
ENDBRANCH   3   4
ENDBRANCH   2   3
ENDBRANCH   1   2
BRANCH   1  17
ATOM     17  C   UNL     1     -48.826  11.356 -28.436  1.00  0.00     0.000 C 
BRANCH  17  18
ATOM     18  C   UNL     1     -49.970  12.340 -28.743  1.00  0.00     0.000 C 
BRANCH  18  19
ATOM     19  C   UNL     1     -49.970  12.806 -30.210  1.00  0.00     0.000 C 
BRANCH  19  20
ATOM     20  C   UNL     1     -49.814  14.328 -30.352  1.00  0.00     0.000 C 
BRANCH  20  21
ATOM     21  C   UNL     1     -51.029  14.984 -31.032  1.00  0.00     0.000 C 
BRANCH  21  22
ATOM     22  C   UNL     1     -52.193  13.999 -31.237  1.00  0.00    -0.000 C 
BRANCH  22  23
ATOM     23  C   UNL     1     -53.435  14.364 -30.402  1.00  0.00    -0.000 C 
BRANCH  23  24
ATOM     24  C   UNL     1     -53.349  13.856 -28.954  1.00  0.00    -0.000 C 
BRANCH  24  25
ATOM     25  C   UNL     1     -53.751  14.929 -27.927  1.00  0.00    -0.000 C 
BRANCH  25  26
ATOM     26  C   UNL     1     -52.795  16.137 -27.927  1.00  0.00    -0.000 C 
BRANCH  26  27
ATOM     27  C   UNL     1     -53.485  17.502 -27.733  1.00  0.00    -0.000 C 
BRANCH  27  28
ATOM     28  C   UNL     1     -53.147  18.506 -28.849  1.00  0.00    -0.000 C 
BRANCH  28  29
ATOM     29  C   UNL     1     -54.069  18.362 -30.070  1.00  0.00    -0.003 C 
ATOM     30  C   UNL     1     -53.314  17.935 -31.331  1.00  0.00     0.004 C 
ENDBRANCH  28  29
ENDBRANCH  27  28
ENDBRANCH  26  27
ENDBRANCH  25  26
ENDBRANCH  24  25
ENDBRANCH  23  24
ENDBRANCH  22  23
ENDBRANCH  21  22
ENDBRANCH  20  21
ENDBRANCH  19  20
ENDBRANCH  18  19
ENDBRANCH  17  18
ENDBRANCH   1  17
TORSDOF 26
ENDMDL
MODEL 3
REMARK VINA RESULT:    -4.919      2.292      3.742
REMARK INTER + INTRA:         -15.859
REMARK INTER:                 -11.609
REMARK INTRA:                  -4.250
REMARK UNBOUND:                -3.463
REMARK SMILES CCCCCCCCCCCCCCCCCCCCCCCCCCCC(=O)[O-]
REMARK SMILES IDX 15 1 16 2 17 3 18 4 19 5 20 6 21 7 22 8 23 9 24 10 25 11
REMARK SMILES IDX 26 12 27 13 28 14 29 15 30 16 14 17 13 18 12 19 11 20 10 21
REMARK SMILES IDX 9 22 8 23 7 24 6 25 5 26 4 27 3 28 2 29 1 30
REMARK H PARENT
REMARK Flexibility Score: inf
ROOT
ATOM      1  C   UNL     1     -50.126  12.592 -28.767  1.00  0.00     0.000 C 
ENDROOT
BRANCH   1   2
ATOM      2  C   UNL     1     -49.911  12.159 -30.232  1.00  0.00     0.000 C 
BRANCH   2   3
ATOM      3  C   UNL     1     -50.353  10.714 -30.545  1.00  0.00     0.000 C 
BRANCH   3   4
ATOM      4  C   UNL     1     -50.389  10.399 -32.051  1.00  0.00     0.000 C 
BRANCH   4   5
ATOM      5  C   UNL     1     -51.822  10.442 -32.630  1.00  0.00     0.000 C 
BRANCH   5   6
ATOM      6  C   UNL     1     -52.668   9.226 -32.210  1.00  0.00     0.000 C 
BRANCH   6   7
ATOM      7  C   UNL     1     -52.528   8.026 -33.172  1.00  0.00     0.000 C 
BRANCH   7   8
ATOM      8  C   UNL     1     -52.384   6.673 -32.451  1.00  0.00     0.000 C 
BRANCH   8   9
ATOM      9  C   UNL     1     -52.041   6.841 -30.959  1.00  0.00     0.000 C 
BRANCH   9  10
ATOM     10  C   UNL     1     -50.634   6.327 -30.613  1.00  0.00     0.000 C 
BRANCH  10  11
ATOM     11  C   UNL     1     -49.664   6.401 -31.802  1.00  0.00     0.000 C 
BRANCH  11  12
ATOM     12  C   UNL     1     -48.422   7.233 -31.444  1.00  0.00     0.006 C 
BRANCH  12  13
ATOM     13  C   UNL     1     -48.509   7.836 -30.034  1.00  0.00     0.053 C 
BRANCH  13  14
ATOM     14  C   UNL     1     -47.155   8.086 -29.444  1.00  0.00     0.041 C 
ATOM     15  O   UNL     1     -46.558   7.171 -28.819  1.00  0.00    -0.550 OA
ATOM     16  O   UNL     1     -46.555   9.333 -29.579  1.00  0.00    -0.550 OA
ENDBRANCH  13  14
ENDBRANCH  12  13
ENDBRANCH  11  12
ENDBRANCH  10  11
ENDBRANCH   9  10
ENDBRANCH   8   9
ENDBRANCH   7   8
ENDBRANCH   6   7
ENDBRANCH   5   6
ENDBRANCH   4   5
ENDBRANCH   3   4
ENDBRANCH   2   3
ENDBRANCH   1   2
BRANCH   1  17
ATOM     17  C   UNL     1     -51.417  13.394 -28.500  1.00  0.00     0.000 C 
BRANCH  17  18
ATOM     18  C   UNL     1     -52.728  12.605 -28.680  1.00  0.00     0.000 C 
BRANCH  18  19
ATOM     19  C   UNL     1     -53.966  13.519 -28.717  1.00  0.00     0.000 C 
BRANCH  19  20
ATOM     20  C   UNL     1     -54.032  14.383 -29.986  1.00  0.00     0.000 C 
BRANCH  20  21
ATOM     21  C   UNL     1     -53.439  13.672 -31.215  1.00  0.00     0.000 C 
BRANCH  21  22
ATOM     22  C   UNL     1     -52.229  14.418 -31.801  1.00  0.00    -0.000 C 
BRANCH  22  23
ATOM     23  C   UNL     1     -52.278  15.935 -31.535  1.00  0.00    -0.000 C 
BRANCH  23  24
ATOM     24  C   UNL     1     -51.119  16.422 -30.653  1.00  0.00    -0.000 C 
BRANCH  24  25
ATOM     25  C   UNL     1     -51.269  17.897 -30.240  1.00  0.00    -0.000 C 
BRANCH  25  26
ATOM     26  C   UNL     1     -52.617  18.500 -30.678  1.00  0.00    -0.000 C 
BRANCH  26  27
ATOM     27  C   UNL     1     -53.513  18.979 -29.518  1.00  0.00    -0.000 C 
BRANCH  27  28
ATOM     28  C   UNL     1     -54.045  17.820 -28.656  1.00  0.00    -0.000 C 
BRANCH  28  29
ATOM     29  C   UNL     1     -53.425  17.799 -27.250  1.00  0.00    -0.003 C 
ATOM     30  C   UNL     1     -52.608  16.533 -26.985  1.00  0.00     0.004 C 
ENDBRANCH  28  29
ENDBRANCH  27  28
ENDBRANCH  26  27
ENDBRANCH  25  26
ENDBRANCH  24  25
ENDBRANCH  23  24
ENDBRANCH  22  23
ENDBRANCH  21  22
ENDBRANCH  20  21
ENDBRANCH  19  20
ENDBRANCH  18  19
ENDBRANCH  17  18
ENDBRANCH   1  17
TORSDOF 26
ENDMDL
MODEL 4
REMARK VINA RESULT:    -4.858      2.043      3.586
REMARK INTER + INTRA:         -15.704
REMARK INTER:                 -11.940
REMARK INTRA:                  -3.765
REMARK UNBOUND:                -3.463
REMARK SMILES CCCCCCCCCCCCCCCCCCCCCCCCCCCC(=O)[O-]
REMARK SMILES IDX 15 1 16 2 17 3 18 4 19 5 20 6 21 7 22 8 23 9 24 10 25 11
REMARK SMILES IDX 26 12 27 13 28 14 29 15 30 16 14 17 13 18 12 19 11 20 10 21
REMARK SMILES IDX 9 22 8 23 7 24 6 25 5 26 4 27 3 28 2 29 1 30
REMARK H PARENT
REMARK Flexibility Score: inf
ROOT
ATOM      1  C   UNL     1     -50.434  11.100 -31.332  1.00  0.00     0.000 C 
ENDROOT
BRANCH   1   2
ATOM      2  C   UNL     1     -51.602  10.361 -30.647  1.00  0.00     0.000 C 
BRANCH   2   3
ATOM      3  C   UNL     1     -51.278   8.917 -30.210  1.00  0.00     0.000 C 
BRANCH   3   4
ATOM      4  C   UNL     1     -52.528   8.036 -30.038  1.00  0.00     0.000 C 
BRANCH   4   5
ATOM      5  C   UNL     1     -52.186   6.530 -29.971  1.00  0.00     0.000 C 
BRANCH   5   6
ATOM      6  C   UNL     1     -52.111   5.876 -31.363  1.00  0.00     0.000 C 
BRANCH   6   7
ATOM      7  C   UNL     1     -52.608   6.800 -32.497  1.00  0.00     0.000 C 
BRANCH   7   8
ATOM      8  C   UNL     1     -51.524   7.132 -33.539  1.00  0.00     0.000 C 
BRANCH   8   9
ATOM      9  C   UNL     1     -50.443   6.039 -33.625  1.00  0.00     0.000 C 
BRANCH   9  10
ATOM     10  C   UNL     1     -49.066   6.529 -33.149  1.00  0.00     0.000 C 
BRANCH  10  11
ATOM     11  C   UNL     1     -48.869   8.039 -33.351  1.00  0.00     0.000 C 
BRANCH  11  12
ATOM     12  C   UNL     1     -48.222   8.677 -32.111  1.00  0.00     0.006 C 
BRANCH  12  13
ATOM     13  C   UNL     1     -47.886   7.641 -31.029  1.00  0.00     0.053 C 
BRANCH  13  14
ATOM     14  C   UNL     1     -47.353   8.280 -29.783  1.00  0.00     0.041 C 
ATOM     15  O   UNL     1     -47.538   9.507 -29.572  1.00  0.00    -0.550 OA
ATOM     16  O   UNL     1     -46.646   7.520 -28.858  1.00  0.00    -0.550 OA
ENDBRANCH  13  14
ENDBRANCH  12  13
ENDBRANCH  11  12
ENDBRANCH  10  11
ENDBRANCH   9  10
ENDBRANCH   8   9
ENDBRANCH   7   8
ENDBRANCH   6   7
ENDBRANCH   5   6
ENDBRANCH   4   5
ENDBRANCH   3   4
ENDBRANCH   2   3
ENDBRANCH   1   2
BRANCH   1  17
ATOM     17  C   UNL     1     -49.736  12.172 -30.468  1.00  0.00     0.000 C 
BRANCH  17  18
ATOM     18  C   UNL     1     -50.175  12.211 -28.992  1.00  0.00     0.000 C 
BRANCH  18  19
ATOM     19  C   UNL     1     -51.006  13.462 -28.656  1.00  0.00     0.000 C 
BRANCH  19  20
ATOM     20  C   UNL     1     -52.517  13.237 -28.817  1.00  0.00     0.000 C 
BRANCH  20  21
ATOM     21  C   UNL     1     -53.241  14.475 -29.375  1.00  0.00     0.000 C 
BRANCH  21  22
ATOM     22  C   UNL     1     -53.387  14.432 -30.906  1.00  0.00    -0.000 C 
BRANCH  22  23
ATOM     23  C   UNL     1     -52.062  14.717 -31.638  1.00  0.00    -0.000 C 
BRANCH  23  24
ATOM     24  C   UNL     1     -51.609  16.179 -31.502  1.00  0.00    -0.000 C 
BRANCH  24  25
ATOM     25  C   UNL     1     -52.772  17.175 -31.655  1.00  0.00    -0.000 C 
BRANCH  25  26
ATOM     26  C   UNL     1     -52.483  18.530 -30.982  1.00  0.00    -0.000 C 
BRANCH  26  27
ATOM     27  C   UNL     1     -53.645  19.086 -30.135  1.00  0.00    -0.000 C 
BRANCH  27  28
ATOM     28  C   UNL     1     -53.830  18.332 -28.806  1.00  0.00    -0.000 C 
BRANCH  28  29
ATOM     29  C   UNL     1     -52.492  17.978 -28.138  1.00  0.00    -0.003 C 
ATOM     30  C   UNL     1     -52.657  17.010 -26.965  1.00  0.00     0.004 C 
ENDBRANCH  28  29
ENDBRANCH  27  28
ENDBRANCH  26  27
ENDBRANCH  25  26
ENDBRANCH  24  25
ENDBRANCH  23  24
ENDBRANCH  22  23
ENDBRANCH  21  22
ENDBRANCH  20  21
ENDBRANCH  19  20
ENDBRANCH  18  19
ENDBRANCH  17  18
ENDBRANCH   1  17
TORSDOF 26
ENDMDL
MODEL 5
REMARK VINA RESULT:    -4.780      1.443      2.176
REMARK INTER + INTRA:         -15.507
REMARK INTER:                 -11.950
REMARK INTRA:                  -3.557
REMARK UNBOUND:                -3.463
REMARK SMILES CCCCCCCCCCCCCCCCCCCCCCCCCCCC(=O)[O-]
REMARK SMILES IDX 15 1 16 2 17 3 18 4 19 5 20 6 21 7 22 8 23 9 24 10 25 11
REMARK SMILES IDX 26 12 27 13 28 14 29 15 30 16 14 17 13 18 12 19 11 20 10 21
REMARK SMILES IDX 9 22 8 23 7 24 6 25 5 26 4 27 3 28 2 29 1 30
REMARK H PARENT
REMARK Flexibility Score: inf
ROOT
ATOM      1  C   UNL     1     -47.428   9.535 -29.239  1.00  0.00     0.000 C 
ENDROOT
BRANCH   1   2
ATOM      2  C   UNL     1     -47.279   8.324 -30.184  1.00  0.00     0.000 C 
BRANCH   2   3
ATOM      3  C   UNL     1     -47.962   7.033 -29.685  1.00  0.00     0.000 C 
BRANCH   3   4
ATOM      4  C   UNL     1     -48.873   6.379 -30.739  1.00  0.00     0.000 C 
BRANCH   4   5
ATOM      5  C   UNL     1     -48.555   6.856 -32.174  1.00  0.00     0.000 C 
BRANCH   5   6
ATOM      6  C   UNL     1     -49.737   7.592 -32.831  1.00  0.00     0.000 C 
BRANCH   6   7
ATOM      7  C   UNL     1     -49.960   9.011 -32.264  1.00  0.00     0.000 C 
BRANCH   7   8
ATOM      8  C   UNL     1     -50.530  10.003 -33.296  1.00  0.00     0.000 C 
BRANCH   8   9
ATOM      9  C   UNL     1     -51.870  10.610 -32.842  1.00  0.00     0.000 C 
BRANCH   9  10
ATOM     10  C   UNL     1     -51.814  11.166 -31.410  1.00  0.00     0.000 C 
BRANCH  10  11
ATOM     11  C   UNL     1     -53.171  11.700 -30.925  1.00  0.00     0.000 C 
BRANCH  11  12
ATOM     12  C   UNL     1     -54.125  10.543 -30.589  1.00  0.00     0.006 C 
BRANCH  12  13
ATOM     13  C   UNL     1     -53.490   9.517 -29.640  1.00  0.00     0.053 C 
BRANCH  13  14
ATOM     14  C   UNL     1     -53.124   8.248 -30.346  1.00  0.00     0.041 C 
ATOM     15  O   UNL     1     -52.235   7.493 -29.871  1.00  0.00    -0.550 OA
ATOM     16  O   UNL     1     -53.762   7.900 -31.532  1.00  0.00    -0.550 OA
ENDBRANCH  13  14
ENDBRANCH  12  13
ENDBRANCH  11  12
ENDBRANCH  10  11
ENDBRANCH   9  10
ENDBRANCH   8   9
ENDBRANCH   7   8
ENDBRANCH   6   7
ENDBRANCH   5   6
ENDBRANCH   4   5
ENDBRANCH   3   4
ENDBRANCH   2   3
ENDBRANCH   1   2
BRANCH   1  17
ATOM     17  C   UNL     1     -48.731  10.344 -29.407  1.00  0.00     0.000 C 
BRANCH  17  18
ATOM     18  C   UNL     1     -48.728  11.735 -28.745  1.00  0.00     0.000 C 
BRANCH  18  19
ATOM     19  C   UNL     1     -50.145  12.316 -28.585  1.00  0.00     0.000 C 
BRANCH  19  20
ATOM     20  C   UNL     1     -50.207  13.824 -28.871  1.00  0.00     0.000 C 
BRANCH  20  21
ATOM     21  C   UNL     1     -50.043  14.147 -30.366  1.00  0.00     0.000 C 
BRANCH  21  22
ATOM     22  C   UNL     1     -50.426  15.599 -30.701  1.00  0.00    -0.000 C 
BRANCH  22  23
ATOM     23  C   UNL     1     -51.477  15.694 -31.824  1.00  0.00    -0.000 C 
BRANCH  23  24
ATOM     24  C   UNL     1     -52.597  16.697 -31.508  1.00  0.00    -0.000 C 
BRANCH  24  25
ATOM     25  C   UNL     1     -52.067  17.995 -30.874  1.00  0.00    -0.000 C 
BRANCH  25  26
ATOM     26  C   UNL     1     -53.170  18.798 -30.159  1.00  0.00    -0.000 C 
BRANCH  26  27
ATOM     27  C   UNL     1     -53.704  18.148 -28.868  1.00  0.00    -0.000 C 
BRANCH  27  28
ATOM     28  C   UNL     1     -52.599  17.461 -28.044  1.00  0.00    -0.000 C 
BRANCH  28  29
ATOM     29  C   UNL     1     -53.103  16.207 -27.313  1.00  0.00    -0.003 C 
ATOM     30  C   UNL     1     -53.479  15.077 -28.274  1.00  0.00     0.004 C 
ENDBRANCH  28  29
ENDBRANCH  27  28
ENDBRANCH  26  27
ENDBRANCH  25  26
ENDBRANCH  24  25
ENDBRANCH  23  24
ENDBRANCH  22  23
ENDBRANCH  21  22
ENDBRANCH  20  21
ENDBRANCH  19  20
ENDBRANCH  18  19
ENDBRANCH  17  18
ENDBRANCH   1  17
TORSDOF 26
ENDMDL
MODEL 6
REMARK VINA RESULT:    -4.644      1.735      2.423
REMARK INTER + INTRA:         -15.166
REMARK INTER:                 -11.863
REMARK INTRA:                  -3.303
REMARK UNBOUND:                -3.463
REMARK SMILES CCCCCCCCCCCCCCCCCCCCCCCCCCCC(=O)[O-]
REMARK SMILES IDX 15 1 16 2 17 3 18 4 19 5 20 6 21 7 22 8 23 9 24 10 25 11
REMARK SMILES IDX 26 12 27 13 28 14 29 15 30 16 14 17 13 18 12 19 11 20 10 21
REMARK SMILES IDX 9 22 8 23 7 24 6 25 5 26 4 27 3 28 2 29 1 30
REMARK H PARENT
REMARK Flexibility Score: inf
ROOT
ATOM      1  C   UNL     1     -47.420   9.667 -29.096  1.00  0.00     0.000 C 
ENDROOT
BRANCH   1   2
ATOM      2  C   UNL     1     -47.137   8.323 -29.800  1.00  0.00     0.000 C 
BRANCH   2   3
ATOM      3  C   UNL     1     -46.653   7.197 -28.861  1.00  0.00     0.000 C 
BRANCH   3   4
ATOM      4  C   UNL     1     -47.419   5.876 -29.048  1.00  0.00     0.000 C 
BRANCH   4   5
ATOM      5  C   UNL     1     -48.492   5.966 -30.158  1.00  0.00     0.000 C 
BRANCH   5   6
ATOM      6  C   UNL     1     -49.908   6.194 -29.598  1.00  0.00     0.000 C 
BRANCH   6   7
ATOM      7  C   UNL     1     -51.021   5.933 -30.636  1.00  0.00     0.000 C 
BRANCH   7   8
ATOM      8  C   UNL     1     -52.405   6.446 -30.195  1.00  0.00     0.000 C 
BRANCH   8   9
ATOM      9  C   UNL     1     -52.604   7.938 -30.518  1.00  0.00     0.000 C 
BRANCH   9  10
ATOM     10  C   UNL     1     -52.299   8.273 -31.986  1.00  0.00     0.000 C 
BRANCH  10  11
ATOM     11  C   UNL     1     -51.902   9.743 -32.193  1.00  0.00     0.000 C 
BRANCH  11  12
ATOM     12  C   UNL     1     -50.469   9.851 -32.737  1.00  0.00     0.006 C 
BRANCH  12  13
ATOM     13  C   UNL     1     -49.576   8.694 -32.268  1.00  0.00     0.053 C 
BRANCH  13  14
ATOM     14  C   UNL     1     -48.892   8.010 -33.411  1.00  0.00     0.041 C 
ATOM     15  O   UNL     1     -49.066   6.779 -33.609  1.00  0.00    -0.550 OA
ATOM     16  O   UNL     1     -48.057   8.732 -34.257  1.00  0.00    -0.550 OA
ENDBRANCH  13  14
ENDBRANCH  12  13
ENDBRANCH  11  12
ENDBRANCH  10  11
ENDBRANCH   9  10
ENDBRANCH   8   9
ENDBRANCH   7   8
ENDBRANCH   6   7
ENDBRANCH   5   6
ENDBRANCH   4   5
ENDBRANCH   3   4
ENDBRANCH   2   3
ENDBRANCH   1   2
BRANCH   1  17
ATOM     17  C   UNL     1     -48.806  10.281 -29.385  1.00  0.00     0.000 C 
BRANCH  17  18
ATOM     18  C   UNL     1     -49.120  11.581 -28.620  1.00  0.00     0.000 C 
BRANCH  18  19
ATOM     19  C   UNL     1     -50.378  12.290 -29.150  1.00  0.00     0.000 C 
BRANCH  19  20
ATOM     20  C   UNL     1     -50.310  13.818 -29.002  1.00  0.00     0.000 C 
BRANCH  20  21
ATOM     21  C   UNL     1     -49.943  14.522 -30.320  1.00  0.00     0.000 C 
BRANCH  21  22
ATOM     22  C   UNL     1     -50.736  15.822 -30.534  1.00  0.00    -0.000 C 
BRANCH  22  23
ATOM     23  C   UNL     1     -52.032  15.604 -31.338  1.00  0.00    -0.000 C 
BRANCH  23  24
ATOM     24  C   UNL     1     -52.810  16.906 -31.579  1.00  0.00    -0.000 C 
BRANCH  24  25
ATOM     25  C   UNL     1     -52.152  18.122 -30.902  1.00  0.00    -0.000 C 
BRANCH  25  26
ATOM     26  C   UNL     1     -53.137  18.914 -30.022  1.00  0.00    -0.000 C 
BRANCH  26  27
ATOM     27  C   UNL     1     -53.635  18.158 -28.774  1.00  0.00    -0.000 C 
BRANCH  27  28
ATOM     28  C   UNL     1     -52.490  17.732 -27.838  1.00  0.00    -0.000 C 
BRANCH  28  29
ATOM     29  C   UNL     1     -52.767  16.390 -27.141  1.00  0.00    -0.003 C 
ATOM     30  C   UNL     1     -53.585  15.433 -28.011  1.00  0.00     0.004 C 
ENDBRANCH  28  29
ENDBRANCH  27  28
ENDBRANCH  26  27
ENDBRANCH  25  26
ENDBRANCH  24  25
ENDBRANCH  23  24
ENDBRANCH  22  23
ENDBRANCH  21  22
ENDBRANCH  20  21
ENDBRANCH  19  20
ENDBRANCH  18  19
ENDBRANCH  17  18
ENDBRANCH   1  17
TORSDOF 26
ENDMDL
MODEL 7
REMARK VINA RESULT:    -4.632      1.947      5.114
REMARK INTER + INTRA:         -15.134
REMARK INTER:                 -11.169
REMARK INTRA:                  -3.965
REMARK UNBOUND:                -3.463
REMARK SMILES CCCCCCCCCCCCCCCCCCCCCCCCCCCC(=O)[O-]
REMARK SMILES IDX 15 1 16 2 17 3 18 4 19 5 20 6 21 7 22 8 23 9 24 10 25 11
REMARK SMILES IDX 26 12 27 13 28 14 29 15 30 16 14 17 13 18 12 19 11 20 10 21
REMARK SMILES IDX 9 22 8 23 7 24 6 25 5 26 4 27 3 28 2 29 1 30
REMARK H PARENT
REMARK Flexibility Score: inf
ROOT
ATOM      1  C   UNL     1     -52.910  13.357 -31.762  1.00  0.00     0.000 C 
ENDROOT
BRANCH   1   2
ATOM      2  C   UNL     1     -53.716  12.401 -30.858  1.00  0.00     0.000 C 
BRANCH   2   3
ATOM      3  C   UNL     1     -52.871  11.316 -30.158  1.00  0.00     0.000 C 
BRANCH   3   4
ATOM      4  C   UNL     1     -52.590  10.092 -31.049  1.00  0.00     0.000 C 
BRANCH   4   5
ATOM      5  C   UNL     1     -53.042   8.767 -30.392  1.00  0.00     0.000 C 
BRANCH   5   6
ATOM      6  C   UNL     1     -52.932   7.564 -31.347  1.00  0.00     0.000 C 
BRANCH   6   7
ATOM      7  C   UNL     1     -53.293   7.912 -32.808  1.00  0.00     0.000 C 
BRANCH   7   8
ATOM      8  C   UNL     1     -52.683   6.945 -33.839  1.00  0.00     0.000 C 
BRANCH   8   9
ATOM      9  C   UNL     1     -51.558   6.084 -33.237  1.00  0.00     0.000 C 
BRANCH   9  10
ATOM     10  C   UNL     1     -50.301   6.048 -34.121  1.00  0.00     0.000 C 
BRANCH  10  11
ATOM     11  C   UNL     1     -49.026   6.444 -33.361  1.00  0.00     0.000 C 
BRANCH  11  12
ATOM     12  C   UNL     1     -49.036   7.943 -33.019  1.00  0.00     0.006 C 
BRANCH  12  13
ATOM     13  C   UNL     1     -49.279   8.201 -31.526  1.00  0.00     0.053 C 
BRANCH  13  14
ATOM     14  C   UNL     1     -48.017   8.113 -30.725  1.00  0.00     0.041 C 
ATOM     15  O   UNL     1     -47.058   8.893 -30.967  1.00  0.00    -0.550 OA
ATOM     16  O   UNL     1     -47.895   7.165 -29.715  1.00  0.00    -0.550 OA
ENDBRANCH  13  14
ENDBRANCH  12  13
ENDBRANCH  11  12
ENDBRANCH  10  11
ENDBRANCH   9  10
ENDBRANCH   8   9
ENDBRANCH   7   8
ENDBRANCH   6   7
ENDBRANCH   5   6
ENDBRANCH   4   5
ENDBRANCH   3   4
ENDBRANCH   2   3
ENDBRANCH   1   2
BRANCH   1  17
ATOM     17  C   UNL     1     -53.112  14.860 -31.476  1.00  0.00     0.000 C 
BRANCH  17  18
ATOM     18  C   UNL     1     -51.999  15.784 -32.007  1.00  0.00     0.000 C 
BRANCH  18  19
ATOM     19  C   UNL     1     -51.986  17.155 -31.307  1.00  0.00     0.000 C 
BRANCH  19  20
ATOM     20  C   UNL     1     -53.327  17.896 -31.421  1.00  0.00     0.000 C 
BRANCH  20  21
ATOM     21  C   UNL     1     -54.123  17.878 -30.104  1.00  0.00     0.000 C 
BRANCH  21  22
ATOM     22  C   UNL     1     -53.361  18.542 -28.945  1.00  0.00    -0.000 C 
BRANCH  22  23
ATOM     23  C   UNL     1     -52.905  17.531 -27.876  1.00  0.00    -0.000 C 
BRANCH  23  24
ATOM     24  C   UNL     1     -53.840  16.317 -27.766  1.00  0.00    -0.000 C 
BRANCH  24  25
ATOM     25  C   UNL     1     -53.106  14.983 -27.988  1.00  0.00    -0.000 C 
BRANCH  25  26
ATOM     26  C   UNL     1     -51.637  15.178 -28.410  1.00  0.00    -0.000 C 
BRANCH  26  27
ATOM     27  C   UNL     1     -50.827  13.872 -28.534  1.00  0.00    -0.000 C 
BRANCH  27  28
ATOM     28  C   UNL     1     -49.834  13.895 -29.710  1.00  0.00    -0.000 C 
BRANCH  28  29
ATOM     29  C   UNL     1     -48.777  12.784 -29.610  1.00  0.00    -0.003 C 
ATOM     30  C   UNL     1     -49.387  11.417 -29.293  1.00  0.00     0.004 C 
ENDBRANCH  28  29
ENDBRANCH  27  28
ENDBRANCH  26  27
ENDBRANCH  25  26
ENDBRANCH  24  25
ENDBRANCH  23  24
ENDBRANCH  22  23
ENDBRANCH  21  22
ENDBRANCH  20  21
ENDBRANCH  19  20
ENDBRANCH  18  19
ENDBRANCH  17  18
ENDBRANCH   1  17
TORSDOF 26
ENDMDL
MODEL 8
REMARK VINA RESULT:    -4.622      1.707      3.791
REMARK INTER + INTRA:         -15.110
REMARK INTER:                 -11.631
REMARK INTRA:                  -3.479
REMARK UNBOUND:                -3.463
REMARK SMILES CCCCCCCCCCCCCCCCCCCCCCCCCCCC(=O)[O-]
REMARK SMILES IDX 15 1 16 2 17 3 18 4 19 5 20 6 21 7 22 8 23 9 24 10 25 11
REMARK SMILES IDX 26 12 27 13 28 14 29 15 30 16 14 17 13 18 12 19 11 20 10 21
REMARK SMILES IDX 9 22 8 23 7 24 6 25 5 26 4 27 3 28 2 29 1 30
REMARK H PARENT
REMARK Flexibility Score: inf
ROOT
ATOM      1  C   UNL     1     -52.307  10.402 -31.891  1.00  0.00     0.000 C 
ENDROOT
BRANCH   1   2
ATOM      2  C   UNL     1     -53.181   9.331 -31.207  1.00  0.00     0.000 C 
BRANCH   2   3
ATOM      3  C   UNL     1     -52.996   7.902 -31.761  1.00  0.00     0.000 C 
BRANCH   3   4
ATOM      4  C   UNL     1     -51.907   7.099 -31.026  1.00  0.00     0.000 C 
BRANCH   4   5
ATOM      5  C   UNL     1     -51.388   5.906 -31.861  1.00  0.00     0.000 C 
BRANCH   5   6
ATOM      6  C   UNL     1     -51.441   6.174 -33.377  1.00  0.00     0.000 C 
BRANCH   6   7
ATOM      7  C   UNL     1     -50.103   5.883 -34.092  1.00  0.00     0.000 C 
BRANCH   7   8
ATOM      8  C   UNL     1     -48.872   6.408 -33.331  1.00  0.00     0.000 C 
BRANCH   8   9
ATOM      9  C   UNL     1     -48.574   7.884 -33.652  1.00  0.00     0.000 C 
BRANCH   9  10
ATOM     10  C   UNL     1     -48.852   8.817 -32.463  1.00  0.00     0.000 C 
BRANCH  10  11
ATOM     11  C   UNL     1     -47.868   8.611 -31.301  1.00  0.00     0.000 C 
BRANCH  11  12
ATOM     12  C   UNL     1     -48.613   8.543 -29.959  1.00  0.00     0.006 C 
BRANCH  12  13
ATOM     13  C   UNL     1     -49.604   9.701 -29.781  1.00  0.00     0.053 C 
BRANCH  13  14
ATOM     14  C   UNL     1     -48.964  10.900 -29.151  1.00  0.00     0.041 C 
ATOM     15  O   UNL     1     -48.079  10.754 -28.267  1.00  0.00    -0.550 OA
ATOM     16  O   UNL     1     -49.349  12.179 -29.536  1.00  0.00    -0.550 OA
ENDBRANCH  13  14
ENDBRANCH  12  13
ENDBRANCH  11  12
ENDBRANCH  10  11
ENDBRANCH   9  10
ENDBRANCH   8   9
ENDBRANCH   7   8
ENDBRANCH   6   7
ENDBRANCH   5   6
ENDBRANCH   4   5
ENDBRANCH   3   4
ENDBRANCH   2   3
ENDBRANCH   1   2
BRANCH   1  17
ATOM     17  C   UNL     1     -52.315  11.789 -31.214  1.00  0.00     0.000 C 
BRANCH  17  18
ATOM     18  C   UNL     1     -53.568  12.644 -31.485  1.00  0.00     0.000 C 
BRANCH  18  19
ATOM     19  C   UNL     1     -53.261  14.152 -31.507  1.00  0.00     0.000 C 
BRANCH  19  20
ATOM     20  C   UNL     1     -51.776  14.462 -31.262  1.00  0.00     0.000 C 
BRANCH  20  21
ATOM     21  C   UNL     1     -51.391  15.885 -31.706  1.00  0.00     0.000 C 
BRANCH  21  22
ATOM     22  C   UNL     1     -52.601  16.833 -31.763  1.00  0.00    -0.000 C 
BRANCH  22  23
ATOM     23  C   UNL     1     -52.266  18.256 -31.281  1.00  0.00    -0.000 C 
BRANCH  23  24
ATOM     24  C   UNL     1     -53.492  19.004 -30.735  1.00  0.00    -0.000 C 
BRANCH  24  25
ATOM     25  C   UNL     1     -53.654  18.843 -29.213  1.00  0.00    -0.000 C 
BRANCH  25  26
ATOM     26  C   UNL     1     -52.446  18.144 -28.559  1.00  0.00    -0.000 C 
BRANCH  26  27
ATOM     27  C   UNL     1     -52.664  17.724 -27.092  1.00  0.00    -0.000 C 
BRANCH  27  28
ATOM     28  C   UNL     1     -52.936  16.217 -26.936  1.00  0.00    -0.000 C 
BRANCH  28  29
ATOM     29  C   UNL     1     -53.433  15.570 -28.238  1.00  0.00    -0.003 C 
ATOM     30  C   UNL     1     -53.826  14.103 -28.054  1.00  0.00     0.004 C 
ENDBRANCH  28  29
ENDBRANCH  27  28
ENDBRANCH  26  27
ENDBRANCH  25  26
ENDBRANCH  24  25
ENDBRANCH  23  24
ENDBRANCH  22  23
ENDBRANCH  21  22
ENDBRANCH  20  21
ENDBRANCH  19  20
ENDBRANCH  18  19
ENDBRANCH  17  18
ENDBRANCH   1  17
TORSDOF 26
ENDMDL
MODEL 9
REMARK VINA RESULT:    -4.617      1.590      9.444
REMARK INTER + INTRA:         -15.097
REMARK INTER:                 -11.435
REMARK INTRA:                  -3.662
REMARK UNBOUND:                -3.463
REMARK SMILES CCCCCCCCCCCCCCCCCCCCCCCCCCCC(=O)[O-]
REMARK SMILES IDX 15 1 16 2 17 3 18 4 19 5 20 6 21 7 22 8 23 9 24 10 25 11
REMARK SMILES IDX 26 12 27 13 28 14 29 15 30 16 14 17 13 18 12 19 11 20 10 21
REMARK SMILES IDX 9 22 8 23 7 24 6 25 5 26 4 27 3 28 2 29 1 30
REMARK H PARENT
REMARK Flexibility Score: inf
ROOT
ATOM      1  C   UNL     1     -53.260  14.024 -28.465  1.00  0.00     0.000 C 
ENDROOT
BRANCH   1   2
ATOM      2  C   UNL     1     -52.790  15.373 -27.881  1.00  0.00     0.000 C 
BRANCH   2   3
ATOM      3  C   UNL     1     -53.900  16.439 -27.757  1.00  0.00     0.000 C 
BRANCH   3   4
ATOM      4  C   UNL     1     -53.368  17.832 -27.378  1.00  0.00     0.000 C 
BRANCH   4   5
ATOM      5  C   UNL     1     -53.660  18.893 -28.464  1.00  0.00     0.000 C 
BRANCH   5   6
ATOM      6  C   UNL     1     -54.039  18.266 -29.818  1.00  0.00     0.000 C 
BRANCH   6   7
ATOM      7  C   UNL     1     -53.284  18.894 -31.011  1.00  0.00     0.000 C 
BRANCH   7   8
ATOM      8  C   UNL     1     -52.144  18.012 -31.551  1.00  0.00     0.000 C 
BRANCH   8   9
ATOM      9  C   UNL     1     -52.577  16.545 -31.730  1.00  0.00     0.000 C 
BRANCH   9  10
ATOM     10  C   UNL     1     -51.382  15.582 -31.826  1.00  0.00     0.000 C 
BRANCH  10  11
ATOM     11  C   UNL     1     -50.351  15.798 -30.707  1.00  0.00     0.000 C 
BRANCH  11  12
ATOM     12  C   UNL     1     -49.620  14.487 -30.378  1.00  0.00     0.006 C 
BRANCH  12  13
ATOM     13  C   UNL     1     -50.516  13.255 -30.560  1.00  0.00     0.053 C 
BRANCH  13  14
ATOM     14  C   UNL     1     -49.976  12.054 -29.847  1.00  0.00     0.041 C 
ATOM     15  O   UNL     1     -49.450  12.176 -28.710  1.00  0.00    -0.550 OA
ATOM     16  O   UNL     1     -50.047  10.799 -30.442  1.00  0.00    -0.550 OA
ENDBRANCH  13  14
ENDBRANCH  12  13
ENDBRANCH  11  12
ENDBRANCH  10  11
ENDBRANCH   9  10
ENDBRANCH   8   9
ENDBRANCH   7   8
ENDBRANCH   6   7
ENDBRANCH   5   6
ENDBRANCH   4   5
ENDBRANCH   3   4
ENDBRANCH   2   3
ENDBRANCH   1   2
BRANCH   1  17
ATOM     17  C   UNL     1     -54.125  14.123 -29.739  1.00  0.00     0.000 C 
BRANCH  17  18
ATOM     18  C   UNL     1     -54.017  12.924 -30.700  1.00  0.00     0.000 C 
BRANCH  18  19
ATOM     19  C   UNL     1     -53.626  11.622 -29.978  1.00  0.00     0.000 C 
BRANCH  19  20
ATOM     20  C   UNL     1     -53.834  10.372 -30.846  1.00  0.00     0.000 C 
BRANCH  20  21
ATOM     21  C   UNL     1     -53.298   9.094 -30.177  1.00  0.00     0.000 C 
BRANCH  21  22
ATOM     22  C   UNL     1     -52.901   8.015 -31.199  1.00  0.00    -0.000 C 
BRANCH  22  23
ATOM     23  C   UNL     1     -53.220   8.423 -32.649  1.00  0.00    -0.000 C 
BRANCH  23  24
ATOM     24  C   UNL     1     -53.249   7.226 -33.612  1.00  0.00    -0.000 C 
BRANCH  24  25
ATOM     25  C   UNL     1     -52.288   6.102 -33.187  1.00  0.00    -0.000 C 
BRANCH  25  26
ATOM     26  C   UNL     1     -50.874   6.280 -33.772  1.00  0.00    -0.000 C 
BRANCH  26  27
ATOM     27  C   UNL     1     -49.792   6.644 -32.736  1.00  0.00    -0.000 C 
BRANCH  27  28
ATOM     28  C   UNL     1     -49.181   8.037 -32.975  1.00  0.00    -0.000 C 
BRANCH  28  29
ATOM     29  C   UNL     1     -48.116   8.400 -31.928  1.00  0.00    -0.003 C 
ATOM     30  C   UNL     1     -48.068   7.404 -30.767  1.00  0.00     0.004 C 
ENDBRANCH  28  29
ENDBRANCH  27  28
ENDBRANCH  26  27
ENDBRANCH  25  26
ENDBRANCH  24  25
ENDBRANCH  23  24
ENDBRANCH  22  23
ENDBRANCH  21  22
ENDBRANCH  20  21
ENDBRANCH  19  20
ENDBRANCH  18  19
ENDBRANCH  17  18
ENDBRANCH   1  17
TORSDOF 26
ENDMDL
