MODEL 1
REMARK VINA RESULT:    -7.825      0.000      0.000
REMARK INTER + INTRA:         -14.742
REMARK INTER:                 -12.857
REMARK INTRA:                  -1.885
REMARK UNBOUND:                -1.885
REMARK SMILES C[C@H]1O[C@@H](OC[C@@H]2O[C@@H](Oc3c(-c4ccc(O)c(O)c4)oc4cc(O)cc(O)c4c3=O)[C@H](O)[C@H](O)[C@H]2O)[C@H](O)[C@@H](O)[C@@H]1O
REMARK SMILES IDX 7 1 36 2 34 3 32 4 9 5 8 6 6 7 5 8 4 9 1 10 2 11 42 12 3 13
REMARK SMILES IDX 40 14 38 15 43 16 41 18 39 20 37 22 35 24 10 26 11 27 12 28
REMARK SMILES IDX 30 29 21 30 29 31 31 32 22 33 27 34 23 35 26 36 24 37 13 38
REMARK SMILES IDX 20 39 14 40 18 41 15 42 16 43 19 44 17 46 28 48 25 50 33 52
REMARK H PARENT 43 17 41 19 39 21 37 23 35 25 19 45 17 47 28 49 25 51 33 53
REMARK Flexibility Score: inf
ROOT
ATOM      1  C   UNL     1     117.353 126.686 134.652  1.00  0.00     0.180 C 
ATOM      2  C   UNL     1     116.686 125.632 135.574  1.00  0.00     0.177 C 
ATOM      3  C   UNL     1     117.672 124.480 135.862  1.00  0.00     0.180 C 
ATOM      4  C   UNL     1     118.306 123.959 134.559  1.00  0.00     0.214 C 
ATOM      5  C   UNL     1     118.819 125.128 133.689  1.00  0.00     0.339 C 
ATOM      6  O   UNL     1     117.795 126.080 133.448  1.00  0.00    -0.332 OA
ENDROOT
BRANCH   1   7
ATOM      7  C   UNL     1     116.372 127.816 134.283  1.00  0.00     0.198 C 
BRANCH   7   8
ATOM      8  O   UNL     1     116.861 128.593 133.205  1.00  0.00    -0.347 OA
BRANCH   8   9
ATOM      9  C   UNL     1     115.825 128.982 132.310  1.00  0.00     0.281 C 
ATOM     10  C   UNL     1     117.875 127.609 130.562  1.00  0.00     0.041 C 
ATOM     11  C   UNL     1     116.408 127.936 130.232  1.00  0.00     0.150 C 
ATOM     12  C   UNL     1     116.242 129.236 129.386  1.00  0.00     0.174 C 
ATOM     13  O   UNL     1     115.579 127.923 131.387  1.00  0.00    -0.344 OA
ATOM     14  C   UNL     1     115.631 130.387 130.213  1.00  0.00     0.179 C 
ATOM     15  C   UNL     1     116.182 130.341 131.646  1.00  0.00     0.202 C 
BRANCH  12  16
ATOM     16  O   UNL     1     115.460 128.993 128.241  1.00  0.00    -0.388 OA
ATOM     17  H   UNL     1     114.547 128.749 128.546  1.00  0.00     0.211 HD
ENDBRANCH  12  16
BRANCH  14  18
ATOM     18  O   UNL     1     115.883 131.631 129.606  1.00  0.00    -0.387 OA
ATOM     19  H   UNL     1     116.570 132.100 130.148  1.00  0.00     0.211 HD
ENDBRANCH  14  18
BRANCH  15  20
ATOM     20  O   UNL     1     115.702 131.420 132.411  1.00  0.00    -0.385 OA
ATOM     21  H   UNL     1     114.745 131.554 132.180  1.00  0.00     0.211 HD
ENDBRANCH  15  20
ENDBRANCH   8   9
ENDBRANCH   7   8
ENDBRANCH   1   7
BRANCH   2  22
ATOM     22  O   UNL     1     116.246 126.211 136.779  1.00  0.00    -0.387 OA
ATOM     23  H   UNL     1     116.448 125.573 137.512  1.00  0.00     0.211 HD
ENDBRANCH   2  22
BRANCH   3  24
ATOM     24  O   UNL     1     117.018 123.425 136.521  1.00  0.00    -0.387 OA
ATOM     25  H   UNL     1     117.720 122.787 136.812  1.00  0.00     0.211 HD
ENDBRANCH   3  24
BRANCH   5  26
ATOM     26  O   UNL     1     119.954 125.755 134.298  1.00  0.00    -0.454 OA
BRANCH  26  27
ATOM     27  C   UNL     1     120.646 126.823 133.715  1.00  0.00     0.214 A 
ATOM     28  C   UNL     1     121.075 127.931 134.471  1.00  0.00     0.180 A 
ATOM     29  C   UNL     1     120.935 126.779 132.347  1.00  0.00     0.239 A 
ATOM     30  O   UNL     1     121.693 128.937 133.863  1.00  0.00    -0.452 OA
ATOM     31  C   UNL     1     121.574 127.877 131.723  1.00  0.00     0.111 A 
ATOM     32  O   UNL     1     120.627 125.741 131.705  1.00  0.00    -0.285 OA
ATOM     33  C   UNL     1     121.961 128.955 132.563  1.00  0.00     0.146 A 
ATOM     34  C   UNL     1     121.874 127.959 130.330  1.00  0.00     0.134 A 
ATOM     35  C   UNL     1     122.652 130.050 132.040  1.00  0.00     0.094 A 
ATOM     36  C   UNL     1     122.604 129.051 129.843  1.00  0.00     0.093 A 
ATOM     37  C   UNL     1     122.989 130.094 130.690  1.00  0.00     0.123 A 
BRANCH  28  38
ATOM     38  C   UNL     1     120.890 128.015 135.937  1.00  0.00     0.025 A 
ATOM     39  C   UNL     1     121.889 127.579 136.827  1.00  0.00     0.062 A 
ATOM     40  C   UNL     1     119.713 128.578 136.456  1.00  0.00     0.016 A 
ATOM     41  C   UNL     1     121.695 127.656 138.210  1.00  0.00     0.158 A 
ATOM     42  C   UNL     1     119.520 128.662 137.836  1.00  0.00     0.051 A 
ATOM     43  C   UNL     1     120.503 128.197 138.719  1.00  0.00     0.157 A 
BRANCH  41  44
ATOM     44  O   UNL     1     122.696 127.188 139.061  1.00  0.00    -0.504 OA
ATOM     45  H   UNL     1     123.108 126.271 138.954  1.00  0.00     0.293 HD
ENDBRANCH  41  44
BRANCH  43  46
ATOM     46  O   UNL     1     120.302 128.276 140.096  1.00  0.00    -0.504 OA
ATOM     47  H   UNL     1     120.429 129.143 140.603  1.00  0.00     0.293 HD
ENDBRANCH  43  46
ENDBRANCH  28  38
BRANCH  34  48
ATOM     48  O   UNL     1     121.462 127.016 129.383  1.00  0.00    -0.507 OA
ATOM     49  H   UNL     1     120.819 126.261 129.562  1.00  0.00     0.293 HD
ENDBRANCH  34  48
BRANCH  37  50
ATOM     50  O   UNL     1     123.706 131.183 130.195  1.00  0.00    -0.508 OA
ATOM     51  H   UNL     1     123.342 131.759 129.445  1.00  0.00     0.293 HD
ENDBRANCH  37  50
ENDBRANCH  26  27
ENDBRANCH   5  26
BRANCH   4  52
ATOM     52  O   UNL     1     117.407 123.149 133.839  1.00  0.00    -0.384 OA
ATOM     53  H   UNL     1     116.745 122.776 134.478  1.00  0.00     0.211 HD
ENDBRANCH   4  52
TORSDOF 16
ENDMDL
MODEL 2
REMARK VINA RESULT:    -7.715      2.298      7.009
REMARK INTER + INTRA:         -14.561
REMARK INTER:                 -12.364
REMARK INTRA:                  -2.197
REMARK UNBOUND:                -1.885
REMARK SMILES C[C@H]1O[C@@H](OC[C@@H]2O[C@@H](Oc3c(-c4ccc(O)c(O)c4)oc4cc(O)cc(O)c4c3=O)[C@H](O)[C@H](O)[C@H]2O)[C@H](O)[C@@H](O)[C@@H]1O
REMARK SMILES IDX 7 1 36 2 34 3 32 4 9 5 8 6 6 7 5 8 4 9 1 10 2 11 42 12 3 13
REMARK SMILES IDX 40 14 38 15 43 16 41 18 39 20 37 22 35 24 10 26 11 27 12 28
REMARK SMILES IDX 30 29 21 30 29 31 31 32 22 33 27 34 23 35 26 36 24 37 13 38
REMARK SMILES IDX 20 39 14 40 18 41 15 42 16 43 19 44 17 46 28 48 25 50 33 52
REMARK H PARENT 43 17 41 19 39 21 37 23 35 25 19 45 17 47 28 49 25 51 33 53
REMARK Flexibility Score: inf
ROOT
ATOM      1  C   UNL     1     116.859 127.449 135.647  1.00  0.00     0.180 C 
ATOM      2  C   UNL     1     116.678 125.955 135.268  1.00  0.00     0.177 C 
ATOM      3  C   UNL     1     116.311 125.829 133.774  1.00  0.00     0.180 C 
ATOM      4  C   UNL     1     115.158 126.783 133.408  1.00  0.00     0.214 C 
ATOM      5  C   UNL     1     115.423 128.204 133.952  1.00  0.00     0.339 C 
ATOM      6  O   UNL     1     115.682 128.181 135.347  1.00  0.00    -0.332 OA
ENDROOT
BRANCH   1   7
ATOM      7  C   UNL     1     117.154 127.619 137.150  1.00  0.00     0.198 C 
BRANCH   7   8
ATOM      8  O   UNL     1     118.304 128.417 137.365  1.00  0.00    -0.347 OA
BRANCH   8   9
ATOM      9  C   UNL     1     119.503 127.732 137.023  1.00  0.00     0.281 C 
ATOM     10  C   UNL     1     119.733 128.250 139.994  1.00  0.00     0.041 C 
ATOM     11  C   UNL     1     120.545 127.267 139.134  1.00  0.00     0.150 C 
ATOM     12  C   UNL     1     121.939 127.825 138.711  1.00  0.00     0.174 C 
ATOM     13  O   UNL     1     119.797 126.767 138.033  1.00  0.00    -0.344 OA
ATOM     14  C   UNL     1     121.991 128.166 137.207  1.00  0.00     0.179 C 
ATOM     15  C   UNL     1     120.643 128.756 136.766  1.00  0.00     0.202 C 
BRANCH  12  16
ATOM     16  O   UNL     1     122.964 126.916 139.038  1.00  0.00    -0.388 OA
ATOM     17  H   UNL     1     123.827 127.404 138.983  1.00  0.00     0.211 HD
ENDBRANCH  12  16
BRANCH  14  18
ATOM     18  O   UNL     1     123.052 129.047 136.928  1.00  0.00    -0.387 OA
ATOM     19  H   UNL     1     123.179 129.632 137.721  1.00  0.00     0.211 HD
ENDBRANCH  14  18
BRANCH  15  20
ATOM     20  O   UNL     1     120.676 129.148 135.415  1.00  0.00    -0.385 OA
ATOM     21  H   UNL     1     120.382 130.095 135.365  1.00  0.00     0.211 HD
ENDBRANCH  15  20
ENDBRANCH   8   9
ENDBRANCH   7   8
ENDBRANCH   1   7
BRANCH   2  22
ATOM     22  O   UNL     1     117.838 125.211 135.550  1.00  0.00    -0.387 OA
ATOM     23  H   UNL     1     118.601 125.845 135.591  1.00  0.00     0.211 HD
ENDBRANCH   2  22
BRANCH   3  24
ATOM     24  O   UNL     1     115.944 124.508 133.467  1.00  0.00    -0.387 OA
ATOM     25  H   UNL     1     116.780 123.975 133.435  1.00  0.00     0.211 HD
ENDBRANCH   3  24
BRANCH   5  26
ATOM     26  O   UNL     1     116.506 128.824 133.250  1.00  0.00    -0.454 OA
BRANCH  26  27
ATOM     27  C   UNL     1     116.450 129.155 131.891  1.00  0.00     0.214 A 
ATOM     28  C   UNL     1     117.279 128.531 130.939  1.00  0.00     0.180 A 
ATOM     29  C   UNL     1     115.531 130.119 131.465  1.00  0.00     0.239 A 
ATOM     30  O   UNL     1     117.215 128.908 129.668  1.00  0.00    -0.452 OA
ATOM     31  C   UNL     1     115.502 130.518 130.107  1.00  0.00     0.111 A 
ATOM     32  O   UNL     1     114.733 130.600 132.312  1.00  0.00    -0.285 OA
ATOM     33  C   UNL     1     116.382 129.841 129.221  1.00  0.00     0.146 A 
ATOM     34  C   UNL     1     114.640 131.523 129.573  1.00  0.00     0.134 A 
ATOM     35  C   UNL     1     116.374 130.129 127.855  1.00  0.00     0.094 A 
ATOM     36  C   UNL     1     114.627 131.759 128.192  1.00  0.00     0.093 A 
ATOM     37  C   UNL     1     115.490 131.071 127.336  1.00  0.00     0.123 A 
BRANCH  28  38
ATOM     38  C   UNL     1     118.215 127.438 131.292  1.00  0.00     0.025 A 
ATOM     39  C   UNL     1     119.195 127.608 132.286  1.00  0.00     0.062 A 
ATOM     40  C   UNL     1     118.099 126.194 130.654  1.00  0.00     0.016 A 
ATOM     41  C   UNL     1     120.077 126.570 132.602  1.00  0.00     0.158 A 
ATOM     42  C   UNL     1     118.975 125.153 130.971  1.00  0.00     0.051 A 
ATOM     43  C   UNL     1     119.971 125.336 131.939  1.00  0.00     0.157 A 
BRANCH  41  44
ATOM     44  O   UNL     1     121.055 126.784 133.574  1.00  0.00    -0.504 OA
ATOM     45  H   UNL     1     121.493 127.686 133.708  1.00  0.00     0.293 HD
ENDBRANCH  41  44
BRANCH  43  46
ATOM     46  O   UNL     1     120.848 124.298 132.247  1.00  0.00    -0.504 OA
ATOM     47  H   UNL     1     120.774 123.390 131.803  1.00  0.00     0.293 HD
ENDBRANCH  43  46
ENDBRANCH  28  38
BRANCH  34  48
ATOM     48  O   UNL     1     113.801 132.329 130.349  1.00  0.00    -0.507 OA
ATOM     49  H   UNL     1     113.892 133.327 130.450  1.00  0.00     0.293 HD
ENDBRANCH  34  48
BRANCH  37  50
ATOM     50  O   UNL     1     115.478 131.320 125.964  1.00  0.00    -0.508 OA
ATOM     51  H   UNL     1     116.196 130.947 125.353  1.00  0.00     0.293 HD
ENDBRANCH  37  50
ENDBRANCH  26  27
ENDBRANCH   5  26
BRANCH   4  52
ATOM     52  O   UNL     1     113.920 126.289 133.861  1.00  0.00    -0.384 OA
ATOM     53  H   UNL     1     113.877 126.415 134.845  1.00  0.00     0.211 HD
ENDBRANCH   4  52
TORSDOF 16
ENDMDL
MODEL 3
REMARK VINA RESULT:    -7.662      2.397      7.669
REMARK INTER + INTRA:         -14.474
REMARK INTER:                 -12.321
REMARK INTRA:                  -2.152
REMARK UNBOUND:                -1.885
REMARK SMILES C[C@H]1O[C@@H](OC[C@@H]2O[C@@H](Oc3c(-c4ccc(O)c(O)c4)oc4cc(O)cc(O)c4c3=O)[C@H](O)[C@H](O)[C@H]2O)[C@H](O)[C@@H](O)[C@@H]1O
REMARK SMILES IDX 7 1 36 2 34 3 32 4 9 5 8 6 6 7 5 8 4 9 1 10 2 11 42 12 3 13
REMARK SMILES IDX 40 14 38 15 43 16 41 18 39 20 37 22 35 24 10 26 11 27 12 28
REMARK SMILES IDX 30 29 21 30 29 31 31 32 22 33 27 34 23 35 26 36 24 37 13 38
REMARK SMILES IDX 20 39 14 40 18 41 15 42 16 43 19 44 17 46 28 48 25 50 33 52
REMARK H PARENT 43 17 41 19 39 21 37 23 35 25 19 45 17 47 28 49 25 51 33 53
REMARK Flexibility Score: inf
ROOT
ATOM      1  C   UNL     1     117.354 128.282 134.544  1.00  0.00     0.180 C 
ATOM      2  C   UNL     1     116.540 128.760 135.776  1.00  0.00     0.177 C 
ATOM      3  C   UNL     1     115.423 129.727 135.331  1.00  0.00     0.180 C 
ATOM      4  C   UNL     1     115.981 130.822 134.401  1.00  0.00     0.214 C 
ATOM      5  C   UNL     1     116.867 130.207 133.295  1.00  0.00     0.339 C 
ATOM      6  O   UNL     1     117.891 129.394 133.845  1.00  0.00    -0.332 OA
ENDROOT
BRANCH   1   7
ATOM      7  C   UNL     1     118.525 127.371 134.959  1.00  0.00     0.198 C 
BRANCH   7   8
ATOM      8  O   UNL     1     118.890 127.582 136.311  1.00  0.00    -0.347 OA
BRANCH   8   9
ATOM      9  C   UNL     1     120.260 127.281 136.550  1.00  0.00     0.281 C 
ATOM     10  C   UNL     1     119.173 128.112 139.248  1.00  0.00     0.041 C 
ATOM     11  C   UNL     1     120.479 127.361 138.938  1.00  0.00     0.150 C 
ATOM     12  C   UNL     1     121.733 128.288 138.918  1.00  0.00     0.174 C 
ATOM     13  O   UNL     1     120.375 126.554 137.772  1.00  0.00    -0.344 OA
ATOM     14  C   UNL     1     122.277 128.492 137.488  1.00  0.00     0.179 C 
ATOM     15  C   UNL     1     121.104 128.585 136.500  1.00  0.00     0.202 C 
BRANCH  12  16
ATOM     16  O   UNL     1     122.746 127.782 139.754  1.00  0.00    -0.388 OA
ATOM     17  H   UNL     1     122.755 128.330 140.583  1.00  0.00     0.211 HD
ENDBRANCH  12  16
BRANCH  14  18
ATOM     18  O   UNL     1     123.098 129.632 137.420  1.00  0.00    -0.387 OA
ATOM     19  H   UNL     1     122.573 130.405 137.757  1.00  0.00     0.211 HD
ENDBRANCH  14  18
BRANCH  15  20
ATOM     20  O   UNL     1     121.559 128.843 135.194  1.00  0.00    -0.385 OA
ATOM     21  H   UNL     1     121.277 129.764 134.950  1.00  0.00     0.211 HD
ENDBRANCH  15  20
ENDBRANCH   8   9
ENDBRANCH   7   8
ENDBRANCH   1   7
BRANCH   2  22
ATOM     22  O   UNL     1     115.992 127.672 136.480  1.00  0.00    -0.387 OA
ATOM     23  H   UNL     1     115.926 126.907 135.851  1.00  0.00     0.211 HD
ENDBRANCH   2  22
BRANCH   3  24
ATOM     24  O   UNL     1     114.815 130.324 136.448  1.00  0.00    -0.387 OA
ATOM     25  H   UNL     1     114.012 129.783 136.663  1.00  0.00     0.211 HD
ENDBRANCH   3  24
BRANCH   5  26
ATOM     26  O   UNL     1     116.074 129.458 132.367  1.00  0.00    -0.454 OA
BRANCH  26  27
ATOM     27  C   UNL     1     116.073 129.699 130.988  1.00  0.00     0.214 A 
ATOM     28  C   UNL     1     116.869 128.948 130.102  1.00  0.00     0.180 A 
ATOM     29  C   UNL     1     115.244 130.702 130.474  1.00  0.00     0.239 A 
ATOM     30  O   UNL     1     116.862 129.242 128.807  1.00  0.00    -0.452 OA
ATOM     31  C   UNL     1     115.276 131.008 129.093  1.00  0.00     0.111 A 
ATOM     32  O   UNL     1     114.470 131.300 131.266  1.00  0.00    -0.285 OA
ATOM     33  C   UNL     1     116.117 130.204 128.278  1.00  0.00     0.146 A 
ATOM     34  C   UNL     1     114.509 132.039 128.471  1.00  0.00     0.134 A 
ATOM     35  C   UNL     1     116.161 130.398 126.896  1.00  0.00     0.094 A 
ATOM     36  C   UNL     1     114.544 132.181 127.078  1.00  0.00     0.093 A 
ATOM     37  C   UNL     1     115.366 131.369 126.292  1.00  0.00     0.123 A 
BRANCH  28  38
ATOM     38  C   UNL     1     117.706 127.812 130.551  1.00  0.00     0.025 A 
ATOM     39  C   UNL     1     119.107 127.839 130.421  1.00  0.00     0.062 A 
ATOM     40  C   UNL     1     117.099 126.700 131.156  1.00  0.00     0.016 A 
ATOM     41  C   UNL     1     119.883 126.754 130.841  1.00  0.00     0.158 A 
ATOM     42  C   UNL     1     117.872 125.619 131.582  1.00  0.00     0.051 A 
ATOM     43  C   UNL     1     119.263 125.635 131.422  1.00  0.00     0.157 A 
BRANCH  41  44
ATOM     44  O   UNL     1     121.267 126.805 130.670  1.00  0.00    -0.504 OA
ATOM     45  H   UNL     1     121.835 125.970 130.635  1.00  0.00     0.293 HD
ENDBRANCH  41  44
BRANCH  43  46
ATOM     46  O   UNL     1     120.030 124.550 131.842  1.00  0.00    -0.504 OA
ATOM     47  H   UNL     1     119.673 123.870 132.502  1.00  0.00     0.293 HD
ENDBRANCH  43  46
ENDBRANCH  28  38
BRANCH  34  48
ATOM     48  O   UNL     1     113.721 132.959 129.169  1.00  0.00    -0.507 OA
ATOM     49  H   UNL     1     113.927 133.941 129.263  1.00  0.00     0.293 HD
ENDBRANCH  34  48
BRANCH  37  50
ATOM     50  O   UNL     1     115.403 131.524 124.907  1.00  0.00    -0.508 OA
ATOM     51  H   UNL     1     116.245 131.333 124.376  1.00  0.00     0.293 HD
ENDBRANCH  37  50
ENDBRANCH  26  27
ENDBRANCH   5  26
BRANCH   4  52
ATOM     52  O   UNL     1     116.685 131.802 135.127  1.00  0.00    -0.384 OA
ATOM     53  H   UNL     1     117.405 131.350 135.641  1.00  0.00     0.211 HD
ENDBRANCH   4  52
TORSDOF 16
ENDMDL
MODEL 4
REMARK VINA RESULT:    -7.478      1.458      6.949
REMARK INTER + INTRA:         -14.172
REMARK INTER:                 -12.424
REMARK INTRA:                  -1.748
REMARK UNBOUND:                -1.885
REMARK SMILES C[C@H]1O[C@@H](OC[C@@H]2O[C@@H](Oc3c(-c4ccc(O)c(O)c4)oc4cc(O)cc(O)c4c3=O)[C@H](O)[C@H](O)[C@H]2O)[C@H](O)[C@@H](O)[C@@H]1O
REMARK SMILES IDX 7 1 36 2 34 3 32 4 9 5 8 6 6 7 5 8 4 9 1 10 2 11 42 12 3 13
REMARK SMILES IDX 40 14 38 15 43 16 41 18 39 20 37 22 35 24 10 26 11 27 12 28
REMARK SMILES IDX 30 29 21 30 29 31 31 32 22 33 27 34 23 35 26 36 24 37 13 38
REMARK SMILES IDX 20 39 14 40 18 41 15 42 16 43 19 44 17 46 28 48 25 50 33 52
REMARK H PARENT 43 17 41 19 39 21 37 23 35 25 19 45 17 47 28 49 25 51 33 53
REMARK Flexibility Score: inf
ROOT
ATOM      1  C   UNL     1     116.775 127.975 131.841  1.00  0.00     0.180 C 
ATOM      2  C   UNL     1     116.029 128.908 130.851  1.00  0.00     0.177 C 
ATOM      3  C   UNL     1     116.377 130.382 131.147  1.00  0.00     0.180 C 
ATOM      4  C   UNL     1     116.219 130.694 132.647  1.00  0.00     0.214 C 
ATOM      5  C   UNL     1     116.912 129.617 133.511  1.00  0.00     0.339 C 
ATOM      6  O   UNL     1     116.452 128.316 133.180  1.00  0.00    -0.332 OA
ENDROOT
BRANCH   1   7
ATOM      7  C   UNL     1     116.394 126.498 131.622  1.00  0.00     0.198 C 
BRANCH   7   8
ATOM      8  O   UNL     1     117.439 125.630 132.022  1.00  0.00    -0.347 OA
BRANCH   8   9
ATOM      9  C   UNL     1     117.503 125.483 133.436  1.00  0.00     0.281 C 
ATOM     10  C   UNL     1     119.762 123.771 132.382  1.00  0.00     0.041 C 
ATOM     11  C   UNL     1     119.541 124.277 133.818  1.00  0.00     0.150 C 
ATOM     12  C   UNL     1     118.885 123.214 134.752  1.00  0.00     0.174 C 
ATOM     13  O   UNL     1     118.867 125.528 133.851  1.00  0.00    -0.344 OA
ATOM     14  C   UNL     1     117.425 123.574 135.097  1.00  0.00     0.179 C 
ATOM     15  C   UNL     1     116.744 124.198 133.869  1.00  0.00     0.202 C 
BRANCH  12  16
ATOM     16  O   UNL     1     119.636 123.050 135.931  1.00  0.00    -0.388 OA
ATOM     17  H   UNL     1     120.527 123.461 135.780  1.00  0.00     0.211 HD
ENDBRANCH  12  16
BRANCH  14  18
ATOM     18  O   UNL     1     116.723 122.443 135.553  1.00  0.00    -0.387 OA
ATOM     19  H   UNL     1     115.753 122.650 135.514  1.00  0.00     0.211 HD
ENDBRANCH  14  18
BRANCH  15  20
ATOM     20  O   UNL     1     115.388 124.474 134.124  1.00  0.00    -0.385 OA
ATOM     21  H   UNL     1     115.347 125.174 134.828  1.00  0.00     0.211 HD
ENDBRANCH  15  20
ENDBRANCH   8   9
ENDBRANCH   7   8
ENDBRANCH   1   7
BRANCH   2  22
ATOM     22  O   UNL     1     116.341 128.592 129.516  1.00  0.00    -0.387 OA
ATOM     23  H   UNL     1     116.491 127.611 129.464  1.00  0.00     0.211 HD
ENDBRANCH   2  22
BRANCH   3  24
ATOM     24  O   UNL     1     115.555 131.242 130.399  1.00  0.00    -0.387 OA
ATOM     25  H   UNL     1     115.892 131.224 129.466  1.00  0.00     0.211 HD
ENDBRANCH   3  24
BRANCH   5  26
ATOM     26  O   UNL     1     118.335 129.696 133.378  1.00  0.00    -0.454 OA
BRANCH  26  27
ATOM     27  C   UNL     1     119.224 129.262 134.368  1.00  0.00     0.214 A 
ATOM     28  C   UNL     1     120.472 128.692 134.048  1.00  0.00     0.180 A 
ATOM     29  C   UNL     1     118.871 129.416 135.713  1.00  0.00     0.239 A 
ATOM     30  O   UNL     1     121.262 128.259 135.024  1.00  0.00    -0.452 OA
ATOM     31  C   UNL     1     119.724 128.923 136.729  1.00  0.00     0.111 A 
ATOM     32  O   UNL     1     117.796 130.011 135.983  1.00  0.00    -0.285 OA
ATOM     33  C   UNL     1     120.957 128.354 136.312  1.00  0.00     0.146 A 
ATOM     34  C   UNL     1     119.442 128.984 138.128  1.00  0.00     0.134 A 
ATOM     35  C   UNL     1     121.884 127.901 137.252  1.00  0.00     0.094 A 
ATOM     36  C   UNL     1     120.410 128.559 139.046  1.00  0.00     0.093 A 
ATOM     37  C   UNL     1     121.623 128.017 138.615  1.00  0.00     0.123 A 
BRANCH  28  38
ATOM     38  C   UNL     1     120.961 128.574 132.656  1.00  0.00     0.025 A 
ATOM     39  C   UNL     1     121.953 129.436 132.154  1.00  0.00     0.062 A 
ATOM     40  C   UNL     1     120.457 127.559 131.827  1.00  0.00     0.016 A 
ATOM     41  C   UNL     1     122.398 129.319 130.834  1.00  0.00     0.158 A 
ATOM     42  C   UNL     1     120.904 127.436 130.510  1.00  0.00     0.051 A 
ATOM     43  C   UNL     1     121.869 128.316 130.004  1.00  0.00     0.157 A 
BRANCH  41  44
ATOM     44  O   UNL     1     123.363 130.210 130.362  1.00  0.00    -0.504 OA
ATOM     45  H   UNL     1     123.117 131.056 129.866  1.00  0.00     0.293 HD
ENDBRANCH  41  44
BRANCH  43  46
ATOM     46  O   UNL     1     122.306 128.195 128.686  1.00  0.00    -0.504 OA
ATOM     47  H   UNL     1     122.337 127.297 128.217  1.00  0.00     0.293 HD
ENDBRANCH  43  46
ENDBRANCH  28  38
BRANCH  34  48
ATOM     48  O   UNL     1     118.229 129.428 138.664  1.00  0.00    -0.507 OA
ATOM     49  H   UNL     1     117.448 129.766 138.123  1.00  0.00     0.293 HD
ENDBRANCH  34  48
BRANCH  37  50
ATOM     50  O   UNL     1     122.576 127.586 139.537  1.00  0.00    -0.508 OA
ATOM     51  H   UNL     1     122.382 126.830 140.183  1.00  0.00     0.293 HD
ENDBRANCH  37  50
ENDBRANCH  26  27
ENDBRANCH   5  26
BRANCH   4  52
ATOM     52  O   UNL     1     114.864 130.834 133.003  1.00  0.00    -0.384 OA
ATOM     53  H   UNL     1     114.310 130.475 132.260  1.00  0.00     0.211 HD
ENDBRANCH   4  52
TORSDOF 16
ENDMDL
MODEL 5
REMARK VINA RESULT:    -7.410      3.626      7.321
REMARK INTER + INTRA:         -14.060
REMARK INTER:                 -11.873
REMARK INTRA:                  -2.187
REMARK UNBOUND:                -1.885
REMARK SMILES C[C@H]1O[C@@H](OC[C@@H]2O[C@@H](Oc3c(-c4ccc(O)c(O)c4)oc4cc(O)cc(O)c4c3=O)[C@H](O)[C@H](O)[C@H]2O)[C@H](O)[C@@H](O)[C@@H]1O
REMARK SMILES IDX 7 1 36 2 34 3 32 4 9 5 8 6 6 7 5 8 4 9 1 10 2 11 42 12 3 13
REMARK SMILES IDX 40 14 38 15 43 16 41 18 39 20 37 22 35 24 10 26 11 27 12 28
REMARK SMILES IDX 30 29 21 30 29 31 31 32 22 33 27 34 23 35 26 36 24 37 13 38
REMARK SMILES IDX 20 39 14 40 18 41 15 42 16 43 19 44 17 46 28 48 25 50 33 52
REMARK H PARENT 43 17 41 19 39 21 37 23 35 25 19 45 17 47 28 49 25 51 33 53
REMARK Flexibility Score: inf
ROOT
ATOM      1  C   UNL     1     115.542 130.705 135.063  1.00  0.00     0.180 C 
ATOM      2  C   UNL     1     116.491 130.173 136.168  1.00  0.00     0.177 C 
ATOM      3  C   UNL     1     117.580 129.273 135.545  1.00  0.00     0.180 C 
ATOM      4  C   UNL     1     116.955 128.226 134.603  1.00  0.00     0.214 C 
ATOM      5  C   UNL     1     115.944 128.885 133.638  1.00  0.00     0.339 C 
ATOM      6  O   UNL     1     114.963 129.626 134.346  1.00  0.00    -0.332 OA
ENDROOT
BRANCH   1   7
ATOM      7  C   UNL     1     114.398 131.549 135.658  1.00  0.00     0.198 C 
BRANCH   7   8
ATOM      8  O   UNL     1     114.878 132.771 136.188  1.00  0.00    -0.347 OA
BRANCH   8   9
ATOM      9  C   UNL     1     115.192 133.712 135.168  1.00  0.00     0.281 C 
ATOM     10  C   UNL     1     116.744 134.653 137.587  1.00  0.00     0.041 C 
ATOM     11  C   UNL     1     116.939 135.056 136.115  1.00  0.00     0.150 C 
ATOM     12  C   UNL     1     116.262 136.414 135.753  1.00  0.00     0.174 C 
ATOM     13  O   UNL     1     116.586 134.011 135.218  1.00  0.00    -0.344 OA
ATOM     14  C   UNL     1     115.022 136.219 134.856  1.00  0.00     0.179 C 
ATOM     15  C   UNL     1     114.266 134.953 135.290  1.00  0.00     0.202 C 
BRANCH  12  16
ATOM     16  O   UNL     1     117.179 137.282 135.130  1.00  0.00    -0.388 OA
ATOM     17  H   UNL     1     117.897 136.724 134.729  1.00  0.00     0.211 HD
ENDBRANCH  12  16
BRANCH  14  18
ATOM     18  O   UNL     1     114.190 137.352 134.895  1.00  0.00    -0.387 OA
ATOM     19  H   UNL     1     114.110 137.638 135.842  1.00  0.00     0.211 HD
ENDBRANCH  14  18
BRANCH  15  20
ATOM     20  O   UNL     1     113.088 134.782 134.541  1.00  0.00    -0.385 OA
ATOM     21  H   UNL     1     112.317 134.881 135.159  1.00  0.00     0.211 HD
ENDBRANCH  15  20
ENDBRANCH   8   9
ENDBRANCH   7   8
ENDBRANCH   1   7
BRANCH   2  22
ATOM     22  O   UNL     1     117.083 131.228 136.887  1.00  0.00    -0.387 OA
ATOM     23  H   UNL     1     117.110 132.022 136.291  1.00  0.00     0.211 HD
ENDBRANCH   2  22
BRANCH   3  24
ATOM     24  O   UNL     1     118.315 128.622 136.549  1.00  0.00    -0.387 OA
ATOM     25  H   UNL     1     118.204 127.647 136.403  1.00  0.00     0.211 HD
ENDBRANCH   3  24
BRANCH   5  26
ATOM     26  O   UNL     1     116.617 129.720 132.689  1.00  0.00    -0.454 OA
BRANCH  26  27
ATOM     27  C   UNL     1     116.239 129.813 131.344  1.00  0.00     0.214 A 
ATOM     28  C   UNL     1     116.751 128.939 130.366  1.00  0.00     0.180 A 
ATOM     29  C   UNL     1     115.310 130.789 130.966  1.00  0.00     0.239 A 
ATOM     30  O   UNL     1     116.390 129.094 129.098  1.00  0.00    -0.452 OA
ATOM     31  C   UNL     1     114.963 130.945 129.603  1.00  0.00     0.111 A 
ATOM     32  O   UNL     1     114.791 131.499 131.866  1.00  0.00    -0.285 OA
ATOM     33  C   UNL     1     115.538 130.025 128.686  1.00  0.00     0.146 A 
ATOM     34  C   UNL     1     114.065 131.935 129.101  1.00  0.00     0.134 A 
ATOM     35  C   UNL     1     115.201 130.069 127.332  1.00  0.00     0.094 A 
ATOM     36  C   UNL     1     113.716 131.926 127.745  1.00  0.00     0.093 A 
ATOM     37  C   UNL     1     114.281 131.002 126.862  1.00  0.00     0.123 A 
BRANCH  28  38
ATOM     38  C   UNL     1     117.667 127.824 130.695  1.00  0.00     0.025 A 
ATOM     39  C   UNL     1     119.056 127.936 130.498  1.00  0.00     0.062 A 
ATOM     40  C   UNL     1     117.151 126.644 131.254  1.00  0.00     0.016 A 
ATOM     41  C   UNL     1     119.908 126.870 130.806  1.00  0.00     0.158 A 
ATOM     42  C   UNL     1     118.000 125.581 131.567  1.00  0.00     0.051 A 
ATOM     43  C   UNL     1     119.378 125.684 131.340  1.00  0.00     0.157 A 
BRANCH  41  44
ATOM     44  O   UNL     1     121.276 127.007 130.571  1.00  0.00    -0.504 OA
ATOM     45  H   UNL     1     121.642 127.295 129.673  1.00  0.00     0.293 HD
ENDBRANCH  41  44
BRANCH  43  46
ATOM     46  O   UNL     1     120.220 124.617 131.647  1.00  0.00    -0.504 OA
ATOM     47  H   UNL     1     120.921 124.685 132.375  1.00  0.00     0.293 HD
ENDBRANCH  43  46
ENDBRANCH  28  38
BRANCH  34  48
ATOM     48  O   UNL     1     113.510 132.956 129.879  1.00  0.00    -0.507 OA
ATOM     49  H   UNL     1     113.208 133.851 129.526  1.00  0.00     0.293 HD
ENDBRANCH  34  48
BRANCH  37  50
ATOM     50  O   UNL     1     113.936 131.008 125.511  1.00  0.00    -0.508 OA
ATOM     51  H   UNL     1     114.088 130.196 124.924  1.00  0.00     0.293 HD
ENDBRANCH  37  50
ENDBRANCH  26  27
ENDBRANCH   5  26
BRANCH   4  52
ATOM     52  O   UNL     1     116.355 127.178 135.327  1.00  0.00    -0.384 OA
ATOM     53  H   UNL     1     117.055 126.746 135.884  1.00  0.00     0.211 HD
ENDBRANCH   4  52
TORSDOF 16
ENDMDL
MODEL 6
REMARK VINA RESULT:    -7.279      2.665      7.363
REMARK INTER + INTRA:         -13.845
REMARK INTER:                 -11.642
REMARK INTRA:                  -2.203
REMARK UNBOUND:                -1.885
REMARK SMILES C[C@H]1O[C@@H](OC[C@@H]2O[C@@H](Oc3c(-c4ccc(O)c(O)c4)oc4cc(O)cc(O)c4c3=O)[C@H](O)[C@H](O)[C@H]2O)[C@H](O)[C@@H](O)[C@@H]1O
REMARK SMILES IDX 7 1 36 2 34 3 32 4 9 5 8 6 6 7 5 8 4 9 1 10 2 11 42 12 3 13
REMARK SMILES IDX 40 14 38 15 43 16 41 18 39 20 37 22 35 24 10 26 11 27 12 28
REMARK SMILES IDX 30 29 21 30 29 31 31 32 22 33 27 34 23 35 26 36 24 37 13 38
REMARK SMILES IDX 20 39 14 40 18 41 15 42 16 43 19 44 17 46 28 48 25 50 33 52
REMARK H PARENT 43 17 41 19 39 21 37 23 35 25 19 45 17 47 28 49 25 51 33 53
REMARK Flexibility Score: inf
ROOT
ATOM      1  C   UNL     1     115.125 128.603 134.531  1.00  0.00     0.180 C 
ATOM      2  C   UNL     1     114.635 129.923 135.182  1.00  0.00     0.177 C 
ATOM      3  C   UNL     1     114.659 131.067 134.146  1.00  0.00     0.180 C 
ATOM      4  C   UNL     1     116.013 131.116 133.412  1.00  0.00     0.214 C 
ATOM      5  C   UNL     1     116.427 129.710 132.923  1.00  0.00     0.339 C 
ATOM      6  O   UNL     1     116.425 128.773 133.988  1.00  0.00    -0.332 OA
ENDROOT
BRANCH   1   7
ATOM      7  C   UNL     1     115.184 127.454 135.556  1.00  0.00     0.198 C 
BRANCH   7   8
ATOM      8  O   UNL     1     116.510 126.994 135.740  1.00  0.00    -0.347 OA
BRANCH   8   9
ATOM      9  C   UNL     1     116.571 125.580 135.889  1.00  0.00     0.281 C 
ATOM     10  C   UNL     1     119.460 126.470 135.798  1.00  0.00     0.041 C 
ATOM     11  C   UNL     1     118.894 125.122 136.277  1.00  0.00     0.150 C 
ATOM     12  C   UNL     1     118.982 123.998 135.199  1.00  0.00     0.174 C 
ATOM     13  O   UNL     1     117.591 125.251 136.831  1.00  0.00    -0.344 OA
ATOM     14  C   UNL     1     117.595 123.637 134.629  1.00  0.00     0.179 C 
ATOM     15  C   UNL     1     116.744 124.909 134.498  1.00  0.00     0.202 C 
BRANCH  12  16
ATOM     16  O   UNL     1     119.606 122.850 135.721  1.00  0.00    -0.388 OA
ATOM     17  H   UNL     1     118.915 122.142 135.802  1.00  0.00     0.211 HD
ENDBRANCH  12  16
BRANCH  14  18
ATOM     18  O   UNL     1     117.716 122.971 133.395  1.00  0.00    -0.387 OA
ATOM     19  H   UNL     1     117.304 123.545 132.698  1.00  0.00     0.211 HD
ENDBRANCH  14  18
BRANCH  15  20
ATOM     20  O   UNL     1     115.496 124.629 133.913  1.00  0.00    -0.385 OA
ATOM     21  H   UNL     1     115.591 123.799 133.375  1.00  0.00     0.211 HD
ENDBRANCH  15  20
ENDBRANCH   8   9
ENDBRANCH   7   8
ENDBRANCH   1   7
BRANCH   2  22
ATOM     22  O   UNL     1     113.342 129.779 135.720  1.00  0.00    -0.387 OA
ATOM     23  H   UNL     1     112.950 128.947 135.347  1.00  0.00     0.211 HD
ENDBRANCH   2  22
BRANCH   3  24
ATOM     24  O   UNL     1     114.418 132.302 134.770  1.00  0.00    -0.387 OA
ATOM     25  H   UNL     1     114.167 132.943 134.055  1.00  0.00     0.211 HD
ENDBRANCH   3  24
BRANCH   5  26
ATOM     26  O   UNL     1     115.572 129.268 131.863  1.00  0.00    -0.454 OA
BRANCH  26  27
ATOM     27  C   UNL     1     115.788 129.592 130.518  1.00  0.00     0.214 A 
ATOM     28  C   UNL     1     116.763 128.935 129.743  1.00  0.00     0.180 A 
ATOM     29  C   UNL     1     115.000 130.583 129.923  1.00  0.00     0.239 A 
ATOM     30  O   UNL     1     116.956 129.305 128.482  1.00  0.00    -0.452 OA
ATOM     31  C   UNL     1     115.245 130.973 128.584  1.00  0.00     0.111 A 
ATOM     32  O   UNL     1     114.071 131.094 130.601  1.00  0.00    -0.285 OA
ATOM     33  C   UNL     1     116.255 130.261 127.884  1.00  0.00     0.146 A 
ATOM     34  C   UNL     1     114.534 132.001 127.894  1.00  0.00     0.134 A 
ATOM     35  C   UNL     1     116.518 130.539 126.541  1.00  0.00     0.094 A 
ATOM     36  C   UNL     1     114.794 132.228 126.537  1.00  0.00     0.093 A 
ATOM     37  C   UNL     1     115.781 131.506 125.862  1.00  0.00     0.123 A 
BRANCH  28  38
ATOM     38  C   UNL     1     117.577 127.815 130.269  1.00  0.00     0.025 A 
ATOM     39  C   UNL     1     118.981 127.897 130.329  1.00  0.00     0.062 A 
ATOM     40  C   UNL     1     116.940 126.664 130.756  1.00  0.00     0.016 A 
ATOM     41  C   UNL     1     119.736 126.828 130.820  1.00  0.00     0.158 A 
ATOM     42  C   UNL     1     117.692 125.597 131.253  1.00  0.00     0.051 A 
ATOM     43  C   UNL     1     119.090 125.669 131.282  1.00  0.00     0.157 A 
BRANCH  41  44
ATOM     44  O   UNL     1     121.128 126.934 130.838  1.00  0.00    -0.504 OA
ATOM     45  H   UNL     1     121.730 126.137 130.681  1.00  0.00     0.293 HD
ENDBRANCH  41  44
BRANCH  43  46
ATOM     46  O   UNL     1     119.837 124.599 131.771  1.00  0.00    -0.504 OA
ATOM     47  H   UNL     1     119.416 123.695 131.951  1.00  0.00     0.293 HD
ENDBRANCH  43  46
ENDBRANCH  28  38
BRANCH  34  48
ATOM     48  O   UNL     1     113.589 132.838 128.495  1.00  0.00    -0.507 OA
ATOM     49  H   UNL     1     113.539 133.038 129.481  1.00  0.00     0.293 HD
ENDBRANCH  34  48
BRANCH  37  50
ATOM     50  O   UNL     1     116.040 131.746 124.513  1.00  0.00    -0.508 OA
ATOM     51  H   UNL     1     116.920 132.144 124.207  1.00  0.00     0.293 HD
ENDBRANCH  37  50
ENDBRANCH  26  27
ENDBRANCH   5  26
BRANCH   4  52
ATOM     52  O   UNL     1     117.014 131.687 134.221  1.00  0.00    -0.384 OA
ATOM     53  H   UNL     1     117.709 130.997 134.388  1.00  0.00     0.211 HD
ENDBRANCH   4  52
TORSDOF 16
ENDMDL
MODEL 7
REMARK VINA RESULT:    -7.207      2.448      6.890
REMARK INTER + INTRA:         -13.726
REMARK INTER:                 -12.045
REMARK INTRA:                  -1.681
REMARK UNBOUND:                -1.885
REMARK SMILES C[C@H]1O[C@@H](OC[C@@H]2O[C@@H](Oc3c(-c4ccc(O)c(O)c4)oc4cc(O)cc(O)c4c3=O)[C@H](O)[C@H](O)[C@H]2O)[C@H](O)[C@@H](O)[C@@H]1O
REMARK SMILES IDX 7 1 36 2 34 3 32 4 9 5 8 6 6 7 5 8 4 9 1 10 2 11 42 12 3 13
REMARK SMILES IDX 40 14 38 15 43 16 41 18 39 20 37 22 35 24 10 26 11 27 12 28
REMARK SMILES IDX 30 29 21 30 29 31 31 32 22 33 27 34 23 35 26 36 24 37 13 38
REMARK SMILES IDX 20 39 14 40 18 41 15 42 16 43 19 44 17 46 28 48 25 50 33 52
REMARK H PARENT 43 17 41 19 39 21 37 23 35 25 19 45 17 47 28 49 25 51 33 53
REMARK Flexibility Score: inf
ROOT
ATOM      1  C   UNL     1     118.143 127.199 133.080  1.00  0.00     0.180 C 
ATOM      2  C   UNL     1     118.048 126.844 134.588  1.00  0.00     0.177 C 
ATOM      3  C   UNL     1     116.932 127.674 135.258  1.00  0.00     0.180 C 
ATOM      4  C   UNL     1     117.068 129.167 134.903  1.00  0.00     0.214 C 
ATOM      5  C   UNL     1     117.275 129.357 133.384  1.00  0.00     0.339 C 
ATOM      6  O   UNL     1     118.370 128.589 132.913  1.00  0.00    -0.332 OA
ENDROOT
BRANCH   1   7
ATOM      7  C   UNL     1     119.297 126.443 132.394  1.00  0.00     0.198 C 
BRANCH   7   8
ATOM      8  O   UNL     1     120.493 126.532 133.146  1.00  0.00    -0.347 OA
BRANCH   8   9
ATOM      9  C   UNL     1     121.627 126.782 132.324  1.00  0.00     0.281 C 
ATOM     10  C   UNL     1     121.195 129.361 133.842  1.00  0.00     0.041 C 
ATOM     11  C   UNL     1     122.445 128.911 133.069  1.00  0.00     0.150 C 
ATOM     12  C   UNL     1     122.537 129.519 131.635  1.00  0.00     0.174 C 
ATOM     13  O   UNL     1     122.605 127.497 133.077  1.00  0.00    -0.344 OA
ATOM     14  C   UNL     1     122.279 128.460 130.543  1.00  0.00     0.179 C 
ATOM     15  C   UNL     1     121.184 127.490 131.014  1.00  0.00     0.202 C 
BRANCH  12  16
ATOM     16  O   UNL     1     123.786 130.134 131.429  1.00  0.00    -0.388 OA
ATOM     17  H   UNL     1     124.029 130.009 130.475  1.00  0.00     0.211 HD
ENDBRANCH  12  16
BRANCH  14  18
ATOM     18  O   UNL     1     121.934 129.070 129.323  1.00  0.00    -0.387 OA
ATOM     19  H   UNL     1     122.644 129.726 129.100  1.00  0.00     0.211 HD
ENDBRANCH  14  18
BRANCH  15  20
ATOM     20  O   UNL     1     120.870 126.552 130.013  1.00  0.00    -0.385 OA
ATOM     21  H   UNL     1     120.374 125.805 130.441  1.00  0.00     0.211 HD
ENDBRANCH  15  20
ENDBRANCH   8   9
ENDBRANCH   7   8
ENDBRANCH   1   7
BRANCH   2  22
ATOM     22  O   UNL     1     117.814 125.470 134.776  1.00  0.00    -0.387 OA
ATOM     23  H   UNL     1     118.293 125.192 135.601  1.00  0.00     0.211 HD
ENDBRANCH   2  22
BRANCH   3  24
ATOM     24  O   UNL     1     116.972 127.517 136.653  1.00  0.00    -0.387 OA
ATOM     25  H   UNL     1     117.918 127.627 136.929  1.00  0.00     0.211 HD
ENDBRANCH   3  24
BRANCH   5  26
ATOM     26  O   UNL     1     116.082 129.026 132.663  1.00  0.00    -0.454 OA
BRANCH  26  27
ATOM     27  C   UNL     1     115.571 129.812 131.623  1.00  0.00     0.214 A 
ATOM     28  C   UNL     1     114.861 131.002 131.871  1.00  0.00     0.180 A 
ATOM     29  C   UNL     1     115.789 129.412 130.300  1.00  0.00     0.239 A 
ATOM     30  O   UNL     1     114.363 131.691 130.851  1.00  0.00    -0.452 OA
ATOM     31  C   UNL     1     115.226 130.154 129.235  1.00  0.00     0.111 A 
ATOM     32  O   UNL     1     116.505 128.398 130.093  1.00  0.00    -0.285 OA
ATOM     33  C   UNL     1     114.516 131.335 129.581  1.00  0.00     0.146 A 
ATOM     34  C   UNL     1     115.345 129.812 127.854  1.00  0.00     0.134 A 
ATOM     35  C   UNL     1     113.982 132.159 128.588  1.00  0.00     0.094 A 
ATOM     36  C   UNL     1     114.834 130.680 126.881  1.00  0.00     0.093 A 
ATOM     37  C   UNL     1     114.153 131.846 127.242  1.00  0.00     0.123 A 
BRANCH  28  38
ATOM     38  C   UNL     1     114.663 131.543 133.235  1.00  0.00     0.025 A 
ATOM     39  C   UNL     1     115.516 132.530 133.761  1.00  0.00     0.062 A 
ATOM     40  C   UNL     1     113.581 131.095 134.008  1.00  0.00     0.016 A 
ATOM     41  C   UNL     1     115.323 133.024 135.055  1.00  0.00     0.158 A 
ATOM     42  C   UNL     1     113.382 131.591 135.298  1.00  0.00     0.051 A 
ATOM     43  C   UNL     1     114.252 132.550 135.831  1.00  0.00     0.157 A 
BRANCH  41  44
ATOM     44  O   UNL     1     116.206 133.983 135.553  1.00  0.00    -0.504 OA
ATOM     45  H   UNL     1     117.130 133.742 135.886  1.00  0.00     0.293 HD
ENDBRANCH  41  44
BRANCH  43  46
ATOM     46  O   UNL     1     114.054 133.037 137.122  1.00  0.00    -0.504 OA
ATOM     47  H   UNL     1     113.350 132.645 137.735  1.00  0.00     0.293 HD
ENDBRANCH  43  46
ENDBRANCH  28  38
BRANCH  34  48
ATOM     48  O   UNL     1     115.931 128.631 127.387  1.00  0.00    -0.507 OA
ATOM     49  H   UNL     1     115.870 128.293 126.439  1.00  0.00     0.293 HD
ENDBRANCH  34  48
BRANCH  37  50
ATOM     50  O   UNL     1     113.637 132.699 126.268  1.00  0.00    -0.508 OA
ATOM     51  H   UNL     1     113.575 133.699 126.420  1.00  0.00     0.293 HD
ENDBRANCH  37  50
ENDBRANCH  26  27
ENDBRANCH   5  26
BRANCH   4  52
ATOM     52  O   UNL     1     118.104 129.776 135.636  1.00  0.00    -0.384 OA
ATOM     53  H   UNL     1     117.906 130.747 135.705  1.00  0.00     0.211 HD
ENDBRANCH   4  52
TORSDOF 16
ENDMDL
MODEL 8
REMARK VINA RESULT:    -7.067      1.351      2.231
REMARK INTER + INTRA:         -13.496
REMARK INTER:                 -11.525
REMARK INTRA:                  -1.971
REMARK UNBOUND:                -1.885
REMARK SMILES C[C@H]1O[C@@H](OC[C@@H]2O[C@@H](Oc3c(-c4ccc(O)c(O)c4)oc4cc(O)cc(O)c4c3=O)[C@H](O)[C@H](O)[C@H]2O)[C@H](O)[C@@H](O)[C@@H]1O
REMARK SMILES IDX 7 1 36 2 34 3 32 4 9 5 8 6 6 7 5 8 4 9 1 10 2 11 42 12 3 13
REMARK SMILES IDX 40 14 38 15 43 16 41 18 39 20 37 22 35 24 10 26 11 27 12 28
REMARK SMILES IDX 30 29 21 30 29 31 31 32 22 33 27 34 23 35 26 36 24 37 13 38
REMARK SMILES IDX 20 39 14 40 18 41 15 42 16 43 19 44 17 46 28 48 25 50 33 52
REMARK H PARENT 43 17 41 19 39 21 37 23 35 25 19 45 17 47 28 49 25 51 33 53
REMARK Flexibility Score: inf
ROOT
ATOM      1  C   UNL     1     117.585 126.374 135.740  1.00  0.00     0.180 C 
ATOM      2  C   UNL     1     117.223 124.992 136.345  1.00  0.00     0.177 C 
ATOM      3  C   UNL     1     118.257 123.933 135.906  1.00  0.00     0.180 C 
ATOM      4  C   UNL     1     118.486 123.986 134.384  1.00  0.00     0.214 C 
ATOM      5  C   UNL     1     118.716 125.438 133.909  1.00  0.00     0.339 C 
ATOM      6  O   UNL     1     117.660 126.289 134.325  1.00  0.00    -0.332 OA
ENDROOT
BRANCH   1   7
ATOM      7  C   UNL     1     116.531 127.440 136.096  1.00  0.00     0.198 C 
BRANCH   7   8
ATOM      8  O   UNL     1     115.976 128.028 134.934  1.00  0.00    -0.347 OA
BRANCH   8   9
ATOM      9  C   UNL     1     116.783 129.086 134.430  1.00  0.00     0.281 C 
ATOM     10  C   UNL     1     114.212 130.423 135.296  1.00  0.00     0.041 C 
ATOM     11  C   UNL     1     115.570 131.079 134.993  1.00  0.00     0.150 C 
ATOM     12  C   UNL     1     115.655 131.687 133.559  1.00  0.00     0.174 C 
ATOM     13  O   UNL     1     116.663 130.218 135.290  1.00  0.00    -0.344 OA
ATOM     14  C   UNL     1     116.582 130.865 132.639  1.00  0.00     0.179 C 
ATOM     15  C   UNL     1     116.418 129.369 132.946  1.00  0.00     0.202 C 
BRANCH  12  16
ATOM     16  O   UNL     1     116.083 133.027 133.607  1.00  0.00    -0.388 OA
ATOM     17  H   UNL     1     115.828 133.455 132.747  1.00  0.00     0.211 HD
ENDBRANCH  12  16
BRANCH  14  18
ATOM     18  O   UNL     1     116.320 131.143 131.285  1.00  0.00    -0.387 OA
ATOM     19  H   UNL     1     115.844 132.013 131.239  1.00  0.00     0.211 HD
ENDBRANCH  14  18
BRANCH  15  20
ATOM     20  O   UNL     1     117.196 128.582 132.076  1.00  0.00    -0.385 OA
ATOM     21  H   UNL     1     116.623 128.324 131.306  1.00  0.00     0.211 HD
ENDBRANCH  15  20
ENDBRANCH   8   9
ENDBRANCH   7   8
ENDBRANCH   1   7
BRANCH   2  22
ATOM     22  O   UNL     1     117.151 125.051 137.749  1.00  0.00    -0.387 OA
ATOM     23  H   UNL     1     116.429 125.689 137.988  1.00  0.00     0.211 HD
ENDBRANCH   2  22
BRANCH   3  24
ATOM     24  O   UNL     1     117.831 122.646 136.273  1.00  0.00    -0.387 OA
ATOM     25  H   UNL     1     116.899 122.734 136.603  1.00  0.00     0.211 HD
ENDBRANCH   3  24
BRANCH   5  26
ATOM     26  O   UNL     1     119.975 125.933 134.378  1.00  0.00    -0.454 OA
BRANCH  26  27
ATOM     27  C   UNL     1     120.666 126.981 133.760  1.00  0.00     0.214 A 
ATOM     28  C   UNL     1     121.130 128.096 134.484  1.00  0.00     0.180 A 
ATOM     29  C   UNL     1     120.921 126.909 132.386  1.00  0.00     0.239 A 
ATOM     30  O   UNL     1     121.746 129.082 133.844  1.00  0.00    -0.452 OA
ATOM     31  C   UNL     1     121.559 127.986 131.727  1.00  0.00     0.111 A 
ATOM     32  O   UNL     1     120.584 125.864 131.770  1.00  0.00    -0.285 OA
ATOM     33  C   UNL     1     121.982 129.074 132.538  1.00  0.00     0.146 A 
ATOM     34  C   UNL     1     121.826 128.039 130.325  1.00  0.00     0.134 A 
ATOM     35  C   UNL     1     122.674 130.149 131.978  1.00  0.00     0.094 A 
ATOM     36  C   UNL     1     122.558 129.112 129.802  1.00  0.00     0.093 A 
ATOM     37  C   UNL     1     122.979 130.164 130.619  1.00  0.00     0.123 A 
BRANCH  28  38
ATOM     38  C   UNL     1     120.981 128.209 135.953  1.00  0.00     0.025 A 
ATOM     39  C   UNL     1     121.907 127.613 136.829  1.00  0.00     0.062 A 
ATOM     40  C   UNL     1     119.921 128.958 136.488  1.00  0.00     0.016 A 
ATOM     41  C   UNL     1     121.748 127.720 138.214  1.00  0.00     0.158 A 
ATOM     42  C   UNL     1     119.764 129.072 137.870  1.00  0.00     0.051 A 
ATOM     43  C   UNL     1     120.669 128.450 138.740  1.00  0.00     0.157 A 
BRANCH  41  44
ATOM     44  O   UNL     1     122.671 127.093 139.053  1.00  0.00    -0.504 OA
ATOM     45  H   UNL     1     122.397 126.379 139.715  1.00  0.00     0.293 HD
ENDBRANCH  41  44
BRANCH  43  46
ATOM     46  O   UNL     1     120.504 128.560 140.119  1.00  0.00    -0.504 OA
ATOM     47  H   UNL     1     119.719 129.057 140.523  1.00  0.00     0.293 HD
ENDBRANCH  43  46
ENDBRANCH  28  38
BRANCH  34  48
ATOM     48  O   UNL     1     121.379 127.085 129.406  1.00  0.00    -0.507 OA
ATOM     49  H   UNL     1     121.942 126.339 129.029  1.00  0.00     0.293 HD
ENDBRANCH  34  48
BRANCH  37  50
ATOM     50  O   UNL     1     123.698 131.234 130.088  1.00  0.00    -0.508 OA
ATOM     51  H   UNL     1     123.237 132.087 129.795  1.00  0.00     0.293 HD
ENDBRANCH  37  50
ENDBRANCH  26  27
ENDBRANCH   5  26
BRANCH   4  52
ATOM     52  O   UNL     1     117.421 123.387 133.684  1.00  0.00    -0.384 OA
ATOM     53  H   UNL     1     117.256 123.915 132.859  1.00  0.00     0.211 HD
ENDBRANCH   4  52
TORSDOF 16
ENDMDL
MODEL 9
REMARK VINA RESULT:    -7.003      1.553      7.108
REMARK INTER + INTRA:         -13.391
REMARK INTER:                 -11.397
REMARK INTRA:                  -1.994
REMARK UNBOUND:                -1.885
REMARK SMILES C[C@H]1O[C@@H](OC[C@@H]2O[C@@H](Oc3c(-c4ccc(O)c(O)c4)oc4cc(O)cc(O)c4c3=O)[C@H](O)[C@H](O)[C@H]2O)[C@H](O)[C@@H](O)[C@@H]1O
REMARK SMILES IDX 7 1 36 2 34 3 32 4 9 5 8 6 6 7 5 8 4 9 1 10 2 11 42 12 3 13
REMARK SMILES IDX 40 14 38 15 43 16 41 18 39 20 37 22 35 24 10 26 11 27 12 28
REMARK SMILES IDX 30 29 21 30 29 31 31 32 22 33 27 34 23 35 26 36 24 37 13 38
REMARK SMILES IDX 20 39 14 40 18 41 15 42 16 43 19 44 17 46 28 48 25 50 33 52
REMARK H PARENT 43 17 41 19 39 21 37 23 35 25 19 45 17 47 28 49 25 51 33 53
REMARK Flexibility Score: inf
ROOT
ATOM      1  C   UNL     1     117.372 127.320 132.600  1.00  0.00     0.180 C 
ATOM      2  C   UNL     1     116.571 127.971 131.441  1.00  0.00     0.177 C 
ATOM      3  C   UNL     1     116.655 129.509 131.538  1.00  0.00     0.180 C 
ATOM      4  C   UNL     1     116.327 129.990 132.964  1.00  0.00     0.214 C 
ATOM      5  C   UNL     1     117.109 129.172 134.016  1.00  0.00     0.339 C 
ATOM      6  O   UNL     1     116.890 127.780 133.853  1.00  0.00    -0.332 OA
ENDROOT
BRANCH   1   7
ATOM      7  C   UNL     1     117.249 125.784 132.578  1.00  0.00     0.198 C 
BRANCH   7   8
ATOM      8  O   UNL     1     116.735 125.289 133.801  1.00  0.00    -0.347 OA
BRANCH   8   9
ATOM      9  C   UNL     1     117.614 124.354 134.414  1.00  0.00     0.281 C 
ATOM     10  C   UNL     1     114.955 123.925 135.790  1.00  0.00     0.041 C 
ATOM     11  C   UNL     1     116.183 122.999 135.782  1.00  0.00     0.150 C 
ATOM     12  C   UNL     1     117.066 123.134 137.060  1.00  0.00     0.174 C 
ATOM     13  O   UNL     1     116.935 123.110 134.581  1.00  0.00    -0.344 OA
ATOM     14  C   UNL     1     118.408 123.835 136.762  1.00  0.00     0.179 C 
ATOM     15  C   UNL     1     118.187 124.951 135.730  1.00  0.00     0.202 C 
BRANCH  12  16
ATOM     16  O   UNL     1     117.297 121.875 137.647  1.00  0.00    -0.388 OA
ATOM     17  H   UNL     1     116.562 121.706 138.294  1.00  0.00     0.211 HD
ENDBRANCH  12  16
BRANCH  14  18
ATOM     18  O   UNL     1     118.987 124.335 137.943  1.00  0.00    -0.387 OA
ATOM     19  H   UNL     1     119.968 124.381 137.805  1.00  0.00     0.211 HD
ENDBRANCH  14  18
BRANCH  15  20
ATOM     20  O   UNL     1     119.377 125.661 135.486  1.00  0.00    -0.385 OA
ATOM     21  H   UNL     1     119.135 126.521 135.052  1.00  0.00     0.211 HD
ENDBRANCH  15  20
ENDBRANCH   8   9
ENDBRANCH   7   8
ENDBRANCH   1   7
BRANCH   2  22
ATOM     22  O   UNL     1     117.038 127.534 130.188  1.00  0.00    -0.387 OA
ATOM     23  H   UNL     1     116.286 127.080 129.726  1.00  0.00     0.211 HD
ENDBRANCH   2  22
BRANCH   3  24
ATOM     24  O   UNL     1     115.772 130.109 130.625  1.00  0.00    -0.387 OA
ATOM     25  H   UNL     1     115.059 129.446 130.435  1.00  0.00     0.211 HD
ENDBRANCH   3  24
BRANCH   5  26
ATOM     26  O   UNL     1     118.508 129.472 133.956  1.00  0.00    -0.454 OA
BRANCH  26  27
ATOM     27  C   UNL     1     119.418 129.088 134.948  1.00  0.00     0.214 A 
ATOM     28  C   UNL     1     120.690 128.574 134.631  1.00  0.00     0.180 A 
ATOM     29  C   UNL     1     119.060 129.239 136.293  1.00  0.00     0.239 A 
ATOM     30  O   UNL     1     121.501 128.188 135.609  1.00  0.00    -0.452 OA
ATOM     31  C   UNL     1     119.937 128.796 137.312  1.00  0.00     0.111 A 
ATOM     32  O   UNL     1     117.959 129.786 136.560  1.00  0.00    -0.285 OA
ATOM     33  C   UNL     1     121.194 128.281 136.897  1.00  0.00     0.146 A 
ATOM     34  C   UNL     1     119.655 128.858 138.710  1.00  0.00     0.134 A 
ATOM     35  C   UNL     1     122.143 127.881 137.839  1.00  0.00     0.094 A 
ATOM     36  C   UNL     1     120.643 128.487 139.631  1.00  0.00     0.093 A 
ATOM     37  C   UNL     1     121.880 127.998 139.202  1.00  0.00     0.123 A 
BRANCH  28  38
ATOM     38  C   UNL     1     121.181 128.466 133.239  1.00  0.00     0.025 A 
ATOM     39  C   UNL     1     120.695 127.475 132.367  1.00  0.00     0.062 A 
ATOM     40  C   UNL     1     122.119 129.394 132.761  1.00  0.00     0.016 A 
ATOM     41  C   UNL     1     121.175 127.380 131.057  1.00  0.00     0.158 A 
ATOM     42  C   UNL     1     122.596 129.306 131.451  1.00  0.00     0.051 A 
ATOM     43  C   UNL     1     122.134 128.297 130.596  1.00  0.00     0.157 A 
BRANCH  41  44
ATOM     44  O   UNL     1     120.691 126.366 130.229  1.00  0.00    -0.504 OA
ATOM     45  H   UNL     1     120.998 125.407 130.317  1.00  0.00     0.293 HD
ENDBRANCH  41  44
BRANCH  43  46
ATOM     46  O   UNL     1     122.618 128.208 129.292  1.00  0.00    -0.504 OA
ATOM     47  H   UNL     1     122.020 127.942 128.519  1.00  0.00     0.293 HD
ENDBRANCH  43  46
ENDBRANCH  28  38
BRANCH  34  48
ATOM     48  O   UNL     1     118.424 129.250 139.244  1.00  0.00    -0.507 OA
ATOM     49  H   UNL     1     117.552 128.765 139.101  1.00  0.00     0.293 HD
ENDBRANCH  34  48
BRANCH  37  50
ATOM     50  O   UNL     1     122.854 127.620 140.125  1.00  0.00    -0.508 OA
ATOM     51  H   UNL     1     123.177 126.662 140.190  1.00  0.00     0.293 HD
ENDBRANCH  37  50
ENDBRANCH  26  27
ENDBRANCH   5  26
BRANCH   4  52
ATOM     52  O   UNL     1     114.942 129.945 133.215  1.00  0.00    -0.384 OA
ATOM     53  H   UNL     1     114.794 129.426 134.048  1.00  0.00     0.211 HD
ENDBRANCH   4  52
TORSDOF 16
ENDMDL
