MODEL 1
REMARK VINA RESULT:    -7.929      0.000      0.000
REMARK INTER + INTRA:          -9.816
REMARK INTER:                  -9.552
REMARK INTRA:                  -0.265
REMARK UNBOUND:                -0.265
REMARK SMILES O=c1c(O)c(-c2ccc(O)c(O)c2)oc2cc(O)cc(O)c12
REMARK SMILES IDX 5 1 3 2 2 3 1 4 22 5 20 6 19 7 17 8 16 9 15 10 14 11 6 12
REMARK SMILES IDX 7 13 8 14 9 15 13 16 11 17 10 18 12 20 4 22 21 24 18 26
REMARK H PARENT 10 19 12 21 4 23 21 25 18 27
REMARK Flexibility Score: inf
ROOT
ATOM      1  C   UNL     1      57.432 -20.252   3.328  1.00  0.00     0.180 A 
ATOM      2  C   UNL     1      56.603 -21.238   3.891  1.00  0.00     0.208 A 
ATOM      3  C   UNL     1      55.232 -20.973   4.039  1.00  0.00     0.238 A 
ATOM      4  O   UNL     1      54.487 -21.880   4.492  1.00  0.00    -0.285 OA
ATOM      5  C   UNL     1      54.709 -19.720   3.638  1.00  0.00     0.111 A 
ATOM      6  C   UNL     1      53.344 -19.329   3.779  1.00  0.00     0.134 A 
ATOM      7  C   UNL     1      52.913 -18.115   3.229  1.00  0.00     0.093 A 
ATOM      8  C   UNL     1      53.810 -17.250   2.602  1.00  0.00     0.123 A 
ATOM      9  C   UNL     1      55.158 -17.596   2.511  1.00  0.00     0.094 A 
ATOM     10  C   UNL     1      55.612 -18.817   3.019  1.00  0.00     0.146 A 
ATOM     11  O   UNL     1      56.900 -19.112   2.902  1.00  0.00    -0.452 OA
ENDROOT
BRANCH   1  12
ATOM     12  C   UNL     1      58.889 -20.448   3.163  1.00  0.00     0.025 A 
ATOM     13  C   UNL     1      59.424 -20.608   1.875  1.00  0.00     0.016 A 
ATOM     14  C   UNL     1      60.799 -20.774   1.695  1.00  0.00     0.051 A 
ATOM     15  C   UNL     1      61.662 -20.768   2.795  1.00  0.00     0.157 A 
ATOM     16  C   UNL     1      59.761 -20.421   4.267  1.00  0.00     0.062 A 
ATOM     17  C   UNL     1      61.143 -20.586   4.087  1.00  0.00     0.158 A 
BRANCH  15  18
ATOM     18  O   UNL     1      63.030 -20.938   2.584  1.00  0.00    -0.504 OA
ATOM     19  H   UNL     1      63.561 -21.661   3.055  1.00  0.00     0.293 HD
ENDBRANCH  15  18
BRANCH  17  20
ATOM     20  O   UNL     1      62.000 -20.565   5.187  1.00  0.00    -0.504 OA
ATOM     21  H   UNL     1      62.916 -20.135   5.138  1.00  0.00     0.293 HD
ENDBRANCH  17  20
ENDBRANCH   1  12
BRANCH   2  22
ATOM     22  O   UNL     1      57.135 -22.477   4.258  1.00  0.00    -0.502 OA
ATOM     23  H   UNL     1      57.791 -22.582   5.023  1.00  0.00     0.293 HD
ENDBRANCH   2  22
BRANCH   6  24
ATOM     24  O   UNL     1      52.385 -20.077   4.469  1.00  0.00    -0.507 OA
ATOM     25  H   UNL     1      51.994 -19.825   5.363  1.00  0.00     0.293 HD
ENDBRANCH   6  24
BRANCH   8  26
ATOM     26  O   UNL     1      53.349 -16.043   2.080  1.00  0.00    -0.508 OA
ATOM     27  H   UNL     1      52.586 -16.011   1.414  1.00  0.00     0.293 HD
ENDBRANCH   8  26
TORSDOF 6
ENDMDL
MODEL 2
REMARK VINA RESULT:    -7.794      4.234      6.475
REMARK INTER + INTRA:          -9.653
REMARK INTER:                  -9.359
REMARK INTRA:                  -0.294
REMARK UNBOUND:                -0.265
REMARK SMILES O=c1c(O)c(-c2ccc(O)c(O)c2)oc2cc(O)cc(O)c12
REMARK SMILES IDX 5 1 3 2 2 3 1 4 22 5 20 6 19 7 17 8 16 9 15 10 14 11 6 12
REMARK SMILES IDX 7 13 8 14 9 15 13 16 11 17 10 18 12 20 4 22 21 24 18 26
REMARK H PARENT 10 19 12 21 4 23 21 25 18 27
REMARK Flexibility Score: inf
ROOT
ATOM      1  C   UNL     1      60.402 -17.875   1.051  1.00  0.00     0.180 A 
ATOM      2  C   UNL     1      61.494 -18.733   1.271  1.00  0.00     0.208 A 
ATOM      3  C   UNL     1      61.325 -19.852   2.101  1.00  0.00     0.238 A 
ATOM      4  O   UNL     1      62.290 -20.646   2.250  1.00  0.00    -0.285 OA
ATOM      5  C   UNL     1      60.071 -20.092   2.715  1.00  0.00     0.111 A 
ATOM      6  C   UNL     1      59.798 -21.172   3.606  1.00  0.00     0.134 A 
ATOM      7  C   UNL     1      58.488 -21.387   4.051  1.00  0.00     0.093 A 
ATOM      8  C   UNL     1      57.455 -20.522   3.690  1.00  0.00     0.123 A 
ATOM      9  C   UNL     1      57.722 -19.428   2.867  1.00  0.00     0.094 A 
ATOM     10  C   UNL     1      59.013 -19.209   2.377  1.00  0.00     0.146 A 
ATOM     11  O   UNL     1      59.222 -18.163   1.589  1.00  0.00    -0.452 OA
ENDROOT
BRANCH   1  12
ATOM     12  C   UNL     1      60.510 -16.663   0.209  1.00  0.00     0.025 A 
ATOM     13  C   UNL     1      60.421 -16.780  -1.187  1.00  0.00     0.016 A 
ATOM     14  C   UNL     1      60.499 -15.646  -1.999  1.00  0.00     0.051 A 
ATOM     15  C   UNL     1      60.652 -14.378  -1.430  1.00  0.00     0.157 A 
ATOM     16  C   UNL     1      60.642 -15.384   0.781  1.00  0.00     0.062 A 
ATOM     17  C   UNL     1      60.720 -14.244  -0.034  1.00  0.00     0.158 A 
BRANCH  15  18
ATOM     18  O   UNL     1      60.730 -13.265  -2.267  1.00  0.00    -0.504 OA
ATOM     19  H   UNL     1      59.927 -12.922  -2.781  1.00  0.00     0.293 HD
ENDBRANCH  15  18
BRANCH  17  20
ATOM     20  O   UNL     1      60.858 -12.981   0.540  1.00  0.00    -0.504 OA
ATOM     21  H   UNL     1      61.720 -12.454   0.464  1.00  0.00     0.293 HD
ENDBRANCH  17  20
ENDBRANCH   1  12
BRANCH   2  22
ATOM     22  O   UNL     1      62.715 -18.491   0.637  1.00  0.00    -0.502 OA
ATOM     23  H   UNL     1      63.015 -17.561   0.371  1.00  0.00     0.293 HD
ENDBRANCH   2  22
BRANCH   6  24
ATOM     24  O   UNL     1      60.776 -22.040   4.103  1.00  0.00    -0.507 OA
ATOM     25  H   UNL     1      61.722 -22.097   3.758  1.00  0.00     0.293 HD
ENDBRANCH   6  24
BRANCH   8  26
ATOM     26  O   UNL     1      56.166 -20.757   4.165  1.00  0.00    -0.508 OA
ATOM     27  H   UNL     1      55.659 -21.601   3.926  1.00  0.00     0.293 HD
ENDBRANCH   8  26
TORSDOF 6
ENDMDL
MODEL 3
REMARK VINA RESULT:    -7.743      5.656      8.150
REMARK INTER + INTRA:          -9.592
REMARK INTER:                  -9.263
REMARK INTRA:                  -0.330
REMARK UNBOUND:                -0.265
REMARK SMILES O=c1c(O)c(-c2ccc(O)c(O)c2)oc2cc(O)cc(O)c12
REMARK SMILES IDX 5 1 3 2 2 3 1 4 22 5 20 6 19 7 17 8 16 9 15 10 14 11 6 12
REMARK SMILES IDX 7 13 8 14 9 15 13 16 11 17 10 18 12 20 4 22 21 24 18 26
REMARK H PARENT 10 19 12 21 4 23 21 25 18 27
REMARK Flexibility Score: inf
ROOT
ATOM      1  C   UNL     1      61.146 -16.355  -0.174  1.00  0.00     0.180 A 
ATOM      2  C   UNL     1      60.246 -15.932   0.819  1.00  0.00     0.208 A 
ATOM      3  C   UNL     1      59.881 -16.830   1.835  1.00  0.00     0.238 A 
ATOM      4  O   UNL     1      59.117 -16.428   2.751  1.00  0.00    -0.285 OA
ATOM      5  C   UNL     1      60.408 -18.144   1.837  1.00  0.00     0.111 A 
ATOM      6  C   UNL     1      60.077 -19.148   2.796  1.00  0.00     0.134 A 
ATOM      7  C   UNL     1      60.757 -20.372   2.778  1.00  0.00     0.093 A 
ATOM      8  C   UNL     1      61.710 -20.651   1.798  1.00  0.00     0.123 A 
ATOM      9  C   UNL     1      61.999 -19.699   0.820  1.00  0.00     0.094 A 
ATOM     10  C   UNL     1      61.362 -18.454   0.834  1.00  0.00     0.146 A 
ATOM     11  O   UNL     1      61.673 -17.573  -0.107  1.00  0.00    -0.452 OA
ENDROOT
BRANCH   1  12
ATOM     12  C   UNL     1      61.558 -15.476  -1.291  1.00  0.00     0.025 A 
ATOM     13  C   UNL     1      62.707 -14.680  -1.157  1.00  0.00     0.016 A 
ATOM     14  C   UNL     1      63.125 -13.858  -2.206  1.00  0.00     0.051 A 
ATOM     15  C   UNL     1      62.413 -13.829  -3.408  1.00  0.00     0.157 A 
ATOM     16  C   UNL     1      60.855 -15.461  -2.509  1.00  0.00     0.062 A 
ATOM     17  C   UNL     1      61.275 -14.637  -3.564  1.00  0.00     0.158 A 
BRANCH  15  18
ATOM     18  O   UNL     1      62.854 -12.996  -4.437  1.00  0.00    -0.504 OA
ATOM     19  H   UNL     1      62.301 -12.216  -4.772  1.00  0.00     0.293 HD
ENDBRANCH  15  18
BRANCH  17  20
ATOM     20  O   UNL     1      60.569 -14.624  -4.766  1.00  0.00    -0.504 OA
ATOM     21  H   UNL     1      60.084 -13.794  -5.088  1.00  0.00     0.293 HD
ENDBRANCH  17  20
ENDBRANCH   1  12
BRANCH   2  22
ATOM     22  O   UNL     1      59.755 -14.624   0.811  1.00  0.00    -0.502 OA
ATOM     23  H   UNL     1      59.024 -14.321   0.178  1.00  0.00     0.293 HD
ENDBRANCH   2  22
BRANCH   6  24
ATOM     24  O   UNL     1      59.075 -19.006   3.760  1.00  0.00    -0.507 OA
ATOM     25  H   UNL     1      59.121 -19.377   4.696  1.00  0.00     0.293 HD
ENDBRANCH   6  24
BRANCH   8  26
ATOM     26  O   UNL     1      62.357 -21.885   1.800  1.00  0.00    -0.508 OA
ATOM     27  H   UNL     1      63.367 -21.954   1.815  1.00  0.00     0.293 HD
ENDBRANCH   8  26
TORSDOF 6
ENDMDL
MODEL 4
REMARK VINA RESULT:    -7.718      1.224      2.888
REMARK INTER + INTRA:          -9.562
REMARK INTER:                  -9.337
REMARK INTRA:                  -0.226
REMARK UNBOUND:                -0.265
REMARK SMILES O=c1c(O)c(-c2ccc(O)c(O)c2)oc2cc(O)cc(O)c12
REMARK SMILES IDX 5 1 3 2 2 3 1 4 22 5 20 6 19 7 17 8 16 9 15 10 14 11 6 12
REMARK SMILES IDX 7 13 8 14 9 15 13 16 11 17 10 18 12 20 4 22 21 24 18 26
REMARK H PARENT 10 19 12 21 4 23 21 25 18 27
REMARK Flexibility Score: inf
ROOT
ATOM      1  C   UNL     1      57.571 -19.830   3.122  1.00  0.00     0.180 A 
ATOM      2  C   UNL     1      57.051 -18.582   2.740  1.00  0.00     0.208 A 
ATOM      3  C   UNL     1      55.668 -18.362   2.833  1.00  0.00     0.238 A 
ATOM      4  O   UNL     1      55.215 -17.224   2.542  1.00  0.00    -0.285 OA
ATOM      5  C   UNL     1      54.819 -19.398   3.292  1.00  0.00     0.111 A 
ATOM      6  C   UNL     1      53.399 -19.299   3.390  1.00  0.00     0.134 A 
ATOM      7  C   UNL     1      52.672 -20.341   3.980  1.00  0.00     0.093 A 
ATOM      8  C   UNL     1      53.307 -21.503   4.416  1.00  0.00     0.123 A 
ATOM      9  C   UNL     1      54.688 -21.636   4.272  1.00  0.00     0.094 A 
ATOM     10  C   UNL     1      55.445 -20.598   3.720  1.00  0.00     0.146 A 
ATOM     11  O   UNL     1      56.757 -20.759   3.610  1.00  0.00    -0.452 OA
ENDROOT
BRANCH   1  12
ATOM     12  C   UNL     1      59.014 -20.145   3.027  1.00  0.00     0.025 A 
ATOM     13  C   UNL     1      59.605 -20.305   1.765  1.00  0.00     0.016 A 
ATOM     14  C   UNL     1      60.970 -20.583   1.652  1.00  0.00     0.051 A 
ATOM     15  C   UNL     1      61.767 -20.690   2.795  1.00  0.00     0.157 A 
ATOM     16  C   UNL     1      59.822 -20.233   4.176  1.00  0.00     0.062 A 
ATOM     17  C   UNL     1      61.193 -20.510   4.064  1.00  0.00     0.158 A 
BRANCH  15  18
ATOM     18  O   UNL     1      63.125 -20.970   2.651  1.00  0.00    -0.504 OA
ATOM     19  H   UNL     1      63.748 -20.359   2.136  1.00  0.00     0.293 HD
ENDBRANCH  15  18
BRANCH  17  20
ATOM     20  O   UNL     1      61.984 -20.601   5.208  1.00  0.00    -0.504 OA
ATOM     21  H   UNL     1      62.973 -20.381   5.189  1.00  0.00     0.293 HD
ENDBRANCH  17  20
ENDBRANCH   1  12
BRANCH   2  22
ATOM     22  O   UNL     1      57.909 -17.565   2.311  1.00  0.00    -0.502 OA
ATOM     23  H   UNL     1      58.732 -17.291   2.834  1.00  0.00     0.293 HD
ENDBRANCH   2  22
BRANCH   6  24
ATOM     24  O   UNL     1      52.656 -18.220   2.900  1.00  0.00    -0.507 OA
ATOM     25  H   UNL     1      52.028 -18.265   2.113  1.00  0.00     0.293 HD
ENDBRANCH   6  24
BRANCH   8  26
ATOM     26  O   UNL     1      52.551 -22.527   4.985  1.00  0.00    -0.508 OA
ATOM     27  H   UNL     1      51.944 -22.359   5.778  1.00  0.00     0.293 HD
ENDBRANCH   8  26
TORSDOF 6
ENDMDL
MODEL 5
REMARK VINA RESULT:    -7.592      2.442      6.193
REMARK INTER + INTRA:          -9.410
REMARK INTER:                  -9.832
REMARK INTRA:                   0.422
REMARK UNBOUND:                -0.265
REMARK SMILES O=c1c(O)c(-c2ccc(O)c(O)c2)oc2cc(O)cc(O)c12
REMARK SMILES IDX 5 1 3 2 2 3 1 4 22 5 20 6 19 7 17 8 16 9 15 10 14 11 6 12
REMARK SMILES IDX 7 13 8 14 9 15 13 16 11 17 10 18 12 20 4 22 21 24 18 26
REMARK H PARENT 10 19 12 21 4 23 21 25 18 27
REMARK Flexibility Score: inf
ROOT
ATOM      1  C   UNL     1      57.810 -19.933   3.116  1.00  0.00     0.180 A 
ATOM      2  C   UNL     1      58.941 -20.754   2.974  1.00  0.00     0.208 A 
ATOM      3  C   UNL     1      60.095 -20.227   2.371  1.00  0.00     0.238 A 
ATOM      4  O   UNL     1      61.122 -20.950   2.296  1.00  0.00    -0.285 OA
ATOM      5  C   UNL     1      60.097 -18.890   1.903  1.00  0.00     0.111 A 
ATOM      6  C   UNL     1      61.196 -18.265   1.242  1.00  0.00     0.134 A 
ATOM      7  C   UNL     1      61.134 -16.900   0.939  1.00  0.00     0.093 A 
ATOM      8  C   UNL     1      59.989 -16.153   1.215  1.00  0.00     0.123 A 
ATOM      9  C   UNL     1      58.886 -16.768   1.808  1.00  0.00     0.094 A 
ATOM     10  C   UNL     1      58.932 -18.121   2.155  1.00  0.00     0.146 A 
ATOM     11  O   UNL     1      57.865 -18.665   2.727  1.00  0.00    -0.452 OA
ENDROOT
BRANCH   1  12
ATOM     12  C   UNL     1      56.550 -20.425   3.718  1.00  0.00     0.025 A 
ATOM     13  C   UNL     1      55.356 -19.723   3.491  1.00  0.00     0.016 A 
ATOM     14  C   UNL     1      54.152 -20.180   4.033  1.00  0.00     0.051 A 
ATOM     15  C   UNL     1      54.119 -21.352   4.794  1.00  0.00     0.157 A 
ATOM     16  C   UNL     1      56.511 -21.615   4.467  1.00  0.00     0.062 A 
ATOM     17  C   UNL     1      55.303 -22.077   5.010  1.00  0.00     0.158 A 
BRANCH  15  18
ATOM     18  O   UNL     1      52.903 -21.783   5.323  1.00  0.00    -0.504 OA
ATOM     19  H   UNL     1      52.724 -22.757   5.537  1.00  0.00     0.293 HD
ENDBRANCH  15  18
BRANCH  17  20
ATOM     20  O   UNL     1      55.275 -23.254   5.756  1.00  0.00    -0.504 OA
ATOM     21  H   UNL     1      54.676 -23.354   6.568  1.00  0.00     0.293 HD
ENDBRANCH  17  20
ENDBRANCH   1  12
BRANCH   2  22
ATOM     22  O   UNL     1      58.925 -22.064   3.463  1.00  0.00    -0.502 OA
ATOM     23  H   UNL     1      59.232 -22.298   4.399  1.00  0.00     0.293 HD
ENDBRANCH   2  22
BRANCH   6  24
ATOM     24  O   UNL     1      62.351 -18.942   0.837  1.00  0.00    -0.507 OA
ATOM     25  H   UNL     1      62.657 -19.036  -0.118  1.00  0.00     0.293 HD
ENDBRANCH   6  24
BRANCH   8  26
ATOM     26  O   UNL     1      59.956 -14.799   0.886  1.00  0.00    -0.508 OA
ATOM     27  H   UNL     1      60.437 -14.440   0.070  1.00  0.00     0.293 HD
ENDBRANCH   8  26
TORSDOF 6
ENDMDL
MODEL 6
REMARK VINA RESULT:    -7.586      7.478      9.326
REMARK INTER + INTRA:          -9.403
REMARK INTER:                  -9.090
REMARK INTRA:                  -0.312
REMARK UNBOUND:                -0.265
REMARK SMILES O=c1c(O)c(-c2ccc(O)c(O)c2)oc2cc(O)cc(O)c12
REMARK SMILES IDX 5 1 3 2 2 3 1 4 22 5 20 6 19 7 17 8 16 9 15 10 14 11 6 12
REMARK SMILES IDX 7 13 8 14 9 15 13 16 11 17 10 18 12 20 4 22 21 24 18 26
REMARK H PARENT 10 19 12 21 4 23 21 25 18 27
REMARK Flexibility Score: inf
ROOT
ATOM      1  C   UNL     1      60.879 -14.995  -0.593  1.00  0.00     0.180 A 
ATOM      2  C   UNL     1      61.721 -13.901  -0.330  1.00  0.00     0.208 A 
ATOM      3  C   UNL     1      62.033 -13.015  -1.373  1.00  0.00     0.238 A 
ATOM      4  O   UNL     1      62.743 -12.008  -1.118  1.00  0.00    -0.285 OA
ATOM      5  C   UNL     1      61.512 -13.242  -2.670  1.00  0.00     0.111 A 
ATOM      6  C   UNL     1      61.794 -12.431  -3.810  1.00  0.00     0.134 A 
ATOM      7  C   UNL     1      61.121 -12.673  -5.014  1.00  0.00     0.093 A 
ATOM      8  C   UNL     1      60.226 -13.735  -5.136  1.00  0.00     0.123 A 
ATOM      9  C   UNL     1      59.987 -14.571  -4.045  1.00  0.00     0.094 A 
ATOM     10  C   UNL     1      60.617 -14.332  -2.820  1.00  0.00     0.146 A 
ATOM     11  O   UNL     1      60.354 -15.144  -1.804  1.00  0.00    -0.452 OA
ENDROOT
BRANCH   1  12
ATOM     12  C   UNL     1      60.526 -15.986   0.449  1.00  0.00     0.025 A 
ATOM     13  C   UNL     1      59.444 -15.732   1.306  1.00  0.00     0.016 A 
ATOM     14  C   UNL     1      59.080 -16.662   2.282  1.00  0.00     0.051 A 
ATOM     15  C   UNL     1      59.781 -17.866   2.408  1.00  0.00     0.157 A 
ATOM     16  C   UNL     1      61.216 -17.206   0.563  1.00  0.00     0.062 A 
ATOM     17  C   UNL     1      60.851 -18.142   1.542  1.00  0.00     0.158 A 
BRANCH  15  18
ATOM     18  O   UNL     1      59.396 -18.774   3.393  1.00  0.00    -0.504 OA
ATOM     19  H   UNL     1      58.759 -18.520   4.140  1.00  0.00     0.293 HD
ENDBRANCH  15  18
BRANCH  17  20
ATOM     20  O   UNL     1      61.545 -19.346   1.652  1.00  0.00    -0.504 OA
ATOM     21  H   UNL     1      61.834 -19.870   0.834  1.00  0.00     0.293 HD
ENDBRANCH  17  20
ENDBRANCH   1  12
BRANCH   2  22
ATOM     22  O   UNL     1      62.206 -13.683   0.963  1.00  0.00    -0.502 OA
ATOM     23  H   UNL     1      61.675 -13.182   1.666  1.00  0.00     0.293 HD
ENDBRANCH   2  22
BRANCH   6  24
ATOM     24  O   UNL     1      62.741 -11.402  -3.821  1.00  0.00    -0.507 OA
ATOM     25  H   UNL     1      62.877 -10.754  -4.581  1.00  0.00     0.293 HD
ENDBRANCH   6  24
BRANCH   8  26
ATOM     26  O   UNL     1      59.585 -13.957  -6.354  1.00  0.00    -0.508 OA
ATOM     27  H   UNL     1      59.927 -13.546  -7.215  1.00  0.00     0.293 HD
ENDBRANCH   8  26
TORSDOF 6
ENDMDL
MODEL 7
REMARK VINA RESULT:    -7.410      2.257      6.269
REMARK INTER + INTRA:          -9.191
REMARK INTER:                  -8.868
REMARK INTRA:                  -0.323
REMARK UNBOUND:                -0.265
REMARK SMILES O=c1c(O)c(-c2ccc(O)c(O)c2)oc2cc(O)cc(O)c12
REMARK SMILES IDX 5 1 3 2 2 3 1 4 22 5 20 6 19 7 17 8 16 9 15 10 14 11 6 12
REMARK SMILES IDX 7 13 8 14 9 15 13 16 11 17 10 18 12 20 4 22 21 24 18 26
REMARK H PARENT 10 19 12 21 4 23 21 25 18 27
REMARK Flexibility Score: inf
ROOT
ATOM      1  C   UNL     1      56.079 -20.265   3.476  1.00  0.00     0.180 A 
ATOM      2  C   UNL     1      57.191 -21.103   3.667  1.00  0.00     0.208 A 
ATOM      3  C   UNL     1      58.467 -20.630   3.320  1.00  0.00     0.238 A 
ATOM      4  O   UNL     1      59.465 -21.364   3.544  1.00  0.00    -0.285 OA
ATOM      5  C   UNL     1      58.614 -19.333   2.772  1.00  0.00     0.111 A 
ATOM      6  C   UNL     1      59.853 -18.767   2.348  1.00  0.00     0.134 A 
ATOM      7  C   UNL     1      59.899 -17.428   1.943  1.00  0.00     0.093 A 
ATOM      8  C   UNL     1      58.740 -16.654   1.884  1.00  0.00     0.123 A 
ATOM      9  C   UNL     1      57.513 -17.215   2.239  1.00  0.00     0.094 A 
ATOM     10  C   UNL     1      57.441 -18.538   2.683  1.00  0.00     0.146 A 
ATOM     11  O   UNL     1      56.256 -19.030   3.021  1.00  0.00    -0.452 OA
ENDROOT
BRANCH   1  12
ATOM     12  C   UNL     1      54.701 -20.702   3.794  1.00  0.00     0.025 A 
ATOM     13  C   UNL     1      53.943 -21.366   2.816  1.00  0.00     0.016 A 
ATOM     14  C   UNL     1      52.648 -21.804   3.101  1.00  0.00     0.051 A 
ATOM     15  C   UNL     1      52.095 -21.600   4.369  1.00  0.00     0.157 A 
ATOM     16  C   UNL     1      54.150 -20.516   5.075  1.00  0.00     0.062 A 
ATOM     17  C   UNL     1      52.850 -20.957   5.363  1.00  0.00     0.158 A 
BRANCH  15  18
ATOM     18  O   UNL     1      50.798 -22.047   4.622  1.00  0.00    -0.504 OA
ATOM     19  H   UNL     1      50.018 -21.407   4.718  1.00  0.00     0.293 HD
ENDBRANCH  15  18
BRANCH  17  20
ATOM     20  O   UNL     1      52.310 -20.763   6.633  1.00  0.00    -0.504 OA
ATOM     21  H   UNL     1      51.691 -19.985   6.835  1.00  0.00     0.293 HD
ENDBRANCH  17  20
ENDBRANCH   1  12
BRANCH   2  22
ATOM     22  O   UNL     1      57.028 -22.371   4.230  1.00  0.00    -0.502 OA
ATOM     23  H   UNL     1      56.120 -22.734   4.499  1.00  0.00     0.293 HD
ENDBRANCH   2  22
BRANCH   6  24
ATOM     24  O   UNL     1      61.054 -19.480   2.281  1.00  0.00    -0.507 OA
ATOM     25  H   UNL     1      61.623 -19.569   1.454  1.00  0.00     0.293 HD
ENDBRANCH   6  24
BRANCH   8  26
ATOM     26  O   UNL     1      58.819 -15.329   1.460  1.00  0.00    -0.508 OA
ATOM     27  H   UNL     1      58.960 -14.570   2.117  1.00  0.00     0.293 HD
ENDBRANCH   8  26
TORSDOF 6
ENDMDL
MODEL 8
REMARK VINA RESULT:    -7.365      1.878      7.111
REMARK INTER + INTRA:          -9.136
REMARK INTER:                  -9.033
REMARK INTRA:                  -0.104
REMARK UNBOUND:                -0.265
REMARK SMILES O=c1c(O)c(-c2ccc(O)c(O)c2)oc2cc(O)cc(O)c12
REMARK SMILES IDX 5 1 3 2 2 3 1 4 22 5 20 6 19 7 17 8 16 9 15 10 14 11 6 12
REMARK SMILES IDX 7 13 8 14 9 15 13 16 11 17 10 18 12 20 4 22 21 24 18 26
REMARK H PARENT 10 19 12 21 4 23 21 25 18 27
REMARK Flexibility Score: inf
ROOT
ATOM      1  C   UNL     1      55.396 -19.593   3.235  1.00  0.00     0.180 A 
ATOM      2  C   UNL     1      55.698 -18.359   2.632  1.00  0.00     0.208 A 
ATOM      3  C   UNL     1      57.042 -18.004   2.441  1.00  0.00     0.238 A 
ATOM      4  O   UNL     1      57.304 -16.924   1.851  1.00  0.00    -0.285 OA
ATOM      5  C   UNL     1      58.070 -18.879   2.870  1.00  0.00     0.111 A 
ATOM      6  C   UNL     1      59.466 -18.604   2.762  1.00  0.00     0.134 A 
ATOM      7  C   UNL     1      60.394 -19.597   3.099  1.00  0.00     0.093 A 
ATOM      8  C   UNL     1      59.978 -20.830   3.600  1.00  0.00     0.123 A 
ATOM      9  C   UNL     1      58.617 -21.088   3.765  1.00  0.00     0.094 A 
ATOM     10  C   UNL     1      57.666 -20.130   3.404  1.00  0.00     0.146 A 
ATOM     11  O   UNL     1      56.382 -20.420   3.566  1.00  0.00    -0.452 OA
ENDROOT
BRANCH   1  12
ATOM     12  C   UNL     1      54.005 -20.025   3.493  1.00  0.00     0.025 A 
ATOM     13  C   UNL     1      53.127 -20.211   2.413  1.00  0.00     0.016 A 
ATOM     14  C   UNL     1      51.815 -20.638   2.632  1.00  0.00     0.051 A 
ATOM     15  C   UNL     1      51.364 -20.900   3.929  1.00  0.00     0.157 A 
ATOM     16  C   UNL     1      53.555 -20.310   4.795  1.00  0.00     0.062 A 
ATOM     17  C   UNL     1      52.238 -20.740   5.016  1.00  0.00     0.158 A 
BRANCH  15  18
ATOM     18  O   UNL     1      50.049 -21.323   4.116  1.00  0.00    -0.504 OA
ATOM     19  H   UNL     1      49.403 -20.823   4.715  1.00  0.00     0.293 HD
ENDBRANCH  15  18
BRANCH  17  20
ATOM     20  O   UNL     1      51.800 -21.014   6.311  1.00  0.00    -0.504 OA
ATOM     21  H   UNL     1      52.394 -21.485   6.985  1.00  0.00     0.293 HD
ENDBRANCH  17  20
ENDBRANCH   1  12
BRANCH   2  22
ATOM     22  O   UNL     1      54.668 -17.521   2.196  1.00  0.00    -0.502 OA
ATOM     23  H   UNL     1      54.117 -17.721   1.370  1.00  0.00     0.293 HD
ENDBRANCH   2  22
BRANCH   6  24
ATOM     24  O   UNL     1      59.989 -17.371   2.360  1.00  0.00    -0.507 OA
ATOM     25  H   UNL     1      60.304 -17.157   1.427  1.00  0.00     0.293 HD
ENDBRANCH   6  24
BRANCH   8  26
ATOM     26  O   UNL     1      60.930 -21.789   3.940  1.00  0.00    -0.508 OA
ATOM     27  H   UNL     1      61.681 -21.584   4.589  1.00  0.00     0.293 HD
ENDBRANCH   8  26
TORSDOF 6
ENDMDL
MODEL 9
REMARK VINA RESULT:    -7.321      3.050      6.274
REMARK INTER + INTRA:          -9.084
REMARK INTER:                  -8.759
REMARK INTRA:                  -0.325
REMARK UNBOUND:                -0.265
REMARK SMILES O=c1c(O)c(-c2ccc(O)c(O)c2)oc2cc(O)cc(O)c12
REMARK SMILES IDX 5 1 3 2 2 3 1 4 22 5 20 6 19 7 17 8 16 9 15 10 14 11 6 12
REMARK SMILES IDX 7 13 8 14 9 15 13 16 11 17 10 18 12 20 4 22 21 24 18 26
REMARK H PARENT 10 19 12 21 4 23 21 25 18 27
REMARK Flexibility Score: inf
ROOT
ATOM      1  C   UNL     1      59.137 -19.885   2.689  1.00  0.00     0.180 A 
ATOM      2  C   UNL     1      59.944 -20.620   1.804  1.00  0.00     0.208 A 
ATOM      3  C   UNL     1      60.695 -19.934   0.837  1.00  0.00     0.238 A 
ATOM      4  O   UNL     1      61.458 -20.594   0.084  1.00  0.00    -0.285 OA
ATOM      5  C   UNL     1      60.618 -18.522   0.755  1.00  0.00     0.111 A 
ATOM      6  C   UNL     1      61.304 -17.728  -0.212  1.00  0.00     0.134 A 
ATOM      7  C   UNL     1      61.257 -16.331  -0.117  1.00  0.00     0.093 A 
ATOM      8  C   UNL     1      60.496 -15.702   0.867  1.00  0.00     0.123 A 
ATOM      9  C   UNL     1      59.772 -16.469   1.781  1.00  0.00     0.094 A 
ATOM     10  C   UNL     1      59.829 -17.865   1.735  1.00  0.00     0.146 A 
ATOM     11  O   UNL     1      59.135 -18.558   2.629  1.00  0.00    -0.452 OA
ENDROOT
BRANCH   1  12
ATOM     12  C   UNL     1      58.297 -20.538   3.718  1.00  0.00     0.025 A 
ATOM     13  C   UNL     1      58.836 -20.794   4.989  1.00  0.00     0.016 A 
ATOM     14  C   UNL     1      58.055 -21.391   5.981  1.00  0.00     0.051 A 
ATOM     15  C   UNL     1      56.722 -21.728   5.726  1.00  0.00     0.157 A 
ATOM     16  C   UNL     1      56.950 -20.858   3.469  1.00  0.00     0.062 A 
ATOM     17  C   UNL     1      56.164 -21.457   4.466  1.00  0.00     0.158 A 
BRANCH  15  18
ATOM     18  O   UNL     1      55.969 -22.325   6.736  1.00  0.00    -0.504 OA
ATOM     19  H   UNL     1      55.946 -21.956   7.679  1.00  0.00     0.293 HD
ENDBRANCH  15  18
BRANCH  17  20
ATOM     20  O   UNL     1      54.832 -21.776   4.209  1.00  0.00    -0.504 OA
ATOM     21  H   UNL     1      54.516 -22.738   4.162  1.00  0.00     0.293 HD
ENDBRANCH  17  20
ENDBRANCH   1  12
BRANCH   2  22
ATOM     22  O   UNL     1      60.024 -22.010   1.918  1.00  0.00    -0.502 OA
ATOM     23  H   UNL     1      60.782 -22.547   1.512  1.00  0.00     0.293 HD
ENDBRANCH   2  22
BRANCH   6  24
ATOM     24  O   UNL     1      62.018 -18.256  -1.291  1.00  0.00    -0.507 OA
ATOM     25  H   UNL     1      62.562 -19.104  -1.261  1.00  0.00     0.293 HD
ENDBRANCH   6  24
BRANCH   8  26
ATOM     26  O   UNL     1      60.458 -14.310   0.922  1.00  0.00    -0.508 OA
ATOM     27  H   UNL     1      60.403 -13.748   0.081  1.00  0.00     0.293 HD
ENDBRANCH   8  26
TORSDOF 6
ENDMDL
