MODEL 1
REMARK VINA RESULT:    -5.058      0.000      0.000
REMARK INTER + INTRA:         -17.883
REMARK INTER:                 -12.746
REMARK INTRA:                  -5.137
REMARK UNBOUND:                -5.137
REMARK SMILES CCCCCCCCCCCCCCCCCCCCCCCCCCCC(=O)[O-]
REMARK SMILES IDX 15 1 16 2 17 3 18 4 19 5 20 6 21 7 22 8 23 9 24 10 25 11
REMARK SMILES IDX 26 12 27 13 28 14 29 15 30 16 14 17 13 18 12 19 11 20 10 21
REMARK SMILES IDX 9 22 8 23 7 24 6 25 5 26 4 27 3 28 2 29 1 30
REMARK H PARENT
REMARK Flexibility Score: inf
ROOT
ATOM      1  C   UNL     1      16.212 -33.908  22.552  1.00  0.00     0.000 C 
ENDROOT
BRANCH   1   2
ATOM      2  C   UNL     1      15.811 -33.611  24.009  1.00  0.00     0.000 C 
BRANCH   2   3
ATOM      3  C   UNL     1      16.738 -32.580  24.686  1.00  0.00     0.000 C 
BRANCH   3   4
ATOM      4  C   UNL     1      17.722 -33.197  25.695  1.00  0.00     0.000 C 
BRANCH   4   5
ATOM      5  C   UNL     1      19.113 -32.547  25.649  1.00  0.00     0.000 C 
BRANCH   5   6
ATOM      6  C   UNL     1      19.335 -31.690  24.390  1.00  0.00     0.000 C 
BRANCH   6   7
ATOM      7  C   UNL     1      20.134 -32.411  23.283  1.00  0.00     0.000 C 
BRANCH   7   8
ATOM      8  C   UNL     1      19.310 -32.613  21.999  1.00  0.00     0.000 C 
BRANCH   8   9
ATOM      9  C   UNL     1      19.104 -31.306  21.217  1.00  0.00     0.000 C 
BRANCH   9  10
ATOM     10  C   UNL     1      17.625 -31.046  20.880  1.00  0.00     0.000 C 
BRANCH  10  11
ATOM     11  C   UNL     1      16.920 -30.175  21.931  1.00  0.00     0.000 C 
BRANCH  11  12
ATOM     12  C   UNL     1      15.389 -30.229  21.815  1.00  0.00     0.006 C 
BRANCH  12  13
ATOM     13  C   UNL     1      14.728 -29.733  23.103  1.00  0.00     0.053 C 
BRANCH  13  14
ATOM     14  C   UNL     1      13.336 -30.266  23.224  1.00  0.00     0.041 C 
ATOM     15  O   UNL     1      12.348 -29.490  23.111  1.00  0.00    -0.550 OA
ATOM     16  O   UNL     1      13.127 -31.614  23.490  1.00  0.00    -0.550 OA
ENDBRANCH  13  14
ENDBRANCH  12  13
ENDBRANCH  11  12
ENDBRANCH  10  11
ENDBRANCH   9  10
ENDBRANCH   8   9
ENDBRANCH   7   8
ENDBRANCH   6   7
ENDBRANCH   5   6
ENDBRANCH   4   5
ENDBRANCH   3   4
ENDBRANCH   2   3
ENDBRANCH   1   2
BRANCH   1  17
ATOM     17  C   UNL     1      14.990 -33.936  21.609  1.00  0.00     0.000 C 
BRANCH  17  18
ATOM     18  C   UNL     1      15.358 -33.844  20.117  1.00  0.00     0.000 C 
BRANCH  18  19
ATOM     19  C   UNL     1      16.676 -34.553  19.781  1.00  0.00     0.000 C 
BRANCH  19  20
ATOM     20  C   UNL     1      16.450 -36.052  19.530  1.00  0.00     0.000 C 
BRANCH  20  21
ATOM     21  C   UNL     1      17.532 -36.938  20.173  1.00  0.00     0.000 C 
BRANCH  21  22
ATOM     22  C   UNL     1      18.542 -36.192  21.063  1.00  0.00    -0.000 C 
BRANCH  22  23
ATOM     23  C   UNL     1      18.849 -36.939  22.371  1.00  0.00    -0.000 C 
BRANCH  23  24
ATOM     24  C   UNL     1      18.669 -36.050  23.612  1.00  0.00    -0.000 C 
BRANCH  24  25
ATOM     25  C   UNL     1      19.941 -35.957  24.468  1.00  0.00    -0.000 C 
BRANCH  25  26
ATOM     26  C   UNL     1      19.730 -36.626  25.835  1.00  0.00    -0.000 C 
BRANCH  26  27
ATOM     27  C   UNL     1      18.403 -37.399  25.925  1.00  0.00    -0.000 C 
BRANCH  27  28
ATOM     28  C   UNL     1      17.719 -37.366  27.307  1.00  0.00    -0.000 C 
BRANCH  28  29
ATOM     29  C   UNL     1      16.284 -37.920  27.336  1.00  0.00    -0.003 C 
ATOM     30  C   UNL     1      15.753 -38.125  28.753  1.00  0.00     0.004 C 
ENDBRANCH  28  29
ENDBRANCH  27  28
ENDBRANCH  26  27
ENDBRANCH  25  26
ENDBRANCH  24  25
ENDBRANCH  23  24
ENDBRANCH  22  23
ENDBRANCH  21  22
ENDBRANCH  20  21
ENDBRANCH  19  20
ENDBRANCH  18  19
ENDBRANCH  17  18
ENDBRANCH   1  17
TORSDOF 26
ENDMDL
MODEL 2
REMARK VINA RESULT:    -4.977      3.051      4.566
REMARK INTER + INTRA:         -17.679
REMARK INTER:                 -12.715
REMARK INTRA:                  -4.963
REMARK UNBOUND:                -5.137
REMARK SMILES CCCCCCCCCCCCCCCCCCCCCCCCCCCC(=O)[O-]
REMARK SMILES IDX 15 1 16 2 17 3 18 4 19 5 20 6 21 7 22 8 23 9 24 10 25 11
REMARK SMILES IDX 26 12 27 13 28 14 29 15 30 16 14 17 13 18 12 19 11 20 10 21
REMARK SMILES IDX 9 22 8 23 7 24 6 25 5 26 4 27 3 28 2 29 1 30
REMARK H PARENT
REMARK Flexibility Score: inf
ROOT
ATOM      1  C   UNL     1      14.575 -30.826  22.572  1.00  0.00     0.000 C 
ENDROOT
BRANCH   1   2
ATOM      2  C   UNL     1      15.652 -29.748  22.794  1.00  0.00     0.000 C 
BRANCH   2   3
ATOM      3  C   UNL     1      17.078 -30.258  22.500  1.00  0.00     0.000 C 
BRANCH   3   4
ATOM      4  C   UNL     1      17.325 -30.593  21.019  1.00  0.00     0.000 C 
BRANCH   4   5
ATOM      5  C   UNL     1      18.165 -31.864  20.824  1.00  0.00     0.000 C 
BRANCH   5   6
ATOM      6  C   UNL     1      18.458 -32.600  22.144  1.00  0.00     0.000 C 
BRANCH   6   7
ATOM      7  C   UNL     1      19.958 -32.877  22.379  1.00  0.00     0.000 C 
BRANCH   7   8
ATOM      8  C   UNL     1      20.493 -32.190  23.648  1.00  0.00     0.000 C 
BRANCH   8   9
ATOM      9  C   UNL     1      20.485 -30.657  23.538  1.00  0.00     0.000 C 
BRANCH   9  10
ATOM     10  C   UNL     1      21.503 -30.132  22.510  1.00  0.00     0.000 C 
BRANCH  10  11
ATOM     11  C   UNL     1      20.839 -29.619  21.223  1.00  0.00     0.000 C 
BRANCH  11  12
ATOM     12  C   UNL     1      21.167 -28.147  20.934  1.00  0.00     0.006 C 
BRANCH  12  13
ATOM     13  C   UNL     1      19.886 -27.322  20.786  1.00  0.00     0.053 C 
BRANCH  13  14
ATOM     14  C   UNL     1      20.197 -25.860  20.757  1.00  0.00     0.041 C 
ATOM     15  O   UNL     1      20.887 -25.377  19.819  1.00  0.00    -0.550 OA
ATOM     16  O   UNL     1      19.751 -25.032  21.781  1.00  0.00    -0.550 OA
ENDBRANCH  13  14
ENDBRANCH  12  13
ENDBRANCH  11  12
ENDBRANCH  10  11
ENDBRANCH   9  10
ENDBRANCH   8   9
ENDBRANCH   7   8
ENDBRANCH   6   7
ENDBRANCH   5   6
ENDBRANCH   4   5
ENDBRANCH   3   4
ENDBRANCH   2   3
ENDBRANCH   1   2
BRANCH   1  17
ATOM     17  C   UNL     1      14.816 -32.075  23.447  1.00  0.00     0.000 C 
BRANCH  17  18
ATOM     18  C   UNL     1      14.973 -33.375  22.638  1.00  0.00     0.000 C 
BRANCH  18  19
ATOM     19  C   UNL     1      14.603 -33.207  21.158  1.00  0.00     0.000 C 
BRANCH  19  20
ATOM     20  C   UNL     1      15.008 -34.445  20.343  1.00  0.00     0.000 C 
BRANCH  20  21
ATOM     21  C   UNL     1      16.107 -34.146  19.306  1.00  0.00     0.000 C 
BRANCH  21  22
ATOM     22  C   UNL     1      17.291 -35.128  19.310  1.00  0.00    -0.000 C 
BRANCH  22  23
ATOM     23  C   UNL     1      16.874 -36.563  19.671  1.00  0.00    -0.000 C 
BRANCH  23  24
ATOM     24  C   UNL     1      17.800 -37.197  20.721  1.00  0.00    -0.000 C 
BRANCH  24  25
ATOM     25  C   UNL     1      18.290 -36.189  21.771  1.00  0.00    -0.000 C 
BRANCH  25  26
ATOM     26  C   UNL     1      19.034 -36.902  22.910  1.00  0.00    -0.000 C 
BRANCH  26  27
ATOM     27  C   UNL     1      19.277 -35.994  24.129  1.00  0.00    -0.000 C 
BRANCH  27  28
ATOM     28  C   UNL     1      18.318 -36.220  25.315  1.00  0.00    -0.000 C 
BRANCH  28  29
ATOM     29  C   UNL     1      17.056 -35.341  25.307  1.00  0.00    -0.003 C 
ATOM     30  C   UNL     1      17.367 -33.852  25.444  1.00  0.00     0.004 C 
ENDBRANCH  28  29
ENDBRANCH  27  28
ENDBRANCH  26  27
ENDBRANCH  25  26
ENDBRANCH  24  25
ENDBRANCH  23  24
ENDBRANCH  22  23
ENDBRANCH  21  22
ENDBRANCH  20  21
ENDBRANCH  19  20
ENDBRANCH  18  19
ENDBRANCH  17  18
ENDBRANCH   1  17
TORSDOF 26
ENDMDL
MODEL 3
REMARK VINA RESULT:    -4.909      4.152      5.407
REMARK INTER + INTRA:         -17.508
REMARK INTER:                 -13.169
REMARK INTRA:                  -4.339
REMARK UNBOUND:                -5.137
REMARK SMILES CCCCCCCCCCCCCCCCCCCCCCCCCCCC(=O)[O-]
REMARK SMILES IDX 15 1 16 2 17 3 18 4 19 5 20 6 21 7 22 8 23 9 24 10 25 11
REMARK SMILES IDX 26 12 27 13 28 14 29 15 30 16 14 17 13 18 12 19 11 20 10 21
REMARK SMILES IDX 9 22 8 23 7 24 6 25 5 26 4 27 3 28 2 29 1 30
REMARK H PARENT
REMARK Flexibility Score: inf
ROOT
ATOM      1  C   UNL     1      14.876 -31.183  23.356  1.00  0.00     0.000 C 
ENDROOT
BRANCH   1   2
ATOM      2  C   UNL     1      16.324 -30.745  23.069  1.00  0.00     0.000 C 
BRANCH   2   3
ATOM      3  C   UNL     1      16.510 -30.192  21.641  1.00  0.00     0.000 C 
BRANCH   3   4
ATOM      4  C   UNL     1      17.672 -30.842  20.869  1.00  0.00     0.000 C 
BRANCH   4   5
ATOM      5  C   UNL     1      18.356 -31.970  21.656  1.00  0.00     0.000 C 
BRANCH   5   6
ATOM      6  C   UNL     1      19.818 -31.650  22.018  1.00  0.00     0.000 C 
BRANCH   6   7
ATOM      7  C   UNL     1      20.035 -30.199  22.497  1.00  0.00     0.000 C 
BRANCH   7   8
ATOM      8  C   UNL     1      21.284 -29.553  21.873  1.00  0.00     0.000 C 
BRANCH   8   9
ATOM      9  C   UNL     1      20.955 -28.701  20.637  1.00  0.00     0.000 C 
BRANCH   9  10
ATOM     10  C   UNL     1      19.654 -27.896  20.803  1.00  0.00     0.000 C 
BRANCH  10  11
ATOM     11  C   UNL     1      19.909 -26.422  21.151  1.00  0.00     0.000 C 
BRANCH  11  12
ATOM     12  C   UNL     1      20.617 -25.660  20.020  1.00  0.00     0.006 C 
BRANCH  12  13
ATOM     13  C   UNL     1      21.957 -25.096  20.499  1.00  0.00     0.053 C 
BRANCH  13  14
ATOM     14  C   UNL     1      23.097 -25.795  19.829  1.00  0.00     0.041 C 
ATOM     15  O   UNL     1      23.817 -26.600  20.479  1.00  0.00    -0.550 OA
ATOM     16  O   UNL     1      23.385 -25.536  18.494  1.00  0.00    -0.550 OA
ENDBRANCH  13  14
ENDBRANCH  12  13
ENDBRANCH  11  12
ENDBRANCH  10  11
ENDBRANCH   9  10
ENDBRANCH   8   9
ENDBRANCH   7   8
ENDBRANCH   6   7
ENDBRANCH   5   6
ENDBRANCH   4   5
ENDBRANCH   3   4
ENDBRANCH   2   3
ENDBRANCH   1   2
BRANCH   1  17
ATOM     17  C   UNL     1      14.788 -32.676  23.740  1.00  0.00     0.000 C 
BRANCH  17  18
ATOM     18  C   UNL     1      15.223 -33.630  22.613  1.00  0.00     0.000 C 
BRANCH  18  19
ATOM     19  C   UNL     1      14.621 -33.263  21.251  1.00  0.00     0.000 C 
BRANCH  19  20
ATOM     20  C   UNL     1      14.969 -34.317  20.189  1.00  0.00     0.000 C 
BRANCH  20  21
ATOM     21  C   UNL     1      16.171 -33.915  19.316  1.00  0.00     0.000 C 
BRANCH  21  22
ATOM     22  C   UNL     1      17.369 -34.880  19.370  1.00  0.00    -0.000 C 
BRANCH  22  23
ATOM     23  C   UNL     1      16.942 -36.353  19.471  1.00  0.00    -0.000 C 
BRANCH  23  24
ATOM     24  C   UNL     1      17.616 -37.080  20.646  1.00  0.00    -0.000 C 
BRANCH  24  25
ATOM     25  C   UNL     1      18.243 -36.115  21.663  1.00  0.00    -0.000 C 
BRANCH  25  26
ATOM     26  C   UNL     1      19.056 -36.883  22.717  1.00  0.00    -0.000 C 
BRANCH  26  27
ATOM     27  C   UNL     1      19.003 -36.229  24.109  1.00  0.00    -0.000 C 
BRANCH  27  28
ATOM     28  C   UNL     1      18.781 -34.703  24.107  1.00  0.00    -0.000 C 
BRANCH  28  29
ATOM     29  C   UNL     1      17.856 -34.180  25.219  1.00  0.00    -0.003 C 
ATOM     30  C   UNL     1      16.841 -35.221  25.688  1.00  0.00     0.004 C 
ENDBRANCH  28  29
ENDBRANCH  27  28
ENDBRANCH  26  27
ENDBRANCH  25  26
ENDBRANCH  24  25
ENDBRANCH  23  24
ENDBRANCH  22  23
ENDBRANCH  21  22
ENDBRANCH  20  21
ENDBRANCH  19  20
ENDBRANCH  18  19
ENDBRANCH  17  18
ENDBRANCH   1  17
TORSDOF 26
ENDMDL
MODEL 4
REMARK VINA RESULT:    -4.821      3.109      6.654
REMARK INTER + INTRA:         -17.287
REMARK INTER:                 -12.094
REMARK INTRA:                  -5.193
REMARK UNBOUND:                -5.137
REMARK SMILES CCCCCCCCCCCCCCCCCCCCCCCCCCCC(=O)[O-]
REMARK SMILES IDX 15 1 16 2 17 3 18 4 19 5 20 6 21 7 22 8 23 9 24 10 25 11
REMARK SMILES IDX 26 12 27 13 28 14 29 15 30 16 14 17 13 18 12 19 11 20 10 21
REMARK SMILES IDX 9 22 8 23 7 24 6 25 5 26 4 27 3 28 2 29 1 30
REMARK H PARENT
REMARK Flexibility Score: inf
ROOT
ATOM      1  C   UNL     1      17.955 -34.879  19.431  1.00  0.00     0.000 C 
ENDROOT
BRANCH   1   2
ATOM      2  C   UNL     1      17.326 -36.282  19.352  1.00  0.00     0.000 C 
BRANCH   2   3
ATOM      3  C   UNL     1      17.631 -37.146  20.593  1.00  0.00     0.000 C 
BRANCH   3   4
ATOM      4  C   UNL     1      18.030 -36.330  21.835  1.00  0.00     0.000 C 
BRANCH   4   5
ATOM      5  C   UNL     1      19.323 -36.836  22.494  1.00  0.00     0.000 C 
BRANCH   5   6
ATOM      6  C   UNL     1      20.315 -35.705  22.818  1.00  0.00     0.000 C 
BRANCH   6   7
ATOM      7  C   UNL     1      19.760 -34.293  22.533  1.00  0.00     0.000 C 
BRANCH   7   8
ATOM      8  C   UNL     1      19.658 -33.432  23.804  1.00  0.00     0.000 C 
BRANCH   8   9
ATOM      9  C   UNL     1      18.564 -33.924  24.765  1.00  0.00     0.000 C 
BRANCH   9  10
ATOM     10  C   UNL     1      18.002 -32.796  25.649  1.00  0.00     0.000 C 
BRANCH  10  11
ATOM     11  C   UNL     1      18.194 -31.404  25.029  1.00  0.00     0.000 C 
BRANCH  11  12
ATOM     12  C   UNL     1      18.763 -30.385  26.028  1.00  0.00     0.006 C 
BRANCH  12  13
ATOM     13  C   UNL     1      19.865 -31.017  26.882  1.00  0.00     0.053 C 
BRANCH  13  14
ATOM     14  C   UNL     1      20.487 -29.999  27.784  1.00  0.00     0.041 C 
ATOM     15  O   UNL     1      21.581 -30.245  28.360  1.00  0.00    -0.550 OA
ATOM     16  O   UNL     1      19.844 -28.788  28.015  1.00  0.00    -0.550 OA
ENDBRANCH  13  14
ENDBRANCH  12  13
ENDBRANCH  11  12
ENDBRANCH  10  11
ENDBRANCH   9  10
ENDBRANCH   8   9
ENDBRANCH   7   8
ENDBRANCH   6   7
ENDBRANCH   5   6
ENDBRANCH   4   5
ENDBRANCH   3   4
ENDBRANCH   2   3
ENDBRANCH   1   2
BRANCH   1  17
ATOM     17  C   UNL     1      16.909 -33.762  19.220  1.00  0.00     0.000 C 
BRANCH  17  18
ATOM     18  C   UNL     1      15.509 -34.119  19.753  1.00  0.00     0.000 C 
BRANCH  18  19
ATOM     19  C   UNL     1      15.063 -33.218  20.912  1.00  0.00     0.000 C 
BRANCH  19  20
ATOM     20  C   UNL     1      15.798 -33.582  22.210  1.00  0.00     0.000 C 
BRANCH  20  21
ATOM     21  C   UNL     1      14.885 -33.539  23.449  1.00  0.00     0.000 C 
BRANCH  21  22
ATOM     22  C   UNL     1      14.721 -32.150  24.091  1.00  0.00    -0.000 C 
BRANCH  22  23
ATOM     23  C   UNL     1      13.474 -31.405  23.588  1.00  0.00    -0.000 C 
BRANCH  23  24
ATOM     24  C   UNL     1      13.779 -29.954  23.187  1.00  0.00    -0.000 C 
BRANCH  24  25
ATOM     25  C   UNL     1      15.284 -29.645  23.167  1.00  0.00    -0.000 C 
BRANCH  25  26
ATOM     26  C   UNL     1      15.793 -29.500  21.724  1.00  0.00    -0.000 C 
BRANCH  26  27
ATOM     27  C   UNL     1      17.329 -29.511  21.628  1.00  0.00    -0.000 C 
BRANCH  27  28
ATOM     28  C   UNL     1      17.955 -30.884  21.309  1.00  0.00    -0.000 C 
BRANCH  28  29
ATOM     29  C   UNL     1      19.479 -30.871  21.101  1.00  0.00    -0.003 C 
ATOM     30  C   UNL     1      20.091 -29.481  21.268  1.00  0.00     0.004 C 
ENDBRANCH  28  29
ENDBRANCH  27  28
ENDBRANCH  26  27
ENDBRANCH  25  26
ENDBRANCH  24  25
ENDBRANCH  23  24
ENDBRANCH  22  23
ENDBRANCH  21  22
ENDBRANCH  20  21
ENDBRANCH  19  20
ENDBRANCH  18  19
ENDBRANCH  17  18
ENDBRANCH   1  17
TORSDOF 26
ENDMDL
MODEL 5
REMARK VINA RESULT:    -4.779      4.550      6.248
REMARK INTER + INTRA:         -17.179
REMARK INTER:                 -13.063
REMARK INTRA:                  -4.117
REMARK UNBOUND:                -5.137
REMARK SMILES CCCCCCCCCCCCCCCCCCCCCCCCCCCC(=O)[O-]
REMARK SMILES IDX 15 1 16 2 17 3 18 4 19 5 20 6 21 7 22 8 23 9 24 10 25 11
REMARK SMILES IDX 26 12 27 13 28 14 29 15 30 16 14 17 13 18 12 19 11 20 10 21
REMARK SMILES IDX 9 22 8 23 7 24 6 25 5 26 4 27 3 28 2 29 1 30
REMARK H PARENT
REMARK Flexibility Score: inf
ROOT
ATOM      1  C   UNL     1      15.724 -30.443  23.307  1.00  0.00     0.000 C 
ENDROOT
BRANCH   1   2
ATOM      2  C   UNL     1      15.990 -29.353  22.253  1.00  0.00     0.000 C 
BRANCH   2   3
ATOM      3  C   UNL     1      17.088 -29.751  21.244  1.00  0.00     0.000 C 
BRANCH   3   4
ATOM      4  C   UNL     1      17.366 -31.263  21.193  1.00  0.00     0.000 C 
BRANCH   4   5
ATOM      5  C   UNL     1      18.848 -31.607  21.403  1.00  0.00     0.000 C 
BRANCH   5   6
ATOM      6  C   UNL     1      19.562 -30.632  22.356  1.00  0.00     0.000 C 
BRANCH   6   7
ATOM      7  C   UNL     1      20.995 -30.269  21.911  1.00  0.00     0.000 C 
BRANCH   7   8
ATOM      8  C   UNL     1      21.019 -29.140  20.866  1.00  0.00     0.000 C 
BRANCH   8   9
ATOM      9  C   UNL     1      20.414 -27.830  21.397  1.00  0.00     0.000 C 
BRANCH   9  10
ATOM     10  C   UNL     1      19.906 -26.914  20.269  1.00  0.00     0.000 C 
BRANCH  10  11
ATOM     11  C   UNL     1      20.240 -25.434  20.510  1.00  0.00     0.000 C 
BRANCH  11  12
ATOM     12  C   UNL     1      21.572 -25.241  21.250  1.00  0.00     0.006 C 
BRANCH  12  13
ATOM     13  C   UNL     1      22.753 -25.623  20.353  1.00  0.00     0.053 C 
BRANCH  13  14
ATOM     14  C   UNL     1      23.450 -24.401  19.846  1.00  0.00     0.041 C 
ATOM     15  O   UNL     1      23.646 -24.251  18.609  1.00  0.00    -0.550 OA
ATOM     16  O   UNL     1      23.912 -23.441  20.738  1.00  0.00    -0.550 OA
ENDBRANCH  13  14
ENDBRANCH  12  13
ENDBRANCH  11  12
ENDBRANCH  10  11
ENDBRANCH   9  10
ENDBRANCH   8   9
ENDBRANCH   7   8
ENDBRANCH   6   7
ENDBRANCH   5   6
ENDBRANCH   4   5
ENDBRANCH   3   4
ENDBRANCH   2   3
ENDBRANCH   1   2
BRANCH   1  17
ATOM     17  C   UNL     1      14.259 -30.433  23.794  1.00  0.00     0.000 C 
BRANCH  17  18
ATOM     18  C   UNL     1      13.270 -31.050  22.789  1.00  0.00     0.000 C 
BRANCH  18  19
ATOM     19  C   UNL     1      13.880 -32.199  21.977  1.00  0.00     0.000 C 
BRANCH  19  20
ATOM     20  C   UNL     1      13.603 -32.024  20.476  1.00  0.00     0.000 C 
BRANCH  20  21
ATOM     21  C   UNL     1      14.151 -33.185  19.626  1.00  0.00     0.000 C 
BRANCH  21  22
ATOM     22  C   UNL     1      14.872 -34.290  20.418  1.00  0.00    -0.000 C 
BRANCH  22  23
ATOM     23  C   UNL     1      16.251 -34.637  19.835  1.00  0.00    -0.000 C 
BRANCH  23  24
ATOM     24  C   UNL     1      16.469 -36.153  19.706  1.00  0.00    -0.000 C 
BRANCH  24  25
ATOM     25  C   UNL     1      17.686 -36.651  20.500  1.00  0.00    -0.000 C 
BRANCH  25  26
ATOM     26  C   UNL     1      18.412 -35.479  21.180  1.00  0.00    -0.000 C 
BRANCH  26  27
ATOM     27  C   UNL     1      18.574 -35.675  22.698  1.00  0.00    -0.000 C 
BRANCH  27  28
ATOM     28  C   UNL     1      18.135 -34.476  23.563  1.00  0.00    -0.000 C 
BRANCH  28  29
ATOM     29  C   UNL     1      16.627 -34.173  23.535  1.00  0.00    -0.003 C 
ATOM     30  C   UNL     1      16.076 -33.771  24.902  1.00  0.00     0.004 C 
ENDBRANCH  28  29
ENDBRANCH  27  28
ENDBRANCH  26  27
ENDBRANCH  25  26
ENDBRANCH  24  25
ENDBRANCH  23  24
ENDBRANCH  22  23
ENDBRANCH  21  22
ENDBRANCH  20  21
ENDBRANCH  19  20
ENDBRANCH  18  19
ENDBRANCH  17  18
ENDBRANCH   1  17
TORSDOF 26
ENDMDL
MODEL 6
REMARK VINA RESULT:    -4.749      2.984      6.543
REMARK INTER + INTRA:         -17.104
REMARK INTER:                 -13.151
REMARK INTRA:                  -3.953
REMARK UNBOUND:                -5.137
REMARK SMILES CCCCCCCCCCCCCCCCCCCCCCCCCCCC(=O)[O-]
REMARK SMILES IDX 15 1 16 2 17 3 18 4 19 5 20 6 21 7 22 8 23 9 24 10 25 11
REMARK SMILES IDX 26 12 27 13 28 14 29 15 30 16 14 17 13 18 12 19 11 20 10 21
REMARK SMILES IDX 9 22 8 23 7 24 6 25 5 26 4 27 3 28 2 29 1 30
REMARK H PARENT
REMARK Flexibility Score: inf
ROOT
ATOM      1  C   UNL     1      18.353 -36.247  22.036  1.00  0.00     0.000 C 
ENDROOT
BRANCH   1   2
ATOM      2  C   UNL     1      17.915 -37.128  20.852  1.00  0.00     0.000 C 
BRANCH   2   3
ATOM      3  C   UNL     1      17.315 -36.312  19.688  1.00  0.00     0.000 C 
BRANCH   3   4
ATOM      4  C   UNL     1      16.037 -35.542  20.063  1.00  0.00     0.000 C 
BRANCH   4   5
ATOM      5  C   UNL     1      16.119 -34.046  19.726  1.00  0.00     0.000 C 
BRANCH   5   6
ATOM      6  C   UNL     1      17.556 -33.568  19.453  1.00  0.00     0.000 C 
BRANCH   6   7
ATOM      7  C   UNL     1      17.997 -32.388  20.344  1.00  0.00     0.000 C 
BRANCH   7   8
ATOM      8  C   UNL     1      18.869 -32.839  21.530  1.00  0.00     0.000 C 
BRANCH   8   9
ATOM      9  C   UNL     1      19.689 -31.687  22.132  1.00  0.00     0.000 C 
BRANCH   9  10
ATOM     10  C   UNL     1      19.717 -30.443  21.226  1.00  0.00     0.000 C 
BRANCH  10  11
ATOM     11  C   UNL     1      20.880 -29.495  21.553  1.00  0.00     0.000 C 
BRANCH  11  12
ATOM     12  C   UNL     1      20.834 -28.197  20.733  1.00  0.00     0.006 C 
BRANCH  12  13
ATOM     13  C   UNL     1      21.137 -26.984  21.616  1.00  0.00     0.053 C 
BRANCH  13  14
ATOM     14  C   UNL     1      20.328 -25.801  21.188  1.00  0.00     0.041 C 
ATOM     15  O   UNL     1      20.114 -25.590  19.964  1.00  0.00    -0.550 OA
ATOM     16  O   UNL     1      19.834 -24.914  22.138  1.00  0.00    -0.550 OA
ENDBRANCH  13  14
ENDBRANCH  12  13
ENDBRANCH  11  12
ENDBRANCH  10  11
ENDBRANCH   9  10
ENDBRANCH   8   9
ENDBRANCH   7   8
ENDBRANCH   6   7
ENDBRANCH   5   6
ENDBRANCH   4   5
ENDBRANCH   3   4
ENDBRANCH   2   3
ENDBRANCH   1   2
BRANCH   1  17
ATOM     17  C   UNL     1      19.168 -37.042  23.080  1.00  0.00     0.000 C 
BRANCH  17  18
ATOM     18  C   UNL     1      19.420 -36.268  24.386  1.00  0.00     0.000 C 
BRANCH  18  19
ATOM     19  C   UNL     1      18.496 -36.706  25.529  1.00  0.00     0.000 C 
BRANCH  19  20
ATOM     20  C   UNL     1      17.265 -35.791  25.627  1.00  0.00     0.000 C 
BRANCH  20  21
ATOM     21  C   UNL     1      17.632 -34.297  25.679  1.00  0.00     0.000 C 
BRANCH  21  22
ATOM     22  C   UNL     1      16.740 -33.376  24.827  1.00  0.00    -0.000 C 
BRANCH  22  23
ATOM     23  C   UNL     1      16.236 -34.057  23.544  1.00  0.00    -0.000 C 
BRANCH  23  24
ATOM     24  C   UNL     1      14.859 -33.535  23.105  1.00  0.00    -0.000 C 
BRANCH  24  25
ATOM     25  C   UNL     1      14.128 -32.771  24.219  1.00  0.00    -0.000 C 
BRANCH  25  26
ATOM     26  C   UNL     1      13.628 -31.410  23.712  1.00  0.00    -0.000 C 
BRANCH  26  27
ATOM     27  C   UNL     1      13.490 -31.355  22.180  1.00  0.00    -0.000 C 
BRANCH  27  28
ATOM     28  C   UNL     1      14.714 -30.788  21.432  1.00  0.00    -0.000 C 
BRANCH  28  29
ATOM     29  C   UNL     1      15.421 -29.618  22.137  1.00  0.00    -0.003 C 
ATOM     30  C   UNL     1      16.580 -30.069  23.023  1.00  0.00     0.004 C 
ENDBRANCH  28  29
ENDBRANCH  27  28
ENDBRANCH  26  27
ENDBRANCH  25  26
ENDBRANCH  24  25
ENDBRANCH  23  24
ENDBRANCH  22  23
ENDBRANCH  21  22
ENDBRANCH  20  21
ENDBRANCH  19  20
ENDBRANCH  18  19
ENDBRANCH  17  18
ENDBRANCH   1  17
TORSDOF 26
ENDMDL
MODEL 7
REMARK VINA RESULT:    -4.706      3.933      5.433
REMARK INTER + INTRA:         -16.997
REMARK INTER:                 -12.805
REMARK INTRA:                  -4.192
REMARK UNBOUND:                -5.137
REMARK SMILES CCCCCCCCCCCCCCCCCCCCCCCCCCCC(=O)[O-]
REMARK SMILES IDX 15 1 16 2 17 3 18 4 19 5 20 6 21 7 22 8 23 9 24 10 25 11
REMARK SMILES IDX 26 12 27 13 28 14 29 15 30 16 14 17 13 18 12 19 11 20 10 21
REMARK SMILES IDX 9 22 8 23 7 24 6 25 5 26 4 27 3 28 2 29 1 30
REMARK H PARENT
REMARK Flexibility Score: inf
ROOT
ATOM      1  C   UNL     1      14.168 -31.920  23.739  1.00  0.00     0.000 C 
ENDROOT
BRANCH   1   2
ATOM      2  C   UNL     1      13.743 -30.541  23.203  1.00  0.00     0.000 C 
BRANCH   2   3
ATOM      3  C   UNL     1      14.882 -29.501  23.255  1.00  0.00     0.000 C 
BRANCH   3   4
ATOM      4  C   UNL     1      15.839 -29.566  22.052  1.00  0.00     0.000 C 
BRANCH   4   5
ATOM      5  C   UNL     1      17.173 -30.251  22.385  1.00  0.00     0.000 C 
BRANCH   5   6
ATOM      6  C   UNL     1      17.634 -31.233  21.294  1.00  0.00     0.000 C 
BRANCH   6   7
ATOM      7  C   UNL     1      19.088 -31.720  21.472  1.00  0.00     0.000 C 
BRANCH   7   8
ATOM      8  C   UNL     1      19.893 -30.830  22.436  1.00  0.00     0.000 C 
BRANCH   8   9
ATOM      9  C   UNL     1      20.930 -29.958  21.710  1.00  0.00     0.000 C 
BRANCH   9  10
ATOM     10  C   UNL     1      20.292 -28.759  20.987  1.00  0.00     0.000 C 
BRANCH  10  11
ATOM     11  C   UNL     1      21.305 -27.651  20.665  1.00  0.00     0.000 C 
BRANCH  11  12
ATOM     12  C   UNL     1      20.704 -26.243  20.794  1.00  0.00     0.006 C 
BRANCH  12  13
ATOM     13  C   UNL     1      21.637 -25.195  20.182  1.00  0.00     0.053 C 
BRANCH  13  14
ATOM     14  C   UNL     1      22.232 -24.328  21.246  1.00  0.00     0.041 C 
ATOM     15  O   UNL     1      23.438 -23.970  21.170  1.00  0.00    -0.550 OA
ATOM     16  O   UNL     1      21.464 -23.939  22.337  1.00  0.00    -0.550 OA
ENDBRANCH  13  14
ENDBRANCH  12  13
ENDBRANCH  11  12
ENDBRANCH  10  11
ENDBRANCH   9  10
ENDBRANCH   8   9
ENDBRANCH   7   8
ENDBRANCH   6   7
ENDBRANCH   5   6
ENDBRANCH   4   5
ENDBRANCH   3   4
ENDBRANCH   2   3
ENDBRANCH   1   2
BRANCH   1  17
ATOM     17  C   UNL     1      14.557 -32.889  22.602  1.00  0.00     0.000 C 
BRANCH  17  18
ATOM     18  C   UNL     1      13.981 -32.494  21.230  1.00  0.00     0.000 C 
BRANCH  18  19
ATOM     19  C   UNL     1      14.662 -33.222  20.064  1.00  0.00     0.000 C 
BRANCH  19  20
ATOM     20  C   UNL     1      15.059 -34.652  20.459  1.00  0.00     0.000 C 
BRANCH  20  21
ATOM     21  C   UNL     1      16.308 -35.156  19.712  1.00  0.00     0.000 C 
BRANCH  21  22
ATOM     22  C   UNL     1      16.707 -36.611  20.017  1.00  0.00    -0.000 C 
BRANCH  22  23
ATOM     23  C   UNL     1      18.017 -36.714  20.816  1.00  0.00    -0.000 C 
BRANCH  23  24
ATOM     24  C   UNL     1      18.527 -35.342  21.286  1.00  0.00    -0.000 C 
BRANCH  24  25
ATOM     25  C   UNL     1      18.654 -35.245  22.813  1.00  0.00    -0.000 C 
BRANCH  25  26
ATOM     26  C   UNL     1      17.296 -34.924  23.456  1.00  0.00    -0.000 C 
BRANCH  26  27
ATOM     27  C   UNL     1      17.426 -34.364  24.883  1.00  0.00    -0.000 C 
BRANCH  27  28
ATOM     28  C   UNL     1      17.443 -32.825  24.983  1.00  0.00    -0.000 C 
BRANCH  28  29
ATOM     29  C   UNL     1      18.491 -32.248  25.950  1.00  0.00    -0.003 C 
ATOM     30  C   UNL     1      18.596 -30.726  25.876  1.00  0.00     0.004 C 
ENDBRANCH  28  29
ENDBRANCH  27  28
ENDBRANCH  26  27
ENDBRANCH  25  26
ENDBRANCH  24  25
ENDBRANCH  23  24
ENDBRANCH  22  23
ENDBRANCH  21  22
ENDBRANCH  20  21
ENDBRANCH  19  20
ENDBRANCH  18  19
ENDBRANCH  17  18
ENDBRANCH   1  17
TORSDOF 26
ENDMDL
MODEL 8
REMARK VINA RESULT:    -4.657      2.685      6.362
REMARK INTER + INTRA:         -16.872
REMARK INTER:                 -11.533
REMARK INTRA:                  -5.339
REMARK UNBOUND:                -5.137
REMARK SMILES CCCCCCCCCCCCCCCCCCCCCCCCCCCC(=O)[O-]
REMARK SMILES IDX 15 1 16 2 17 3 18 4 19 5 20 6 21 7 22 8 23 9 24 10 25 11
REMARK SMILES IDX 26 12 27 13 28 14 29 15 30 16 14 17 13 18 12 19 11 20 10 21
REMARK SMILES IDX 9 22 8 23 7 24 6 25 5 26 4 27 3 28 2 29 1 30
REMARK H PARENT
REMARK Flexibility Score: inf
ROOT
ATOM      1  C   UNL     1      21.105 -32.863  22.992  1.00  0.00     0.000 C 
ENDROOT
BRANCH   1   2
ATOM      2  C   UNL     1      21.244 -31.702  23.993  1.00  0.00     0.000 C 
BRANCH   2   3
ATOM      3  C   UNL     1      20.790 -30.348  23.407  1.00  0.00     0.000 C 
BRANCH   3   4
ATOM      4  C   UNL     1      20.885 -30.272  21.873  1.00  0.00     0.000 C 
BRANCH   4   5
ATOM      5  C   UNL     1      19.610 -29.716  21.221  1.00  0.00     0.000 C 
BRANCH   5   6
ATOM      6  C   UNL     1      18.325 -30.139  21.955  1.00  0.00     0.000 C 
BRANCH   6   7
ATOM      7  C   UNL     1      17.777 -31.510  21.505  1.00  0.00     0.000 C 
BRANCH   7   8
ATOM      8  C   UNL     1      17.442 -32.429  22.693  1.00  0.00     0.000 C 
BRANCH   8   9
ATOM      9  C   UNL     1      17.433 -31.680  24.036  1.00  0.00     0.000 C 
BRANCH   9  10
ATOM     10  C   UNL     1      17.886 -32.566  25.210  1.00  0.00     0.000 C 
BRANCH  10  11
ATOM     11  C   UNL     1      17.287 -33.979  25.154  1.00  0.00     0.000 C 
BRANCH  11  12
ATOM     12  C   UNL     1      18.202 -35.035  25.791  1.00  0.00     0.006 C 
BRANCH  12  13
ATOM     13  C   UNL     1      17.651 -36.445  25.560  1.00  0.00     0.053 C 
BRANCH  13  14
ATOM     14  C   UNL     1      17.448 -37.155  26.860  1.00  0.00     0.041 C 
ATOM     15  O   UNL     1      16.324 -37.650  27.143  1.00  0.00    -0.550 OA
ATOM     16  O   UNL     1      18.491 -37.245  27.774  1.00  0.00    -0.550 OA
ENDBRANCH  13  14
ENDBRANCH  12  13
ENDBRANCH  11  12
ENDBRANCH  10  11
ENDBRANCH   9  10
ENDBRANCH   8   9
ENDBRANCH   7   8
ENDBRANCH   6   7
ENDBRANCH   5   6
ENDBRANCH   4   5
ENDBRANCH   3   4
ENDBRANCH   2   3
ENDBRANCH   1   2
BRANCH   1  17
ATOM     17  C   UNL     1      21.412 -34.229  23.643  1.00  0.00     0.000 C 
BRANCH  17  18
ATOM     18  C   UNL     1      20.727 -35.416  22.942  1.00  0.00     0.000 C 
BRANCH  18  19
ATOM     19  C   UNL     1      19.478 -35.004  22.152  1.00  0.00     0.000 C 
BRANCH  19  20
ATOM     20  C   UNL     1      18.475 -36.164  22.058  1.00  0.00     0.000 C 
BRANCH  20  21
ATOM     21  C   UNL     1      17.504 -36.022  20.872  1.00  0.00     0.000 C 
BRANCH  21  22
ATOM     22  C   UNL     1      17.920 -34.993  19.806  1.00  0.00    -0.000 C 
BRANCH  22  23
ATOM     23  C   UNL     1      16.721 -34.251  19.195  1.00  0.00    -0.000 C 
BRANCH  23  24
ATOM     24  C   UNL     1      15.411 -34.531  19.948  1.00  0.00    -0.000 C 
BRANCH  24  25
ATOM     25  C   UNL     1      14.452 -33.331  19.942  1.00  0.00    -0.000 C 
BRANCH  25  26
ATOM     26  C   UNL     1      14.237 -32.796  21.366  1.00  0.00    -0.000 C 
BRANCH  26  27
ATOM     27  C   UNL     1      13.435 -31.482  21.398  1.00  0.00    -0.000 C 
BRANCH  27  28
ATOM     28  C   UNL     1      12.860 -31.100  22.777  1.00  0.00    -0.000 C 
BRANCH  28  29
ATOM     29  C   UNL     1      13.855 -30.415  23.729  1.00  0.00    -0.003 C 
ATOM     30  C   UNL     1      14.876 -29.545  22.998  1.00  0.00     0.004 C 
ENDBRANCH  28  29
ENDBRANCH  27  28
ENDBRANCH  26  27
ENDBRANCH  25  26
ENDBRANCH  24  25
ENDBRANCH  23  24
ENDBRANCH  22  23
ENDBRANCH  21  22
ENDBRANCH  20  21
ENDBRANCH  19  20
ENDBRANCH  18  19
ENDBRANCH  17  18
ENDBRANCH   1  17
TORSDOF 26
ENDMDL
MODEL 9
REMARK VINA RESULT:    -4.622      2.425      5.172
REMARK INTER + INTRA:         -16.784
REMARK INTER:                 -11.648
REMARK INTRA:                  -5.136
REMARK UNBOUND:                -5.137
REMARK SMILES CCCCCCCCCCCCCCCCCCCCCCCCCCCC(=O)[O-]
REMARK SMILES IDX 15 1 16 2 17 3 18 4 19 5 20 6 21 7 22 8 23 9 24 10 25 11
REMARK SMILES IDX 26 12 27 13 28 14 29 15 30 16 14 17 13 18 12 19 11 20 10 21
REMARK SMILES IDX 9 22 8 23 7 24 6 25 5 26 4 27 3 28 2 29 1 30
REMARK H PARENT
REMARK Flexibility Score: inf
ROOT
ATOM      1  C   UNL     1      19.330 -34.427  22.219  1.00  0.00     0.000 C 
ENDROOT
BRANCH   1   2
ATOM      2  C   UNL     1      18.082 -35.066  21.585  1.00  0.00     0.000 C 
BRANCH   2   3
ATOM      3  C   UNL     1      16.767 -34.587  22.237  1.00  0.00     0.000 C 
BRANCH   3   4
ATOM      4  C   UNL     1      15.690 -34.163  21.224  1.00  0.00     0.000 C 
BRANCH   4   5
ATOM      5  C   UNL     1      14.646 -33.210  21.824  1.00  0.00     0.000 C 
BRANCH   5   6
ATOM      6  C   UNL     1      14.677 -33.174  23.362  1.00  0.00     0.000 C 
BRANCH   6   7
ATOM      7  C   UNL     1      13.942 -31.960  23.970  1.00  0.00     0.000 C 
BRANCH   7   8
ATOM      8  C   UNL     1      13.903 -30.756  23.012  1.00  0.00     0.000 C 
BRANCH   8   9
ATOM      9  C   UNL     1      15.086 -29.797  23.220  1.00  0.00     0.000 C 
BRANCH   9  10
ATOM     10  C   UNL     1      16.038 -29.760  22.011  1.00  0.00     0.000 C 
BRANCH  10  11
ATOM     11  C   UNL     1      17.226 -30.721  22.161  1.00  0.00     0.000 C 
BRANCH  11  12
ATOM     12  C   UNL     1      18.047 -30.854  20.870  1.00  0.00     0.006 C 
BRANCH  12  13
ATOM     13  C   UNL     1      19.547 -30.795  21.170  1.00  0.00     0.053 C 
BRANCH  13  14
ATOM     14  C   UNL     1      20.005 -29.379  21.310  1.00  0.00     0.041 C 
ATOM     15  O   UNL     1      20.993 -29.102  22.043  1.00  0.00    -0.550 OA
ATOM     16  O   UNL     1      19.325 -28.359  20.656  1.00  0.00    -0.550 OA
ENDBRANCH  13  14
ENDBRANCH  12  13
ENDBRANCH  11  12
ENDBRANCH  10  11
ENDBRANCH   9  10
ENDBRANCH   8   9
ENDBRANCH   7   8
ENDBRANCH   6   7
ENDBRANCH   5   6
ENDBRANCH   4   5
ENDBRANCH   3   4
ENDBRANCH   2   3
ENDBRANCH   1   2
BRANCH   1  17
ATOM     17  C   UNL     1      20.345 -35.488  22.698  1.00  0.00     0.000 C 
BRANCH  17  18
ATOM     18  C   UNL     1      21.544 -34.896  23.462  1.00  0.00     0.000 C 
BRANCH  18  19
ATOM     19  C   UNL     1      21.847 -33.445  23.068  1.00  0.00     0.000 C 
BRANCH  19  20
ATOM     20  C   UNL     1      21.927 -32.541  24.307  1.00  0.00     0.000 C 
BRANCH  20  21
ATOM     21  C   UNL     1      20.629 -31.753  24.560  1.00  0.00     0.000 C 
BRANCH  21  22
ATOM     22  C   UNL     1      20.124 -31.777  26.014  1.00  0.00    -0.000 C 
BRANCH  22  23
ATOM     23  C   UNL     1      18.591 -31.699  26.112  1.00  0.00    -0.000 C 
BRANCH  23  24
ATOM     24  C   UNL     1      17.890 -32.646  25.125  1.00  0.00    -0.000 C 
BRANCH  24  25
ATOM     25  C   UNL     1      17.426 -33.954  25.782  1.00  0.00    -0.000 C 
BRANCH  25  26
ATOM     26  C   UNL     1      18.543 -35.008  25.751  1.00  0.00    -0.000 C 
BRANCH  26  27
ATOM     27  C   UNL     1      18.007 -36.451  25.784  1.00  0.00    -0.000 C 
BRANCH  27  28
ATOM     28  C   UNL     1      16.687 -36.641  26.558  1.00  0.00    -0.000 C 
BRANCH  28  29
ATOM     29  C   UNL     1      16.534 -38.003  27.256  1.00  0.00    -0.003 C 
ATOM     30  C   UNL     1      16.107 -37.878  28.717  1.00  0.00     0.004 C 
ENDBRANCH  28  29
ENDBRANCH  27  28
ENDBRANCH  26  27
ENDBRANCH  25  26
ENDBRANCH  24  25
ENDBRANCH  23  24
ENDBRANCH  22  23
ENDBRANCH  21  22
ENDBRANCH  20  21
ENDBRANCH  19  20
ENDBRANCH  18  19
ENDBRANCH  17  18
ENDBRANCH   1  17
TORSDOF 26
ENDMDL
