MODEL 1
REMARK VINA RESULT:     8.615      0.000      0.000
REMARK INTER + INTRA:           9.829
REMARK INTER:                  10.126
REMARK INTRA:                  -0.297
REMARK UNBOUND:                -0.297
REMARK SMILES O=c1cc(-c2ccc(O)c(O)c2)oc2cc(O)cc(O)c12
REMARK SMILES IDX 4 1 3 2 2 3 1 4 21 5 19 6 18 7 16 8 15 9 14 10 13 11 5 12
REMARK SMILES IDX 6 13 7 14 8 15 12 16 10 17 9 18 11 20 20 22 17 24
REMARK H PARENT 9 19 11 21 20 23 17 25
REMARK Flexibility Score: inf
ROOT
ATOM      1  C   UNL     1       3.187 135.508 155.703  1.00  0.00     0.138 A 
ATOM      2  C   UNL     1       3.855 136.254 154.722  1.00  0.00     0.100 A 
ATOM      3  C   UNL     1       4.359 135.612 153.590  1.00  0.00     0.197 A 
ATOM      4  O   UNL     1       5.007 136.298 152.759  1.00  0.00    -0.289 OA
ATOM      5  C   UNL     1       4.167 134.220 153.427  1.00  0.00     0.107 A 
ATOM      6  C   UNL     1       4.602 133.467 152.296  1.00  0.00     0.134 A 
ATOM      7  C   UNL     1       4.459 132.074 152.297  1.00  0.00     0.093 A 
ATOM      8  C   UNL     1       3.842 131.414 153.364  1.00  0.00     0.123 A 
ATOM      9  C   UNL     1       3.365 132.147 154.448  1.00  0.00     0.094 A 
ATOM     10  C   UNL     1       3.524 133.533 154.491  1.00  0.00     0.146 A 
ATOM     11  O   UNL     1       3.068 134.193 155.551  1.00  0.00    -0.456 OA
ENDROOT
BRANCH   1  12
ATOM     12  C   UNL     1       2.630 136.140 156.925  1.00  0.00     0.021 A 
ATOM     13  C   UNL     1       1.945 135.347 157.863  1.00  0.00     0.016 A 
ATOM     14  C   UNL     1       1.405 135.920 159.017  1.00  0.00     0.051 A 
ATOM     15  C   UNL     1       1.528 137.291 159.251  1.00  0.00     0.157 A 
ATOM     16  C   UNL     1       2.740 137.524 157.159  1.00  0.00     0.062 A 
ATOM     17  C   UNL     1       2.196 138.100 158.316  1.00  0.00     0.158 A 
BRANCH  15  18
ATOM     18  O   UNL     1       0.980 137.833 160.413  1.00  0.00    -0.504 OA
ATOM     19  H   UNL     1       1.447 138.561 160.940  1.00  0.00     0.293 HD
ENDBRANCH  15  18
BRANCH  17  20
ATOM     20  O   UNL     1       2.312 139.471 158.539  1.00  0.00    -0.504 OA
ATOM     21  H   UNL     1       1.746 140.142 158.032  1.00  0.00     0.293 HD
ENDBRANCH  17  20
ENDBRANCH   1  12
BRANCH   6  22
ATOM     22  O   UNL     1       5.154 134.035 151.144  1.00  0.00    -0.507 OA
ATOM     23  H   UNL     1       5.015 133.687 150.207  1.00  0.00     0.293 HD
ENDBRANCH   6  22
BRANCH   8  24
ATOM     24  O   UNL     1       3.690 130.029 153.350  1.00  0.00    -0.508 OA
ATOM     25  H   UNL     1       3.041 129.561 153.972  1.00  0.00     0.293 HD
ENDBRANCH   8  24
TORSDOF 5
ENDMDL
MODEL 2
REMARK VINA RESULT:     9.037      1.189      2.947
REMARK INTER + INTRA:          10.325
REMARK INTER:                  10.619
REMARK INTRA:                  -0.294
REMARK UNBOUND:                -0.297
REMARK SMILES O=c1cc(-c2ccc(O)c(O)c2)oc2cc(O)cc(O)c12
REMARK SMILES IDX 4 1 3 2 2 3 1 4 21 5 19 6 18 7 16 8 15 9 14 10 13 11 5 12
REMARK SMILES IDX 6 13 7 14 8 15 12 16 10 17 9 18 11 20 20 22 17 24
REMARK H PARENT 9 19 11 21 20 23 17 25
REMARK Flexibility Score: inf
ROOT
ATOM      1  C   UNL     1       2.625 134.697 155.971  1.00  0.00     0.138 A 
ATOM      2  C   UNL     1       1.828 133.545 155.986  1.00  0.00     0.100 A 
ATOM      3  C   UNL     1       2.045 132.543 155.038  1.00  0.00     0.197 A 
ATOM      4  O   UNL     1       1.273 131.550 155.039  1.00  0.00    -0.289 OA
ATOM      5  C   UNL     1       3.084 132.686 154.090  1.00  0.00     0.107 A 
ATOM      6  C   UNL     1       3.423 131.713 153.103  1.00  0.00     0.134 A 
ATOM      7  C   UNL     1       4.397 132.013 152.142  1.00  0.00     0.093 A 
ATOM      8  C   UNL     1       5.086 133.228 152.171  1.00  0.00     0.123 A 
ATOM      9  C   UNL     1       4.801 134.163 153.163  1.00  0.00     0.094 A 
ATOM     10  C   UNL     1       3.811 133.906 154.114  1.00  0.00     0.146 A 
ATOM     11  O   UNL     1       3.560 134.831 155.035  1.00  0.00    -0.456 OA
ENDROOT
BRANCH   1  12
ATOM     12  C   UNL     1       2.439 135.792 156.957  1.00  0.00     0.021 A 
ATOM     13  C   UNL     1       3.002 137.055 156.701  1.00  0.00     0.016 A 
ATOM     14  C   UNL     1       2.847 138.099 157.617  1.00  0.00     0.051 A 
ATOM     15  C   UNL     1       2.140 137.900 158.805  1.00  0.00     0.157 A 
ATOM     16  C   UNL     1       1.738 135.593 158.162  1.00  0.00     0.062 A 
ATOM     17  C   UNL     1       1.585 136.640 159.082  1.00  0.00     0.158 A 
BRANCH  15  18
ATOM     18  O   UNL     1       2.001 138.962 159.698  1.00  0.00    -0.504 OA
ATOM     19  H   UNL     1       2.799 139.401 160.141  1.00  0.00     0.293 HD
ENDBRANCH  15  18
BRANCH  17  20
ATOM     20  O   UNL     1       0.888 136.432 160.271  1.00  0.00    -0.504 OA
ATOM     21  H   UNL     1      -0.116 136.559 160.328  1.00  0.00     0.293 HD
ENDBRANCH  17  20
ENDBRANCH   1  12
BRANCH   6  22
ATOM     22  O   UNL     1       2.856 130.436 153.037  1.00  0.00    -0.507 OA
ATOM     23  H   UNL     1       2.351 129.990 153.789  1.00  0.00     0.293 HD
ENDBRANCH   6  22
BRANCH   8  24
ATOM     24  O   UNL     1       6.064 133.512 151.220  1.00  0.00    -0.508 OA
ATOM     25  H   UNL     1       5.907 134.192 150.485  1.00  0.00     0.293 HD
ENDBRANCH   8  24
TORSDOF 5
ENDMDL
