MODEL 1
REMARK VINA RESULT:    -4.339      0.000      0.000
REMARK INTER + INTRA:         -12.867
REMARK INTER:                  -9.918
REMARK INTRA:                  -2.949
REMARK UNBOUND:                -2.949
REMARK SMILES CCCCCCCCCCCCCCCCCCCCCCCC(=O)[O-]
REMARK SMILES IDX 13 1 14 2 15 3 16 4 17 5 18 6 19 7 20 8 21 9 22 10 23 11
REMARK SMILES IDX 24 12 25 13 26 14 12 15 11 16 10 17 9 18 8 19 7 20 6 21 5 22
REMARK SMILES IDX 4 23 3 24 2 25 1 26
REMARK H PARENT
REMARK Flexibility Score: inf
ROOT
ATOM      1  C   UNL     1       0.749   3.035   8.018  1.00  0.00     0.000 C 
ENDROOT
BRANCH   1   2
ATOM      2  C   UNL     1       0.530   3.560   9.447  1.00  0.00     0.000 C 
BRANCH   2   3
ATOM      3  C   UNL     1      -0.815   3.120  10.044  1.00  0.00     0.000 C 
BRANCH   3   4
ATOM      4  C   UNL     1      -1.675   2.330   9.041  1.00  0.00     0.000 C 
BRANCH   4   5
ATOM      5  C   UNL     1      -2.516   1.230   9.713  1.00  0.00     0.000 C 
BRANCH   5   6
ATOM      6  C   UNL     1      -2.400  -0.168   9.069  1.00  0.00     0.000 C 
BRANCH   6   7
ATOM      7  C   UNL     1      -1.996  -0.137   7.579  1.00  0.00     0.000 C 
BRANCH   7   8
ATOM      8  C   UNL     1      -0.866  -1.130   7.259  1.00  0.00     0.000 C 
BRANCH   8   9
ATOM      9  C   UNL     1       0.435  -0.393   6.920  1.00  0.00     0.000 C 
BRANCH   9  10
ATOM     10  C   UNL     1       0.639  -0.307   5.399  1.00  0.00     0.006 C 
BRANCH  10  11
ATOM     11  C   UNL     1       1.252   1.035   4.971  1.00  0.00     0.053 C 
BRANCH  11  12
ATOM     12  C   UNL     1       0.232   1.941   4.352  1.00  0.00     0.041 C 
ATOM     13  O   UNL     1      -0.927   2.017   4.839  1.00  0.00    -0.550 OA
ATOM     14  O   UNL     1       0.556   2.684   3.223  1.00  0.00    -0.550 OA
ENDBRANCH  11  12
ENDBRANCH  10  11
ENDBRANCH   9  10
ENDBRANCH   8   9
ENDBRANCH   7   8
ENDBRANCH   6   7
ENDBRANCH   5   6
ENDBRANCH   4   5
ENDBRANCH   3   4
ENDBRANCH   2   3
ENDBRANCH   1   2
BRANCH   1  15
ATOM     15  C   UNL     1       1.866   3.795   7.273  1.00  0.00     0.000 C 
BRANCH  15  16
ATOM     16  C   UNL     1       2.853   4.527   8.203  1.00  0.00     0.000 C 
BRANCH  16  17
ATOM     17  C   UNL     1       3.112   6.004   7.851  1.00  0.00     0.000 C 
BRANCH  17  18
ATOM     18  C   UNL     1       2.207   7.023   8.576  1.00  0.00    -0.000 C 
BRANCH  18  19
ATOM     19  C   UNL     1       2.822   8.420   8.774  1.00  0.00    -0.000 C 
BRANCH  19  20
ATOM     20  C   UNL     1       3.910   8.448   9.857  1.00  0.00    -0.000 C 
BRANCH  20  21
ATOM     21  C   UNL     1       5.285   8.725   9.238  1.00  0.00    -0.000 C 
BRANCH  21  22
ATOM     22  C   UNL     1       6.128   7.445   9.169  1.00  0.00    -0.000 C 
BRANCH  22  23
ATOM     23  C   UNL     1       6.651   7.210   7.745  1.00  0.00    -0.000 C 
BRANCH  23  24
ATOM     24  C   UNL     1       6.498   8.446   6.843  1.00  0.00    -0.000 C 
BRANCH  24  25
ATOM     25  C   UNL     1       5.737   8.139   5.543  1.00  0.00    -0.003 C 
ATOM     26  C   UNL     1       4.394   8.863   5.508  1.00  0.00     0.004 C 
ENDBRANCH  24  25
ENDBRANCH  23  24
ENDBRANCH  22  23
ENDBRANCH  21  22
ENDBRANCH  20  21
ENDBRANCH  19  20
ENDBRANCH  18  19
ENDBRANCH  17  18
ENDBRANCH  16  17
ENDBRANCH  15  16
ENDBRANCH   1  15
TORSDOF 22
ENDMDL
MODEL 2
REMARK VINA RESULT:    -4.013      2.625      9.024
REMARK INTER + INTRA:         -12.123
REMARK INTER:                  -9.643
REMARK INTRA:                  -2.480
REMARK UNBOUND:                -2.949
REMARK SMILES CCCCCCCCCCCCCCCCCCCCCCCC(=O)[O-]
REMARK SMILES IDX 13 1 14 2 15 3 16 4 17 5 18 6 19 7 20 8 21 9 22 10 23 11
REMARK SMILES IDX 24 12 25 13 26 14 12 15 11 16 10 17 9 18 8 19 7 20 6 21 5 22
REMARK SMILES IDX 4 23 3 24 2 25 1 26
REMARK H PARENT
REMARK Flexibility Score: inf
ROOT
ATOM      1  C   UNL     1       0.577   3.780   9.543  1.00  0.00     0.000 C 
ENDROOT
BRANCH   1   2
ATOM      2  C   UNL     1       1.050   3.165   8.214  1.00  0.00     0.000 C 
BRANCH   2   3
ATOM      3  C   UNL     1       2.117   4.018   7.510  1.00  0.00     0.000 C 
BRANCH   3   4
ATOM      4  C   UNL     1       2.788   5.026   8.461  1.00  0.00     0.000 C 
BRANCH   4   5
ATOM      5  C   UNL     1       2.761   6.466   7.920  1.00  0.00     0.000 C 
BRANCH   5   6
ATOM      6  C   UNL     1       3.919   7.367   8.400  1.00  0.00     0.000 C 
BRANCH   6   7
ATOM      7  C   UNL     1       5.139   6.585   8.932  1.00  0.00     0.000 C 
BRANCH   7   8
ATOM      8  C   UNL     1       6.472   7.206   8.482  1.00  0.00     0.000 C 
BRANCH   8   9
ATOM      9  C   UNL     1       6.376   7.736   7.046  1.00  0.00     0.000 C 
BRANCH   9  10
ATOM     10  C   UNL     1       6.890   9.182   6.956  1.00  0.00     0.006 C 
BRANCH  10  11
ATOM     11  C   UNL     1       6.816   9.735   5.525  1.00  0.00     0.053 C 
BRANCH  11  12
ATOM     12  C   UNL     1       6.890   8.644   4.501  1.00  0.00     0.041 C 
ATOM     13  O   UNL     1       8.006   8.260   4.063  1.00  0.00    -0.550 OA
ATOM     14  O   UNL     1       5.722   8.068   4.014  1.00  0.00    -0.550 OA
ENDBRANCH  11  12
ENDBRANCH  10  11
ENDBRANCH   9  10
ENDBRANCH   8   9
ENDBRANCH   7   8
ENDBRANCH   6   7
ENDBRANCH   5   6
ENDBRANCH   4   5
ENDBRANCH   3   4
ENDBRANCH   2   3
ENDBRANCH   1   2
BRANCH   1  15
ATOM     15  C   UNL     1      -0.793   3.231   9.994  1.00  0.00     0.000 C 
BRANCH  15  16
ATOM     16  C   UNL     1      -0.863   1.693  10.054  1.00  0.00     0.000 C 
BRANCH  16  17
ATOM     17  C   UNL     1      -2.248   1.087   9.760  1.00  0.00     0.000 C 
BRANCH  17  18
ATOM     18  C   UNL     1      -2.315  -0.454   9.798  1.00  0.00    -0.000 C 
BRANCH  18  19
ATOM     19  C   UNL     1      -2.691  -1.125   8.465  1.00  0.00    -0.000 C 
BRANCH  19  20
ATOM     20  C   UNL     1      -1.524  -1.896   7.832  1.00  0.00    -0.000 C 
BRANCH  20  21
ATOM     21  C   UNL     1      -0.206  -1.567   8.545  1.00  0.00    -0.000 C 
BRANCH  21  22
ATOM     22  C   UNL     1       0.674  -0.652   7.684  1.00  0.00    -0.000 C 
BRANCH  22  23
ATOM     23  C   UNL     1       0.112  -0.534   6.260  1.00  0.00    -0.000 C 
BRANCH  23  24
ATOM     24  C   UNL     1      -0.042   0.925   5.800  1.00  0.00    -0.000 C 
BRANCH  24  25
ATOM     25  C   UNL     1      -1.433   1.499   6.109  1.00  0.00    -0.003 C 
ATOM     26  C   UNL     1      -2.523   0.734   5.363  1.00  0.00     0.004 C 
ENDBRANCH  24  25
ENDBRANCH  23  24
ENDBRANCH  22  23
ENDBRANCH  21  22
ENDBRANCH  20  21
ENDBRANCH  19  20
ENDBRANCH  18  19
ENDBRANCH  17  18
ENDBRANCH  16  17
ENDBRANCH  15  16
ENDBRANCH   1  15
TORSDOF 22
ENDMDL
MODEL 3
REMARK VINA RESULT:    -4.011      3.419      9.332
REMARK INTER + INTRA:         -12.119
REMARK INTER:                  -9.827
REMARK INTRA:                  -2.292
REMARK UNBOUND:                -2.949
REMARK SMILES CCCCCCCCCCCCCCCCCCCCCCCC(=O)[O-]
REMARK SMILES IDX 13 1 14 2 15 3 16 4 17 5 18 6 19 7 20 8 21 9 22 10 23 11
REMARK SMILES IDX 24 12 25 13 26 14 12 15 11 16 10 17 9 18 8 19 7 20 6 21 5 22
REMARK SMILES IDX 4 23 3 24 2 25 1 26
REMARK H PARENT
REMARK Flexibility Score: inf
ROOT
ATOM      1  C   UNL     1       0.778   3.731   9.065  1.00  0.00     0.000 C 
ENDROOT
BRANCH   1   2
ATOM      2  C   UNL     1       1.772   4.641   9.808  1.00  0.00     0.000 C 
BRANCH   2   3
ATOM      3  C   UNL     1       1.425   6.132   9.681  1.00  0.00     0.000 C 
BRANCH   3   4
ATOM      4  C   UNL     1       2.674   7.016   9.513  1.00  0.00     0.000 C 
BRANCH   4   5
ATOM      5  C   UNL     1       2.637   7.862   8.228  1.00  0.00     0.000 C 
BRANCH   5   6
ATOM      6  C   UNL     1       3.779   7.583   7.228  1.00  0.00     0.000 C 
BRANCH   6   7
ATOM      7  C   UNL     1       5.181   7.951   7.762  1.00  0.00     0.000 C 
BRANCH   7   8
ATOM      8  C   UNL     1       6.062   8.607   6.686  1.00  0.00     0.000 C 
BRANCH   8   9
ATOM      9  C   UNL     1       5.630   8.171   5.280  1.00  0.00     0.000 C 
BRANCH   9  10
ATOM     10  C   UNL     1       6.329   9.016   4.203  1.00  0.00     0.006 C 
BRANCH  10  11
ATOM     11  C   UNL     1       7.841   8.749   4.148  1.00  0.00     0.053 C 
BRANCH  11  12
ATOM     12  C   UNL     1       8.508   9.546   3.068  1.00  0.00     0.041 C 
ATOM     13  O   UNL     1       9.756   9.711   3.081  1.00  0.00    -0.550 OA
ATOM     14  O   UNL     1       7.746  10.125   2.059  1.00  0.00    -0.550 OA
ENDBRANCH  11  12
ENDBRANCH  10  11
ENDBRANCH   9  10
ENDBRANCH   8   9
ENDBRANCH   7   8
ENDBRANCH   6   7
ENDBRANCH   5   6
ENDBRANCH   4   5
ENDBRANCH   3   4
ENDBRANCH   2   3
ENDBRANCH   1   2
BRANCH   1  15
ATOM     15  C   UNL     1      -0.213   3.032  10.020  1.00  0.00     0.000 C 
BRANCH  15  16
ATOM     16  C   UNL     1      -1.617   2.821   9.421  1.00  0.00     0.000 C 
BRANCH  16  17
ATOM     17  C   UNL     1      -2.397   1.619   9.986  1.00  0.00     0.000 C 
BRANCH  17  18
ATOM     18  C   UNL     1      -1.740   0.241   9.758  1.00  0.00    -0.000 C 
BRANCH  18  19
ATOM     19  C   UNL     1      -2.416  -0.637   8.690  1.00  0.00    -0.000 C 
BRANCH  19  20
ATOM     20  C   UNL     1      -1.470  -1.688   8.092  1.00  0.00    -0.000 C 
BRANCH  20  21
ATOM     21  C   UNL     1      -0.020  -1.188   8.114  1.00  0.00    -0.000 C 
BRANCH  21  22
ATOM     22  C   UNL     1       0.404  -0.660   6.737  1.00  0.00    -0.000 C 
BRANCH  22  23
ATOM     23  C   UNL     1       0.560   0.867   6.762  1.00  0.00    -0.000 C 
BRANCH  23  24
ATOM     24  C   UNL     1      -0.705   1.603   6.291  1.00  0.00    -0.000 C 
BRANCH  24  25
ATOM     25  C   UNL     1      -1.368   0.926   5.081  1.00  0.00    -0.003 C 
ATOM     26  C   UNL     1      -2.849   0.659   5.343  1.00  0.00     0.004 C 
ENDBRANCH  24  25
ENDBRANCH  23  24
ENDBRANCH  22  23
ENDBRANCH  21  22
ENDBRANCH  20  21
ENDBRANCH  19  20
ENDBRANCH  18  19
ENDBRANCH  17  18
ENDBRANCH  16  17
ENDBRANCH  15  16
ENDBRANCH   1  15
TORSDOF 22
ENDMDL
MODEL 4
REMARK VINA RESULT:    -3.979      2.554      3.746
REMARK INTER + INTRA:         -12.045
REMARK INTER:                  -9.604
REMARK INTRA:                  -2.442
REMARK UNBOUND:                -2.949
REMARK SMILES CCCCCCCCCCCCCCCCCCCCCCCC(=O)[O-]
REMARK SMILES IDX 13 1 14 2 15 3 16 4 17 5 18 6 19 7 20 8 21 9 22 10 23 11
REMARK SMILES IDX 24 12 25 13 26 14 12 15 11 16 10 17 9 18 8 19 7 20 6 21 5 22
REMARK SMILES IDX 4 23 3 24 2 25 1 26
REMARK H PARENT
REMARK Flexibility Score: inf
ROOT
ATOM      1  C   UNL     1       0.741   3.322   8.432  1.00  0.00     0.000 C 
ENDROOT
BRANCH   1   2
ATOM      2  C   UNL     1       1.549   3.081   7.145  1.00  0.00     0.000 C 
BRANCH   2   3
ATOM      3  C   UNL     1       1.137   1.793   6.416  1.00  0.00     0.000 C 
BRANCH   3   4
ATOM      4  C   UNL     1       0.215   2.065   5.213  1.00  0.00     0.000 C 
BRANCH   4   5
ATOM      5  C   UNL     1      -0.654   0.851   4.840  1.00  0.00     0.000 C 
BRANCH   5   6
ATOM      6  C   UNL     1      -2.077   0.858   5.436  1.00  0.00     0.000 C 
BRANCH   6   7
ATOM      7  C   UNL     1      -2.218   1.720   6.709  1.00  0.00     0.000 C 
BRANCH   7   8
ATOM      8  C   UNL     1      -2.019   0.901   7.995  1.00  0.00     0.000 C 
BRANCH   8   9
ATOM      9  C   UNL     1      -2.192  -0.599   7.724  1.00  0.00     0.000 C 
BRANCH   9  10
ATOM     10  C   UNL     1      -1.411  -1.437   8.748  1.00  0.00     0.006 C 
BRANCH  10  11
ATOM     11  C   UNL     1       0.079  -1.548   8.390  1.00  0.00     0.053 C 
BRANCH  11  12
ATOM     12  C   UNL     1       0.800  -2.498   9.297  1.00  0.00     0.041 C 
ATOM     13  O   UNL     1       0.244  -3.564   9.671  1.00  0.00    -0.550 OA
ATOM     14  O   UNL     1       2.080  -2.193   9.747  1.00  0.00    -0.550 OA
ENDBRANCH  11  12
ENDBRANCH  10  11
ENDBRANCH   9  10
ENDBRANCH   8   9
ENDBRANCH   7   8
ENDBRANCH   6   7
ENDBRANCH   5   6
ENDBRANCH   4   5
ENDBRANCH   3   4
ENDBRANCH   2   3
ENDBRANCH   1   2
BRANCH   1  15
ATOM     15  C   UNL     1       1.439   4.309   9.392  1.00  0.00     0.000 C 
BRANCH  15  16
ATOM     16  C   UNL     1       1.681   5.705   8.786  1.00  0.00     0.000 C 
BRANCH  16  17
ATOM     17  C   UNL     1       3.161   6.087   8.591  1.00  0.00     0.000 C 
BRANCH  17  18
ATOM     18  C   UNL     1       4.167   5.282   9.440  1.00  0.00    -0.000 C 
BRANCH  18  19
ATOM     19  C   UNL     1       5.645   5.658   9.236  1.00  0.00    -0.000 C 
BRANCH  19  20
ATOM     20  C   UNL     1       6.051   6.928   9.998  1.00  0.00    -0.000 C 
BRANCH  20  21
ATOM     21  C   UNL     1       6.801   7.897   9.077  1.00  0.00    -0.000 C 
BRANCH  21  22
ATOM     22  C   UNL     1       6.900   7.341   7.651  1.00  0.00    -0.000 C 
BRANCH  22  23
ATOM     23  C   UNL     1       6.705   8.456   6.614  1.00  0.00    -0.000 C 
BRANCH  23  24
ATOM     24  C   UNL     1       5.593   8.138   5.601  1.00  0.00    -0.000 C 
BRANCH  24  25
ATOM     25  C   UNL     1       4.194   8.500   6.124  1.00  0.00    -0.003 C 
ATOM     26  C   UNL     1       4.240   9.752   6.997  1.00  0.00     0.004 C 
ENDBRANCH  24  25
ENDBRANCH  23  24
ENDBRANCH  22  23
ENDBRANCH  21  22
ENDBRANCH  20  21
ENDBRANCH  19  20
ENDBRANCH  18  19
ENDBRANCH  17  18
ENDBRANCH  16  17
ENDBRANCH  15  16
ENDBRANCH   1  15
TORSDOF 22
ENDMDL
MODEL 5
REMARK VINA RESULT:    -3.857      0.954      2.153
REMARK INTER + INTRA:         -11.767
REMARK INTER:                  -9.385
REMARK INTRA:                  -2.381
REMARK UNBOUND:                -2.949
REMARK SMILES CCCCCCCCCCCCCCCCCCCCCCCC(=O)[O-]
REMARK SMILES IDX 13 1 14 2 15 3 16 4 17 5 18 6 19 7 20 8 21 9 22 10 23 11
REMARK SMILES IDX 24 12 25 13 26 14 12 15 11 16 10 17 9 18 8 19 7 20 6 21 5 22
REMARK SMILES IDX 4 23 3 24 2 25 1 26
REMARK H PARENT
REMARK Flexibility Score: inf
ROOT
ATOM      1  C   UNL     1       2.062   4.110   7.465  1.00  0.00     0.000 C 
ENDROOT
BRANCH   1   2
ATOM      2  C   UNL     1       1.022   3.199   8.141  1.00  0.00     0.000 C 
BRANCH   2   3
ATOM      3  C   UNL     1       0.620   3.689   9.540  1.00  0.00     0.000 C 
BRANCH   3   4
ATOM      4  C   UNL     1      -0.830   3.318   9.900  1.00  0.00     0.000 C 
BRANCH   4   5
ATOM      5  C   UNL     1      -1.082   1.800   9.875  1.00  0.00     0.000 C 
BRANCH   5   6
ATOM      6  C   UNL     1      -2.238   1.343   8.961  1.00  0.00     0.000 C 
BRANCH   6   7
ATOM      7  C   UNL     1      -2.317  -0.187   8.771  1.00  0.00     0.000 C 
BRANCH   7   8
ATOM      8  C   UNL     1      -1.983  -0.616   7.332  1.00  0.00     0.000 C 
BRANCH   8   9
ATOM      9  C   UNL     1      -0.539  -1.123   7.231  1.00  0.00     0.000 C 
BRANCH   9  10
ATOM     10  C   UNL     1       0.407  -0.003   6.769  1.00  0.00     0.006 C 
BRANCH  10  11
ATOM     11  C   UNL     1       0.414   0.156   5.241  1.00  0.00     0.053 C 
BRANCH  11  12
ATOM     12  C   UNL     1      -0.076   1.508   4.820  1.00  0.00     0.041 C 
ATOM     13  O   UNL     1      -1.211   1.914   5.188  1.00  0.00    -0.550 OA
ATOM     14  O   UNL     1       0.712   2.310   4.002  1.00  0.00    -0.550 OA
ENDBRANCH  11  12
ENDBRANCH  10  11
ENDBRANCH   9  10
ENDBRANCH   8   9
ENDBRANCH   7   8
ENDBRANCH   6   7
ENDBRANCH   5   6
ENDBRANCH   4   5
ENDBRANCH   3   4
ENDBRANCH   2   3
ENDBRANCH   1   2
BRANCH   1  15
ATOM     15  C   UNL     1       3.037   4.748   8.478  1.00  0.00     0.000 C 
BRANCH  15  16
ATOM     16  C   UNL     1       3.240   6.263   8.281  1.00  0.00     0.000 C 
BRANCH  16  17
ATOM     17  C   UNL     1       2.479   7.161   9.276  1.00  0.00     0.000 C 
BRANCH  17  18
ATOM     18  C   UNL     1       1.929   8.477   8.688  1.00  0.00    -0.000 C 
BRANCH  18  19
ATOM     19  C   UNL     1       1.389   8.377   7.250  1.00  0.00    -0.000 C 
BRANCH  19  20
ATOM     20  C   UNL     1       1.995   9.426   6.307  1.00  0.00    -0.000 C 
BRANCH  20  21
ATOM     21  C   UNL     1       3.492   9.607   6.588  1.00  0.00    -0.000 C 
BRANCH  21  22
ATOM     22  C   UNL     1       4.337   8.690   5.694  1.00  0.00    -0.000 C 
BRANCH  22  23
ATOM     23  C   UNL     1       5.813   9.112   5.718  1.00  0.00    -0.000 C 
BRANCH  23  24
ATOM     24  C   UNL     1       6.752   7.970   6.139  1.00  0.00    -0.000 C 
BRANCH  24  25
ATOM     25  C   UNL     1       6.368   7.357   7.495  1.00  0.00    -0.003 C 
ATOM     26  C   UNL     1       7.348   7.778   8.587  1.00  0.00     0.004 C 
ENDBRANCH  24  25
ENDBRANCH  23  24
ENDBRANCH  22  23
ENDBRANCH  21  22
ENDBRANCH  20  21
ENDBRANCH  19  20
ENDBRANCH  18  19
ENDBRANCH  17  18
ENDBRANCH  16  17
ENDBRANCH  15  16
ENDBRANCH   1  15
TORSDOF 22
ENDMDL
MODEL 6
REMARK VINA RESULT:    -3.850      1.066      2.295
REMARK INTER + INTRA:         -11.749
REMARK INTER:                  -9.347
REMARK INTRA:                  -2.402
REMARK UNBOUND:                -2.949
REMARK SMILES CCCCCCCCCCCCCCCCCCCCCCCC(=O)[O-]
REMARK SMILES IDX 13 1 14 2 15 3 16 4 17 5 18 6 19 7 20 8 21 9 22 10 23 11
REMARK SMILES IDX 24 12 25 13 26 14 12 15 11 16 10 17 9 18 8 19 7 20 6 21 5 22
REMARK SMILES IDX 4 23 3 24 2 25 1 26
REMARK H PARENT
REMARK Flexibility Score: inf
ROOT
ATOM      1  C   UNL     1       2.132   4.200   7.485  1.00  0.00     0.000 C 
ENDROOT
BRANCH   1   2
ATOM      2  C   UNL     1       1.352   3.856   8.766  1.00  0.00     0.000 C 
BRANCH   2   3
ATOM      3  C   UNL     1       0.376   2.685   8.572  1.00  0.00     0.000 C 
BRANCH   3   4
ATOM      4  C   UNL     1      -0.814   2.743   9.547  1.00  0.00     0.000 C 
BRANCH   4   5
ATOM      5  C   UNL     1      -2.099   2.134   8.958  1.00  0.00     0.000 C 
BRANCH   5   6
ATOM      6  C   UNL     1      -2.720   0.990   9.787  1.00  0.00     0.000 C 
BRANCH   6   7
ATOM      7  C   UNL     1      -2.213  -0.414   9.394  1.00  0.00     0.000 C 
BRANCH   7   8
ATOM      8  C   UNL     1      -2.250  -0.643   7.874  1.00  0.00     0.000 C 
BRANCH   8   9
ATOM      9  C   UNL     1      -0.973  -1.344   7.392  1.00  0.00     0.000 C 
BRANCH   9  10
ATOM     10  C   UNL     1      -0.045  -0.359   6.664  1.00  0.00     0.006 C 
BRANCH  10  11
ATOM     11  C   UNL     1      -0.828   0.676   5.843  1.00  0.00     0.053 C 
BRANCH  11  12
ATOM     12  C   UNL     1       0.078   1.516   4.996  1.00  0.00     0.041 C 
ATOM     13  O   UNL     1      -0.404   2.368   4.204  1.00  0.00    -0.550 OA
ATOM     14  O   UNL     1       1.455   1.341   5.066  1.00  0.00    -0.550 OA
ENDBRANCH  11  12
ENDBRANCH  10  11
ENDBRANCH   9  10
ENDBRANCH   8   9
ENDBRANCH   7   8
ENDBRANCH   6   7
ENDBRANCH   5   6
ENDBRANCH   4   5
ENDBRANCH   3   4
ENDBRANCH   2   3
ENDBRANCH   1   2
BRANCH   1  15
ATOM     15  C   UNL     1       3.063   5.417   7.668  1.00  0.00     0.000 C 
BRANCH  15  16
ATOM     16  C   UNL     1       2.418   6.589   8.433  1.00  0.00     0.000 C 
BRANCH  16  17
ATOM     17  C   UNL     1       3.281   7.191   9.558  1.00  0.00     0.000 C 
BRANCH  17  18
ATOM     18  C   UNL     1       4.409   8.135   9.091  1.00  0.00    -0.000 C 
BRANCH  18  19
ATOM     19  C   UNL     1       5.769   7.458   8.843  1.00  0.00    -0.000 C 
BRANCH  19  20
ATOM     20  C   UNL     1       6.153   7.409   7.358  1.00  0.00    -0.000 C 
BRANCH  20  21
ATOM     21  C   UNL     1       6.759   8.745   6.910  1.00  0.00    -0.000 C 
BRANCH  21  22
ATOM     22  C   UNL     1       6.965   8.778   5.390  1.00  0.00    -0.000 C 
BRANCH  22  23
ATOM     23  C   UNL     1       5.673   8.393   4.655  1.00  0.00    -0.000 C 
BRANCH  23  24
ATOM     24  C   UNL     1       4.992   9.595   3.981  1.00  0.00    -0.000 C 
BRANCH  24  25
ATOM     25  C   UNL     1       3.503   9.712   4.344  1.00  0.00    -0.003 C 
ATOM     26  C   UNL     1       3.272   9.413   5.823  1.00  0.00     0.004 C 
ENDBRANCH  24  25
ENDBRANCH  23  24
ENDBRANCH  22  23
ENDBRANCH  21  22
ENDBRANCH  20  21
ENDBRANCH  19  20
ENDBRANCH  18  19
ENDBRANCH  17  18
ENDBRANCH  16  17
ENDBRANCH  15  16
ENDBRANCH   1  15
TORSDOF 22
ENDMDL
MODEL 7
REMARK VINA RESULT:    -3.844      3.029      9.467
REMARK INTER + INTRA:         -11.735
REMARK INTER:                  -9.288
REMARK INTRA:                  -2.448
REMARK UNBOUND:                -2.949
REMARK SMILES CCCCCCCCCCCCCCCCCCCCCCCC(=O)[O-]
REMARK SMILES IDX 13 1 14 2 15 3 16 4 17 5 18 6 19 7 20 8 21 9 22 10 23 11
REMARK SMILES IDX 24 12 25 13 26 14 12 15 11 16 10 17 9 18 8 19 7 20 6 21 5 22
REMARK SMILES IDX 4 23 3 24 2 25 1 26
REMARK H PARENT
REMARK Flexibility Score: inf
ROOT
ATOM      1  C   UNL     1       1.136   1.667   5.892  1.00  0.00     0.000 C 
ENDROOT
BRANCH   1   2
ATOM      2  C   UNL     1       0.683   2.310   7.214  1.00  0.00     0.000 C 
BRANCH   2   3
ATOM      3  C   UNL     1       1.537   3.525   7.609  1.00  0.00     0.000 C 
BRANCH   3   4
ATOM      4  C   UNL     1       1.308   3.957   9.069  1.00  0.00     0.000 C 
BRANCH   4   5
ATOM      5  C   UNL     1       2.185   5.153   9.482  1.00  0.00     0.000 C 
BRANCH   5   6
ATOM      6  C   UNL     1       1.618   6.539   9.111  1.00  0.00     0.000 C 
BRANCH   6   7
ATOM      7  C   UNL     1       2.467   7.720   9.626  1.00  0.00     0.000 C 
BRANCH   7   8
ATOM      8  C   UNL     1       2.339   8.966   8.734  1.00  0.00     0.000 C 
BRANCH   8   9
ATOM      9  C   UNL     1       2.381   8.586   7.248  1.00  0.00     0.000 C 
BRANCH   9  10
ATOM     10  C   UNL     1       3.705   9.026   6.604  1.00  0.00     0.006 C 
BRANCH  10  11
ATOM     11  C   UNL     1       4.733   7.886   6.557  1.00  0.00     0.053 C 
BRANCH  11  12
ATOM     12  C   UNL     1       5.906   8.230   5.690  1.00  0.00     0.041 C 
ATOM     13  O   UNL     1       5.974   7.790   4.512  1.00  0.00    -0.550 OA
ATOM     14  O   UNL     1       6.936   9.017   6.193  1.00  0.00    -0.550 OA
ENDBRANCH  11  12
ENDBRANCH  10  11
ENDBRANCH   9  10
ENDBRANCH   8   9
ENDBRANCH   7   8
ENDBRANCH   6   7
ENDBRANCH   5   6
ENDBRANCH   4   5
ENDBRANCH   3   4
ENDBRANCH   2   3
ENDBRANCH   1   2
BRANCH   1  15
ATOM     15  C   UNL     1       0.093   0.680   5.326  1.00  0.00     0.000 C 
BRANCH  15  16
ATOM     16  C   UNL     1      -1.306   1.294   5.130  1.00  0.00     0.000 C 
BRANCH  16  17
ATOM     17  C   UNL     1      -2.396   0.756   6.077  1.00  0.00     0.000 C 
BRANCH  17  18
ATOM     18  C   UNL     1      -1.952  -0.390   7.010  1.00  0.00    -0.000 C 
BRANCH  18  19
ATOM     19  C   UNL     1      -2.281  -0.187   8.499  1.00  0.00    -0.000 C 
BRANCH  19  20
ATOM     20  C   UNL     1      -1.098  -0.506   9.423  1.00  0.00    -0.000 C 
BRANCH  20  21
ATOM     21  C   UNL     1       0.087  -1.055   8.618  1.00  0.00    -0.000 C 
BRANCH  21  22
ATOM     22  C   UNL     1       0.413  -2.497   9.028  1.00  0.00    -0.000 C 
BRANCH  22  23
ATOM     23  C   UNL     1      -0.545  -2.984  10.125  1.00  0.00    -0.000 C 
BRANCH  23  24
ATOM     24  C   UNL     1      -1.177  -4.347   9.801  1.00  0.00    -0.000 C 
BRANCH  24  25
ATOM     25  C   UNL     1      -2.254  -4.256   8.708  1.00  0.00    -0.003 C 
ATOM     26  C   UNL     1      -3.576  -3.749   9.279  1.00  0.00     0.004 C 
ENDBRANCH  24  25
ENDBRANCH  23  24
ENDBRANCH  22  23
ENDBRANCH  21  22
ENDBRANCH  20  21
ENDBRANCH  19  20
ENDBRANCH  18  19
ENDBRANCH  17  18
ENDBRANCH  16  17
ENDBRANCH  15  16
ENDBRANCH   1  15
TORSDOF 22
ENDMDL
MODEL 8
REMARK VINA RESULT:    -3.772      1.243      2.027
REMARK INTER + INTRA:         -11.573
REMARK INTER:                  -9.411
REMARK INTRA:                  -2.162
REMARK UNBOUND:                -2.949
REMARK SMILES CCCCCCCCCCCCCCCCCCCCCCCC(=O)[O-]
REMARK SMILES IDX 13 1 14 2 15 3 16 4 17 5 18 6 19 7 20 8 21 9 22 10 23 11
REMARK SMILES IDX 24 12 25 13 26 14 12 15 11 16 10 17 9 18 8 19 7 20 6 21 5 22
REMARK SMILES IDX 4 23 3 24 2 25 1 26
REMARK H PARENT
REMARK Flexibility Score: inf
ROOT
ATOM      1  C   UNL     1       1.164   3.393   8.249  1.00  0.00     0.000 C 
ENDROOT
BRANCH   1   2
ATOM      2  C   UNL     1      -0.151   2.595   8.260  1.00  0.00     0.000 C 
BRANCH   2   3
ATOM      3  C   UNL     1      -0.864   2.641   9.620  1.00  0.00     0.000 C 
BRANCH   3   4
ATOM      4  C   UNL     1      -2.377   2.383   9.502  1.00  0.00     0.000 C 
BRANCH   4   5
ATOM      5  C   UNL     1      -2.796   1.015  10.067  1.00  0.00     0.000 C 
BRANCH   5   6
ATOM      6  C   UNL     1      -1.693  -0.064  10.054  1.00  0.00     0.000 C 
BRANCH   6   7
ATOM      7  C   UNL     1      -2.195  -1.467   9.649  1.00  0.00     0.000 C 
BRANCH   7   8
ATOM      8  C   UNL     1      -1.673  -1.898   8.269  1.00  0.00     0.000 C 
BRANCH   8   9
ATOM      9  C   UNL     1      -0.492  -1.024   7.829  1.00  0.00     0.000 C 
BRANCH   9  10
ATOM     10  C   UNL     1      -0.733  -0.436   6.429  1.00  0.00     0.006 C 
BRANCH  10  11
ATOM     11  C   UNL     1       0.548   0.151   5.818  1.00  0.00     0.053 C 
BRANCH  11  12
ATOM     12  C   UNL     1       0.251   1.284   4.884  1.00  0.00     0.041 C 
ATOM     13  O   UNL     1       1.103   1.637   4.026  1.00  0.00    -0.550 OA
ATOM     14  O   UNL     1      -0.957   1.964   4.978  1.00  0.00    -0.550 OA
ENDBRANCH  11  12
ENDBRANCH  10  11
ENDBRANCH   9  10
ENDBRANCH   8   9
ENDBRANCH   7   8
ENDBRANCH   6   7
ENDBRANCH   5   6
ENDBRANCH   4   5
ENDBRANCH   3   4
ENDBRANCH   2   3
ENDBRANCH   1   2
BRANCH   1  15
ATOM     15  C   UNL     1       1.383   4.192   9.551  1.00  0.00     0.000 C 
BRANCH  15  16
ATOM     16  C   UNL     1       1.779   5.663   9.323  1.00  0.00     0.000 C 
BRANCH  16  17
ATOM     17  C   UNL     1       2.916   5.887   8.308  1.00  0.00     0.000 C 
BRANCH  17  18
ATOM     18  C   UNL     1       4.268   5.244   8.680  1.00  0.00    -0.000 C 
BRANCH  18  19
ATOM     19  C   UNL     1       4.989   5.883   9.879  1.00  0.00    -0.000 C 
BRANCH  19  20
ATOM     20  C   UNL     1       5.731   7.177   9.512  1.00  0.00    -0.000 C 
BRANCH  20  21
ATOM     21  C   UNL     1       6.460   7.023   8.172  1.00  0.00    -0.000 C 
BRANCH  21  22
ATOM     22  C   UNL     1       6.290   8.275   7.303  1.00  0.00    -0.000 C 
BRANCH  22  23
ATOM     23  C   UNL     1       5.325   8.007   6.139  1.00  0.00    -0.000 C 
BRANCH  23  24
ATOM     24  C   UNL     1       5.986   8.191   4.763  1.00  0.00    -0.000 C 
BRANCH  24  25
ATOM     25  C   UNL     1       7.308   8.972   4.841  1.00  0.00    -0.003 C 
ATOM     26  C   UNL     1       7.902   9.186   3.451  1.00  0.00     0.004 C 
ENDBRANCH  24  25
ENDBRANCH  23  24
ENDBRANCH  22  23
ENDBRANCH  21  22
ENDBRANCH  20  21
ENDBRANCH  19  20
ENDBRANCH  18  19
ENDBRANCH  17  18
ENDBRANCH  16  17
ENDBRANCH  15  16
ENDBRANCH   1  15
TORSDOF 22
ENDMDL
MODEL 9
REMARK VINA RESULT:    -3.673      1.266      3.121
REMARK INTER + INTRA:         -11.345
REMARK INTER:                  -8.323
REMARK INTRA:                  -3.022
REMARK UNBOUND:                -2.949
REMARK SMILES CCCCCCCCCCCCCCCCCCCCCCCC(=O)[O-]
REMARK SMILES IDX 13 1 14 2 15 3 16 4 17 5 18 6 19 7 20 8 21 9 22 10 23 11
REMARK SMILES IDX 24 12 25 13 26 14 12 15 11 16 10 17 9 18 8 19 7 20 6 21 5 22
REMARK SMILES IDX 4 23 3 24 2 25 1 26
REMARK H PARENT
REMARK Flexibility Score: inf
ROOT
ATOM      1  C   UNL     1       2.955   4.782   7.978  1.00  0.00     0.000 C 
ENDROOT
BRANCH   1   2
ATOM      2  C   UNL     1       1.540   4.267   8.297  1.00  0.00     0.000 C 
BRANCH   2   3
ATOM      3  C   UNL     1       1.264   4.182   9.806  1.00  0.00     0.000 C 
BRANCH   3   4
ATOM      4  C   UNL     1      -0.224   3.942  10.120  1.00  0.00     0.000 C 
BRANCH   4   5
ATOM      5  C   UNL     1      -0.666   2.494   9.846  1.00  0.00     0.000 C 
BRANCH   5   6
ATOM      6  C   UNL     1      -1.336   2.263   8.475  1.00  0.00     0.000 C 
BRANCH   6   7
ATOM      7  C   UNL     1      -1.873   0.829   8.275  1.00  0.00     0.000 C 
BRANCH   7   8
ATOM      8  C   UNL     1      -0.902  -0.238   8.808  1.00  0.00     0.000 C 
BRANCH   8   9
ATOM      9  C   UNL     1       0.180  -0.565   7.770  1.00  0.00     0.000 C 
BRANCH   9  10
ATOM     10  C   UNL     1      -0.350  -0.365   6.342  1.00  0.00     0.006 C 
BRANCH  10  11
ATOM     11  C   UNL     1       0.627   0.436   5.468  1.00  0.00     0.053 C 
BRANCH  11  12
ATOM     12  C   UNL     1      -0.064   1.538   4.725  1.00  0.00     0.041 C 
ATOM     13  O   UNL     1      -1.289   1.759   4.915  1.00  0.00    -0.550 OA
ATOM     14  O   UNL     1       0.641   2.305   3.805  1.00  0.00    -0.550 OA
ENDBRANCH  11  12
ENDBRANCH  10  11
ENDBRANCH   9  10
ENDBRANCH   8   9
ENDBRANCH   7   8
ENDBRANCH   6   7
ENDBRANCH   5   6
ENDBRANCH   4   5
ENDBRANCH   3   4
ENDBRANCH   2   3
ENDBRANCH   1   2
BRANCH   1  15
ATOM     15  C   UNL     1       3.712   5.251   9.238  1.00  0.00     0.000 C 
BRANCH  15  16
ATOM     16  C   UNL     1       5.210   5.524   9.002  1.00  0.00     0.000 C 
BRANCH  16  17
ATOM     17  C   UNL     1       5.768   6.775   9.707  1.00  0.00     0.000 C 
BRANCH  17  18
ATOM     18  C   UNL     1       6.677   7.671   8.839  1.00  0.00    -0.000 C 
BRANCH  18  19
ATOM     19  C   UNL     1       6.500   7.506   7.320  1.00  0.00    -0.000 C 
BRANCH  19  20
ATOM     20  C   UNL     1       5.414   8.422   6.739  1.00  0.00    -0.000 C 
BRANCH  20  21
ATOM     21  C   UNL     1       5.051   9.531   7.734  1.00  0.00    -0.000 C 
BRANCH  21  22
ATOM     22  C   UNL     1       3.541   9.561   8.001  1.00  0.00    -0.000 C 
BRANCH  22  23
ATOM     23  C   UNL     1       2.845   8.360   7.346  1.00  0.00    -0.000 C 
BRANCH  23  24
ATOM     24  C   UNL     1       1.388   8.191   7.807  1.00  0.00    -0.000 C 
BRANCH  24  25
ATOM     25  C   UNL     1       1.272   7.920   9.316  1.00  0.00    -0.003 C 
ATOM     26  C   UNL     1      -0.183   7.971   9.773  1.00  0.00     0.004 C 
ENDBRANCH  24  25
ENDBRANCH  23  24
ENDBRANCH  22  23
ENDBRANCH  21  22
ENDBRANCH  20  21
ENDBRANCH  19  20
ENDBRANCH  18  19
ENDBRANCH  17  18
ENDBRANCH  16  17
ENDBRANCH  15  16
ENDBRANCH   1  15
TORSDOF 22
ENDMDL
