MODEL 1
REMARK VINA RESULT:     4.287      0.000      0.000
REMARK INTER + INTRA:           5.048
REMARK INTER:                   5.165
REMARK INTRA:                  -0.116
REMARK UNBOUND:                -0.116
REMARK SMILES O=c1c(O)c(-c2ccc(O)c(O)c2)oc2cc(O)cc(O)c12
REMARK SMILES IDX 5 1 3 2 2 3 1 4 22 5 20 6 19 7 17 8 16 9 15 10 14 11 6 12
REMARK SMILES IDX 7 13 8 14 9 15 13 16 11 17 10 18 12 20 4 22 21 24 18 26
REMARK H PARENT 10 19 12 21 4 23 21 25 18 27
REMARK Flexibility Score: inf
ROOT
ATOM      1  C   UNL     1       0.531 -31.097  -3.231  1.00  0.00     0.180 A 
ATOM      2  C   UNL     1      -0.734 -31.377  -3.777  1.00  0.00     0.208 A 
ATOM      3  C   UNL     1      -0.831 -31.699  -5.139  1.00  0.00     0.238 A 
ATOM      4  O   UNL     1      -1.959 -32.001  -5.610  1.00  0.00    -0.285 OA
ATOM      5  C   UNL     1       0.333 -31.721  -5.943  1.00  0.00     0.111 A 
ATOM      6  C   UNL     1       0.347 -31.995  -7.344  1.00  0.00     0.134 A 
ATOM      7  C   UNL     1       1.571 -32.119  -8.012  1.00  0.00     0.093 A 
ATOM      8  C   UNL     1       2.778 -31.916  -7.346  1.00  0.00     0.123 A 
ATOM      9  C   UNL     1       2.776 -31.588  -5.989  1.00  0.00     0.094 A 
ATOM     10  C   UNL     1       1.572 -31.493  -5.287  1.00  0.00     0.146 A 
ATOM     11  O   UNL     1       1.613 -31.191  -3.996  1.00  0.00    -0.452 OA
ENDROOT
BRANCH   1  12
ATOM     12  C   UNL     1       0.711 -30.726  -1.808  1.00  0.00     0.025 A 
ATOM     13  C   UNL     1       0.375 -31.649  -0.806  1.00  0.00     0.016 A 
ATOM     14  C   UNL     1       0.556 -31.327   0.542  1.00  0.00     0.051 A 
ATOM     15  C   UNL     1       1.089 -30.088   0.908  1.00  0.00     0.157 A 
ATOM     16  C   UNL     1       1.266 -29.487  -1.439  1.00  0.00     0.062 A 
ATOM     17  C   UNL     1       1.450 -29.164  -0.087  1.00  0.00     0.158 A 
BRANCH  15  18
ATOM     18  O   UNL     1       1.255 -29.795   2.261  1.00  0.00    -0.504 OA
ATOM     19  H   UNL     1       0.537 -29.997   2.947  1.00  0.00     0.293 HD
ENDBRANCH  15  18
BRANCH  17  20
ATOM     20  O   UNL     1       1.995 -27.931   0.271  1.00  0.00    -0.504 OA
ATOM     21  H   UNL     1       1.556 -27.337   0.963  1.00  0.00     0.293 HD
ENDBRANCH  17  20
ENDBRANCH   1  12
BRANCH   2  22
ATOM     22  O   UNL     1      -1.868 -31.371  -2.959  1.00  0.00    -0.502 OA
ATOM     23  H   UNL     1      -2.807 -31.426  -3.333  1.00  0.00     0.293 HD
ENDBRANCH   2  22
BRANCH   6  24
ATOM     24  O   UNL     1      -0.806 -32.125  -8.124  1.00  0.00    -0.507 OA
ATOM     25  H   UNL     1      -0.872 -32.678  -8.965  1.00  0.00     0.293 HD
ENDBRANCH   6  24
BRANCH   8  26
ATOM     26  O   UNL     1       3.978 -32.031  -8.046  1.00  0.00    -0.508 OA
ATOM     27  H   UNL     1       4.725 -31.356  -7.933  1.00  0.00     0.293 HD
ENDBRANCH   8  26
TORSDOF 6
ENDMDL
