MODEL 1
REMARK VINA RESULT:    10.619      0.000      0.000
REMARK INTER + INTRA:          12.847
REMARK INTER:                  12.792
REMARK INTRA:                   0.055
REMARK UNBOUND:                 0.055
REMARK SMILES O=c1c(O)c(-c2ccc(O)c(O)c2)oc2cc(O)cc(O)c12
REMARK SMILES IDX 5 1 3 2 2 3 1 4 22 5 20 6 19 7 17 8 16 9 15 10 14 11 6 12
REMARK SMILES IDX 7 13 8 14 9 15 13 16 11 17 10 18 12 20 4 22 21 24 18 26
REMARK H PARENT 10 19 12 21 4 23 21 25 18 27
REMARK Flexibility Score: inf
ROOT
ATOM      1  C   UNL     1      42.158  10.519   8.080  1.00  0.00     0.180 A 
ATOM      2  C   UNL     1      40.858  10.767   7.597  1.00  0.00     0.208 A 
ATOM      3  C   UNL     1      40.661  10.891   6.213  1.00  0.00     0.238 A 
ATOM      4  O   UNL     1      39.505  11.125   5.770  1.00  0.00    -0.285 OA
ATOM      5  C   UNL     1      41.757  10.746   5.337  1.00  0.00     0.111 A 
ATOM      6  C   UNL     1      41.643  10.854   3.930  1.00  0.00     0.134 A 
ATOM      7  C   UNL     1      42.780  10.687   3.126  1.00  0.00     0.093 A 
ATOM      8  C   UNL     1      44.025  10.417   3.698  1.00  0.00     0.123 A 
ATOM      9  C   UNL     1      44.144  10.310   5.088  1.00  0.00     0.094 A 
ATOM     10  C   UNL     1      43.023  10.474   5.907  1.00  0.00     0.146 A 
ATOM     11  O   UNL     1      43.165  10.373   7.224  1.00  0.00    -0.452 OA
ENDROOT
BRANCH   1  12
ATOM     12  C   UNL     1      42.449  10.393   9.526  1.00  0.00     0.025 A 
ATOM     13  C   UNL     1      43.508  11.125  10.084  1.00  0.00     0.016 A 
ATOM     14  C   UNL     1      43.789  11.038  11.450  1.00  0.00     0.051 A 
ATOM     15  C   UNL     1      43.004  10.232  12.282  1.00  0.00     0.157 A 
ATOM     16  C   UNL     1      41.649   9.600  10.369  1.00  0.00     0.062 A 
ATOM     17  C   UNL     1      41.927   9.513  11.741  1.00  0.00     0.158 A 
BRANCH  15  18
ATOM     18  O   UNL     1      43.309  10.163  13.641  1.00  0.00    -0.504 OA
ATOM     19  H   UNL     1      43.920   9.450  14.020  1.00  0.00     0.293 HD
ENDBRANCH  15  18
BRANCH  17  20
ATOM     20  O   UNL     1      41.133   8.718  12.567  1.00  0.00    -0.504 OA
ATOM     21  H   UNL     1      40.196   8.998  12.832  1.00  0.00     0.293 HD
ENDBRANCH  17  20
ENDBRANCH   1  12
BRANCH   2  22
ATOM     22  O   UNL     1      39.781  10.857   8.483  1.00  0.00    -0.502 OA
ATOM     23  H   UNL     1      38.968  11.431   8.292  1.00  0.00     0.293 HD
ENDBRANCH   2  22
BRANCH   6  24
ATOM     24  O   UNL     1      40.414  11.123   3.328  1.00  0.00    -0.507 OA
ATOM     25  H   UNL     1      39.787  11.833   3.691  1.00  0.00     0.293 HD
ENDBRANCH   6  24
BRANCH   8  26
ATOM     26  O   UNL     1      45.138  10.255   2.876  1.00  0.00    -0.508 OA
ATOM     27  H   UNL     1      46.054  10.051   3.259  1.00  0.00     0.293 HD
ENDBRANCH   8  26
TORSDOF 6
ENDMDL
MODEL 2
REMARK VINA RESULT:    10.796      1.250      3.096
REMARK INTER + INTRA:          13.061
REMARK INTER:                  12.794
REMARK INTRA:                   0.267
REMARK UNBOUND:                 0.055
REMARK SMILES O=c1c(O)c(-c2ccc(O)c(O)c2)oc2cc(O)cc(O)c12
REMARK SMILES IDX 5 1 3 2 2 3 1 4 22 5 20 6 19 7 17 8 16 9 15 10 14 11 6 12
REMARK SMILES IDX 7 13 8 14 9 15 13 16 11 17 10 18 12 20 4 22 21 24 18 26
REMARK H PARENT 10 19 12 21 4 23 21 25 18 27
REMARK Flexibility Score: inf
ROOT
ATOM      1  C   UNL     1      42.640  10.493   7.750  1.00  0.00     0.180 A 
ATOM      2  C   UNL     1      43.910  10.608   7.151  1.00  0.00     0.208 A 
ATOM      3  C   UNL     1      43.990  10.776   5.760  1.00  0.00     0.238 A 
ATOM      4  O   UNL     1      45.121  10.869   5.211  1.00  0.00    -0.285 OA
ATOM      5  C   UNL     1      42.807  10.846   4.996  1.00  0.00     0.111 A 
ATOM      6  C   UNL     1      42.801  11.017   3.590  1.00  0.00     0.134 A 
ATOM      7  C   UNL     1      41.580  11.087   2.903  1.00  0.00     0.093 A 
ATOM      8  C   UNL     1      40.369  10.988   3.591  1.00  0.00     0.123 A 
ATOM      9  C   UNL     1      40.368  10.819   4.979  1.00  0.00     0.094 A 
ATOM     10  C   UNL     1      41.574  10.745   5.683  1.00  0.00     0.146 A 
ATOM     11  O   UNL     1      41.545  10.579   7.000  1.00  0.00    -0.452 OA
ENDROOT
BRANCH   1  12
ATOM     12  C   UNL     1      42.473  10.296   9.208  1.00  0.00     0.025 A 
ATOM     13  C   UNL     1      41.402   9.524   9.682  1.00  0.00     0.016 A 
ATOM     14  C   UNL     1      41.236   9.308  11.053  1.00  0.00     0.051 A 
ATOM     15  C   UNL     1      42.148   9.844  11.968  1.00  0.00     0.157 A 
ATOM     16  C   UNL     1      43.400  10.817  10.129  1.00  0.00     0.062 A 
ATOM     17  C   UNL     1      43.237  10.598  11.504  1.00  0.00     0.158 A 
BRANCH  15  18
ATOM     18  O   UNL     1      41.955   9.613  13.330  1.00  0.00    -0.504 OA
ATOM     19  H   UNL     1      41.638  10.340  13.959  1.00  0.00     0.293 HD
ENDBRANCH  15  18
BRANCH  17  20
ATOM     20  O   UNL     1      44.158  11.125  12.411  1.00  0.00    -0.504 OA
ATOM     21  H   UNL     1      44.203  10.801  13.369  1.00  0.00     0.293 HD
ENDBRANCH  17  20
ENDBRANCH   1  12
BRANCH   2  22
ATOM     22  O   UNL     1      45.065  10.586   7.936  1.00  0.00    -0.502 OA
ATOM     23  H   UNL     1      45.903  11.097   7.683  1.00  0.00     0.293 HD
ENDBRANCH   2  22
BRANCH   6  24
ATOM     24  O   UNL     1      43.995  11.119   2.875  1.00  0.00    -0.507 OA
ATOM     25  H   UNL     1      44.715  11.785   3.131  1.00  0.00     0.293 HD
ENDBRANCH   6  24
BRANCH   8  26
ATOM     26  O   UNL     1      39.170  11.062   2.885  1.00  0.00    -0.508 OA
ATOM     27  H   UNL     1      39.154  11.184   1.879  1.00  0.00     0.293 HD
ENDBRANCH   8  26
TORSDOF 6
ENDMDL
