MODEL 1
REMARK VINA RESULT:    -6.131      0.000      0.000
REMARK INTER + INTRA:          -6.311
REMARK INTER:                  -6.311
REMARK INTRA:                   0.000
REMARK UNBOUND:                 0.000
REMARK SMILES O=c1ccc2ccc(O)cc2o1
REMARK SMILES IDX 6 1 7 2 8 3 10 4 11 5 5 6 4 7 3 8 2 9 1 10 12 11 9 12
REMARK H PARENT 9 13
REMARK Flexibility Score: inf
ROOT
ATOM      1  C   UNL     1       5.246  46.483  10.030  1.00  0.00     0.016 A 
ATOM      2  C   UNL     1       5.242  47.441   9.010  1.00  0.00     0.047 A 
ATOM      3  C   UNL     1       4.041  47.821   8.401  1.00  0.00     0.119 A 
ATOM      4  C   UNL     1       2.833  47.240   8.813  1.00  0.00     0.094 A 
ATOM      5  C   UNL     1       2.826  46.281   9.832  1.00  0.00     0.142 A 
ATOM      6  C   UNL     1       4.040  45.901  10.445  1.00  0.00     0.018 A 
ATOM      7  C   UNL     1       4.002  44.940  11.460  1.00  0.00     0.019 A 
ATOM      8  C   UNL     1       2.776  44.390  11.836  1.00  0.00     0.094 A 
ATOM      9  C   UNL     1       1.613  44.816  11.185  1.00  0.00     0.336 A 
ATOM     10  O   UNL     1       0.499  44.331  11.510  1.00  0.00    -0.246 OA
ATOM     11  O   UNL     1       1.678  45.732  10.221  1.00  0.00    -0.423 OA
ENDROOT
BRANCH   3  12
ATOM     12  O   UNL     1       4.058  48.778   7.387  1.00  0.00    -0.508 OA
ATOM     13  H   UNL     1       4.654  48.675   6.573  1.00  0.00     0.293 HD
ENDBRANCH   3  12
TORSDOF 1
ENDMDL
MODEL 2
REMARK VINA RESULT:    -6.018      0.933      4.215
REMARK INTER + INTRA:          -6.194
REMARK INTER:                  -6.194
REMARK INTRA:                   0.000
REMARK UNBOUND:                 0.000
REMARK SMILES O=c1ccc2ccc(O)cc2o1
REMARK SMILES IDX 6 1 7 2 8 3 10 4 11 5 5 6 4 7 3 8 2 9 1 10 12 11 9 12
REMARK H PARENT 9 13
REMARK Flexibility Score: inf
ROOT
ATOM      1  C   UNL     1       4.501  44.825  11.468  1.00  0.00     0.016 A 
ATOM      2  C   UNL     1       3.585  44.009  12.140  1.00  0.00     0.047 A 
ATOM      3  C   UNL     1       2.222  44.075  11.834  1.00  0.00     0.119 A 
ATOM      4  C   UNL     1       1.767  44.964  10.849  1.00  0.00     0.094 A 
ATOM      5  C   UNL     1       2.676  45.784  10.171  1.00  0.00     0.142 A 
ATOM      6  C   UNL     1       4.052  45.714  10.482  1.00  0.00     0.018 A 
ATOM      7  C   UNL     1       4.935  46.546   9.787  1.00  0.00     0.019 A 
ATOM      8  C   UNL     1       4.437  47.413   8.815  1.00  0.00     0.094 A 
ATOM      9  C   UNL     1       3.061  47.429   8.560  1.00  0.00     0.336 A 
ATOM     10  O   UNL     1       2.593  48.205   7.687  1.00  0.00    -0.246 OA
ATOM     11  O   UNL     1       2.242  46.626   9.236  1.00  0.00    -0.423 OA
ENDROOT
BRANCH   3  12
ATOM     12  O   UNL     1       1.325  43.254  12.516  1.00  0.00    -0.508 OA
ATOM     13  H   UNL     1       0.917  42.436  12.076  1.00  0.00     0.293 HD
ENDBRANCH   3  12
TORSDOF 1
ENDMDL
MODEL 3
REMARK VINA RESULT:    -6.015      1.608      2.410
REMARK INTER + INTRA:          -6.191
REMARK INTER:                  -6.191
REMARK INTRA:                   0.000
REMARK UNBOUND:                 0.000
REMARK SMILES O=c1ccc2ccc(O)cc2o1
REMARK SMILES IDX 6 1 7 2 8 3 10 4 11 5 5 6 4 7 3 8 2 9 1 10 12 11 9 12
REMARK H PARENT 9 13
REMARK Flexibility Score: inf
ROOT
ATOM      1  C   UNL     1       1.523  46.699   9.056  1.00  0.00     0.016 A 
ATOM      2  C   UNL     1       2.142  47.596   8.180  1.00  0.00     0.047 A 
ATOM      3  C   UNL     1       3.528  47.785   8.223  1.00  0.00     0.119 A 
ATOM      4  C   UNL     1       4.302  47.072   9.149  1.00  0.00     0.094 A 
ATOM      5  C   UNL     1       3.692  46.171  10.030  1.00  0.00     0.142 A 
ATOM      6  C   UNL     1       2.293  45.984   9.983  1.00  0.00     0.018 A 
ATOM      7  C   UNL     1       1.712  45.078  10.875  1.00  0.00     0.019 A 
ATOM      8  C   UNL     1       2.523  44.391  11.778  1.00  0.00     0.094 A 
ATOM      9  C   UNL     1       3.902  44.627  11.767  1.00  0.00     0.336 A 
ATOM     10  O   UNL     1       4.650  44.018  12.575  1.00  0.00    -0.246 OA
ATOM     11  O   UNL     1       4.430  45.495  10.907  1.00  0.00    -0.423 OA
ENDROOT
BRANCH   3  12
ATOM     12  O   UNL     1       4.126  48.684   7.341  1.00  0.00    -0.508 OA
ATOM     13  H   UNL     1       4.754  48.369   6.610  1.00  0.00     0.293 HD
ENDBRANCH   3  12
TORSDOF 1
ENDMDL
MODEL 4
REMARK VINA RESULT:    -5.961      1.803      4.465
REMARK INTER + INTRA:          -6.135
REMARK INTER:                  -6.135
REMARK INTRA:                   0.000
REMARK UNBOUND:                 0.000
REMARK SMILES O=c1ccc2ccc(O)cc2o1
REMARK SMILES IDX 6 1 7 2 8 3 10 4 11 5 5 6 4 7 3 8 2 9 1 10 12 11 9 12
REMARK H PARENT 9 13
REMARK Flexibility Score: inf
ROOT
ATOM      1  C   UNL     1       1.718  45.080  10.886  1.00  0.00     0.016 A 
ATOM      2  C   UNL     1       2.610  44.400  11.721  1.00  0.00     0.047 A 
ATOM      3  C   UNL     1       3.988  44.616  11.610  1.00  0.00     0.119 A 
ATOM      4  C   UNL     1       4.480  45.519  10.656  1.00  0.00     0.094 A 
ATOM      5  C   UNL     1       3.595  46.205   9.816  1.00  0.00     0.142 A 
ATOM      6  C   UNL     1       2.205  45.984   9.932  1.00  0.00     0.018 A 
ATOM      7  C   UNL     1       1.346  46.683   9.079  1.00  0.00     0.019 A 
ATOM      8  C   UNL     1       1.882  47.572   8.147  1.00  0.00     0.094 A 
ATOM      9  C   UNL     1       3.270  47.740   8.089  1.00  0.00     0.336 A 
ATOM     10  O   UNL     1       3.771  48.536   7.253  1.00  0.00    -0.246 OA
ATOM     11  O   UNL     1       4.065  47.061   8.913  1.00  0.00    -0.423 OA
ENDROOT
BRANCH   3  12
ATOM     12  O   UNL     1       4.860  43.928  12.451  1.00  0.00    -0.508 OA
ATOM     13  H   UNL     1       4.568  43.094  12.949  1.00  0.00     0.293 HD
ENDBRANCH   3  12
TORSDOF 1
ENDMDL
MODEL 5
REMARK VINA RESULT:    -5.863      1.638      4.717
REMARK INTER + INTRA:          -6.035
REMARK INTER:                  -6.035
REMARK INTRA:                   0.000
REMARK UNBOUND:                 0.000
REMARK SMILES O=c1ccc2ccc(O)cc2o1
REMARK SMILES IDX 6 1 7 2 8 3 10 4 11 5 5 6 4 7 3 8 2 9 1 10 12 11 9 12
REMARK H PARENT 9 13
REMARK Flexibility Score: inf
ROOT
ATOM      1  C   UNL     1       1.443  46.010   9.832  1.00  0.00     0.016 A 
ATOM      2  C   UNL     1       1.080  45.062  10.793  1.00  0.00     0.047 A 
ATOM      3  C   UNL     1       2.049  44.489  11.624  1.00  0.00     0.119 A 
ATOM      4  C   UNL     1       3.393  44.865  11.493  1.00  0.00     0.094 A 
ATOM      5  C   UNL     1       3.768  45.814  10.535  1.00  0.00     0.142 A 
ATOM      6  C   UNL     1       2.786  46.390   9.699  1.00  0.00     0.018 A 
ATOM      7  C   UNL     1       3.190  47.335   8.750  1.00  0.00     0.019 A 
ATOM      8  C   UNL     1       4.539  47.679   8.658  1.00  0.00     0.094 A 
ATOM      9  C   UNL     1       5.456  47.066   9.520  1.00  0.00     0.336 A 
ATOM     10  O   UNL     1       6.677  47.362   9.451  1.00  0.00    -0.246 OA
ATOM     11  O   UNL     1       5.044  46.170  10.414  1.00  0.00    -0.423 OA
ENDROOT
BRANCH   3  12
ATOM     12  O   UNL     1       1.665  43.545  12.575  1.00  0.00    -0.508 OA
ATOM     13  H   UNL     1       1.462  42.586  12.317  1.00  0.00     0.293 HD
ENDBRANCH   3  12
TORSDOF 1
ENDMDL
MODEL 6
REMARK VINA RESULT:    -5.834      2.025      4.741
REMARK INTER + INTRA:          -6.005
REMARK INTER:                  -6.005
REMARK INTRA:                   0.000
REMARK UNBOUND:                 0.000
REMARK SMILES O=c1ccc2ccc(O)cc2o1
REMARK SMILES IDX 6 1 7 2 8 3 10 4 11 5 5 6 4 7 3 8 2 9 1 10 12 11 9 12
REMARK H PARENT 9 13
REMARK Flexibility Score: inf
ROOT
ATOM      1  C   UNL     1       1.526  43.753  11.367  1.00  0.00     0.016 A 
ATOM      2  C   UNL     1       2.308  42.672  11.785  1.00  0.00     0.047 A 
ATOM      3  C   UNL     1       3.662  42.601  11.438  1.00  0.00     0.119 A 
ATOM      4  C   UNL     1       4.240  43.619  10.666  1.00  0.00     0.094 A 
ATOM      5  C   UNL     1       3.467  44.705  10.243  1.00  0.00     0.142 A 
ATOM      6  C   UNL     1       2.101  44.773  10.596  1.00  0.00     0.018 A 
ATOM      7  C   UNL     1       1.353  45.871  10.159  1.00  0.00     0.019 A 
ATOM      8  C   UNL     1       1.973  46.860   9.394  1.00  0.00     0.094 A 
ATOM      9  C   UNL     1       3.331  46.726   9.082  1.00  0.00     0.336 A 
ATOM     10  O   UNL     1       3.906  47.606   8.392  1.00  0.00    -0.246 OA
ATOM     11  O   UNL     1       4.019  45.670   9.512  1.00  0.00    -0.423 OA
ENDROOT
BRANCH   3  12
ATOM     12  O   UNL     1       4.423  41.514  11.865  1.00  0.00    -0.508 OA
ATOM     13  H   UNL     1       5.304  41.278  11.421  1.00  0.00     0.293 HD
ENDBRANCH   3  12
TORSDOF 1
ENDMDL
MODEL 7
REMARK VINA RESULT:    -5.757      1.870      2.559
REMARK INTER + INTRA:          -5.925
REMARK INTER:                  -5.925
REMARK INTRA:                   0.000
REMARK UNBOUND:                 0.000
REMARK SMILES O=c1ccc2ccc(O)cc2o1
REMARK SMILES IDX 6 1 7 2 8 3 10 4 11 5 5 6 4 7 3 8 2 9 1 10 12 11 9 12
REMARK H PARENT 9 13
REMARK Flexibility Score: inf
ROOT
ATOM      1  C   UNL     1       1.754  46.401   9.835  1.00  0.00     0.016 A 
ATOM      2  C   UNL     1       2.591  47.301   9.168  1.00  0.00     0.047 A 
ATOM      3  C   UNL     1       3.951  47.016   9.008  1.00  0.00     0.119 A 
ATOM      4  C   UNL     1       4.482  45.823   9.519  1.00  0.00     0.094 A 
ATOM      5  C   UNL     1       3.652  44.916  10.188  1.00  0.00     0.142 A 
ATOM      6  C   UNL     1       2.279  45.206  10.347  1.00  0.00     0.018 A 
ATOM      7  C   UNL     1       1.476  44.281  11.020  1.00  0.00     0.019 A 
ATOM      8  C   UNL     1       2.048  43.106  11.509  1.00  0.00     0.094 A 
ATOM      9  C   UNL     1       3.416  42.885  11.315  1.00  0.00     0.336 A 
ATOM     10  O   UNL     1       3.951  41.833  11.751  1.00  0.00    -0.246 OA
ATOM     11  O   UNL     1       4.158  43.783  10.671  1.00  0.00    -0.423 OA
ENDROOT
BRANCH   3  12
ATOM     12  O   UNL     1       4.768  47.927   8.340  1.00  0.00    -0.508 OA
ATOM     13  H   UNL     1       5.293  47.660   7.514  1.00  0.00     0.293 HD
ENDBRANCH   3  12
TORSDOF 1
ENDMDL
MODEL 8
REMARK VINA RESULT:    -5.643      1.655      2.243
REMARK INTER + INTRA:          -5.808
REMARK INTER:                  -5.808
REMARK INTRA:                   0.000
REMARK UNBOUND:                 0.000
REMARK SMILES O=c1ccc2ccc(O)cc2o1
REMARK SMILES IDX 6 1 7 2 8 3 10 4 11 5 5 6 4 7 3 8 2 9 1 10 12 11 9 12
REMARK H PARENT 9 13
REMARK Flexibility Score: inf
ROOT
ATOM      1  C   UNL     1       3.783  47.621   8.326  1.00  0.00     0.016 A 
ATOM      2  C   UNL     1       2.666  48.109   7.639  1.00  0.00     0.047 A 
ATOM      3  C   UNL     1       1.380  47.679   7.984  1.00  0.00     0.119 A 
ATOM      4  C   UNL     1       1.206  46.754   9.023  1.00  0.00     0.094 A 
ATOM      5  C   UNL     1       2.317  46.260   9.717  1.00  0.00     0.142 A 
ATOM      6  C   UNL     1       3.614  46.696   9.366  1.00  0.00     0.018 A 
ATOM      7  C   UNL     1       4.704  46.185  10.076  1.00  0.00     0.019 A 
ATOM      8  C   UNL     1       4.482  45.267  11.103  1.00  0.00     0.094 A 
ATOM      9  C   UNL     1       3.169  44.880  11.395  1.00  0.00     0.336 A 
ATOM     10  O   UNL     1       2.950  44.052  12.317  1.00  0.00    -0.246 OA
ATOM     11  O   UNL     1       2.150  45.382  10.703  1.00  0.00    -0.423 OA
ENDROOT
BRANCH   3  12
ATOM     12  O   UNL     1       0.280  48.178   7.288  1.00  0.00    -0.508 OA
ATOM     13  H   UNL     1      -0.613  48.327   7.745  1.00  0.00     0.293 HD
ENDBRANCH   3  12
TORSDOF 1
ENDMDL
MODEL 9
REMARK VINA RESULT:    -5.636      2.154      2.821
REMARK INTER + INTRA:          -5.801
REMARK INTER:                  -5.801
REMARK INTRA:                   0.000
REMARK UNBOUND:                 0.000
REMARK SMILES O=c1ccc2ccc(O)cc2o1
REMARK SMILES IDX 6 1 7 2 8 3 10 4 11 5 5 6 4 7 3 8 2 9 1 10 12 11 9 12
REMARK H PARENT 9 13
REMARK Flexibility Score: inf
ROOT
ATOM      1  C   UNL     1       4.061  46.268  10.361  1.00  0.00     0.016 A 
ATOM      2  C   UNL     1       5.262  46.882   9.990  1.00  0.00     0.047 A 
ATOM      3  C   UNL     1       5.305  47.743   8.889  1.00  0.00     0.119 A 
ATOM      4  C   UNL     1       4.140  47.994   8.150  1.00  0.00     0.094 A 
ATOM      5  C   UNL     1       2.933  47.384   8.513  1.00  0.00     0.142 A 
ATOM      6  C   UNL     1       2.894  46.516   9.627  1.00  0.00     0.018 A 
ATOM      7  C   UNL     1       1.675  45.921   9.965  1.00  0.00     0.019 A 
ATOM      8  C   UNL     1       0.541  46.201   9.201  1.00  0.00     0.094 A 
ATOM      9  C   UNL     1       0.655  47.072   8.111  1.00  0.00     0.336 A 
ATOM     10  O   UNL     1      -0.355  47.335   7.410  1.00  0.00    -0.246 OA
ATOM     11  O   UNL     1       1.829  47.624   7.811  1.00  0.00    -0.423 OA
ENDROOT
BRANCH   3  12
ATOM     12  O   UNL     1       6.512  48.345   8.536  1.00  0.00    -0.508 OA
ATOM     13  H   UNL     1       6.554  49.316   8.247  1.00  0.00     0.293 HD
ENDBRANCH   3  12
TORSDOF 1
ENDMDL
