MODEL 1
REMARK VINA RESULT:    -4.235      0.000      0.000
REMARK INTER + INTRA:         -11.174
REMARK INTER:                  -9.681
REMARK INTRA:                  -1.494
REMARK UNBOUND:                -1.494
REMARK SMILES CCCCCCCCCCCCCCCCCCCCCCCC(=O)[O-]
REMARK SMILES IDX 13 1 14 2 15 3 16 4 17 5 18 6 19 7 20 8 21 9 22 10 23 11
REMARK SMILES IDX 24 12 25 13 26 14 12 15 11 16 10 17 9 18 8 19 7 20 6 21 5 22
REMARK SMILES IDX 4 23 3 24 2 25 1 26
REMARK H PARENT
REMARK Flexibility Score: inf
ROOT
ATOM      1  C   UNL     1      32.880  45.349  25.620  1.00  0.00     0.000 C 
ENDROOT
BRANCH   1   2
ATOM      2  C   UNL     1      33.785  44.487  26.514  1.00  0.00     0.000 C 
BRANCH   2   3
ATOM      3  C   UNL     1      34.956  45.287  27.121  1.00  0.00     0.000 C 
BRANCH   3   4
ATOM      4  C   UNL     1      36.339  44.757  26.706  1.00  0.00     0.000 C 
BRANCH   4   5
ATOM      5  C   UNL     1      36.339  43.234  26.456  1.00  0.00     0.000 C 
BRANCH   5   6
ATOM      6  C   UNL     1      37.079  42.846  25.163  1.00  0.00     0.000 C 
BRANCH   6   7
ATOM      7  C   UNL     1      36.586  41.525  24.534  1.00  0.00     0.000 C 
BRANCH   7   8
ATOM      8  C   UNL     1      37.607  40.373  24.573  1.00  0.00     0.000 C 
BRANCH   8   9
ATOM      9  C   UNL     1      38.170  40.120  25.980  1.00  0.00     0.000 C 
BRANCH   9  10
ATOM     10  C   UNL     1      37.457  38.936  26.649  1.00  0.00     0.006 C 
BRANCH  10  11
ATOM     11  C   UNL     1      38.357  37.697  26.759  1.00  0.00     0.053 C 
BRANCH  11  12
ATOM     12  C   UNL     1      37.613  36.437  26.439  1.00  0.00     0.041 C 
ATOM     13  O   UNL     1      38.155  35.543  25.737  1.00  0.00    -0.550 OA
ATOM     14  O   UNL     1      36.310  36.264  26.892  1.00  0.00    -0.550 OA
ENDBRANCH  11  12
ENDBRANCH  10  11
ENDBRANCH   9  10
ENDBRANCH   8   9
ENDBRANCH   7   8
ENDBRANCH   6   7
ENDBRANCH   5   6
ENDBRANCH   4   5
ENDBRANCH   3   4
ENDBRANCH   2   3
ENDBRANCH   1   2
BRANCH   1  15
ATOM     15  C   UNL     1      33.164  46.841  25.828  1.00  0.00     0.000 C 
BRANCH  15  16
ATOM     16  C   UNL     1      33.121  47.599  24.496  1.00  0.00     0.000 C 
BRANCH  16  17
ATOM     17  C   UNL     1      32.812  49.088  24.716  1.00  0.00     0.000 C 
BRANCH  17  18
ATOM     18  C   UNL     1      33.003  49.529  26.178  1.00  0.00    -0.000 C 
BRANCH  18  19
ATOM     19  C   UNL     1      34.109  50.581  26.405  1.00  0.00    -0.000 C 
BRANCH  19  20
ATOM     20  C   UNL     1      33.606  51.957  26.882  1.00  0.00    -0.000 C 
BRANCH  20  21
ATOM     21  C   UNL     1      32.094  52.191  26.698  1.00  0.00    -0.000 C 
BRANCH  21  22
ATOM     22  C   UNL     1      31.763  53.345  25.727  1.00  0.00    -0.000 C 
BRANCH  22  23
ATOM     23  C   UNL     1      30.296  53.317  25.264  1.00  0.00    -0.000 C 
BRANCH  23  24
ATOM     24  C   UNL     1      29.486  52.176  25.906  1.00  0.00    -0.000 C 
BRANCH  24  25
ATOM     25  C   UNL     1      29.639  50.808  25.218  1.00  0.00    -0.003 C 
ATOM     26  C   UNL     1      30.068  50.919  23.755  1.00  0.00     0.004 C 
ENDBRANCH  24  25
ENDBRANCH  23  24
ENDBRANCH  22  23
ENDBRANCH  21  22
ENDBRANCH  20  21
ENDBRANCH  19  20
ENDBRANCH  18  19
ENDBRANCH  17  18
ENDBRANCH  16  17
ENDBRANCH  15  16
ENDBRANCH   1  15
TORSDOF 22
ENDMDL
MODEL 2
REMARK VINA RESULT:    -3.454      5.300     12.315
REMARK INTER + INTRA:          -9.389
REMARK INTER:                  -8.031
REMARK INTRA:                  -1.358
REMARK UNBOUND:                -1.494
REMARK SMILES CCCCCCCCCCCCCCCCCCCCCCCC(=O)[O-]
REMARK SMILES IDX 13 1 14 2 15 3 16 4 17 5 18 6 19 7 20 8 21 9 22 10 23 11
REMARK SMILES IDX 24 12 25 13 26 14 12 15 11 16 10 17 9 18 8 19 7 20 6 21 5 22
REMARK SMILES IDX 4 23 3 24 2 25 1 26
REMARK H PARENT
REMARK Flexibility Score: inf
ROOT
ATOM      1  C   UNL     1      32.634  45.454  24.713  1.00  0.00     0.000 C 
ENDROOT
BRANCH   1   2
ATOM      2  C   UNL     1      32.759  46.743  25.540  1.00  0.00     0.000 C 
BRANCH   2   3
ATOM      3  C   UNL     1      33.657  47.798  24.863  1.00  0.00     0.000 C 
BRANCH   3   4
ATOM      4  C   UNL     1      35.047  47.927  25.511  1.00  0.00     0.000 C 
BRANCH   4   5
ATOM      5  C   UNL     1      35.205  49.234  26.315  1.00  0.00     0.000 C 
BRANCH   5   6
ATOM      6  C   UNL     1      33.944  49.586  27.125  1.00  0.00     0.000 C 
BRANCH   6   7
ATOM      7  C   UNL     1      33.328  50.954  26.756  1.00  0.00     0.000 C 
BRANCH   7   8
ATOM      8  C   UNL     1      31.820  51.080  27.047  1.00  0.00     0.000 C 
BRANCH   8   9
ATOM      9  C   UNL     1      30.976  50.051  26.281  1.00  0.00     0.000 C 
BRANCH   9  10
ATOM     10  C   UNL     1      30.868  50.429  24.796  1.00  0.00     0.006 C 
BRANCH  10  11
ATOM     11  C   UNL     1      29.773  51.472  24.536  1.00  0.00     0.053 C 
BRANCH  11  12
ATOM     12  C   UNL     1      30.208  52.849  24.935  1.00  0.00     0.041 C 
ATOM     13  O   UNL     1      29.565  53.488  25.809  1.00  0.00    -0.550 OA
ATOM     14  O   UNL     1      31.306  53.438  24.318  1.00  0.00    -0.550 OA
ENDBRANCH  11  12
ENDBRANCH  10  11
ENDBRANCH   9  10
ENDBRANCH   8   9
ENDBRANCH   7   8
ENDBRANCH   6   7
ENDBRANCH   5   6
ENDBRANCH   4   5
ENDBRANCH   3   4
ENDBRANCH   2   3
ENDBRANCH   1   2
BRANCH   1  15
ATOM     15  C   UNL     1      33.234  44.259  25.465  1.00  0.00     0.000 C 
BRANCH  15  16
ATOM     16  C   UNL     1      34.418  44.697  26.335  1.00  0.00     0.000 C 
BRANCH  16  17
ATOM     17  C   UNL     1      35.389  43.530  26.575  1.00  0.00     0.000 C 
BRANCH  17  18
ATOM     18  C   UNL     1      36.738  43.717  25.860  1.00  0.00    -0.000 C 
BRANCH  18  19
ATOM     19  C   UNL     1      37.877  42.804  26.361  1.00  0.00    -0.000 C 
BRANCH  19  20
ATOM     20  C   UNL     1      37.412  41.524  27.081  1.00  0.00    -0.000 C 
BRANCH  20  21
ATOM     21  C   UNL     1      37.638  40.221  26.290  1.00  0.00    -0.000 C 
BRANCH  21  22
ATOM     22  C   UNL     1      39.033  39.597  26.517  1.00  0.00    -0.000 C 
BRANCH  22  23
ATOM     23  C   UNL     1      38.950  38.124  26.956  1.00  0.00    -0.000 C 
BRANCH  23  24
ATOM     24  C   UNL     1      37.645  37.438  26.513  1.00  0.00    -0.000 C 
BRANCH  24  25
ATOM     25  C   UNL     1      37.817  36.006  25.979  1.00  0.00    -0.003 C 
ATOM     26  C   UNL     1      36.736  35.048  26.479  1.00  0.00     0.004 C 
ENDBRANCH  24  25
ENDBRANCH  23  24
ENDBRANCH  22  23
ENDBRANCH  21  22
ENDBRANCH  20  21
ENDBRANCH  19  20
ENDBRANCH  18  19
ENDBRANCH  17  18
ENDBRANCH  16  17
ENDBRANCH  15  16
ENDBRANCH   1  15
TORSDOF 22
ENDMDL
MODEL 3
REMARK VINA RESULT:    -3.316      4.844     11.972
REMARK INTER + INTRA:          -9.074
REMARK INTER:                  -7.170
REMARK INTRA:                  -1.904
REMARK UNBOUND:                -1.494
REMARK SMILES CCCCCCCCCCCCCCCCCCCCCCCC(=O)[O-]
REMARK SMILES IDX 13 1 14 2 15 3 16 4 17 5 18 6 19 7 20 8 21 9 22 10 23 11
REMARK SMILES IDX 24 12 25 13 26 14 12 15 11 16 10 17 9 18 8 19 7 20 6 21 5 22
REMARK SMILES IDX 4 23 3 24 2 25 1 26
REMARK H PARENT
REMARK Flexibility Score: inf
ROOT
ATOM      1  C   UNL     1      33.077  44.724  26.278  1.00  0.00     0.000 C 
ENDROOT
BRANCH   1   2
ATOM      2  C   UNL     1      33.148  46.004  27.125  1.00  0.00     0.000 C 
BRANCH   2   3
ATOM      3  C   UNL     1      32.603  47.240  26.380  1.00  0.00     0.000 C 
BRANCH   3   4
ATOM      4  C   UNL     1      33.279  47.482  25.020  1.00  0.00     0.000 C 
BRANCH   4   5
ATOM      5  C   UNL     1      34.160  48.750  25.015  1.00  0.00     0.000 C 
BRANCH   5   6
ATOM      6  C   UNL     1      34.941  48.932  26.330  1.00  0.00     0.000 C 
BRANCH   6   7
ATOM      7  C   UNL     1      34.712  50.302  27.006  1.00  0.00     0.000 C 
BRANCH   7   8
ATOM      8  C   UNL     1      34.003  51.345  26.122  1.00  0.00     0.000 C 
BRANCH   8   9
ATOM      9  C   UNL     1      33.041  52.244  26.913  1.00  0.00     0.000 C 
BRANCH   9  10
ATOM     10  C   UNL     1      31.616  52.151  26.349  1.00  0.00     0.006 C 
BRANCH  10  11
ATOM     11  C   UNL     1      31.378  50.848  25.574  1.00  0.00     0.053 C 
BRANCH  11  12
ATOM     12  C   UNL     1      30.646  51.089  24.288  1.00  0.00     0.041 C 
ATOM     13  O   UNL     1      31.199  51.729  23.356  1.00  0.00    -0.550 OA
ATOM     14  O   UNL     1      29.343  50.632  24.133  1.00  0.00    -0.550 OA
ENDBRANCH  11  12
ENDBRANCH  10  11
ENDBRANCH   9  10
ENDBRANCH   8   9
ENDBRANCH   7   8
ENDBRANCH   6   7
ENDBRANCH   5   6
ENDBRANCH   4   5
ENDBRANCH   3   4
ENDBRANCH   2   3
ENDBRANCH   1   2
BRANCH   1  15
ATOM     15  C   UNL     1      34.406  43.960  26.325  1.00  0.00     0.000 C 
BRANCH  15  16
ATOM     16  C   UNL     1      35.547  44.808  25.749  1.00  0.00     0.000 C 
BRANCH  16  17
ATOM     17  C   UNL     1      36.812  44.692  26.613  1.00  0.00     0.000 C 
BRANCH  17  18
ATOM     18  C   UNL     1      37.079  43.255  27.094  1.00  0.00    -0.000 C 
BRANCH  18  19
ATOM     19  C   UNL     1      38.559  42.820  27.065  1.00  0.00    -0.000 C 
BRANCH  19  20
ATOM     20  C   UNL     1      38.788  41.297  27.124  1.00  0.00    -0.000 C 
BRANCH  20  21
ATOM     21  C   UNL     1      38.036  40.490  26.049  1.00  0.00    -0.000 C 
BRANCH  21  22
ATOM     22  C   UNL     1      37.173  39.347  26.628  1.00  0.00    -0.000 C 
BRANCH  22  23
ATOM     23  C   UNL     1      37.993  38.071  26.890  1.00  0.00    -0.000 C 
BRANCH  23  24
ATOM     24  C   UNL     1      37.771  36.985  25.823  1.00  0.00    -0.000 C 
BRANCH  24  25
ATOM     25  C   UNL     1      37.793  35.542  26.354  1.00  0.00    -0.003 C 
ATOM     26  C   UNL     1      36.395  34.967  26.582  1.00  0.00     0.004 C 
ENDBRANCH  24  25
ENDBRANCH  23  24
ENDBRANCH  22  23
ENDBRANCH  21  22
ENDBRANCH  20  21
ENDBRANCH  19  20
ENDBRANCH  18  19
ENDBRANCH  17  18
ENDBRANCH  16  17
ENDBRANCH  15  16
ENDBRANCH   1  15
TORSDOF 22
ENDMDL
MODEL 4
REMARK VINA RESULT:    -3.168      1.068      1.580
REMARK INTER + INTRA:          -8.736
REMARK INTER:                  -7.234
REMARK INTRA:                  -1.502
REMARK UNBOUND:                -1.494
REMARK SMILES CCCCCCCCCCCCCCCCCCCCCCCC(=O)[O-]
REMARK SMILES IDX 13 1 14 2 15 3 16 4 17 5 18 6 19 7 20 8 21 9 22 10 23 11
REMARK SMILES IDX 24 12 25 13 26 14 12 15 11 16 10 17 9 18 8 19 7 20 6 21 5 22
REMARK SMILES IDX 4 23 3 24 2 25 1 26
REMARK H PARENT
REMARK Flexibility Score: inf
ROOT
ATOM      1  C   UNL     1      32.615  44.406  25.709  1.00  0.00     0.000 C 
ENDROOT
BRANCH   1   2
ATOM      2  C   UNL     1      33.945  43.694  26.001  1.00  0.00     0.000 C 
BRANCH   2   3
ATOM      3  C   UNL     1      34.866  44.513  26.929  1.00  0.00     0.000 C 
BRANCH   3   4
ATOM      4  C   UNL     1      36.318  44.007  26.952  1.00  0.00     0.000 C 
BRANCH   4   5
ATOM      5  C   UNL     1      36.474  42.624  26.285  1.00  0.00     0.000 C 
BRANCH   5   6
ATOM      6  C   UNL     1      37.572  42.609  25.206  1.00  0.00     0.000 C 
BRANCH   6   7
ATOM      7  C   UNL     1      38.035  41.190  24.807  1.00  0.00     0.000 C 
BRANCH   7   8
ATOM      8  C   UNL     1      38.116  40.188  25.975  1.00  0.00     0.000 C 
BRANCH   8   9
ATOM      9  C   UNL     1      36.976  39.159  25.960  1.00  0.00     0.000 C 
BRANCH   9  10
ATOM     10  C   UNL     1      37.201  38.079  27.029  1.00  0.00     0.006 C 
BRANCH  10  11
ATOM     11  C   UNL     1      38.470  37.256  26.771  1.00  0.00     0.053 C 
BRANCH  11  12
ATOM     12  C   UNL     1      38.154  35.907  26.200  1.00  0.00     0.041 C 
ATOM     13  O   UNL     1      39.079  35.168  25.773  1.00  0.00    -0.550 OA
ATOM     14  O   UNL     1      36.834  35.480  26.113  1.00  0.00    -0.550 OA
ENDBRANCH  11  12
ENDBRANCH  10  11
ENDBRANCH   9  10
ENDBRANCH   8   9
ENDBRANCH   7   8
ENDBRANCH   6   7
ENDBRANCH   5   6
ENDBRANCH   4   5
ENDBRANCH   3   4
ENDBRANCH   2   3
ENDBRANCH   1   2
BRANCH   1  15
ATOM     15  C   UNL     1      32.817  45.559  24.718  1.00  0.00     0.000 C 
BRANCH  15  16
ATOM     16  C   UNL     1      32.608  46.914  25.405  1.00  0.00     0.000 C 
BRANCH  16  17
ATOM     17  C   UNL     1      33.911  47.728  25.432  1.00  0.00     0.000 C 
BRANCH  17  18
ATOM     18  C   UNL     1      34.433  47.975  26.858  1.00  0.00    -0.000 C 
BRANCH  18  19
ATOM     19  C   UNL     1      35.218  49.289  27.049  1.00  0.00    -0.000 C 
BRANCH  19  20
ATOM     20  C   UNL     1      34.496  50.554  26.547  1.00  0.00    -0.000 C 
BRANCH  20  21
ATOM     21  C   UNL     1      33.084  50.764  27.125  1.00  0.00    -0.000 C 
BRANCH  21  22
ATOM     22  C   UNL     1      32.089  51.378  26.115  1.00  0.00    -0.000 C 
BRANCH  22  23
ATOM     23  C   UNL     1      31.682  50.380  25.016  1.00  0.00    -0.000 C 
BRANCH  23  24
ATOM     24  C   UNL     1      30.528  50.895  24.137  1.00  0.00    -0.000 C 
BRANCH  24  25
ATOM     25  C   UNL     1      29.167  50.992  24.847  1.00  0.00    -0.003 C 
ATOM     26  C   UNL     1      28.940  52.345  25.523  1.00  0.00     0.004 C 
ENDBRANCH  24  25
ENDBRANCH  23  24
ENDBRANCH  22  23
ENDBRANCH  21  22
ENDBRANCH  20  21
ENDBRANCH  19  20
ENDBRANCH  18  19
ENDBRANCH  17  18
ENDBRANCH  16  17
ENDBRANCH  15  16
ENDBRANCH   1  15
TORSDOF 22
ENDMDL
MODEL 5
REMARK VINA RESULT:    -3.087      4.463     11.704
REMARK INTER + INTRA:          -8.551
REMARK INTER:                  -7.638
REMARK INTRA:                  -0.913
REMARK UNBOUND:                -1.494
REMARK SMILES CCCCCCCCCCCCCCCCCCCCCCCC(=O)[O-]
REMARK SMILES IDX 13 1 14 2 15 3 16 4 17 5 18 6 19 7 20 8 21 9 22 10 23 11
REMARK SMILES IDX 24 12 25 13 26 14 12 15 11 16 10 17 9 18 8 19 7 20 6 21 5 22
REMARK SMILES IDX 4 23 3 24 2 25 1 26
REMARK H PARENT
REMARK Flexibility Score: inf
ROOT
ATOM      1  C   UNL     1      33.258  46.315  24.778  1.00  0.00     0.000 C 
ENDROOT
BRANCH   1   2
ATOM      2  C   UNL     1      32.864  47.796  24.886  1.00  0.00     0.000 C 
BRANCH   2   3
ATOM      3  C   UNL     1      34.085  48.737  24.892  1.00  0.00     0.000 C 
BRANCH   3   4
ATOM      4  C   UNL     1      34.404  49.318  26.280  1.00  0.00     0.000 C 
BRANCH   4   5
ATOM      5  C   UNL     1      33.461  50.477  26.667  1.00  0.00     0.000 C 
BRANCH   5   6
ATOM      6  C   UNL     1      34.225  51.745  27.089  1.00  0.00     0.000 C 
BRANCH   6   7
ATOM      7  C   UNL     1      33.350  53.017  27.124  1.00  0.00     0.000 C 
BRANCH   7   8
ATOM      8  C   UNL     1      32.520  53.263  25.850  1.00  0.00     0.000 C 
BRANCH   8   9
ATOM      9  C   UNL     1      31.036  53.529  26.146  1.00  0.00     0.000 C 
BRANCH   9  10
ATOM     10  C   UNL     1      30.160  53.132  24.949  1.00  0.00     0.006 C 
BRANCH  10  11
ATOM     11  C   UNL     1      29.178  52.003  25.292  1.00  0.00     0.053 C 
BRANCH  11  12
ATOM     12  C   UNL     1      29.730  50.656  24.934  1.00  0.00     0.041 C 
ATOM     13  O   UNL     1      29.586  50.203  23.768  1.00  0.00    -0.550 OA
ATOM     14  O   UNL     1      30.376  49.891  25.897  1.00  0.00    -0.550 OA
ENDBRANCH  11  12
ENDBRANCH  10  11
ENDBRANCH   9  10
ENDBRANCH   8   9
ENDBRANCH   7   8
ENDBRANCH   6   7
ENDBRANCH   5   6
ENDBRANCH   4   5
ENDBRANCH   3   4
ENDBRANCH   2   3
ENDBRANCH   1   2
BRANCH   1  15
ATOM     15  C   UNL     1      32.732  45.517  25.977  1.00  0.00     0.000 C 
BRANCH  15  16
ATOM     16  C   UNL     1      33.884  45.054  26.876  1.00  0.00     0.000 C 
BRANCH  16  17
ATOM     17  C   UNL     1      35.163  45.856  26.594  1.00  0.00     0.000 C 
BRANCH  17  18
ATOM     18  C   UNL     1      36.313  44.983  26.062  1.00  0.00    -0.000 C 
BRANCH  18  19
ATOM     19  C   UNL     1      36.890  43.972  27.075  1.00  0.00    -0.000 C 
BRANCH  19  20
ATOM     20  C   UNL     1      36.870  42.504  26.609  1.00  0.00    -0.000 C 
BRANCH  20  21
ATOM     21  C   UNL     1      37.151  42.300  25.108  1.00  0.00    -0.000 C 
BRANCH  21  22
ATOM     22  C   UNL     1      37.629  40.873  24.759  1.00  0.00    -0.000 C 
BRANCH  22  23
ATOM     23  C   UNL     1      37.027  39.810  25.695  1.00  0.00    -0.000 C 
BRANCH  23  24
ATOM     24  C   UNL     1      37.949  39.459  26.876  1.00  0.00    -0.000 C 
BRANCH  24  25
ATOM     25  C   UNL     1      39.195  40.352  27.011  1.00  0.00    -0.003 C 
ATOM     26  C   UNL     1      40.505  39.572  26.899  1.00  0.00     0.004 C 
ENDBRANCH  24  25
ENDBRANCH  23  24
ENDBRANCH  22  23
ENDBRANCH  21  22
ENDBRANCH  20  21
ENDBRANCH  19  20
ENDBRANCH  18  19
ENDBRANCH  17  18
ENDBRANCH  16  17
ENDBRANCH  15  16
ENDBRANCH   1  15
TORSDOF 22
ENDMDL
MODEL 6
REMARK VINA RESULT:    -2.765      1.319      2.542
REMARK INTER + INTRA:          -7.814
REMARK INTER:                  -5.758
REMARK INTRA:                  -2.056
REMARK UNBOUND:                -1.494
REMARK SMILES CCCCCCCCCCCCCCCCCCCCCCCC(=O)[O-]
REMARK SMILES IDX 13 1 14 2 15 3 16 4 17 5 18 6 19 7 20 8 21 9 22 10 23 11
REMARK SMILES IDX 24 12 25 13 26 14 12 15 11 16 10 17 9 18 8 19 7 20 6 21 5 22
REMARK SMILES IDX 4 23 3 24 2 25 1 26
REMARK H PARENT
REMARK Flexibility Score: inf
ROOT
ATOM      1  C   UNL     1      32.383  46.461  24.065  1.00  0.00     0.000 C 
ENDROOT
BRANCH   1   2
ATOM      2  C   UNL     1      32.179  44.987  24.446  1.00  0.00     0.000 C 
BRANCH   2   3
ATOM      3  C   UNL     1      33.460  44.334  25.003  1.00  0.00     0.000 C 
BRANCH   3   4
ATOM      4  C   UNL     1      33.516  44.309  26.541  1.00  0.00     0.000 C 
BRANCH   4   5
ATOM      5  C   UNL     1      34.643  45.199  27.106  1.00  0.00     0.000 C 
BRANCH   5   6
ATOM      6  C   UNL     1      35.852  45.293  26.159  1.00  0.00     0.000 C 
BRANCH   6   7
ATOM      7  C   UNL     1      37.188  44.870  26.808  1.00  0.00     0.000 C 
BRANCH   7   8
ATOM      8  C   UNL     1      37.301  43.366  27.125  1.00  0.00     0.000 C 
BRANCH   8   9
ATOM      9  C   UNL     1      37.041  42.476  25.900  1.00  0.00     0.000 C 
BRANCH   9  10
ATOM     10  C   UNL     1      37.896  41.202  25.959  1.00  0.00     0.006 C 
BRANCH  10  11
ATOM     11  C   UNL     1      37.048  39.925  25.876  1.00  0.00     0.053 C 
BRANCH  11  12
ATOM     12  C   UNL     1      37.797  38.725  26.371  1.00  0.00     0.041 C 
ATOM     13  O   UNL     1      37.272  37.582  26.311  1.00  0.00    -0.550 OA
ATOM     14  O   UNL     1      39.062  38.875  26.926  1.00  0.00    -0.550 OA
ENDBRANCH  11  12
ENDBRANCH  10  11
ENDBRANCH   9  10
ENDBRANCH   8   9
ENDBRANCH   7   8
ENDBRANCH   6   7
ENDBRANCH   5   6
ENDBRANCH   4   5
ENDBRANCH   3   4
ENDBRANCH   2   3
ENDBRANCH   1   2
BRANCH   1  15
ATOM     15  C   UNL     1      32.162  47.376  25.275  1.00  0.00     0.000 C 
BRANCH  15  16
ATOM     16  C   UNL     1      32.817  48.745  25.055  1.00  0.00     0.000 C 
BRANCH  16  17
ATOM     17  C   UNL     1      34.337  48.609  24.880  1.00  0.00     0.000 C 
BRANCH  17  18
ATOM     18  C   UNL     1      35.117  48.897  26.175  1.00  0.00    -0.000 C 
BRANCH  18  19
ATOM     19  C   UNL     1      34.529  50.017  27.058  1.00  0.00    -0.000 C 
BRANCH  19  20
ATOM     20  C   UNL     1      34.400  51.387  26.366  1.00  0.00    -0.000 C 
BRANCH  20  21
ATOM     21  C   UNL     1      33.538  52.414  27.124  1.00  0.00    -0.000 C 
BRANCH  21  22
ATOM     22  C   UNL     1      32.069  52.455  26.650  1.00  0.00    -0.000 C 
BRANCH  22  23
ATOM     23  C   UNL     1      31.928  52.121  25.154  1.00  0.00    -0.000 C 
BRANCH  23  24
ATOM     24  C   UNL     1      30.487  52.280  24.636  1.00  0.00    -0.000 C 
BRANCH  24  25
ATOM     25  C   UNL     1      29.764  53.550  25.117  1.00  0.00    -0.003 C 
ATOM     26  C   UNL     1      30.612  54.814  24.968  1.00  0.00     0.004 C 
ENDBRANCH  24  25
ENDBRANCH  23  24
ENDBRANCH  22  23
ENDBRANCH  21  22
ENDBRANCH  20  21
ENDBRANCH  19  20
ENDBRANCH  18  19
ENDBRANCH  17  18
ENDBRANCH  16  17
ENDBRANCH  15  16
ENDBRANCH   1  15
TORSDOF 22
ENDMDL
MODEL 7
REMARK VINA RESULT:    -2.682      4.552     12.768
REMARK INTER + INTRA:          -7.624
REMARK INTER:                  -6.568
REMARK INTRA:                  -1.056
REMARK UNBOUND:                -1.494
REMARK SMILES CCCCCCCCCCCCCCCCCCCCCCCC(=O)[O-]
REMARK SMILES IDX 13 1 14 2 15 3 16 4 17 5 18 6 19 7 20 8 21 9 22 10 23 11
REMARK SMILES IDX 24 12 25 13 26 14 12 15 11 16 10 17 9 18 8 19 7 20 6 21 5 22
REMARK SMILES IDX 4 23 3 24 2 25 1 26
REMARK H PARENT
REMARK Flexibility Score: inf
ROOT
ATOM      1  C   UNL     1      33.141  45.218  26.161  1.00  0.00     0.000 C 
ENDROOT
BRANCH   1   2
ATOM      2  C   UNL     1      33.219  46.720  25.844  1.00  0.00     0.000 C 
BRANCH   2   3
ATOM      3  C   UNL     1      33.044  47.601  27.097  1.00  0.00     0.000 C 
BRANCH   3   4
ATOM      4  C   UNL     1      32.196  48.861  26.847  1.00  0.00     0.000 C 
BRANCH   4   5
ATOM      5  C   UNL     1      32.992  49.978  26.140  1.00  0.00     0.000 C 
BRANCH   5   6
ATOM      6  C   UNL     1      33.160  51.231  27.018  1.00  0.00     0.000 C 
BRANCH   6   7
ATOM      7  C   UNL     1      31.903  52.127  27.072  1.00  0.00     0.000 C 
BRANCH   7   8
ATOM      8  C   UNL     1      32.165  53.621  26.801  1.00  0.00     0.000 C 
BRANCH   8   9
ATOM      9  C   UNL     1      31.068  54.275  25.947  1.00  0.00     0.000 C 
BRANCH   9  10
ATOM     10  C   UNL     1      30.015  53.240  25.523  1.00  0.00     0.006 C 
BRANCH  10  11
ATOM     11  C   UNL     1      30.403  52.506  24.232  1.00  0.00     0.053 C 
BRANCH  11  12
ATOM     12  C   UNL     1      29.923  51.087  24.231  1.00  0.00     0.041 C 
ATOM     13  O   UNL     1      30.695  50.158  23.875  1.00  0.00    -0.550 OA
ATOM     14  O   UNL     1      28.614  50.795  24.595  1.00  0.00    -0.550 OA
ENDBRANCH  11  12
ENDBRANCH  10  11
ENDBRANCH   9  10
ENDBRANCH   8   9
ENDBRANCH   7   8
ENDBRANCH   6   7
ENDBRANCH   5   6
ENDBRANCH   4   5
ENDBRANCH   3   4
ENDBRANCH   2   3
ENDBRANCH   1   2
BRANCH   1  15
ATOM     15  C   UNL     1      34.289  44.793  27.086  1.00  0.00     0.000 C 
BRANCH  15  16
ATOM     16  C   UNL     1      34.829  43.413  26.691  1.00  0.00     0.000 C 
BRANCH  16  17
ATOM     17  C   UNL     1      35.084  43.331  25.178  1.00  0.00     0.000 C 
BRANCH  17  18
ATOM     18  C   UNL     1      36.357  42.542  24.828  1.00  0.00    -0.000 C 
BRANCH  18  19
ATOM     19  C   UNL     1      36.601  41.280  25.682  1.00  0.00    -0.000 C 
BRANCH  19  20
ATOM     20  C   UNL     1      38.081  40.888  25.850  1.00  0.00    -0.000 C 
BRANCH  20  21
ATOM     21  C   UNL     1      38.381  40.013  27.083  1.00  0.00    -0.000 C 
BRANCH  21  22
ATOM     22  C   UNL     1      39.526  39.002  26.856  1.00  0.00    -0.000 C 
BRANCH  22  23
ATOM     23  C   UNL     1      39.086  37.551  27.122  1.00  0.00    -0.000 C 
BRANCH  23  24
ATOM     24  C   UNL     1      37.699  37.229  26.538  1.00  0.00    -0.000 C 
BRANCH  24  25
ATOM     25  C   UNL     1      37.557  35.813  25.953  1.00  0.00    -0.003 C 
ATOM     26  C   UNL     1      38.902  35.134  25.697  1.00  0.00     0.004 C 
ENDBRANCH  24  25
ENDBRANCH  23  24
ENDBRANCH  22  23
ENDBRANCH  21  22
ENDBRANCH  20  21
ENDBRANCH  19  20
ENDBRANCH  18  19
ENDBRANCH  17  18
ENDBRANCH  16  17
ENDBRANCH  15  16
ENDBRANCH   1  15
TORSDOF 22
ENDMDL
MODEL 8
REMARK VINA RESULT:    -2.651      2.292      3.033
REMARK INTER + INTRA:          -7.554
REMARK INTER:                  -5.560
REMARK INTRA:                  -1.994
REMARK UNBOUND:                -1.494
REMARK SMILES CCCCCCCCCCCCCCCCCCCCCCCC(=O)[O-]
REMARK SMILES IDX 13 1 14 2 15 3 16 4 17 5 18 6 19 7 20 8 21 9 22 10 23 11
REMARK SMILES IDX 24 12 25 13 26 14 12 15 11 16 10 17 9 18 8 19 7 20 6 21 5 22
REMARK SMILES IDX 4 23 3 24 2 25 1 26
REMARK H PARENT
REMARK Flexibility Score: inf
ROOT
ATOM      1  C   UNL     1      32.025  45.718  23.753  1.00  0.00     0.000 C 
ENDROOT
BRANCH   1   2
ATOM      2  C   UNL     1      32.477  44.693  24.804  1.00  0.00     0.000 C 
BRANCH   2   3
ATOM      3  C   UNL     1      33.097  45.356  26.051  1.00  0.00     0.000 C 
BRANCH   3   4
ATOM      4  C   UNL     1      34.384  44.666  26.536  1.00  0.00     0.000 C 
BRANCH   4   5
ATOM      5  C   UNL     1      35.425  45.669  27.076  1.00  0.00     0.000 C 
BRANCH   5   6
ATOM      6  C   UNL     1      36.657  45.791  26.162  1.00  0.00     0.000 C 
BRANCH   6   7
ATOM      7  C   UNL     1      37.936  45.154  26.751  1.00  0.00     0.000 C 
BRANCH   7   8
ATOM      8  C   UNL     1      37.800  43.666  27.125  1.00  0.00     0.000 C 
BRANCH   8   9
ATOM      9  C   UNL     1      38.318  42.724  26.028  1.00  0.00     0.000 C 
BRANCH   9  10
ATOM     10  C   UNL     1      38.087  41.255  26.413  1.00  0.00     0.006 C 
BRANCH  10  11
ATOM     11  C   UNL     1      36.901  40.633  25.664  1.00  0.00     0.053 C 
BRANCH  11  12
ATOM     12  C   UNL     1      36.548  41.412  24.434  1.00  0.00     0.041 C 
ATOM     13  O   UNL     1      35.485  42.086  24.395  1.00  0.00    -0.550 OA
ATOM     14  O   UNL     1      37.378  41.368  23.320  1.00  0.00    -0.550 OA
ENDBRANCH  11  12
ENDBRANCH  10  11
ENDBRANCH   9  10
ENDBRANCH   8   9
ENDBRANCH   7   8
ENDBRANCH   6   7
ENDBRANCH   5   6
ENDBRANCH   4   5
ENDBRANCH   3   4
ENDBRANCH   2   3
ENDBRANCH   1   2
BRANCH   1  15
ATOM     15  C   UNL     1      32.792  47.037  23.907  1.00  0.00     0.000 C 
BRANCH  15  16
ATOM     16  C   UNL     1      31.832  48.202  24.176  1.00  0.00     0.000 C 
BRANCH  16  17
ATOM     17  C   UNL     1      32.572  49.394  24.804  1.00  0.00     0.000 C 
BRANCH  17  18
ATOM     18  C   UNL     1      33.411  48.998  26.031  1.00  0.00    -0.000 C 
BRANCH  18  19
ATOM     19  C   UNL     1      33.522  50.081  27.125  1.00  0.00    -0.000 C 
BRANCH  19  20
ATOM     20  C   UNL     1      34.192  51.393  26.673  1.00  0.00    -0.000 C 
BRANCH  20  21
ATOM     21  C   UNL     1      33.466  52.675  27.120  1.00  0.00    -0.000 C 
BRANCH  21  22
ATOM     22  C   UNL     1      31.927  52.573  27.037  1.00  0.00    -0.000 C 
BRANCH  22  23
ATOM     23  C   UNL     1      31.315  53.670  26.147  1.00  0.00    -0.000 C 
BRANCH  23  24
ATOM     24  C   UNL     1      29.991  53.242  25.492  1.00  0.00    -0.000 C 
BRANCH  24  25
ATOM     25  C   UNL     1      30.019  51.858  24.820  1.00  0.00    -0.003 C 
ATOM     26  C   UNL     1      28.678  51.129  24.896  1.00  0.00     0.004 C 
ENDBRANCH  24  25
ENDBRANCH  23  24
ENDBRANCH  22  23
ENDBRANCH  21  22
ENDBRANCH  20  21
ENDBRANCH  19  20
ENDBRANCH  18  19
ENDBRANCH  17  18
ENDBRANCH  16  17
ENDBRANCH  15  16
ENDBRANCH   1  15
TORSDOF 22
ENDMDL
MODEL 9
REMARK VINA RESULT:    -2.443     18.544     19.882
REMARK INTER + INTRA:          -7.078
REMARK INTER:                  -5.757
REMARK INTRA:                  -1.321
REMARK UNBOUND:                -1.494
REMARK SMILES CCCCCCCCCCCCCCCCCCCCCCCC(=O)[O-]
REMARK SMILES IDX 13 1 14 2 15 3 16 4 17 5 18 6 19 7 20 8 21 9 22 10 23 11
REMARK SMILES IDX 24 12 25 13 26 14 12 15 11 16 10 17 9 18 8 19 7 20 6 21 5 22
REMARK SMILES IDX 4 23 3 24 2 25 1 26
REMARK H PARENT
REMARK Flexibility Score: inf
ROOT
ATOM      1  C   UNL     1      29.244  48.339   9.275  1.00  0.00     0.000 C 
ENDROOT
BRANCH   1   2
ATOM      2  C   UNL     1      27.757  48.458   8.908  1.00  0.00     0.000 C 
BRANCH   2   3
ATOM      3  C   UNL     1      27.464  48.008   7.462  1.00  0.00     0.000 C 
BRANCH   3   4
ATOM      4  C   UNL     1      27.058  46.528   7.351  1.00  0.00     0.000 C 
BRANCH   4   5
ATOM      5  C   UNL     1      25.982  46.131   8.384  1.00  0.00     0.000 C 
BRANCH   5   6
ATOM      6  C   UNL     1      25.255  44.827   8.008  1.00  0.00     0.000 C 
BRANCH   6   7
ATOM      7  C   UNL     1      26.174  43.763   7.368  1.00  0.00     0.000 C 
BRANCH   7   8
ATOM      8  C   UNL     1      25.447  42.497   6.877  1.00  0.00     0.000 C 
BRANCH   8   9
ATOM      9  C   UNL     1      26.295  41.225   7.028  1.00  0.00     0.000 C 
BRANCH   9  10
ATOM     10  C   UNL     1      25.430  40.041   7.485  1.00  0.00     0.006 C 
BRANCH  10  11
ATOM     11  C   UNL     1      26.245  38.969   8.220  1.00  0.00     0.053 C 
BRANCH  11  12
ATOM     12  C   UNL     1      25.603  37.619   8.129  1.00  0.00     0.041 C 
ATOM     13  O   UNL     1      25.697  36.943   7.071  1.00  0.00    -0.550 OA
ATOM     14  O   UNL     1      24.875  37.121   9.203  1.00  0.00    -0.550 OA
ENDBRANCH  11  12
ENDBRANCH  10  11
ENDBRANCH   9  10
ENDBRANCH   8   9
ENDBRANCH   7   8
ENDBRANCH   6   7
ENDBRANCH   5   6
ENDBRANCH   4   5
ENDBRANCH   3   4
ENDBRANCH   2   3
ENDBRANCH   1   2
BRANCH   1  15
ATOM     15  C   UNL     1      29.955  47.330   8.365  1.00  0.00     0.000 C 
BRANCH  15  16
ATOM     16  C   UNL     1      30.819  48.047   7.321  1.00  0.00     0.000 C 
BRANCH  16  17
ATOM     17  C   UNL     1      31.621  49.193   7.959  1.00  0.00     0.000 C 
BRANCH  17  18
ATOM     18  C   UNL     1      31.551  50.497   7.146  1.00  0.00    -0.000 C 
BRANCH  18  19
ATOM     19  C   UNL     1      30.152  51.141   7.058  1.00  0.00    -0.000 C 
BRANCH  19  20
ATOM     20  C   UNL     1      29.980  52.433   7.880  1.00  0.00    -0.000 C 
BRANCH  20  21
ATOM     21  C   UNL     1      29.710  53.698   7.043  1.00  0.00    -0.000 C 
BRANCH  21  22
ATOM     22  C   UNL     1      28.245  54.182   7.115  1.00  0.00    -0.000 C 
BRANCH  22  23
ATOM     23  C   UNL     1      27.275  53.055   7.512  1.00  0.00    -0.000 C 
BRANCH  23  24
ATOM     24  C   UNL     1      26.049  53.564   8.290  1.00  0.00    -0.000 C 
BRANCH  24  25
ATOM     25  C   UNL     1      24.875  52.573   8.367  1.00  0.00    -0.003 C 
ATOM     26  C   UNL     1      25.187  51.224   7.717  1.00  0.00     0.004 C 
ENDBRANCH  24  25
ENDBRANCH  23  24
ENDBRANCH  22  23
ENDBRANCH  21  22
ENDBRANCH  20  21
ENDBRANCH  19  20
ENDBRANCH  18  19
ENDBRANCH  17  18
ENDBRANCH  16  17
ENDBRANCH  15  16
ENDBRANCH   1  15
TORSDOF 22
ENDMDL
