MODEL 1
REMARK VINA RESULT:    -3.219      0.000      0.000
REMARK INTER + INTRA:         -14.573
REMARK INTER:                  -8.489
REMARK INTRA:                  -6.084
REMARK UNBOUND:                -6.084
REMARK SMILES CCCCCCCCCCCCCCCCCCCCCCCCCCCCCC(=O)[O-]
REMARK SMILES IDX 16 1 17 2 18 3 19 4 20 5 21 6 22 7 23 8 24 9 25 10 26 11
REMARK SMILES IDX 27 12 28 13 29 14 30 15 31 16 32 17 15 18 14 19 13 20 12 21
REMARK SMILES IDX 11 22 10 23 9 24 8 25 7 26 6 27 5 28 4 29 3 30 2 31 1 32
REMARK H PARENT
REMARK Flexibility Score: inf
ROOT
ATOM      1  C   UNL     1      -1.628   5.691  39.056  1.00  0.00     0.000 C 
ENDROOT
BRANCH   1   2
ATOM      2  C   UNL     1      -1.822   5.456  37.546  1.00  0.00     0.000 C 
BRANCH   2   3
ATOM      3  C   UNL     1      -0.744   4.539  36.943  1.00  0.00     0.000 C 
BRANCH   3   4
ATOM      4  C   UNL     1      -1.304   3.596  35.866  1.00  0.00     0.000 C 
BRANCH   4   5
ATOM      5  C   UNL     1      -0.379   3.467  34.646  1.00  0.00     0.000 C 
BRANCH   5   6
ATOM      6  C   UNL     1       0.762   4.493  34.713  1.00  0.00     0.000 C 
BRANCH   6   7
ATOM      7  C   UNL     1       1.194   5.000  33.327  1.00  0.00     0.000 C 
BRANCH   7   8
ATOM      8  C   UNL     1       2.713   5.199  33.147  1.00  0.00     0.000 C 
BRANCH   8   9
ATOM      9  C   UNL     1       3.557   4.945  34.408  1.00  0.00     0.000 C 
BRANCH   9  10
ATOM     10  C   UNL     1       4.942   4.362  34.092  1.00  0.00     0.000 C 
BRANCH  10  11
ATOM     11  C   UNL     1       5.481   3.556  35.282  1.00  0.00     0.000 C 
BRANCH  11  12
ATOM     12  C   UNL     1       5.245   2.042  35.143  1.00  0.00     0.000 C 
BRANCH  12  13
ATOM     13  C   UNL     1       4.239   1.445  36.143  1.00  0.00     0.006 C 
BRANCH  13  14
ATOM     14  C   UNL     1       2.780   1.603  35.694  1.00  0.00     0.053 C 
BRANCH  14  15
ATOM     15  C   UNL     1       2.523   0.828  34.439  1.00  0.00     0.041 C 
ATOM     16  O   UNL     1       2.568  -0.430  34.450  1.00  0.00    -0.550 OA
ATOM     17  O   UNL     1       2.221   1.497  33.260  1.00  0.00    -0.550 OA
ENDBRANCH  14  15
ENDBRANCH  13  14
ENDBRANCH  12  13
ENDBRANCH  11  12
ENDBRANCH  10  11
ENDBRANCH   9  10
ENDBRANCH   8   9
ENDBRANCH   7   8
ENDBRANCH   6   7
ENDBRANCH   5   6
ENDBRANCH   4   5
ENDBRANCH   3   4
ENDBRANCH   2   3
ENDBRANCH   1   2
BRANCH   1  18
ATOM     18  C   UNL     1      -2.769   6.458  39.756  1.00  0.00     0.000 C 
BRANCH  18  19
ATOM     19  C   UNL     1      -2.523   7.965  39.943  1.00  0.00     0.000 C 
BRANCH  19  20
ATOM     20  C   UNL     1      -1.032   8.327  39.946  1.00  0.00     0.000 C 
BRANCH  20  21
ATOM     21  C   UNL     1      -0.766   9.549  39.057  1.00  0.00     0.000 C 
BRANCH  21  22
ATOM     22  C   UNL     1      -1.827   9.736  37.956  1.00  0.00     0.000 C 
BRANCH  22  23
ATOM     23  C   UNL     1      -1.363   9.364  36.535  1.00  0.00     0.000 C 
BRANCH  23  24
ATOM     24  C   UNL     1       0.164   9.289  36.405  1.00  0.00    -0.000 C 
BRANCH  24  25
ATOM     25  C   UNL     1       0.629   7.860  36.095  1.00  0.00    -0.000 C 
BRANCH  25  26
ATOM     26  C   UNL     1       2.044   7.568  36.624  1.00  0.00    -0.000 C 
BRANCH  26  27
ATOM     27  C   UNL     1       2.145   7.582  38.165  1.00  0.00    -0.000 C 
BRANCH  27  28
ATOM     28  C   UNL     1       2.087   6.169  38.768  1.00  0.00    -0.000 C 
BRANCH  28  29
ATOM     29  C   UNL     1       2.785   5.152  37.856  1.00  0.00    -0.000 C 
BRANCH  29  30
ATOM     30  C   UNL     1       3.661   4.153  38.632  1.00  0.00    -0.000 C 
BRANCH  30  31
ATOM     31  C   UNL     1       5.160   4.516  38.630  1.00  0.00    -0.003 C 
ATOM     32  C   UNL     1       6.046   3.316  38.961  1.00  0.00     0.004 C 
ENDBRANCH  30  31
ENDBRANCH  29  30
ENDBRANCH  28  29
ENDBRANCH  27  28
ENDBRANCH  26  27
ENDBRANCH  25  26
ENDBRANCH  24  25
ENDBRANCH  23  24
ENDBRANCH  22  23
ENDBRANCH  21  22
ENDBRANCH  20  21
ENDBRANCH  19  20
ENDBRANCH  18  19
ENDBRANCH   1  18
TORSDOF 28
ENDMDL
MODEL 2
REMARK VINA RESULT:    -3.131      2.372      5.465
REMARK INTER + INTRA:         -14.339
REMARK INTER:                  -8.783
REMARK INTRA:                  -5.556
REMARK UNBOUND:                -6.084
REMARK SMILES CCCCCCCCCCCCCCCCCCCCCCCCCCCCCC(=O)[O-]
REMARK SMILES IDX 16 1 17 2 18 3 19 4 20 5 21 6 22 7 23 8 24 9 25 10 26 11
REMARK SMILES IDX 27 12 28 13 29 14 30 15 31 16 32 17 15 18 14 19 13 20 12 21
REMARK SMILES IDX 11 22 10 23 9 24 8 25 7 26 6 27 5 28 4 29 3 30 2 31 1 32
REMARK H PARENT
REMARK Flexibility Score: inf
ROOT
ATOM      1  C   UNL     1       0.322   9.673  34.975  1.00  0.00     0.000 C 
ENDROOT
BRANCH   1   2
ATOM      2  C   UNL     1       1.756   9.249  35.345  1.00  0.00     0.000 C 
BRANCH   2   3
ATOM      3  C   UNL     1       2.200   9.785  36.717  1.00  0.00     0.000 C 
BRANCH   3   4
ATOM      4  C   UNL     1       2.507   8.662  37.720  1.00  0.00     0.000 C 
BRANCH   4   5
ATOM      5  C   UNL     1       2.146   7.268  37.183  1.00  0.00     0.000 C 
BRANCH   5   6
ATOM      6  C   UNL     1       1.002   6.647  37.997  1.00  0.00     0.000 C 
BRANCH   6   7
ATOM      7  C   UNL     1       1.485   5.971  39.292  1.00  0.00     0.000 C 
BRANCH   7   8
ATOM      8  C   UNL     1       1.892   4.491  39.144  1.00  0.00     0.000 C 
BRANCH   8   9
ATOM      9  C   UNL     1       1.240   3.751  37.964  1.00  0.00     0.000 C 
BRANCH   9  10
ATOM     10  C   UNL     1       2.249   3.363  36.873  1.00  0.00     0.000 C 
BRANCH  10  11
ATOM     11  C   UNL     1       1.585   2.486  35.801  1.00  0.00     0.000 C 
BRANCH  11  12
ATOM     12  C   UNL     1       1.511   3.169  34.423  1.00  0.00     0.000 C 
BRANCH  12  13
ATOM     13  C   UNL     1       2.367   4.440  34.281  1.00  0.00     0.006 C 
BRANCH  13  14
ATOM     14  C   UNL     1       1.534   5.698  33.997  1.00  0.00     0.053 C 
BRANCH  14  15
ATOM     15  C   UNL     1       1.646   6.096  32.558  1.00  0.00     0.041 C 
ATOM     16  O   UNL     1       1.404   7.282  32.208  1.00  0.00    -0.550 OA
ATOM     17  O   UNL     1       2.030   5.161  31.606  1.00  0.00    -0.550 OA
ENDBRANCH  14  15
ENDBRANCH  13  14
ENDBRANCH  12  13
ENDBRANCH  11  12
ENDBRANCH  10  11
ENDBRANCH   9  10
ENDBRANCH   8   9
ENDBRANCH   7   8
ENDBRANCH   6   7
ENDBRANCH   5   6
ENDBRANCH   4   5
ENDBRANCH   3   4
ENDBRANCH   2   3
ENDBRANCH   1   2
BRANCH   1  18
ATOM     18  C   UNL     1      -0.558  10.125  36.159  1.00  0.00     0.000 C 
BRANCH  18  19
ATOM     19  C   UNL     1      -1.437   9.023  36.777  1.00  0.00     0.000 C 
BRANCH  19  20
ATOM     20  C   UNL     1      -1.830   9.323  38.230  1.00  0.00     0.000 C 
BRANCH  20  21
ATOM     21  C   UNL     1      -0.636   9.887  39.013  1.00  0.00     0.000 C 
BRANCH  21  22
ATOM     22  C   UNL     1      -0.241   9.015  40.219  1.00  0.00     0.000 C 
BRANCH  22  23
ATOM     23  C   UNL     1       1.104   9.382  40.876  1.00  0.00     0.000 C 
BRANCH  23  24
ATOM     24  C   UNL     1       1.251   8.815  42.294  1.00  0.00    -0.000 C 
BRANCH  24  25
ATOM     25  C   UNL     1      -0.053   8.165  42.774  1.00  0.00    -0.000 C 
BRANCH  25  26
ATOM     26  C   UNL     1       0.046   6.633  42.868  1.00  0.00    -0.000 C 
BRANCH  26  27
ATOM     27  C   UNL     1      -1.139   5.893  42.209  1.00  0.00    -0.000 C 
BRANCH  27  28
ATOM     28  C   UNL     1      -0.788   4.445  41.832  1.00  0.00    -0.000 C 
BRANCH  28  29
ATOM     29  C   UNL     1      -1.526   4.014  40.557  1.00  0.00    -0.000 C 
BRANCH  29  30
ATOM     30  C   UNL     1      -2.924   4.646  40.432  1.00  0.00    -0.000 C 
BRANCH  30  31
ATOM     31  C   UNL     1      -3.025   5.704  39.314  1.00  0.00    -0.003 C 
ATOM     32  C   UNL     1      -2.142   5.366  38.114  1.00  0.00     0.004 C 
ENDBRANCH  30  31
ENDBRANCH  29  30
ENDBRANCH  28  29
ENDBRANCH  27  28
ENDBRANCH  26  27
ENDBRANCH  25  26
ENDBRANCH  24  25
ENDBRANCH  23  24
ENDBRANCH  22  23
ENDBRANCH  21  22
ENDBRANCH  20  21
ENDBRANCH  19  20
ENDBRANCH  18  19
ENDBRANCH   1  18
TORSDOF 28
ENDMDL
MODEL 3
REMARK VINA RESULT:    -3.078      2.045      4.831
REMARK INTER + INTRA:         -14.199
REMARK INTER:                  -8.572
REMARK INTRA:                  -5.628
REMARK UNBOUND:                -6.084
REMARK SMILES CCCCCCCCCCCCCCCCCCCCCCCCCCCCCC(=O)[O-]
REMARK SMILES IDX 16 1 17 2 18 3 19 4 20 5 21 6 22 7 23 8 24 9 25 10 26 11
REMARK SMILES IDX 27 12 28 13 29 14 30 15 31 16 32 17 15 18 14 19 13 20 12 21
REMARK SMILES IDX 11 22 10 23 9 24 8 25 7 26 6 27 5 28 4 29 3 30 2 31 1 32
REMARK H PARENT
REMARK Flexibility Score: inf
ROOT
ATOM      1  C   UNL     1       2.123   6.105  36.357  1.00  0.00     0.000 C 
ENDROOT
BRANCH   1   2
ATOM      2  C   UNL     1       2.560   6.584  37.754  1.00  0.00     0.000 C 
BRANCH   2   3
ATOM      3  C   UNL     1       2.598   5.447  38.788  1.00  0.00     0.000 C 
BRANCH   3   4
ATOM      4  C   UNL     1       3.811   4.521  38.606  1.00  0.00     0.000 C 
BRANCH   4   5
ATOM      5  C   UNL     1       3.430   3.032  38.605  1.00  0.00     0.000 C 
BRANCH   5   6
ATOM      6  C   UNL     1       1.936   2.849  38.302  1.00  0.00     0.000 C 
BRANCH   6   7
ATOM      7  C   UNL     1       1.673   1.850  37.162  1.00  0.00     0.000 C 
BRANCH   7   8
ATOM      8  C   UNL     1       2.528   2.062  35.897  1.00  0.00     0.000 C 
BRANCH   8   9
ATOM      9  C   UNL     1       1.729   2.276  34.599  1.00  0.00     0.000 C 
BRANCH   9  10
ATOM     10  C   UNL     1       2.194   3.507  33.808  1.00  0.00     0.000 C 
BRANCH  10  11
ATOM     11  C   UNL     1       3.337   3.141  32.850  1.00  0.00     0.000 C 
BRANCH  11  12
ATOM     12  C   UNL     1       4.717   3.602  33.352  1.00  0.00     0.000 C 
BRANCH  12  13
ATOM     13  C   UNL     1       5.785   2.497  33.427  1.00  0.00     0.006 C 
BRANCH  13  14
ATOM     14  C   UNL     1       6.187   2.145  34.866  1.00  0.00     0.053 C 
BRANCH  14  15
ATOM     15  C   UNL     1       6.959   3.265  35.491  1.00  0.00     0.041 C 
ATOM     16  O   UNL     1       6.568   3.779  36.573  1.00  0.00    -0.550 OA
ATOM     17  O   UNL     1       8.118   3.733  34.885  1.00  0.00    -0.550 OA
ENDBRANCH  14  15
ENDBRANCH  13  14
ENDBRANCH  12  13
ENDBRANCH  11  12
ENDBRANCH  10  11
ENDBRANCH   9  10
ENDBRANCH   8   9
ENDBRANCH   7   8
ENDBRANCH   6   7
ENDBRANCH   5   6
ENDBRANCH   4   5
ENDBRANCH   3   4
ENDBRANCH   2   3
ENDBRANCH   1   2
BRANCH   1  18
ATOM     18  C   UNL     1       1.240   7.093  35.567  1.00  0.00     0.000 C 
BRANCH  18  19
ATOM     19  C   UNL     1       0.967   8.432  36.273  1.00  0.00     0.000 C 
BRANCH  19  20
ATOM     20  C   UNL     1      -0.481   8.557  36.768  1.00  0.00     0.000 C 
BRANCH  20  21
ATOM     21  C   UNL     1      -0.559   9.472  37.998  1.00  0.00     0.000 C 
BRANCH  21  22
ATOM     22  C   UNL     1       0.823   9.804  38.592  1.00  0.00     0.000 C 
BRANCH  22  23
ATOM     23  C   UNL     1       0.982   9.488  40.091  1.00  0.00     0.000 C 
BRANCH  23  24
ATOM     24  C   UNL     1       0.424   8.110  40.473  1.00  0.00    -0.000 C 
BRANCH  24  25
ATOM     25  C   UNL     1      -0.495   8.200  41.699  1.00  0.00    -0.000 C 
BRANCH  25  26
ATOM     26  C   UNL     1      -1.754   7.326  41.563  1.00  0.00    -0.000 C 
BRANCH  26  27
ATOM     27  C   UNL     1      -2.542   7.572  40.258  1.00  0.00    -0.000 C 
BRANCH  27  28
ATOM     28  C   UNL     1      -3.044   6.266  39.622  1.00  0.00    -0.000 C 
BRANCH  28  29
ATOM     29  C   UNL     1      -1.965   5.175  39.681  1.00  0.00    -0.000 C 
BRANCH  29  30
ATOM     30  C   UNL     1      -1.006   5.215  38.479  1.00  0.00    -0.000 C 
BRANCH  30  31
ATOM     31  C   UNL     1      -1.724   5.163  37.115  1.00  0.00    -0.003 C 
ATOM     32  C   UNL     1      -1.123   4.110  36.185  1.00  0.00     0.004 C 
ENDBRANCH  30  31
ENDBRANCH  29  30
ENDBRANCH  28  29
ENDBRANCH  27  28
ENDBRANCH  26  27
ENDBRANCH  25  26
ENDBRANCH  24  25
ENDBRANCH  23  24
ENDBRANCH  22  23
ENDBRANCH  21  22
ENDBRANCH  20  21
ENDBRANCH  19  20
ENDBRANCH  18  19
ENDBRANCH   1  18
TORSDOF 28
ENDMDL
MODEL 4
REMARK VINA RESULT:    -3.055      2.794      7.133
REMARK INTER + INTRA:         -14.141
REMARK INTER:                  -9.420
REMARK INTRA:                  -4.721
REMARK UNBOUND:                -6.084
REMARK SMILES CCCCCCCCCCCCCCCCCCCCCCCCCCCCCC(=O)[O-]
REMARK SMILES IDX 16 1 17 2 18 3 19 4 20 5 21 6 22 7 23 8 24 9 25 10 26 11
REMARK SMILES IDX 27 12 28 13 29 14 30 15 31 16 32 17 15 18 14 19 13 20 12 21
REMARK SMILES IDX 11 22 10 23 9 24 8 25 7 26 6 27 5 28 4 29 3 30 2 31 1 32
REMARK H PARENT
REMARK Flexibility Score: inf
ROOT
ATOM      1  C   UNL     1       1.450   9.360  36.382  1.00  0.00     0.000 C 
ENDROOT
BRANCH   1   2
ATOM      2  C   UNL     1       0.604  10.012  37.492  1.00  0.00     0.000 C 
BRANCH   2   3
ATOM      3  C   UNL     1      -0.908   9.900  37.231  1.00  0.00     0.000 C 
BRANCH   3   4
ATOM      4  C   UNL     1      -1.684   9.401  38.460  1.00  0.00     0.000 C 
BRANCH   4   5
ATOM      5  C   UNL     1      -0.764   8.908  39.588  1.00  0.00     0.000 C 
BRANCH   5   6
ATOM      6  C   UNL     1      -1.481   7.873  40.467  1.00  0.00     0.000 C 
BRANCH   6   7
ATOM      7  C   UNL     1      -2.443   6.975  39.670  1.00  0.00     0.000 C 
BRANCH   7   8
ATOM      8  C   UNL     1      -1.846   5.635  39.196  1.00  0.00     0.000 C 
BRANCH   8   9
ATOM      9  C   UNL     1      -1.808   5.442  37.670  1.00  0.00     0.000 C 
BRANCH   9  10
ATOM     10  C   UNL     1      -0.626   6.163  37.007  1.00  0.00     0.000 C 
BRANCH  10  11
ATOM     11  C   UNL     1       0.688   5.843  37.735  1.00  0.00     0.000 C 
BRANCH  11  12
ATOM     12  C   UNL     1       1.366   4.561  37.221  1.00  0.00     0.000 C 
BRANCH  12  13
ATOM     13  C   UNL     1       2.904   4.570  37.276  1.00  0.00     0.006 C 
BRANCH  13  14
ATOM     14  C   UNL     1       3.533   3.295  36.698  1.00  0.00     0.053 C 
BRANCH  14  15
ATOM     15  C   UNL     1       5.016   3.450  36.561  1.00  0.00     0.041 C 
ATOM     16  O   UNL     1       5.496   4.249  35.714  1.00  0.00    -0.550 OA
ATOM     17  O   UNL     1       5.869   2.719  37.379  1.00  0.00    -0.550 OA
ENDBRANCH  14  15
ENDBRANCH  13  14
ENDBRANCH  12  13
ENDBRANCH  11  12
ENDBRANCH  10  11
ENDBRANCH   9  10
ENDBRANCH   8   9
ENDBRANCH   7   8
ENDBRANCH   6   7
ENDBRANCH   5   6
ENDBRANCH   4   5
ENDBRANCH   3   4
ENDBRANCH   2   3
ENDBRANCH   1   2
BRANCH   1  18
ATOM     18  C   UNL     1       0.690   9.032  35.080  1.00  0.00     0.000 C 
BRANCH  18  19
ATOM     19  C   UNL     1       1.501   9.220  33.786  1.00  0.00     0.000 C 
BRANCH  19  20
ATOM     20  C   UNL     1       1.754   7.898  33.048  1.00  0.00     0.000 C 
BRANCH  20  21
ATOM     21  C   UNL     1       1.539   6.701  33.984  1.00  0.00     0.000 C 
BRANCH  21  22
ATOM     22  C   UNL     1       2.653   5.642  33.874  1.00  0.00     0.000 C 
BRANCH  22  23
ATOM     23  C   UNL     1       2.233   4.323  33.199  1.00  0.00     0.000 C 
BRANCH  23  24
ATOM     24  C   UNL     1       0.710   4.136  33.146  1.00  0.00    -0.000 C 
BRANCH  24  25
ATOM     25  C   UNL     1       0.276   3.453  31.844  1.00  0.00    -0.000 C 
BRANCH  25  26
ATOM     26  C   UNL     1      -0.136   4.457  30.754  1.00  0.00    -0.000 C 
BRANCH  26  27
ATOM     27  C   UNL     1       0.879   4.566  29.595  1.00  0.00    -0.000 C 
BRANCH  27  28
ATOM     28  C   UNL     1       1.890   5.703  29.808  1.00  0.00    -0.000 C 
BRANCH  28  29
ATOM     29  C   UNL     1       2.686   5.979  28.525  1.00  0.00    -0.000 C 
BRANCH  29  30
ATOM     30  C   UNL     1       2.963   7.476  28.302  1.00  0.00    -0.000 C 
BRANCH  30  31
ATOM     31  C   UNL     1       2.734   8.341  29.559  1.00  0.00    -0.003 C 
ATOM     32  C   UNL     1       2.239   9.744  29.213  1.00  0.00     0.004 C 
ENDBRANCH  30  31
ENDBRANCH  29  30
ENDBRANCH  28  29
ENDBRANCH  27  28
ENDBRANCH  26  27
ENDBRANCH  25  26
ENDBRANCH  24  25
ENDBRANCH  23  24
ENDBRANCH  22  23
ENDBRANCH  21  22
ENDBRANCH  20  21
ENDBRANCH  19  20
ENDBRANCH  18  19
ENDBRANCH   1  18
TORSDOF 28
ENDMDL
MODEL 5
REMARK VINA RESULT:    -3.042      2.145      5.568
REMARK INTER + INTRA:         -14.105
REMARK INTER:                  -9.536
REMARK INTRA:                  -4.569
REMARK UNBOUND:                -6.084
REMARK SMILES CCCCCCCCCCCCCCCCCCCCCCCCCCCCCC(=O)[O-]
REMARK SMILES IDX 16 1 17 2 18 3 19 4 20 5 21 6 22 7 23 8 24 9 25 10 26 11
REMARK SMILES IDX 27 12 28 13 29 14 30 15 31 16 32 17 15 18 14 19 13 20 12 21
REMARK SMILES IDX 11 22 10 23 9 24 8 25 7 26 6 27 5 28 4 29 3 30 2 31 1 32
REMARK H PARENT
REMARK Flexibility Score: inf
ROOT
ATOM      1  C   UNL     1      -2.316   7.250  40.766  1.00  0.00     0.000 C 
ENDROOT
BRANCH   1   2
ATOM      2  C   UNL     1      -2.254   8.266  39.611  1.00  0.00     0.000 C 
BRANCH   2   3
ATOM      3  C   UNL     1      -0.903   8.998  39.534  1.00  0.00     0.000 C 
BRANCH   3   4
ATOM      4  C   UNL     1       0.001   8.700  40.741  1.00  0.00     0.000 C 
BRANCH   4   5
ATOM      5  C   UNL     1       1.485   8.982  40.459  1.00  0.00     0.000 C 
BRANCH   5   6
ATOM      6  C   UNL     1       1.643   9.985  39.307  1.00  0.00     0.000 C 
BRANCH   6   7
ATOM      7  C   UNL     1       2.600   9.491  38.208  1.00  0.00     0.000 C 
BRANCH   7   8
ATOM      8  C   UNL     1       2.164   9.817  36.766  1.00  0.00     0.000 C 
BRANCH   8   9
ATOM      9  C   UNL     1       0.643   9.857  36.538  1.00  0.00     0.000 C 
BRANCH   9  10
ATOM     10  C   UNL     1       0.258   9.713  35.058  1.00  0.00     0.000 C 
BRANCH  10  11
ATOM     11  C   UNL     1       1.509   9.584  34.177  1.00  0.00     0.000 C 
BRANCH  11  12
ATOM     12  C   UNL     1       1.525   8.295  33.337  1.00  0.00     0.000 C 
BRANCH  12  13
ATOM     13  C   UNL     1       1.787   7.003  34.132  1.00  0.00     0.006 C 
BRANCH  13  14
ATOM     14  C   UNL     1       2.464   5.909  33.294  1.00  0.00     0.053 C 
BRANCH  14  15
ATOM     15  C   UNL     1       1.533   5.395  32.240  1.00  0.00     0.041 C 
ATOM     16  O   UNL     1       0.499   4.754  32.565  1.00  0.00    -0.550 OA
ATOM     17  O   UNL     1       1.802   5.634  30.899  1.00  0.00    -0.550 OA
ENDBRANCH  14  15
ENDBRANCH  13  14
ENDBRANCH  12  13
ENDBRANCH  11  12
ENDBRANCH  10  11
ENDBRANCH   9  10
ENDBRANCH   8   9
ENDBRANCH   7   8
ENDBRANCH   6   7
ENDBRANCH   5   6
ENDBRANCH   4   5
ENDBRANCH   3   4
ENDBRANCH   2   3
ENDBRANCH   1   2
BRANCH   1  18
ATOM     18  C   UNL     1      -2.614   5.795  40.349  1.00  0.00     0.000 C 
BRANCH  18  19
ATOM     19  C   UNL     1      -2.802   5.574  38.838  1.00  0.00     0.000 C 
BRANCH  19  20
ATOM     20  C   UNL     1      -1.600   4.876  38.186  1.00  0.00     0.000 C 
BRANCH  20  21
ATOM     21  C   UNL     1      -0.679   4.268  39.252  1.00  0.00     0.000 C 
BRANCH  21  22
ATOM     22  C   UNL     1       0.691   4.967  39.335  1.00  0.00     0.000 C 
BRANCH  22  23
ATOM     23  C   UNL     1       0.902   6.111  38.325  1.00  0.00     0.000 C 
BRANCH  23  24
ATOM     24  C   UNL     1       1.987   5.798  37.286  1.00  0.00    -0.000 C 
BRANCH  24  25
ATOM     25  C   UNL     1       3.390   5.871  37.903  1.00  0.00    -0.000 C 
BRANCH  25  26
ATOM     26  C   UNL     1       4.251   4.641  37.568  1.00  0.00    -0.000 C 
BRANCH  26  27
ATOM     27  C   UNL     1       4.162   4.206  36.089  1.00  0.00    -0.000 C 
BRANCH  27  28
ATOM     28  C   UNL     1       4.880   2.872  35.828  1.00  0.00    -0.000 C 
BRANCH  28  29
ATOM     29  C   UNL     1       5.984   3.039  34.775  1.00  0.00    -0.000 C 
BRANCH  29  30
ATOM     30  C   UNL     1       5.986   1.914  33.726  1.00  0.00    -0.000 C 
BRANCH  30  31
ATOM     31  C   UNL     1       5.687   2.404  32.294  1.00  0.00    -0.003 C 
ATOM     32  C   UNL     1       4.222   2.798  32.112  1.00  0.00     0.004 C 
ENDBRANCH  30  31
ENDBRANCH  29  30
ENDBRANCH  28  29
ENDBRANCH  27  28
ENDBRANCH  26  27
ENDBRANCH  25  26
ENDBRANCH  24  25
ENDBRANCH  23  24
ENDBRANCH  22  23
ENDBRANCH  21  22
ENDBRANCH  20  21
ENDBRANCH  19  20
ENDBRANCH  18  19
ENDBRANCH   1  18
TORSDOF 28
ENDMDL
MODEL 6
REMARK VINA RESULT:    -3.023      2.410      4.364
REMARK INTER + INTRA:         -14.056
REMARK INTER:                  -8.797
REMARK INTRA:                  -5.259
REMARK UNBOUND:                -6.084
REMARK SMILES CCCCCCCCCCCCCCCCCCCCCCCCCCCCCC(=O)[O-]
REMARK SMILES IDX 16 1 17 2 18 3 19 4 20 5 21 6 22 7 23 8 24 9 25 10 26 11
REMARK SMILES IDX 27 12 28 13 29 14 30 15 31 16 32 17 15 18 14 19 13 20 12 21
REMARK SMILES IDX 11 22 10 23 9 24 8 25 7 26 6 27 5 28 4 29 3 30 2 31 1 32
REMARK H PARENT
REMARK Flexibility Score: inf
ROOT
ATOM      1  C   UNL     1      -2.327   8.126  39.534  1.00  0.00     0.000 C 
ENDROOT
BRANCH   1   2
ATOM      2  C   UNL     1      -2.116   6.614  39.736  1.00  0.00     0.000 C 
BRANCH   2   3
ATOM      3  C   UNL     1      -2.470   5.791  38.485  1.00  0.00     0.000 C 
BRANCH   3   4
ATOM      4  C   UNL     1      -1.336   5.775  37.447  1.00  0.00     0.000 C 
BRANCH   4   5
ATOM      5  C   UNL     1      -0.763   4.369  37.211  1.00  0.00     0.000 C 
BRANCH   5   6
ATOM      6  C   UNL     1      -0.086   4.278  35.836  1.00  0.00     0.000 C 
BRANCH   6   7
ATOM      7  C   UNL     1       1.449   4.239  35.926  1.00  0.00     0.000 C 
BRANCH   7   8
ATOM      8  C   UNL     1       2.185   5.200  34.970  1.00  0.00     0.000 C 
BRANCH   8   9
ATOM      9  C   UNL     1       3.593   4.745  34.546  1.00  0.00     0.000 C 
BRANCH   9  10
ATOM     10  C   UNL     1       3.590   3.387  33.830  1.00  0.00     0.000 C 
BRANCH  10  11
ATOM     11  C   UNL     1       3.047   3.523  32.400  1.00  0.00     0.000 C 
BRANCH  11  12
ATOM     12  C   UNL     1       2.137   2.352  31.987  1.00  0.00     0.000 C 
BRANCH  12  13
ATOM     13  C   UNL     1       0.632   2.591  32.200  1.00  0.00     0.006 C 
BRANCH  13  14
ATOM     14  C   UNL     1       0.234   4.068  32.073  1.00  0.00     0.053 C 
BRANCH  14  15
ATOM     15  C   UNL     1      -0.087   4.412  30.651  1.00  0.00     0.041 C 
ATOM     16  O   UNL     1       0.778   4.965  29.922  1.00  0.00    -0.550 OA
ATOM     17  O   UNL     1      -1.338   4.110  30.129  1.00  0.00    -0.550 OA
ENDBRANCH  14  15
ENDBRANCH  13  14
ENDBRANCH  12  13
ENDBRANCH  11  12
ENDBRANCH  10  11
ENDBRANCH   9  10
ENDBRANCH   8   9
ENDBRANCH   7   8
ENDBRANCH   6   7
ENDBRANCH   5   6
ENDBRANCH   4   5
ENDBRANCH   3   4
ENDBRANCH   2   3
ENDBRANCH   1   2
BRANCH   1  18
ATOM     18  C   UNL     1      -1.076   9.001  39.752  1.00  0.00     0.000 C 
BRANCH  18  19
ATOM     19  C   UNL     1      -0.784  10.013  38.631  1.00  0.00     0.000 C 
BRANCH  19  20
ATOM     20  C   UNL     1      -1.499   9.666  37.318  1.00  0.00     0.000 C 
BRANCH  20  21
ATOM     21  C   UNL     1      -0.500   9.145  36.275  1.00  0.00     0.000 C 
BRANCH  21  22
ATOM     22  C   UNL     1       0.969   9.334  36.699  1.00  0.00     0.000 C 
BRANCH  22  23
ATOM     23  C   UNL     1       1.757   8.029  36.917  1.00  0.00     0.000 C 
BRANCH  23  24
ATOM     24  C   UNL     1       2.163   7.813  38.381  1.00  0.00    -0.000 C 
BRANCH  24  25
ATOM     25  C   UNL     1       2.014   6.343  38.792  1.00  0.00    -0.000 C 
BRANCH  25  26
ATOM     26  C   UNL     1       1.230   6.169  40.104  1.00  0.00    -0.000 C 
BRANCH  26  27
ATOM     27  C   UNL     1       1.022   4.694  40.511  1.00  0.00    -0.000 C 
BRANCH  27  28
ATOM     28  C   UNL     1       0.773   4.533  42.020  1.00  0.00    -0.000 C 
BRANCH  28  29
ATOM     29  C   UNL     1      -0.444   3.636  42.284  1.00  0.00    -0.000 C 
BRANCH  29  30
ATOM     30  C   UNL     1      -1.226   3.295  41.004  1.00  0.00    -0.000 C 
BRANCH  30  31
ATOM     31  C   UNL     1      -2.757   3.309  41.194  1.00  0.00    -0.003 C 
ATOM     32  C   UNL     1      -3.252   2.108  41.998  1.00  0.00     0.004 C 
ENDBRANCH  30  31
ENDBRANCH  29  30
ENDBRANCH  28  29
ENDBRANCH  27  28
ENDBRANCH  26  27
ENDBRANCH  25  26
ENDBRANCH  24  25
ENDBRANCH  23  24
ENDBRANCH  22  23
ENDBRANCH  21  22
ENDBRANCH  20  21
ENDBRANCH  19  20
ENDBRANCH  18  19
ENDBRANCH   1  18
TORSDOF 28
ENDMDL
MODEL 7
REMARK VINA RESULT:    -3.017      2.052      3.982
REMARK INTER + INTRA:         -14.040
REMARK INTER:                  -8.603
REMARK INTRA:                  -5.437
REMARK UNBOUND:                -6.084
REMARK SMILES CCCCCCCCCCCCCCCCCCCCCCCCCCCCCC(=O)[O-]
REMARK SMILES IDX 16 1 17 2 18 3 19 4 20 5 21 6 22 7 23 8 24 9 25 10 26 11
REMARK SMILES IDX 27 12 28 13 29 14 30 15 31 16 32 17 15 18 14 19 13 20 12 21
REMARK SMILES IDX 11 22 10 23 9 24 8 25 7 26 6 27 5 28 4 29 3 30 2 31 1 32
REMARK H PARENT
REMARK Flexibility Score: inf
ROOT
ATOM      1  C   UNL     1      -1.143   4.132  37.111  1.00  0.00     0.000 C 
ENDROOT
BRANCH   1   2
ATOM      2  C   UNL     1       0.333   4.179  36.674  1.00  0.00     0.000 C 
BRANCH   2   3
ATOM      3  C   UNL     1       1.216   3.188  37.450  1.00  0.00     0.000 C 
BRANCH   3   4
ATOM      4  C   UNL     1       2.713   3.377  37.161  1.00  0.00     0.000 C 
BRANCH   4   5
ATOM      5  C   UNL     1       3.533   3.673  38.427  1.00  0.00     0.000 C 
BRANCH   5   6
ATOM      6  C   UNL     1       4.838   4.402  38.077  1.00  0.00     0.000 C 
BRANCH   6   7
ATOM      7  C   UNL     1       5.995   3.439  37.760  1.00  0.00     0.000 C 
BRANCH   7   8
ATOM      8  C   UNL     1       6.061   2.954  36.298  1.00  0.00     0.000 C 
BRANCH   8   9
ATOM      9  C   UNL     1       6.277   4.062  35.253  1.00  0.00     0.000 C 
BRANCH   9  10
ATOM     10  C   UNL     1       5.652   3.727  33.891  1.00  0.00     0.000 C 
BRANCH  10  11
ATOM     11  C   UNL     1       4.304   3.013  34.068  1.00  0.00     0.000 C 
BRANCH  11  12
ATOM     12  C   UNL     1       3.348   3.226  32.881  1.00  0.00     0.000 C 
BRANCH  12  13
ATOM     13  C   UNL     1       2.064   4.009  33.211  1.00  0.00     0.006 C 
BRANCH  13  14
ATOM     14  C   UNL     1       2.342   5.419  33.750  1.00  0.00     0.053 C 
BRANCH  14  15
ATOM     15  C   UNL     1       1.773   6.459  32.836  1.00  0.00     0.041 C 
ATOM     16  O   UNL     1       1.842   7.679  33.143  1.00  0.00    -0.550 OA
ATOM     17  O   UNL     1       1.177   6.082  31.640  1.00  0.00    -0.550 OA
ENDBRANCH  14  15
ENDBRANCH  13  14
ENDBRANCH  12  13
ENDBRANCH  11  12
ENDBRANCH  10  11
ENDBRANCH   9  10
ENDBRANCH   8   9
ENDBRANCH   7   8
ENDBRANCH   6   7
ENDBRANCH   5   6
ENDBRANCH   4   5
ENDBRANCH   3   4
ENDBRANCH   2   3
ENDBRANCH   1   2
BRANCH   1  18
ATOM     18  C   UNL     1      -1.450   4.796  38.470  1.00  0.00     0.000 C 
BRANCH  18  19
ATOM     19  C   UNL     1      -1.981   6.237  38.387  1.00  0.00     0.000 C 
BRANCH  19  20
ATOM     20  C   UNL     1      -2.622   6.709  39.699  1.00  0.00     0.000 C 
BRANCH  20  21
ATOM     21  C   UNL     1      -2.515   8.234  39.841  1.00  0.00     0.000 C 
BRANCH  21  22
ATOM     22  C   UNL     1      -1.857   8.908  38.622  1.00  0.00     0.000 C 
BRANCH  22  23
ATOM     23  C   UNL     1      -0.751   9.927  38.958  1.00  0.00     0.000 C 
BRANCH  23  24
ATOM     24  C   UNL     1       0.248  10.125  37.810  1.00  0.00    -0.000 C 
BRANCH  24  25
ATOM     25  C   UNL     1       0.259   8.918  36.864  1.00  0.00    -0.000 C 
BRANCH  25  26
ATOM     26  C   UNL     1       1.683   8.451  36.513  1.00  0.00    -0.000 C 
BRANCH  26  27
ATOM     27  C   UNL     1       2.065   7.096  37.149  1.00  0.00    -0.000 C 
BRANCH  27  28
ATOM     28  C   UNL     1       2.483   7.239  38.621  1.00  0.00    -0.000 C 
BRANCH  28  29
ATOM     29  C   UNL     1       1.425   6.633  39.554  1.00  0.00    -0.000 C 
BRANCH  29  30
ATOM     30  C   UNL     1       1.144   7.507  40.788  1.00  0.00    -0.000 C 
BRANCH  30  31
ATOM     31  C   UNL     1       0.192   6.848  41.808  1.00  0.00    -0.003 C 
ATOM     32  C   UNL     1       0.764   5.552  42.381  1.00  0.00     0.004 C 
ENDBRANCH  30  31
ENDBRANCH  29  30
ENDBRANCH  28  29
ENDBRANCH  27  28
ENDBRANCH  26  27
ENDBRANCH  25  26
ENDBRANCH  24  25
ENDBRANCH  23  24
ENDBRANCH  22  23
ENDBRANCH  21  22
ENDBRANCH  20  21
ENDBRANCH  19  20
ENDBRANCH  18  19
ENDBRANCH   1  18
TORSDOF 28
ENDMDL
MODEL 8
REMARK VINA RESULT:    -2.982      1.985      4.470
REMARK INTER + INTRA:         -13.948
REMARK INTER:                  -8.493
REMARK INTRA:                  -5.455
REMARK UNBOUND:                -6.084
REMARK SMILES CCCCCCCCCCCCCCCCCCCCCCCCCCCCCC(=O)[O-]
REMARK SMILES IDX 16 1 17 2 18 3 19 4 20 5 21 6 22 7 23 8 24 9 25 10 26 11
REMARK SMILES IDX 27 12 28 13 29 14 30 15 31 16 32 17 15 18 14 19 13 20 12 21
REMARK SMILES IDX 11 22 10 23 9 24 8 25 7 26 6 27 5 28 4 29 3 30 2 31 1 32
REMARK H PARENT
REMARK Flexibility Score: inf
ROOT
ATOM      1  C   UNL     1      -1.639   8.601  38.558  1.00  0.00     0.000 C 
ENDROOT
BRANCH   1   2
ATOM      2  C   UNL     1      -0.780   9.796  39.011  1.00  0.00     0.000 C 
BRANCH   2   3
ATOM      3  C   UNL     1       0.577   9.863  38.289  1.00  0.00     0.000 C 
BRANCH   3   4
ATOM      4  C   UNL     1       0.430  10.077  36.774  1.00  0.00     0.000 C 
BRANCH   4   5
ATOM      5  C   UNL     1       1.584   9.457  35.970  1.00  0.00     0.000 C 
BRANCH   5   6
ATOM      6  C   UNL     1       1.110   8.216  35.199  1.00  0.00     0.000 C 
BRANCH   6   7
ATOM      7  C   UNL     1       1.480   8.260  33.707  1.00  0.00     0.000 C 
BRANCH   7   8
ATOM      8  C   UNL     1       2.161   6.988  33.164  1.00  0.00     0.000 C 
BRANCH   8   9
ATOM      9  C   UNL     1       2.025   5.744  34.059  1.00  0.00     0.000 C 
BRANCH   9  10
ATOM     10  C   UNL     1       1.036   4.711  33.499  1.00  0.00     0.000 C 
BRANCH  10  11
ATOM     11  C   UNL     1       1.745   3.384  33.193  1.00  0.00     0.000 C 
BRANCH  11  12
ATOM     12  C   UNL     1       3.152   3.574  32.599  1.00  0.00     0.000 C 
BRANCH  12  13
ATOM     13  C   UNL     1       4.283   2.859  33.360  1.00  0.00     0.006 C 
BRANCH  13  14
ATOM     14  C   UNL     1       5.377   3.818  33.849  1.00  0.00     0.053 C 
BRANCH  14  15
ATOM     15  C   UNL     1       6.598   3.060  34.270  1.00  0.00     0.041 C 
ATOM     16  O   UNL     1       7.219   2.346  33.439  1.00  0.00    -0.550 OA
ATOM     17  O   UNL     1       7.058   3.154  35.578  1.00  0.00    -0.550 OA
ENDBRANCH  14  15
ENDBRANCH  13  14
ENDBRANCH  12  13
ENDBRANCH  11  12
ENDBRANCH  10  11
ENDBRANCH   9  10
ENDBRANCH   8   9
ENDBRANCH   7   8
ENDBRANCH   6   7
ENDBRANCH   5   6
ENDBRANCH   4   5
ENDBRANCH   3   4
ENDBRANCH   2   3
ENDBRANCH   1   2
BRANCH   1  18
ATOM     18  C   UNL     1      -2.217   7.735  39.696  1.00  0.00     0.000 C 
BRANCH  18  19
ATOM     19  C   UNL     1      -1.523   7.901  41.059  1.00  0.00     0.000 C 
BRANCH  19  20
ATOM     20  C   UNL     1      -0.674   6.682  41.444  1.00  0.00     0.000 C 
BRANCH  20  21
ATOM     21  C   UNL     1       0.765   6.836  40.932  1.00  0.00     0.000 C 
BRANCH  21  22
ATOM     22  C   UNL     1       1.111   5.849  39.801  1.00  0.00     0.000 C 
BRANCH  22  23
ATOM     23  C   UNL     1       1.367   6.496  38.427  1.00  0.00     0.000 C 
BRANCH  23  24
ATOM     24  C   UNL     1       2.817   6.336  37.951  1.00  0.00    -0.000 C 
BRANCH  24  25
ATOM     25  C   UNL     1       3.435   5.031  38.470  1.00  0.00    -0.000 C 
BRANCH  25  26
ATOM     26  C   UNL     1       4.297   4.320  37.414  1.00  0.00    -0.000 C 
BRANCH  26  27
ATOM     27  C   UNL     1       3.694   2.989  36.914  1.00  0.00    -0.000 C 
BRANCH  27  28
ATOM     28  C   UNL     1       2.409   2.609  37.669  1.00  0.00    -0.000 C 
BRANCH  28  29
ATOM     29  C   UNL     1       1.182   2.716  36.754  1.00  0.00    -0.000 C 
BRANCH  29  30
ATOM     30  C   UNL     1       0.012   3.473  37.407  1.00  0.00    -0.000 C 
BRANCH  30  31
ATOM     31  C   UNL     1      -0.991   4.056  36.390  1.00  0.00    -0.003 C 
ATOM     32  C   UNL     1      -1.907   5.106  37.017  1.00  0.00     0.004 C 
ENDBRANCH  30  31
ENDBRANCH  29  30
ENDBRANCH  28  29
ENDBRANCH  27  28
ENDBRANCH  26  27
ENDBRANCH  25  26
ENDBRANCH  24  25
ENDBRANCH  23  24
ENDBRANCH  22  23
ENDBRANCH  21  22
ENDBRANCH  20  21
ENDBRANCH  19  20
ENDBRANCH  18  19
ENDBRANCH   1  18
TORSDOF 28
ENDMDL
MODEL 9
REMARK VINA RESULT:    -2.963      2.613      5.674
REMARK INTER + INTRA:         -13.898
REMARK INTER:                  -7.764
REMARK INTRA:                  -6.134
REMARK UNBOUND:                -6.084
REMARK SMILES CCCCCCCCCCCCCCCCCCCCCCCCCCCCCC(=O)[O-]
REMARK SMILES IDX 16 1 17 2 18 3 19 4 20 5 21 6 22 7 23 8 24 9 25 10 26 11
REMARK SMILES IDX 27 12 28 13 29 14 30 15 31 16 32 17 15 18 14 19 13 20 12 21
REMARK SMILES IDX 11 22 10 23 9 24 8 25 7 26 6 27 5 28 4 29 3 30 2 31 1 32
REMARK H PARENT
REMARK Flexibility Score: inf
ROOT
ATOM      1  C   UNL     1       1.539   9.152  40.035  1.00  0.00     0.000 C 
ENDROOT
BRANCH   1   2
ATOM      2  C   UNL     1       1.023   9.067  41.483  1.00  0.00     0.000 C 
BRANCH   2   3
ATOM      3  C   UNL     1       0.227   7.780  41.757  1.00  0.00     0.000 C 
BRANCH   3   4
ATOM      4  C   UNL     1      -0.982   8.016  42.676  1.00  0.00     0.000 C 
BRANCH   4   5
ATOM      5  C   UNL     1      -1.968   6.837  42.682  1.00  0.00     0.000 C 
BRANCH   5   6
ATOM      6  C   UNL     1      -1.282   5.548  42.205  1.00  0.00     0.000 C 
BRANCH   6   7
ATOM      7  C   UNL     1      -2.211   4.649  41.371  1.00  0.00     0.000 C 
BRANCH   7   8
ATOM      8  C   UNL     1      -1.517   3.463  40.670  1.00  0.00     0.000 C 
BRANCH   8   9
ATOM      9  C   UNL     1      -0.371   2.816  41.466  1.00  0.00     0.000 C 
BRANCH   9  10
ATOM     10  C   UNL     1       0.449   1.822  40.630  1.00  0.00     0.000 C 
BRANCH  10  11
ATOM     11  C   UNL     1       1.571   2.544  39.869  1.00  0.00     0.000 C 
BRANCH  11  12
ATOM     12  C   UNL     1       1.725   2.056  38.417  1.00  0.00     0.000 C 
BRANCH  12  13
ATOM     13  C   UNL     1       2.947   2.618  37.668  1.00  0.00     0.006 C 
BRANCH  13  14
ATOM     14  C   UNL     1       4.192   2.742  38.558  1.00  0.00     0.053 C 
BRANCH  14  15
ATOM     15  C   UNL     1       5.109   3.808  38.043  1.00  0.00     0.041 C 
ATOM     16  O   UNL     1       5.329   4.841  38.728  1.00  0.00    -0.550 OA
ATOM     17  O   UNL     1       5.731   3.653  36.810  1.00  0.00    -0.550 OA
ENDBRANCH  14  15
ENDBRANCH  13  14
ENDBRANCH  12  13
ENDBRANCH  11  12
ENDBRANCH  10  11
ENDBRANCH   9  10
ENDBRANCH   8   9
ENDBRANCH   7   8
ENDBRANCH   6   7
ENDBRANCH   5   6
ENDBRANCH   4   5
ENDBRANCH   3   4
ENDBRANCH   2   3
ENDBRANCH   1   2
BRANCH   1  18
ATOM     18  C   UNL     1       0.737  10.085  39.104  1.00  0.00     0.000 C 
BRANCH  18  19
ATOM     19  C   UNL     1       0.509   9.548  37.680  1.00  0.00     0.000 C 
BRANCH  19  20
ATOM     20  C   UNL     1      -0.961   9.198  37.407  1.00  0.00     0.000 C 
BRANCH  20  21
ATOM     21  C   UNL     1      -1.675   8.793  38.704  1.00  0.00     0.000 C 
BRANCH  21  22
ATOM     22  C   UNL     1      -1.668   7.272  38.946  1.00  0.00     0.000 C 
BRANCH  22  23
ATOM     23  C   UNL     1      -1.544   6.410  37.676  1.00  0.00     0.000 C 
BRANCH  23  24
ATOM     24  C   UNL     1      -0.365   5.429  37.732  1.00  0.00    -0.000 C 
BRANCH  24  25
ATOM     25  C   UNL     1       0.672   5.861  38.776  1.00  0.00    -0.000 C 
BRANCH  25  26
ATOM     26  C   UNL     1       2.081   6.032  38.180  1.00  0.00    -0.000 C 
BRANCH  26  27
ATOM     27  C   UNL     1       2.080   6.571  36.733  1.00  0.00    -0.000 C 
BRANCH  27  28
ATOM     28  C   UNL     1       2.773   5.613  35.752  1.00  0.00    -0.000 C 
BRANCH  28  29
ATOM     29  C   UNL     1       2.362   5.915  34.304  1.00  0.00    -0.000 C 
BRANCH  29  30
ATOM     30  C   UNL     1       1.229   5.003  33.801  1.00  0.00    -0.000 C 
BRANCH  30  31
ATOM     31  C   UNL     1       1.129   3.665  34.562  1.00  0.00    -0.003 C 
ATOM     32  C   UNL     1      -0.308   3.329  34.956  1.00  0.00     0.004 C 
ENDBRANCH  30  31
ENDBRANCH  29  30
ENDBRANCH  28  29
ENDBRANCH  27  28
ENDBRANCH  26  27
ENDBRANCH  25  26
ENDBRANCH  24  25
ENDBRANCH  23  24
ENDBRANCH  22  23
ENDBRANCH  21  22
ENDBRANCH  20  21
ENDBRANCH  19  20
ENDBRANCH  18  19
ENDBRANCH   1  18
TORSDOF 28
ENDMDL
