MODEL 1
REMARK VINA RESULT:    -3.697      0.000      0.000
REMARK INTER + INTRA:          -6.673
REMARK INTER:                  -6.290
REMARK INTRA:                  -0.382
REMARK UNBOUND:                -0.382
REMARK SMILES CCCCCCCCCCCCCC(=O)[O-]
REMARK SMILES IDX 8 1 9 2 10 3 11 4 12 5 13 6 14 7 15 8 16 9 7 10 6 11 5 12
REMARK SMILES IDX 4 13 3 14 2 15 1 16
REMARK H PARENT
REMARK Flexibility Score: inf
ROOT
ATOM      1  C   UNL     1      13.097  77.981   0.500  1.00  0.00     0.000 C 
ENDROOT
BRANCH   1   2
ATOM      2  C   UNL     1      14.122  78.624   1.449  1.00  0.00     0.000 C 
BRANCH   2   3
ATOM      3  C   UNL     1      13.504  79.714   2.338  1.00  0.00     0.000 C 
BRANCH   3   4
ATOM      4  C   UNL     1      12.043  79.973   1.952  1.00  0.00     0.000 C 
BRANCH   4   5
ATOM      5  C   UNL     1      11.160  80.116   3.200  1.00  0.00     0.006 C 
BRANCH   5   6
ATOM      6  C   UNL     1       9.671  79.930   2.883  1.00  0.00     0.053 C 
BRANCH   6   7
ATOM      7  C   UNL     1       8.966  79.159   3.957  1.00  0.00     0.041 C 
ATOM      8  O   UNL     1       8.076  79.712   4.655  1.00  0.00    -0.550 OA
ATOM      9  O   UNL     1       9.316  77.838   4.208  1.00  0.00    -0.550 OA
ENDBRANCH   6   7
ENDBRANCH   5   6
ENDBRANCH   4   5
ENDBRANCH   3   4
ENDBRANCH   2   3
ENDBRANCH   1   2
BRANCH   1  10
ATOM     10  C   UNL     1      13.704  76.856  -0.352  1.00  0.00     0.000 C 
BRANCH  10  11
ATOM     11  C   UNL     1      14.233  77.403  -1.686  1.00  0.00    -0.000 C 
BRANCH  11  12
ATOM     12  C   UNL     1      15.105  78.657  -1.508  1.00  0.00    -0.000 C 
BRANCH  12  13
ATOM     13  C   UNL     1      14.482  79.909  -2.150  1.00  0.00    -0.000 C 
BRANCH  13  14
ATOM     14  C   UNL     1      14.964  80.120  -3.601  1.00  0.00    -0.000 C 
BRANCH  14  15
ATOM     15  C   UNL     1      14.082  79.424  -4.650  1.00  0.00    -0.003 C 
ATOM     16  C   UNL     1      14.887  78.775  -5.773  1.00  0.00     0.004 C 
ENDBRANCH  14  15
ENDBRANCH  13  14
ENDBRANCH  12  13
ENDBRANCH  11  12
ENDBRANCH  10  11
ENDBRANCH   1  10
TORSDOF 12
ENDMDL
MODEL 2
REMARK VINA RESULT:    -2.487      3.881      6.324
REMARK INTER + INTRA:          -4.615
REMARK INTER:                  -4.382
REMARK INTRA:                  -0.233
REMARK UNBOUND:                -0.382
REMARK SMILES CCCCCCCCCCCCCC(=O)[O-]
REMARK SMILES IDX 8 1 9 2 10 3 11 4 12 5 13 6 14 7 15 8 16 9 7 10 6 11 5 12
REMARK SMILES IDX 4 13 3 14 2 15 1 16
REMARK H PARENT
REMARK Flexibility Score: inf
ROOT
ATOM      1  C   UNL     1       9.263  78.699   3.940  1.00  0.00     0.000 C 
ENDROOT
BRANCH   1   2
ATOM      2  C   UNL     1       7.953  79.103   4.636  1.00  0.00     0.000 C 
BRANCH   2   3
ATOM      3  C   UNL     1       7.655  78.250   5.879  1.00  0.00     0.000 C 
BRANCH   3   4
ATOM      4  C   UNL     1       6.146  78.045   6.052  1.00  0.00     0.000 C 
BRANCH   4   5
ATOM      5  C   UNL     1       5.706  78.377   7.486  1.00  0.00     0.006 C 
BRANCH   5   6
ATOM      6  C   UNL     1       4.254  77.961   7.759  1.00  0.00     0.053 C 
BRANCH   6   7
ATOM      7  C   UNL     1       3.792  78.414   9.110  1.00  0.00     0.041 C 
ATOM      8  O   UNL     1       3.504  79.623   9.310  1.00  0.00    -0.550 OA
ATOM      9  O   UNL     1       3.712  77.506  10.158  1.00  0.00    -0.550 OA
ENDBRANCH   6   7
ENDBRANCH   5   6
ENDBRANCH   4   5
ENDBRANCH   3   4
ENDBRANCH   2   3
ENDBRANCH   1   2
BRANCH   1  10
ATOM     10  C   UNL     1       9.799  79.793   3.004  1.00  0.00     0.000 C 
BRANCH  10  11
ATOM     11  C   UNL     1      11.307  80.001   3.211  1.00  0.00    -0.000 C 
BRANCH  11  12
ATOM     12  C   UNL     1      12.146  79.458   2.042  1.00  0.00    -0.000 C 
BRANCH  12  13
ATOM     13  C   UNL     1      13.625  79.873   2.132  1.00  0.00    -0.000 C 
BRANCH  13  14
ATOM     14  C   UNL     1      14.243  80.125   0.740  1.00  0.00    -0.000 C 
BRANCH  14  15
ATOM     15  C   UNL     1      14.979  78.904   0.163  1.00  0.00    -0.003 C 
ATOM     16  C   UNL     1      14.037  77.883  -0.471  1.00  0.00     0.004 C 
ENDBRANCH  14  15
ENDBRANCH  13  14
ENDBRANCH  12  13
ENDBRANCH  11  12
ENDBRANCH  10  11
ENDBRANCH   1  10
TORSDOF 12
ENDMDL
MODEL 3
REMARK VINA RESULT:    -1.723      1.703      2.975
REMARK INTER + INTRA:          -3.314
REMARK INTER:                  -3.126
REMARK INTRA:                  -0.188
REMARK UNBOUND:                -0.382
REMARK SMILES CCCCCCCCCCCCCC(=O)[O-]
REMARK SMILES IDX 8 1 9 2 10 3 11 4 12 5 13 6 14 7 15 8 16 9 7 10 6 11 5 12
REMARK SMILES IDX 4 13 3 14 2 15 1 16
REMARK H PARENT
REMARK Flexibility Score: inf
ROOT
ATOM      1  C   UNL     1      12.627  79.413   1.693  1.00  0.00     0.000 C 
ENDROOT
BRANCH   1   2
ATOM      2  C   UNL     1      11.442  80.082   2.408  1.00  0.00     0.000 C 
BRANCH   2   3
ATOM      3  C   UNL     1      10.517  79.068   3.097  1.00  0.00     0.000 C 
BRANCH   3   4
ATOM      4  C   UNL     1       9.633  79.756   4.144  1.00  0.00     0.000 C 
BRANCH   4   5
ATOM      5  C   UNL     1       8.180  79.268   4.045  1.00  0.00     0.006 C 
BRANCH   5   6
ATOM      6  C   UNL     1       7.393  79.522   5.337  1.00  0.00     0.053 C 
BRANCH   6   7
ATOM      7  C   UNL     1       7.174  78.258   6.111  1.00  0.00     0.041 C 
ATOM      8  O   UNL     1       8.147  77.514   6.400  1.00  0.00    -0.550 OA
ATOM      9  O   UNL     1       5.888  77.886   6.485  1.00  0.00    -0.550 OA
ENDBRANCH   6   7
ENDBRANCH   5   6
ENDBRANCH   4   5
ENDBRANCH   3   4
ENDBRANCH   2   3
ENDBRANCH   1   2
BRANCH   1  10
ATOM     10  C   UNL     1      13.986  79.940   2.179  1.00  0.00     0.000 C 
BRANCH  10  11
ATOM     11  C   UNL     1      15.122  79.445   1.271  1.00  0.00    -0.000 C 
BRANCH  11  12
ATOM     12  C   UNL     1      15.117  80.124  -0.108  1.00  0.00    -0.000 C 
BRANCH  12  13
ATOM     13  C   UNL     1      14.105  79.491  -1.079  1.00  0.00    -0.000 C 
BRANCH  13  14
ATOM     14  C   UNL     1      14.586  78.124  -1.611  1.00  0.00    -0.000 C 
BRANCH  14  15
ATOM     15  C   UNL     1      14.362  77.939  -3.121  1.00  0.00    -0.003 C 
ATOM     16  C   UNL     1      14.386  79.254  -3.896  1.00  0.00     0.004 C 
ENDBRANCH  14  15
ENDBRANCH  13  14
ENDBRANCH  12  13
ENDBRANCH  11  12
ENDBRANCH  10  11
ENDBRANCH   1  10
TORSDOF 12
ENDMDL
MODEL 4
REMARK VINA RESULT:    -1.205     22.671     23.918
REMARK INTER + INTRA:          -2.433
REMARK INTER:                  -2.635
REMARK INTRA:                   0.202
REMARK UNBOUND:                -0.382
REMARK SMILES CCCCCCCCCCCCCC(=O)[O-]
REMARK SMILES IDX 8 1 9 2 10 3 11 4 12 5 13 6 14 7 15 8 16 9 7 10 6 11 5 12
REMARK SMILES IDX 4 13 3 14 2 15 1 16
REMARK H PARENT
REMARK Flexibility Score: inf
ROOT
ATOM      1  C   UNL     1      -0.334  61.307  -2.796  1.00  0.00     0.000 C 
ENDROOT
BRANCH   1   2
ATOM      2  C   UNL     1      -1.267  60.338  -3.540  1.00  0.00     0.000 C 
BRANCH   2   3
ATOM      3  C   UNL     1      -2.595  60.111  -2.802  1.00  0.00     0.000 C 
BRANCH   3   4
ATOM      4  C   UNL     1      -3.740  59.875  -3.793  1.00  0.00     0.000 C 
BRANCH   4   5
ATOM      5  C   UNL     1      -3.292  60.168  -5.233  1.00  0.00     0.006 C 
BRANCH   5   6
ATOM      6  C   UNL     1      -4.175  61.222  -5.913  1.00  0.00     0.053 C 
BRANCH   6   7
ATOM      7  C   UNL     1      -4.133  61.101  -7.406  1.00  0.00     0.041 C 
ATOM      8  O   UNL     1      -4.826  61.868  -8.124  1.00  0.00    -0.550 OA
ATOM      9  O   UNL     1      -3.353  60.118  -8.002  1.00  0.00    -0.550 OA
ENDBRANCH   6   7
ENDBRANCH   5   6
ENDBRANCH   4   5
ENDBRANCH   3   4
ENDBRANCH   2   3
ENDBRANCH   1   2
BRANCH   1  10
ATOM     10  C   UNL     1       1.098  61.294  -3.353  1.00  0.00     0.000 C 
BRANCH  10  11
ATOM     11  C   UNL     1       1.296  60.125  -4.329  1.00  0.00    -0.000 C 
BRANCH  11  12
ATOM     12  C   UNL     1       0.400  60.233  -5.574  1.00  0.00    -0.000 C 
BRANCH  12  13
ATOM     13  C   UNL     1       1.163  59.952  -6.880  1.00  0.00    -0.000 C 
BRANCH  13  14
ATOM     14  C   UNL     1       2.605  60.503  -6.842  1.00  0.00    -0.000 C 
BRANCH  14  15
ATOM     15  C   UNL     1       3.405  60.222  -8.124  1.00  0.00    -0.003 C 
ATOM     16  C   UNL     1       4.904  60.461  -7.959  1.00  0.00     0.004 C 
ENDBRANCH  14  15
ENDBRANCH  13  14
ENDBRANCH  12  13
ENDBRANCH  11  12
ENDBRANCH  10  11
ENDBRANCH   1  10
TORSDOF 12
ENDMDL
MODEL 5
REMARK VINA RESULT:    -0.858      5.093     11.108
REMARK INTER + INTRA:          -1.842
REMARK INTER:                  -1.587
REMARK INTRA:                  -0.255
REMARK UNBOUND:                -0.382
REMARK SMILES CCCCCCCCCCCCCC(=O)[O-]
REMARK SMILES IDX 8 1 9 2 10 3 11 4 12 5 13 6 14 7 15 8 16 9 7 10 6 11 5 12
REMARK SMILES IDX 4 13 3 14 2 15 1 16
REMARK H PARENT
REMARK Flexibility Score: inf
ROOT
ATOM      1  C   UNL     1       7.984  78.275   5.399  1.00  0.00     0.000 C 
ENDROOT
BRANCH   1   2
ATOM      2  C   UNL     1       8.593  79.169   4.307  1.00  0.00     0.000 C 
BRANCH   2   3
ATOM      3  C   UNL     1       9.936  78.635   3.785  1.00  0.00     0.000 C 
BRANCH   3   4
ATOM      4  C   UNL     1      10.681  79.710   2.986  1.00  0.00     0.000 C 
BRANCH   4   5
ATOM      5  C   UNL     1      12.152  79.323   2.780  1.00  0.00     0.006 C 
BRANCH   5   6
ATOM      6  C   UNL     1      12.811  80.125   1.650  1.00  0.00     0.053 C 
BRANCH   6   7
ATOM      7  C   UNL     1      13.820  79.307   0.904  1.00  0.00     0.041 C 
ATOM      8  O   UNL     1      13.863  78.058   1.057  1.00  0.00    -0.550 OA
ATOM      9  O   UNL     1      14.734  79.929   0.062  1.00  0.00    -0.550 OA
ENDBRANCH   6   7
ENDBRANCH   5   6
ENDBRANCH   4   5
ENDBRANCH   3   4
ENDBRANCH   2   3
ENDBRANCH   1   2
BRANCH   1  10
ATOM     10  C   UNL     1       6.582  78.736   5.828  1.00  0.00     0.000 C 
BRANCH  10  11
ATOM     11  C   UNL     1       5.989  77.782   6.876  1.00  0.00    -0.000 C 
BRANCH  11  12
ATOM     12  C   UNL     1       4.532  78.122   7.230  1.00  0.00    -0.000 C 
BRANCH  12  13
ATOM     13  C   UNL     1       4.173  77.757   8.681  1.00  0.00    -0.000 C 
BRANCH  13  14
ATOM     14  C   UNL     1       3.819  79.002   9.523  1.00  0.00    -0.000 C 
BRANCH  14  15
ATOM     15  C   UNL     1       3.543  78.686  11.002  1.00  0.00    -0.003 C 
ATOM     16  C   UNL     1       4.759  78.906  11.898  1.00  0.00     0.004 C 
ENDBRANCH  14  15
ENDBRANCH  13  14
ENDBRANCH  12  13
ENDBRANCH  11  12
ENDBRANCH  10  11
ENDBRANCH   1  10
TORSDOF 12
ENDMDL
