MODEL 1
REMARK VINA RESULT:    -4.724      0.000      0.000
REMARK INTER + INTRA:         -16.656
REMARK INTER:                 -12.455
REMARK INTRA:                  -4.201
REMARK UNBOUND:                -4.201
REMARK SMILES CCCCCCCCCCCCCCCCCCCCCCCCCCCCCC(=O)[O-]
REMARK SMILES IDX 16 1 17 2 18 3 19 4 20 5 21 6 22 7 23 8 24 9 25 10 26 11
REMARK SMILES IDX 27 12 28 13 29 14 30 15 31 16 32 17 15 18 14 19 13 20 12 21
REMARK SMILES IDX 11 22 10 23 9 24 8 25 7 26 6 27 5 28 4 29 3 30 2 31 1 32
REMARK H PARENT
REMARK Flexibility Score: inf
ROOT
ATOM      1  C   UNL     1       6.745  77.774  67.616  1.00  0.00     0.000 C 
ENDROOT
BRANCH   1   2
ATOM      2  C   UNL     1       7.036  78.024  66.128  1.00  0.00     0.000 C 
BRANCH   2   3
ATOM      3  C   UNL     1       5.960  77.424  65.205  1.00  0.00     0.000 C 
BRANCH   3   4
ATOM      4  C   UNL     1       5.853  78.161  63.856  1.00  0.00     0.000 C 
BRANCH   4   5
ATOM      5  C   UNL     1       4.813  79.299  63.822  1.00  0.00     0.000 C 
BRANCH   5   6
ATOM      6  C   UNL     1       4.967  80.208  62.593  1.00  0.00     0.000 C 
BRANCH   6   7
ATOM      7  C   UNL     1       4.148  81.505  62.708  1.00  0.00     0.000 C 
BRANCH   7   8
ATOM      8  C   UNL     1       3.132  81.496  63.871  1.00  0.00     0.000 C 
BRANCH   8   9
ATOM      9  C   UNL     1       3.408  82.625  64.877  1.00  0.00     0.000 C 
BRANCH   9  10
ATOM     10  C   UNL     1       2.954  84.005  64.373  1.00  0.00     0.000 C 
BRANCH  10  11
ATOM     11  C   UNL     1       4.085  85.055  64.346  1.00  0.00     0.000 C 
BRANCH  11  12
ATOM     12  C   UNL     1       4.495  85.422  62.910  1.00  0.00     0.000 C 
BRANCH  12  13
ATOM     13  C   UNL     1       3.465  86.325  62.204  1.00  0.00     0.006 C 
BRANCH  13  14
ATOM     14  C   UNL     1       4.051  87.621  61.625  1.00  0.00     0.053 C 
BRANCH  14  15
ATOM     15  C   UNL     1       3.126  88.787  61.810  1.00  0.00     0.041 C 
ATOM     16  O   UNL     1       3.564  89.964  61.719  1.00  0.00    -0.550 OA
ATOM     17  O   UNL     1       1.787  88.575  62.115  1.00  0.00    -0.550 OA
ENDBRANCH  14  15
ENDBRANCH  13  14
ENDBRANCH  12  13
ENDBRANCH  11  12
ENDBRANCH  10  11
ENDBRANCH   9  10
ENDBRANCH   8   9
ENDBRANCH   7   8
ENDBRANCH   6   7
ENDBRANCH   5   6
ENDBRANCH   4   5
ENDBRANCH   3   4
ENDBRANCH   2   3
ENDBRANCH   1   2
BRANCH   1  18
ATOM     18  C   UNL     1       6.741  76.274  67.970  1.00  0.00     0.000 C 
BRANCH  18  19
ATOM     19  C   UNL     1       5.474  75.872  68.744  1.00  0.00     0.000 C 
BRANCH  19  20
ATOM     20  C   UNL     1       4.206  75.890  67.862  1.00  0.00     0.000 C 
BRANCH  20  21
ATOM     21  C   UNL     1       3.090  74.990  68.422  1.00  0.00     0.000 C 
BRANCH  21  22
ATOM     22  C   UNL     1       1.668  75.469  68.064  1.00  0.00     0.000 C 
BRANCH  22  23
ATOM     23  C   UNL     1       0.556  75.002  69.023  1.00  0.00     0.000 C 
BRANCH  23  24
ATOM     24  C   UNL     1      -0.220  76.161  69.690  1.00  0.00    -0.000 C 
BRANCH  24  25
ATOM     25  C   UNL     1       0.391  77.547  69.417  1.00  0.00    -0.000 C 
BRANCH  25  26
ATOM     26  C   UNL     1       0.732  78.303  70.714  1.00  0.00    -0.000 C 
BRANCH  26  27
ATOM     27  C   UNL     1       1.898  79.289  70.525  1.00  0.00    -0.000 C 
BRANCH  27  28
ATOM     28  C   UNL     1       2.938  78.784  69.510  1.00  0.00    -0.000 C 
BRANCH  28  29
ATOM     29  C   UNL     1       3.627  79.927  68.746  1.00  0.00    -0.000 C 
BRANCH  29  30
ATOM     30  C   UNL     1       3.610  79.710  67.222  1.00  0.00    -0.000 C 
BRANCH  30  31
ATOM     31  C   UNL     1       2.243  79.224  66.714  1.00  0.00    -0.003 C 
ATOM     32  C   UNL     1       1.158  80.298  66.808  1.00  0.00     0.004 C 
ENDBRANCH  30  31
ENDBRANCH  29  30
ENDBRANCH  28  29
ENDBRANCH  27  28
ENDBRANCH  26  27
ENDBRANCH  25  26
ENDBRANCH  24  25
ENDBRANCH  23  24
ENDBRANCH  22  23
ENDBRANCH  21  22
ENDBRANCH  20  21
ENDBRANCH  19  20
ENDBRANCH  18  19
ENDBRANCH   1  18
TORSDOF 28
ENDMDL
MODEL 2
REMARK VINA RESULT:    -4.666      4.144      8.666
REMARK INTER + INTRA:         -16.504
REMARK INTER:                 -12.510
REMARK INTRA:                  -3.994
REMARK UNBOUND:                -4.201
REMARK SMILES CCCCCCCCCCCCCCCCCCCCCCCCCCCCCC(=O)[O-]
REMARK SMILES IDX 16 1 17 2 18 3 19 4 20 5 21 6 22 7 23 8 24 9 25 10 26 11
REMARK SMILES IDX 27 12 28 13 29 14 30 15 31 16 32 17 15 18 14 19 13 20 12 21
REMARK SMILES IDX 11 22 10 23 9 24 8 25 7 26 6 27 5 28 4 29 3 30 2 31 1 32
REMARK H PARENT
REMARK Flexibility Score: inf
ROOT
ATOM      1  C   UNL     1       6.551  76.872  67.140  1.00  0.00     0.000 C 
ENDROOT
BRANCH   1   2
ATOM      2  C   UNL     1       6.516  78.213  67.889  1.00  0.00     0.000 C 
BRANCH   2   3
ATOM      3  C   UNL     1       5.167  78.466  68.587  1.00  0.00     0.000 C 
BRANCH   3   4
ATOM      4  C   UNL     1       4.512  79.792  68.153  1.00  0.00     0.000 C 
BRANCH   4   5
ATOM      5  C   UNL     1       4.089  79.850  66.672  1.00  0.00     0.000 C 
BRANCH   5   6
ATOM      6  C   UNL     1       2.569  79.732  66.482  1.00  0.00     0.000 C 
BRANCH   6   7
ATOM      7  C   UNL     1       1.872  81.101  66.411  1.00  0.00     0.000 C 
BRANCH   7   8
ATOM      8  C   UNL     1       0.740  81.276  67.447  1.00  0.00     0.000 C 
BRANCH   8   9
ATOM      9  C   UNL     1       1.272  81.215  68.888  1.00  0.00     0.000 C 
BRANCH   9  10
ATOM     10  C   UNL     1       0.608  80.111  69.729  1.00  0.00     0.000 C 
BRANCH  10  11
ATOM     11  C   UNL     1       1.598  79.035  70.225  1.00  0.00     0.000 C 
BRANCH  11  12
ATOM     12  C   UNL     1       0.947  77.643  70.294  1.00  0.00     0.000 C 
BRANCH  12  13
ATOM     13  C   UNL     1       0.921  76.924  68.932  1.00  0.00     0.006 C 
BRANCH  13  14
ATOM     14  C   UNL     1       2.310  76.660  68.329  1.00  0.00     0.053 C 
BRANCH  14  15
ATOM     15  C   UNL     1       2.720  75.225  68.469  1.00  0.00     0.041 C 
ATOM     16  O   UNL     1       1.876  74.305  68.297  1.00  0.00    -0.550 OA
ATOM     17  O   UNL     1       4.024  74.901  68.825  1.00  0.00    -0.550 OA
ENDBRANCH  14  15
ENDBRANCH  13  14
ENDBRANCH  12  13
ENDBRANCH  11  12
ENDBRANCH  10  11
ENDBRANCH   9  10
ENDBRANCH   8   9
ENDBRANCH   7   8
ENDBRANCH   6   7
ENDBRANCH   5   6
ENDBRANCH   4   5
ENDBRANCH   3   4
ENDBRANCH   2   3
ENDBRANCH   1   2
BRANCH   1  18
ATOM     18  C   UNL     1       6.331  77.040  65.623  1.00  0.00     0.000 C 
BRANCH  18  19
ATOM     19  C   UNL     1       7.271  78.097  65.022  1.00  0.00     0.000 C 
BRANCH  19  20
ATOM     20  C   UNL     1       6.708  78.732  63.732  1.00  0.00     0.000 C 
BRANCH  20  21
ATOM     21  C   UNL     1       5.246  78.326  63.469  1.00  0.00     0.000 C 
BRANCH  21  22
ATOM     22  C   UNL     1       4.729  78.737  62.075  1.00  0.00     0.000 C 
BRANCH  22  23
ATOM     23  C   UNL     1       3.401  79.521  62.071  1.00  0.00     0.000 C 
BRANCH  23  24
ATOM     24  C   UNL     1       3.375  80.708  63.059  1.00  0.00    -0.000 C 
BRANCH  24  25
ATOM     25  C   UNL     1       3.780  82.049  62.421  1.00  0.00    -0.000 C 
BRANCH  25  26
ATOM     26  C   UNL     1       3.045  83.245  63.052  1.00  0.00    -0.000 C 
BRANCH  26  27
ATOM     27  C   UNL     1       3.666  83.668  64.395  1.00  0.00    -0.000 C 
BRANCH  27  28
ATOM     28  C   UNL     1       4.285  85.076  64.341  1.00  0.00    -0.000 C 
BRANCH  28  29
ATOM     29  C   UNL     1       4.495  85.579  62.903  1.00  0.00    -0.000 C 
BRANCH  29  30
ATOM     30  C   UNL     1       3.439  86.617  62.482  1.00  0.00    -0.000 C 
BRANCH  30  31
ATOM     31  C   UNL     1       4.023  87.711  61.573  1.00  0.00    -0.003 C 
ATOM     32  C   UNL     1       3.343  89.068  61.767  1.00  0.00     0.004 C 
ENDBRANCH  30  31
ENDBRANCH  29  30
ENDBRANCH  28  29
ENDBRANCH  27  28
ENDBRANCH  26  27
ENDBRANCH  25  26
ENDBRANCH  24  25
ENDBRANCH  23  24
ENDBRANCH  22  23
ENDBRANCH  21  22
ENDBRANCH  20  21
ENDBRANCH  19  20
ENDBRANCH  18  19
ENDBRANCH   1  18
TORSDOF 28
ENDMDL
MODEL 3
REMARK VINA RESULT:    -4.664      1.057      2.019
REMARK INTER + INTRA:         -16.500
REMARK INTER:                 -12.356
REMARK INTRA:                  -4.144
REMARK UNBOUND:                -4.201
REMARK SMILES CCCCCCCCCCCCCCCCCCCCCCCCCCCCCC(=O)[O-]
REMARK SMILES IDX 16 1 17 2 18 3 19 4 20 5 21 6 22 7 23 8 24 9 25 10 26 11
REMARK SMILES IDX 27 12 28 13 29 14 30 15 31 16 32 17 15 18 14 19 13 20 12 21
REMARK SMILES IDX 11 22 10 23 9 24 8 25 7 26 6 27 5 28 4 29 3 30 2 31 1 32
REMARK H PARENT
REMARK Flexibility Score: inf
ROOT
ATOM      1  C   UNL     1       7.228  77.998  65.935  1.00  0.00     0.000 C 
ENDROOT
BRANCH   1   2
ATOM      2  C   UNL     1       6.157  77.512  64.946  1.00  0.00     0.000 C 
BRANCH   2   3
ATOM      3  C   UNL     1       5.180  78.629  64.535  1.00  0.00     0.000 C 
BRANCH   3   4
ATOM      4  C   UNL     1       4.872  78.625  63.025  1.00  0.00     0.000 C 
BRANCH   4   5
ATOM      5  C   UNL     1       4.746  80.022  62.387  1.00  0.00     0.000 C 
BRANCH   5   6
ATOM      6  C   UNL     1       3.588  80.843  62.975  1.00  0.00     0.000 C 
BRANCH   6   7
ATOM      7  C   UNL     1       3.955  82.321  63.187  1.00  0.00     0.000 C 
BRANCH   7   8
ATOM      8  C   UNL     1       3.662  82.835  64.614  1.00  0.00     0.000 C 
BRANCH   8   9
ATOM      9  C   UNL     1       3.156  84.287  64.603  1.00  0.00     0.000 C 
BRANCH   9  10
ATOM     10  C   UNL     1       1.892  84.477  63.747  1.00  0.00     0.000 C 
BRANCH  10  11
ATOM     11  C   UNL     1       1.895  85.784  62.926  1.00  0.00     0.000 C 
BRANCH  11  12
ATOM     12  C   UNL     1       3.075  85.842  61.942  1.00  0.00     0.000 C 
BRANCH  12  13
ATOM     13  C   UNL     1       4.030  87.019  62.218  1.00  0.00     0.006 C 
BRANCH  13  14
ATOM     14  C   UNL     1       4.111  88.049  61.081  1.00  0.00     0.053 C 
BRANCH  14  15
ATOM     15  C   UNL     1       3.379  89.314  61.417  1.00  0.00     0.041 C 
ATOM     16  O   UNL     1       3.750  90.411  60.922  1.00  0.00    -0.550 OA
ATOM     17  O   UNL     1       2.308  89.288  62.302  1.00  0.00    -0.550 OA
ENDBRANCH  14  15
ENDBRANCH  13  14
ENDBRANCH  12  13
ENDBRANCH  11  12
ENDBRANCH  10  11
ENDBRANCH   9  10
ENDBRANCH   8   9
ENDBRANCH   7   8
ENDBRANCH   6   7
ENDBRANCH   5   6
ENDBRANCH   4   5
ENDBRANCH   3   4
ENDBRANCH   2   3
ENDBRANCH   1   2
BRANCH   1  18
ATOM     18  C   UNL     1       6.777  77.861  67.404  1.00  0.00     0.000 C 
BRANCH  18  19
ATOM     19  C   UNL     1       6.785  76.396  67.870  1.00  0.00     0.000 C 
BRANCH  19  20
ATOM     20  C   UNL     1       5.511  76.014  68.655  1.00  0.00     0.000 C 
BRANCH  20  21
ATOM     21  C   UNL     1       4.346  75.622  67.727  1.00  0.00     0.000 C 
BRANCH  21  22
ATOM     22  C   UNL     1       3.310  74.692  68.392  1.00  0.00     0.000 C 
BRANCH  22  23
ATOM     23  C   UNL     1       1.888  75.276  68.516  1.00  0.00     0.000 C 
BRANCH  23  24
ATOM     24  C   UNL     1       1.809  76.792  68.234  1.00  0.00    -0.000 C 
BRANCH  24  25
ATOM     25  C   UNL     1       1.984  77.662  69.492  1.00  0.00    -0.000 C 
BRANCH  25  26
ATOM     26  C   UNL     1       2.788  78.945  69.211  1.00  0.00    -0.000 C 
BRANCH  26  27
ATOM     27  C   UNL     1       3.367  78.970  67.785  1.00  0.00    -0.000 C 
BRANCH  27  28
ATOM     28  C   UNL     1       3.032  80.272  67.037  1.00  0.00    -0.000 C 
BRANCH  28  29
ATOM     29  C   UNL     1       1.757  80.157  66.184  1.00  0.00    -0.000 C 
BRANCH  29  30
ATOM     30  C   UNL     1       0.553  80.867  66.828  1.00  0.00    -0.000 C 
BRANCH  30  31
ATOM     31  C   UNL     1       0.501  82.364  66.483  1.00  0.00    -0.003 C 
ATOM     32  C   UNL     1       1.079  83.248  67.589  1.00  0.00     0.004 C 
ENDBRANCH  30  31
ENDBRANCH  29  30
ENDBRANCH  28  29
ENDBRANCH  27  28
ENDBRANCH  26  27
ENDBRANCH  25  26
ENDBRANCH  24  25
ENDBRANCH  23  24
ENDBRANCH  22  23
ENDBRANCH  21  22
ENDBRANCH  20  21
ENDBRANCH  19  20
ENDBRANCH  18  19
ENDBRANCH   1  18
TORSDOF 28
ENDMDL
MODEL 4
REMARK VINA RESULT:    -4.629      3.316      9.756
REMARK INTER + INTRA:         -16.407
REMARK INTER:                 -12.109
REMARK INTRA:                  -4.298
REMARK UNBOUND:                -4.201
REMARK SMILES CCCCCCCCCCCCCCCCCCCCCCCCCCCCCC(=O)[O-]
REMARK SMILES IDX 16 1 17 2 18 3 19 4 20 5 21 6 22 7 23 8 24 9 25 10 26 11
REMARK SMILES IDX 27 12 28 13 29 14 30 15 31 16 32 17 15 18 14 19 13 20 12 21
REMARK SMILES IDX 11 22 10 23 9 24 8 25 7 26 6 27 5 28 4 29 3 30 2 31 1 32
REMARK H PARENT
REMARK Flexibility Score: inf
ROOT
ATOM      1  C   UNL     1       3.763  80.736  64.232  1.00  0.00     0.000 C 
ENDROOT
BRANCH   1   2
ATOM      2  C   UNL     1       2.513  79.844  64.177  1.00  0.00     0.000 C 
BRANCH   2   3
ATOM      3  C   UNL     1       1.692  79.895  65.479  1.00  0.00     0.000 C 
BRANCH   3   4
ATOM      4  C   UNL     1       2.143  81.025  66.425  1.00  0.00     0.000 C 
BRANCH   4   5
ATOM      5  C   UNL     1       1.156  81.348  67.564  1.00  0.00     0.000 C 
BRANCH   5   6
ATOM      6  C   UNL     1       1.821  81.330  68.949  1.00  0.00     0.000 C 
BRANCH   6   7
ATOM      7  C   UNL     1       2.946  80.287  69.054  1.00  0.00     0.000 C 
BRANCH   7   8
ATOM      8  C   UNL     1       2.472  78.913  69.575  1.00  0.00     0.000 C 
BRANCH   8   9
ATOM      9  C   UNL     1       3.042  77.758  68.736  1.00  0.00     0.000 C 
BRANCH   9  10
ATOM     10  C   UNL     1       4.182  78.198  67.802  1.00  0.00     0.000 C 
BRANCH  10  11
ATOM     11  C   UNL     1       5.501  77.433  68.036  1.00  0.00     0.000 C 
BRANCH  11  12
ATOM     12  C   UNL     1       6.728  78.257  67.611  1.00  0.00     0.000 C 
BRANCH  12  13
ATOM     13  C   UNL     1       7.362  77.758  66.299  1.00  0.00     0.006 C 
BRANCH  13  14
ATOM     14  C   UNL     1       6.416  77.781  65.089  1.00  0.00     0.053 C 
BRANCH  14  15
ATOM     15  C   UNL     1       7.031  78.473  63.909  1.00  0.00     0.041 C 
ATOM     16  O   UNL     1       6.342  78.706  62.881  1.00  0.00    -0.550 OA
ATOM     17  O   UNL     1       8.374  78.830  63.930  1.00  0.00    -0.550 OA
ENDBRANCH  14  15
ENDBRANCH  13  14
ENDBRANCH  12  13
ENDBRANCH  11  12
ENDBRANCH  10  11
ENDBRANCH   9  10
ENDBRANCH   8   9
ENDBRANCH   7   8
ENDBRANCH   6   7
ENDBRANCH   5   6
ENDBRANCH   4   5
ENDBRANCH   3   4
ENDBRANCH   2   3
ENDBRANCH   1   2
BRANCH   1  18
ATOM     18  C   UNL     1       3.871  81.673  63.012  1.00  0.00     0.000 C 
BRANCH  18  19
ATOM     19  C   UNL     1       3.058  82.963  63.208  1.00  0.00     0.000 C 
BRANCH  19  20
ATOM     20  C   UNL     1       3.557  83.805  64.403  1.00  0.00     0.000 C 
BRANCH  20  21
ATOM     21  C   UNL     1       4.460  84.971  63.962  1.00  0.00     0.000 C 
BRANCH  21  22
ATOM     22  C   UNL     1       3.768  85.965  63.007  1.00  0.00     0.000 C 
BRANCH  22  23
ATOM     23  C   UNL     1       4.589  86.362  61.764  1.00  0.00     0.000 C 
BRANCH  23  24
ATOM     24  C   UNL     1       4.134  87.687  61.113  1.00  0.00    -0.000 C 
BRANCH  24  25
ATOM     25  C   UNL     1       3.377  88.618  62.077  1.00  0.00    -0.000 C 
BRANCH  25  26
ATOM     26  C   UNL     1       2.060  89.140  61.475  1.00  0.00    -0.000 C 
BRANCH  26  27
ATOM     27  C   UNL     1       0.876  88.996  62.447  1.00  0.00    -0.000 C 
BRANCH  27  28
ATOM     28  C   UNL     1      -0.058  87.832  62.070  1.00  0.00    -0.000 C 
BRANCH  28  29
ATOM     29  C   UNL     1       0.267  86.538  62.835  1.00  0.00    -0.000 C 
BRANCH  29  30
ATOM     30  C   UNL     1       0.262  85.298  61.923  1.00  0.00    -0.000 C 
BRANCH  30  31
ATOM     31  C   UNL     1       0.896  85.577  60.550  1.00  0.00    -0.003 C 
ATOM     32  C   UNL     1       1.837  84.461  60.094  1.00  0.00     0.004 C 
ENDBRANCH  30  31
ENDBRANCH  29  30
ENDBRANCH  28  29
ENDBRANCH  27  28
ENDBRANCH  26  27
ENDBRANCH  25  26
ENDBRANCH  24  25
ENDBRANCH  23  24
ENDBRANCH  22  23
ENDBRANCH  21  22
ENDBRANCH  20  21
ENDBRANCH  19  20
ENDBRANCH  18  19
ENDBRANCH   1  18
TORSDOF 28
ENDMDL
MODEL 5
REMARK VINA RESULT:    -4.588      3.302      8.001
REMARK INTER + INTRA:         -16.300
REMARK INTER:                 -11.589
REMARK INTRA:                  -4.711
REMARK UNBOUND:                -4.201
REMARK SMILES CCCCCCCCCCCCCCCCCCCCCCCCCCCCCC(=O)[O-]
REMARK SMILES IDX 16 1 17 2 18 3 19 4 20 5 21 6 22 7 23 8 24 9 25 10 26 11
REMARK SMILES IDX 27 12 28 13 29 14 30 15 31 16 32 17 15 18 14 19 13 20 12 21
REMARK SMILES IDX 11 22 10 23 9 24 8 25 7 26 6 27 5 28 4 29 3 30 2 31 1 32
REMARK H PARENT
REMARK Flexibility Score: inf
ROOT
ATOM      1  C   UNL     1       4.514  86.687  61.329  1.00  0.00     0.000 C 
ENDROOT
BRANCH   1   2
ATOM      2  C   UNL     1       4.024  88.085  60.925  1.00  0.00     0.000 C 
BRANCH   2   3
ATOM      3  C   UNL     1       3.207  88.770  62.037  1.00  0.00     0.000 C 
BRANCH   3   4
ATOM      4  C   UNL     1       1.914  89.423  61.510  1.00  0.00     0.000 C 
BRANCH   4   5
ATOM      5  C   UNL     1       0.722  88.460  61.348  1.00  0.00     0.000 C 
BRANCH   5   6
ATOM      6  C   UNL     1       0.283  87.827  62.678  1.00  0.00     0.000 C 
BRANCH   6   7
ATOM      7  C   UNL     1       0.268  86.290  62.628  1.00  0.00     0.000 C 
BRANCH   7   8
ATOM      8  C   UNL     1       0.764  85.708  61.286  1.00  0.00     0.000 C 
BRANCH   8   9
ATOM      9  C   UNL     1       1.085  84.209  61.399  1.00  0.00     0.000 C 
BRANCH   9  10
ATOM     10  C   UNL     1       2.289  83.785  60.541  1.00  0.00     0.000 C 
BRANCH  10  11
ATOM     11  C   UNL     1       2.590  82.273  60.605  1.00  0.00     0.000 C 
BRANCH  11  12
ATOM     12  C   UNL     1       4.056  81.963  60.260  1.00  0.00     0.000 C 
BRANCH  12  13
ATOM     13  C   UNL     1       4.911  81.642  61.502  1.00  0.00     0.006 C 
BRANCH  13  14
ATOM     14  C   UNL     1       4.719  80.221  62.053  1.00  0.00     0.053 C 
BRANCH  14  15
ATOM     15  C   UNL     1       5.211  79.177  61.095  1.00  0.00     0.041 C 
ATOM     16  O   UNL     1       6.393  79.219  60.663  1.00  0.00    -0.550 OA
ATOM     17  O   UNL     1       4.354  78.176  60.651  1.00  0.00    -0.550 OA
ENDBRANCH  14  15
ENDBRANCH  13  14
ENDBRANCH  12  13
ENDBRANCH  11  12
ENDBRANCH  10  11
ENDBRANCH   9  10
ENDBRANCH   8   9
ENDBRANCH   7   8
ENDBRANCH   6   7
ENDBRANCH   5   6
ENDBRANCH   4   5
ENDBRANCH   3   4
ENDBRANCH   2   3
ENDBRANCH   1   2
BRANCH   1  18
ATOM     18  C   UNL     1       4.035  86.279  62.737  1.00  0.00     0.000 C 
BRANCH  18  19
ATOM     19  C   UNL     1       4.513  84.869  63.118  1.00  0.00     0.000 C 
BRANCH  19  20
ATOM     20  C   UNL     1       4.147  84.487  64.569  1.00  0.00     0.000 C 
BRANCH  20  21
ATOM     21  C   UNL     1       2.766  83.815  64.667  1.00  0.00     0.000 C 
BRANCH  21  22
ATOM     22  C   UNL     1       2.783  82.309  64.332  1.00  0.00     0.000 C 
BRANCH  22  23
ATOM     23  C   UNL     1       2.497  81.368  65.519  1.00  0.00     0.000 C 
BRANCH  23  24
ATOM     24  C   UNL     1       3.556  80.258  65.705  1.00  0.00    -0.000 C 
BRANCH  24  25
ATOM     25  C   UNL     1       3.790  79.871  67.176  1.00  0.00    -0.000 C 
BRANCH  25  26
ATOM     26  C   UNL     1       2.836  78.758  67.648  1.00  0.00    -0.000 C 
BRANCH  26  27
ATOM     27  C   UNL     1       3.542  77.727  68.546  1.00  0.00    -0.000 C 
BRANCH  27  28
ATOM     28  C   UNL     1       5.075  77.849  68.492  1.00  0.00    -0.000 C 
BRANCH  28  29
ATOM     29  C   UNL     1       5.745  76.633  67.832  1.00  0.00    -0.000 C 
BRANCH  29  30
ATOM     30  C   UNL     1       7.074  76.995  67.144  1.00  0.00    -0.000 C 
BRANCH  30  31
ATOM     31  C   UNL     1       6.907  78.100  66.089  1.00  0.00    -0.003 C 
ATOM     32  C   UNL     1       6.472  77.559  64.726  1.00  0.00     0.004 C 
ENDBRANCH  30  31
ENDBRANCH  29  30
ENDBRANCH  28  29
ENDBRANCH  27  28
ENDBRANCH  26  27
ENDBRANCH  25  26
ENDBRANCH  24  25
ENDBRANCH  23  24
ENDBRANCH  22  23
ENDBRANCH  21  22
ENDBRANCH  20  21
ENDBRANCH  19  20
ENDBRANCH  18  19
ENDBRANCH   1  18
TORSDOF 28
ENDMDL
MODEL 6
REMARK VINA RESULT:    -4.577      1.573      3.304
REMARK INTER + INTRA:         -16.269
REMARK INTER:                 -11.710
REMARK INTRA:                  -4.559
REMARK UNBOUND:                -4.201
REMARK SMILES CCCCCCCCCCCCCCCCCCCCCCCCCCCCCC(=O)[O-]
REMARK SMILES IDX 16 1 17 2 18 3 19 4 20 5 21 6 22 7 23 8 24 9 25 10 26 11
REMARK SMILES IDX 27 12 28 13 29 14 30 15 31 16 32 17 15 18 14 19 13 20 12 21
REMARK SMILES IDX 11 22 10 23 9 24 8 25 7 26 6 27 5 28 4 29 3 30 2 31 1 32
REMARK H PARENT
REMARK Flexibility Score: inf
ROOT
ATOM      1  C   UNL     1       5.811  77.296  64.362  1.00  0.00     0.000 C 
ENDROOT
BRANCH   1   2
ATOM      2  C   UNL     1       5.235  78.053  63.156  1.00  0.00     0.000 C 
BRANCH   2   3
ATOM      3  C   UNL     1       5.614  79.546  63.157  1.00  0.00     0.000 C 
BRANCH   3   4
ATOM      4  C   UNL     1       4.572  80.426  62.440  1.00  0.00     0.000 C 
BRANCH   4   5
ATOM      5  C   UNL     1       3.126  79.895  62.500  1.00  0.00     0.000 C 
BRANCH   5   6
ATOM      6  C   UNL     1       2.086  81.018  62.632  1.00  0.00     0.000 C 
BRANCH   6   7
ATOM      7  C   UNL     1       2.659  82.402  62.285  1.00  0.00     0.000 C 
BRANCH   7   8
ATOM      8  C   UNL     1       2.485  83.446  63.410  1.00  0.00     0.000 C 
BRANCH   8   9
ATOM      9  C   UNL     1       3.691  83.464  64.362  1.00  0.00     0.000 C 
BRANCH   9  10
ATOM     10  C   UNL     1       4.483  84.782  64.305  1.00  0.00     0.000 C 
BRANCH  10  11
ATOM     11  C   UNL     1       3.856  85.839  63.372  1.00  0.00     0.000 C 
BRANCH  11  12
ATOM     12  C   UNL     1       4.644  85.989  62.060  1.00  0.00     0.000 C 
BRANCH  12  13
ATOM     13  C   UNL     1       4.166  87.179  61.205  1.00  0.00     0.006 C 
BRANCH  13  14
ATOM     14  C   UNL     1       3.510  88.313  62.007  1.00  0.00     0.053 C 
BRANCH  14  15
ATOM     15  C   UNL     1       2.070  88.502  61.635  1.00  0.00     0.041 C 
ATOM     16  O   UNL     1       1.631  88.046  60.546  1.00  0.00    -0.550 OA
ATOM     17  O   UNL     1       1.219  89.212  62.473  1.00  0.00    -0.550 OA
ENDBRANCH  14  15
ENDBRANCH  13  14
ENDBRANCH  12  13
ENDBRANCH  11  12
ENDBRANCH  10  11
ENDBRANCH   9  10
ENDBRANCH   8   9
ENDBRANCH   7   8
ENDBRANCH   6   7
ENDBRANCH   5   6
ENDBRANCH   4   5
ENDBRANCH   3   4
ENDBRANCH   2   3
ENDBRANCH   1   2
BRANCH   1  18
ATOM     18  C   UNL     1       6.930  78.085  65.072  1.00  0.00     0.000 C 
BRANCH  18  19
ATOM     19  C   UNL     1       7.205  77.543  66.484  1.00  0.00     0.000 C 
BRANCH  19  20
ATOM     20  C   UNL     1       6.202  76.449  66.908  1.00  0.00     0.000 C 
BRANCH  20  21
ATOM     21  C   UNL     1       5.624  76.696  68.313  1.00  0.00     0.000 C 
BRANCH  21  22
ATOM     22  C   UNL     1       4.298  77.484  68.309  1.00  0.00     0.000 C 
BRANCH  22  23
ATOM     23  C   UNL     1       4.369  78.894  68.930  1.00  0.00     0.000 C 
BRANCH  23  24
ATOM     24  C   UNL     1       4.207  80.037  67.903  1.00  0.00    -0.000 C 
BRANCH  24  25
ATOM     25  C   UNL     1       3.883  79.544  66.481  1.00  0.00    -0.000 C 
BRANCH  25  26
ATOM     26  C   UNL     1       2.433  79.855  66.068  1.00  0.00    -0.000 C 
BRANCH  26  27
ATOM     27  C   UNL     1       1.901  81.139  66.728  1.00  0.00    -0.000 C 
BRANCH  27  28
ATOM     28  C   UNL     1       0.513  80.943  67.363  1.00  0.00    -0.000 C 
BRANCH  28  29
ATOM     29  C   UNL     1       0.295  79.515  67.888  1.00  0.00    -0.000 C 
BRANCH  29  30
ATOM     30  C   UNL     1      -0.153  79.491  69.361  1.00  0.00    -0.000 C 
BRANCH  30  31
ATOM     31  C   UNL     1       0.846  78.751  70.265  1.00  0.00    -0.003 C 
ATOM     32  C   UNL     1       1.616  79.693  71.193  1.00  0.00     0.004 C 
ENDBRANCH  30  31
ENDBRANCH  29  30
ENDBRANCH  28  29
ENDBRANCH  27  28
ENDBRANCH  26  27
ENDBRANCH  25  26
ENDBRANCH  24  25
ENDBRANCH  23  24
ENDBRANCH  22  23
ENDBRANCH  21  22
ENDBRANCH  20  21
ENDBRANCH  19  20
ENDBRANCH  18  19
ENDBRANCH   1  18
TORSDOF 28
ENDMDL
MODEL 7
REMARK VINA RESULT:    -4.567      1.154      2.595
REMARK INTER + INTRA:         -16.245
REMARK INTER:                 -12.316
REMARK INTRA:                  -3.929
REMARK UNBOUND:                -4.201
REMARK SMILES CCCCCCCCCCCCCCCCCCCCCCCCCCCCCC(=O)[O-]
REMARK SMILES IDX 16 1 17 2 18 3 19 4 20 5 21 6 22 7 23 8 24 9 25 10 26 11
REMARK SMILES IDX 27 12 28 13 29 14 30 15 31 16 32 17 15 18 14 19 13 20 12 21
REMARK SMILES IDX 11 22 10 23 9 24 8 25 7 26 6 27 5 28 4 29 3 30 2 31 1 32
REMARK H PARENT
REMARK Flexibility Score: inf
ROOT
ATOM      1  C   UNL     1       5.947  77.398  64.250  1.00  0.00     0.000 C 
ENDROOT
BRANCH   1   2
ATOM      2  C   UNL     1       5.281  78.359  63.254  1.00  0.00     0.000 C 
BRANCH   2   3
ATOM      3  C   UNL     1       4.232  79.269  63.920  1.00  0.00     0.000 C 
BRANCH   3   4
ATOM      4  C   UNL     1       3.133  79.726  62.942  1.00  0.00     0.000 C 
BRANCH   4   5
ATOM      5  C   UNL     1       3.462  81.009  62.154  1.00  0.00     0.000 C 
BRANCH   5   6
ATOM      6  C   UNL     1       2.400  82.106  62.334  1.00  0.00     0.000 C 
BRANCH   6   7
ATOM      7  C   UNL     1       2.160  82.463  63.810  1.00  0.00     0.000 C 
BRANCH   7   8
ATOM      8  C   UNL     1       3.410  83.022  64.525  1.00  0.00     0.000 C 
BRANCH   8   9
ATOM      9  C   UNL     1       3.460  84.557  64.467  1.00  0.00     0.000 C 
BRANCH   9  10
ATOM     10  C   UNL     1       4.665  85.091  63.674  1.00  0.00     0.000 C 
BRANCH  10  11
ATOM     11  C   UNL     1       4.416  85.171  62.153  1.00  0.00     0.000 C 
BRANCH  11  12
ATOM     12  C   UNL     1       4.508  86.614  61.630  1.00  0.00     0.000 C 
BRANCH  12  13
ATOM     13  C   UNL     1       3.526  87.572  62.334  1.00  0.00     0.006 C 
BRANCH  13  14
ATOM     14  C   UNL     1       3.409  88.955  61.676  1.00  0.00     0.053 C 
BRANCH  14  15
ATOM     15  C   UNL     1       2.104  89.126  60.956  1.00  0.00     0.041 C 
ATOM     16  O   UNL     1       1.393  88.121  60.687  1.00  0.00    -0.550 OA
ATOM     17  O   UNL     1       1.689  90.388  60.552  1.00  0.00    -0.550 OA
ENDBRANCH  14  15
ENDBRANCH  13  14
ENDBRANCH  12  13
ENDBRANCH  11  12
ENDBRANCH  10  11
ENDBRANCH   9  10
ENDBRANCH   8   9
ENDBRANCH   7   8
ENDBRANCH   6   7
ENDBRANCH   5   6
ENDBRANCH   4   5
ENDBRANCH   3   4
ENDBRANCH   2   3
ENDBRANCH   1   2
BRANCH   1  18
ATOM     18  C   UNL     1       7.185  78.019  64.928  1.00  0.00     0.000 C 
BRANCH  18  19
ATOM     19  C   UNL     1       7.259  77.662  66.422  1.00  0.00     0.000 C 
BRANCH  19  20
ATOM     20  C   UNL     1       6.267  76.546  66.817  1.00  0.00     0.000 C 
BRANCH  20  21
ATOM     21  C   UNL     1       6.355  76.187  68.312  1.00  0.00     0.000 C 
BRANCH  21  22
ATOM     22  C   UNL     1       5.118  75.433  68.842  1.00  0.00     0.000 C 
BRANCH  22  23
ATOM     23  C   UNL     1       3.995  75.204  67.811  1.00  0.00     0.000 C 
BRANCH  23  24
ATOM     24  C   UNL     1       2.837  74.326  68.334  1.00  0.00    -0.000 C 
BRANCH  24  25
ATOM     25  C   UNL     1       1.555  75.120  68.645  1.00  0.00    -0.000 C 
BRANCH  25  26
ATOM     26  C   UNL     1       1.688  76.611  68.286  1.00  0.00    -0.000 C 
BRANCH  26  27
ATOM     27  C   UNL     1       1.762  77.507  69.534  1.00  0.00    -0.000 C 
BRANCH  27  28
ATOM     28  C   UNL     1       2.652  78.745  69.319  1.00  0.00    -0.000 C 
BRANCH  28  29
ATOM     29  C   UNL     1       3.493  78.656  68.035  1.00  0.00    -0.000 C 
BRANCH  29  30
ATOM     30  C   UNL     1       3.524  79.985  67.259  1.00  0.00    -0.000 C 
BRANCH  30  31
ATOM     31  C   UNL     1       2.119  80.571  67.042  1.00  0.00    -0.003 C 
ATOM     32  C   UNL     1       1.261  79.722  66.103  1.00  0.00     0.004 C 
ENDBRANCH  30  31
ENDBRANCH  29  30
ENDBRANCH  28  29
ENDBRANCH  27  28
ENDBRANCH  26  27
ENDBRANCH  25  26
ENDBRANCH  24  25
ENDBRANCH  23  24
ENDBRANCH  22  23
ENDBRANCH  21  22
ENDBRANCH  20  21
ENDBRANCH  19  20
ENDBRANCH  18  19
ENDBRANCH   1  18
TORSDOF 28
ENDMDL
MODEL 8
REMARK VINA RESULT:    -4.518      3.451      8.674
REMARK INTER + INTRA:         -16.115
REMARK INTER:                 -11.622
REMARK INTRA:                  -4.492
REMARK UNBOUND:                -4.201
REMARK SMILES CCCCCCCCCCCCCCCCCCCCCCCCCCCCCC(=O)[O-]
REMARK SMILES IDX 16 1 17 2 18 3 19 4 20 5 21 6 22 7 23 8 24 9 25 10 26 11
REMARK SMILES IDX 27 12 28 13 29 14 30 15 31 16 32 17 15 18 14 19 13 20 12 21
REMARK SMILES IDX 11 22 10 23 9 24 8 25 7 26 6 27 5 28 4 29 3 30 2 31 1 32
REMARK H PARENT
REMARK Flexibility Score: inf
ROOT
ATOM      1  C   UNL     1       3.507  79.742  64.024  1.00  0.00     0.000 C 
ENDROOT
BRANCH   1   2
ATOM      2  C   UNL     1       2.930  80.379  65.297  1.00  0.00     0.000 C 
BRANCH   2   3
ATOM      3  C   UNL     1       3.718  79.994  66.562  1.00  0.00     0.000 C 
BRANCH   3   4
ATOM      4  C   UNL     1       2.863  79.222  67.585  1.00  0.00     0.000 C 
BRANCH   4   5
ATOM      5  C   UNL     1       3.654  78.604  68.755  1.00  0.00     0.000 C 
BRANCH   5   6
ATOM      6  C   UNL     1       4.336  77.279  68.378  1.00  0.00     0.000 C 
BRANCH   6   7
ATOM      7  C   UNL     1       5.868  77.394  68.325  1.00  0.00     0.000 C 
BRANCH   7   8
ATOM      8  C   UNL     1       6.521  76.491  67.255  1.00  0.00     0.000 C 
BRANCH   8   9
ATOM      9  C   UNL     1       6.048  76.853  65.838  1.00  0.00     0.000 C 
BRANCH   9  10
ATOM     10  C   UNL     1       6.677  78.152  65.307  1.00  0.00     0.000 C 
BRANCH  10  11
ATOM     11  C   UNL     1       7.172  78.046  63.849  1.00  0.00     0.000 C 
BRANCH  11  12
ATOM     12  C   UNL     1       8.242  79.102  63.527  1.00  0.00     0.000 C 
BRANCH  12  13
ATOM     13  C   UNL     1       8.516  79.239  62.017  1.00  0.00     0.006 C 
BRANCH  13  14
ATOM     14  C   UNL     1       7.258  79.451  61.161  1.00  0.00     0.053 C 
BRANCH  14  15
ATOM     15  C   UNL     1       7.360  78.762  59.833  1.00  0.00     0.041 C 
ATOM     16  O   UNL     1       8.287  77.938  59.616  1.00  0.00    -0.550 OA
ATOM     17  O   UNL     1       6.452  79.055  58.822  1.00  0.00    -0.550 OA
ENDBRANCH  14  15
ENDBRANCH  13  14
ENDBRANCH  12  13
ENDBRANCH  11  12
ENDBRANCH  10  11
ENDBRANCH   9  10
ENDBRANCH   8   9
ENDBRANCH   7   8
ENDBRANCH   6   7
ENDBRANCH   5   6
ENDBRANCH   4   5
ENDBRANCH   3   4
ENDBRANCH   2   3
ENDBRANCH   1   2
BRANCH   1  18
ATOM     18  C   UNL     1       4.511  80.668  63.306  1.00  0.00     0.000 C 
BRANCH  18  19
ATOM     19  C   UNL     1       3.982  81.134  61.940  1.00  0.00     0.000 C 
BRANCH  19  20
ATOM     20  C   UNL     1       2.524  80.695  61.683  1.00  0.00     0.000 C 
BRANCH  20  21
ATOM     21  C   UNL     1       1.678  81.813  61.048  1.00  0.00     0.000 C 
BRANCH  21  22
ATOM     22  C   UNL     1       1.801  83.170  61.771  1.00  0.00     0.000 C 
BRANCH  22  23
ATOM     23  C   UNL     1       1.363  83.170  63.249  1.00  0.00     0.000 C 
BRANCH  23  24
ATOM     24  C   UNL     1       1.924  84.355  64.067  1.00  0.00    -0.000 C 
BRANCH  24  25
ATOM     25  C   UNL     1       3.287  84.061  64.719  1.00  0.00    -0.000 C 
BRANCH  25  26
ATOM     26  C   UNL     1       4.392  85.013  64.224  1.00  0.00    -0.000 C 
BRANCH  26  27
ATOM     27  C   UNL     1       4.921  84.618  62.834  1.00  0.00    -0.000 C 
BRANCH  27  28
ATOM     28  C   UNL     1       4.728  85.734  61.791  1.00  0.00    -0.000 C 
BRANCH  28  29
ATOM     29  C   UNL     1       3.993  86.959  62.361  1.00  0.00    -0.000 C 
BRANCH  29  30
ATOM     30  C   UNL     1       2.606  87.162  61.724  1.00  0.00    -0.000 C 
BRANCH  30  31
ATOM     31  C   UNL     1       2.087  88.598  61.893  1.00  0.00    -0.003 C 
ATOM     32  C   UNL     1       3.194  89.647  61.770  1.00  0.00     0.004 C 
ENDBRANCH  30  31
ENDBRANCH  29  30
ENDBRANCH  28  29
ENDBRANCH  27  28
ENDBRANCH  26  27
ENDBRANCH  25  26
ENDBRANCH  24  25
ENDBRANCH  23  24
ENDBRANCH  22  23
ENDBRANCH  21  22
ENDBRANCH  20  21
ENDBRANCH  19  20
ENDBRANCH  18  19
ENDBRANCH   1  18
TORSDOF 28
ENDMDL
MODEL 9
REMARK VINA RESULT:    -4.485      3.547      6.766
REMARK INTER + INTRA:         -16.028
REMARK INTER:                 -10.597
REMARK INTRA:                  -5.430
REMARK UNBOUND:                -4.201
REMARK SMILES CCCCCCCCCCCCCCCCCCCCCCCCCCCCCC(=O)[O-]
REMARK SMILES IDX 16 1 17 2 18 3 19 4 20 5 21 6 22 7 23 8 24 9 25 10 26 11
REMARK SMILES IDX 27 12 28 13 29 14 30 15 31 16 32 17 15 18 14 19 13 20 12 21
REMARK SMILES IDX 11 22 10 23 9 24 8 25 7 26 6 27 5 28 4 29 3 30 2 31 1 32
REMARK H PARENT
REMARK Flexibility Score: inf
ROOT
ATOM      1  C   UNL     1       2.993  82.460  65.001  1.00  0.00     0.000 C 
ENDROOT
BRANCH   1   2
ATOM      2  C   UNL     1       2.784  83.980  64.931  1.00  0.00     0.000 C 
BRANCH   2   3
ATOM      3  C   UNL     1       4.056  84.734  64.501  1.00  0.00     0.000 C 
BRANCH   3   4
ATOM      4  C   UNL     1       3.950  85.320  63.080  1.00  0.00     0.000 C 
BRANCH   4   5
ATOM      5  C   UNL     1       4.894  84.679  62.043  1.00  0.00     0.000 C 
BRANCH   5   6
ATOM      6  C   UNL     1       4.453  83.265  61.632  1.00  0.00     0.000 C 
BRANCH   6   7
ATOM      7  C   UNL     1       2.991  83.214  61.158  1.00  0.00     0.000 C 
BRANCH   7   8
ATOM      8  C   UNL     1       2.552  81.825  60.646  1.00  0.00     0.000 C 
BRANCH   8   9
ATOM      9  C   UNL     1       2.871  81.641  59.153  1.00  0.00     0.000 C 
BRANCH   9  10
ATOM     10  C   UNL     1       3.398  80.235  58.819  1.00  0.00     0.000 C 
BRANCH  10  11
ATOM     11  C   UNL     1       3.146  79.200  59.936  1.00  0.00     0.000 C 
BRANCH  11  12
ATOM     12  C   UNL     1       4.444  78.507  60.381  1.00  0.00     0.000 C 
BRANCH  12  13
ATOM     13  C   UNL     1       5.712  79.241  59.902  1.00  0.00     0.006 C 
BRANCH  13  14
ATOM     14  C   UNL     1       6.439  80.032  61.000  1.00  0.00     0.053 C 
BRANCH  14  15
ATOM     15  C   UNL     1       7.732  79.384  61.396  1.00  0.00     0.041 C 
ATOM     16  O   UNL     1       8.226  79.599  62.534  1.00  0.00    -0.550 OA
ATOM     17  O   UNL     1       8.410  78.568  60.497  1.00  0.00    -0.550 OA
ENDBRANCH  14  15
ENDBRANCH  13  14
ENDBRANCH  12  13
ENDBRANCH  11  12
ENDBRANCH  10  11
ENDBRANCH   9  10
ENDBRANCH   8   9
ENDBRANCH   7   8
ENDBRANCH   6   7
ENDBRANCH   5   6
ENDBRANCH   4   5
ENDBRANCH   3   4
ENDBRANCH   2   3
ENDBRANCH   1   2
BRANCH   1  18
ATOM     18  C   UNL     1       1.844  81.677  64.334  1.00  0.00     0.000 C 
BRANCH  18  19
ATOM     19  C   UNL     1       2.252  80.230  64.010  1.00  0.00     0.000 C 
BRANCH  19  20
ATOM     20  C   UNL     1       3.734  80.107  63.596  1.00  0.00     0.000 C 
BRANCH  20  21
ATOM     21  C   UNL     1       4.529  79.178  64.532  1.00  0.00     0.000 C 
BRANCH  21  22
ATOM     22  C   UNL     1       5.261  78.037  63.797  1.00  0.00     0.000 C 
BRANCH  22  23
ATOM     23  C   UNL     1       6.196  77.182  64.677  1.00  0.00     0.000 C 
BRANCH  23  24
ATOM     24  C   UNL     1       7.163  78.012  65.549  1.00  0.00    -0.000 C 
BRANCH  24  25
ATOM     25  C   UNL     1       7.503  77.347  66.895  1.00  0.00    -0.000 C 
BRANCH  25  26
ATOM     26  C   UNL     1       6.334  77.418  67.896  1.00  0.00    -0.000 C 
BRANCH  26  27
ATOM     27  C   UNL     1       5.714  78.823  67.969  1.00  0.00    -0.000 C 
BRANCH  27  28
ATOM     28  C   UNL     1       4.394  78.845  68.761  1.00  0.00    -0.000 C 
BRANCH  28  29
ATOM     29  C   UNL     1       3.173  78.504  67.891  1.00  0.00    -0.000 C 
BRANCH  29  30
ATOM     30  C   UNL     1       2.298  79.736  67.596  1.00  0.00    -0.000 C 
BRANCH  30  31
ATOM     31  C   UNL     1       2.384  80.796  68.707  1.00  0.00    -0.003 C 
ATOM     32  C   UNL     1       1.446  81.980  68.470  1.00  0.00     0.004 C 
ENDBRANCH  30  31
ENDBRANCH  29  30
ENDBRANCH  28  29
ENDBRANCH  27  28
ENDBRANCH  26  27
ENDBRANCH  25  26
ENDBRANCH  24  25
ENDBRANCH  23  24
ENDBRANCH  22  23
ENDBRANCH  21  22
ENDBRANCH  20  21
ENDBRANCH  19  20
ENDBRANCH  18  19
ENDBRANCH   1  18
TORSDOF 28
ENDMDL
