MODEL 1
REMARK VINA RESULT:    -4.503      0.000      0.000
REMARK INTER + INTRA:          -9.080
REMARK INTER:                  -8.188
REMARK INTRA:                  -0.892
REMARK UNBOUND:                -0.892
REMARK SMILES CCCCCCCCCCCCCCCC(=O)[O-]
REMARK SMILES IDX 9 1 10 2 11 3 12 4 13 5 14 6 15 7 16 8 17 9 18 10 8 11 7 12
REMARK SMILES IDX 6 13 5 14 4 15 3 16 2 17 1 18
REMARK H PARENT
REMARK Flexibility Score: inf
ROOT
ATOM      1  C   UNL     1      44.383  28.344   2.950  1.00  0.00     0.000 C 
ENDROOT
BRANCH   1   2
ATOM      2  C   UNL     1      45.503  28.857   2.029  1.00  0.00     0.000 C 
BRANCH   2   3
ATOM      3  C   UNL     1      45.732  27.941   0.815  1.00  0.00     0.000 C 
BRANCH   3   4
ATOM      4  C   UNL     1      45.605  28.692  -0.521  1.00  0.00     0.000 C 
BRANCH   4   5
ATOM      5  C   UNL     1      45.334  27.755  -1.712  1.00  0.00     0.000 C 
BRANCH   5   6
ATOM      6  C   UNL     1      44.497  28.368  -2.848  1.00  0.00     0.006 C 
BRANCH   6   7
ATOM      7  C   UNL     1      44.218  27.381  -3.988  1.00  0.00     0.053 C 
BRANCH   7   8
ATOM      8  C   UNL     1      43.045  27.835  -4.799  1.00  0.00     0.041 C 
ATOM      9  O   UNL     1      43.162  28.005  -6.040  1.00  0.00    -0.550 OA
ATOM     10  O   UNL     1      41.837  28.120  -4.174  1.00  0.00    -0.550 OA
ENDBRANCH   7   8
ENDBRANCH   6   7
ENDBRANCH   5   6
ENDBRANCH   4   5
ENDBRANCH   3   4
ENDBRANCH   2   3
ENDBRANCH   1   2
BRANCH   1  11
ATOM     11  C   UNL     1      44.217  26.814   2.893  1.00  0.00     0.000 C 
BRANCH  11  12
ATOM     12  C   UNL     1      44.847  26.041   4.069  1.00  0.00    -0.000 C 
BRANCH  12  13
ATOM     13  C   UNL     1      46.386  26.036   4.104  1.00  0.00    -0.000 C 
BRANCH  13  14
ATOM     14  C   UNL     1      46.954  26.488   5.459  1.00  0.00    -0.000 C 
BRANCH  14  15
ATOM     15  C   UNL     1      46.071  27.542   6.147  1.00  0.00    -0.000 C 
BRANCH  15  16
ATOM     16  C   UNL     1      45.960  27.319   7.666  1.00  0.00    -0.000 C 
BRANCH  16  17
ATOM     17  C   UNL     1      45.278  28.495   8.383  1.00  0.00    -0.003 C 
ATOM     18  C   UNL     1      44.879  28.162   9.821  1.00  0.00     0.004 C 
ENDBRANCH  16  17
ENDBRANCH  15  16
ENDBRANCH  14  15
ENDBRANCH  13  14
ENDBRANCH  12  13
ENDBRANCH  11  12
ENDBRANCH   1  11
TORSDOF 14
ENDMDL
MODEL 2
REMARK VINA RESULT:    -4.343      5.550      9.797
REMARK INTER + INTRA:          -8.789
REMARK INTER:                  -7.656
REMARK INTRA:                  -1.133
REMARK UNBOUND:                -0.892
REMARK SMILES CCCCCCCCCCCCCCCC(=O)[O-]
REMARK SMILES IDX 9 1 10 2 11 3 12 4 13 5 14 6 15 7 16 8 17 9 18 10 8 11 7 12
REMARK SMILES IDX 6 13 5 14 4 15 3 16 2 17 1 18
REMARK H PARENT
REMARK Flexibility Score: inf
ROOT
ATOM      1  C   UNL     1      44.876  26.015   4.012  1.00  0.00     0.000 C 
ENDROOT
BRANCH   1   2
ATOM      2  C   UNL     1      46.412  26.035   3.943  1.00  0.00     0.000 C 
BRANCH   2   3
ATOM      3  C   UNL     1      47.048  26.720   5.165  1.00  0.00     0.000 C 
BRANCH   3   4
ATOM      4  C   UNL     1      46.106  26.745   6.381  1.00  0.00     0.000 C 
BRANCH   4   5
ATOM      5  C   UNL     1      45.913  28.158   6.960  1.00  0.00     0.000 C 
BRANCH   5   6
ATOM      6  C   UNL     1      45.345  28.205   8.389  1.00  0.00     0.006 C 
BRANCH   6   7
ATOM      7  C   UNL     1      45.240  26.819   9.038  1.00  0.00     0.053 C 
BRANCH   7   8
ATOM      8  C   UNL     1      46.123  26.738  10.243  1.00  0.00     0.041 C 
ATOM      9  O   UNL     1      46.554  27.789  10.784  1.00  0.00    -0.550 OA
ATOM     10  O   UNL     1      46.512  25.499  10.738  1.00  0.00    -0.550 OA
ENDBRANCH   7   8
ENDBRANCH   6   7
ENDBRANCH   5   6
ENDBRANCH   4   5
ENDBRANCH   3   4
ENDBRANCH   2   3
ENDBRANCH   1   2
BRANCH   1  11
ATOM     11  C   UNL     1      44.219  26.905   2.940  1.00  0.00     0.000 C 
BRANCH  11  12
ATOM     12  C   UNL     1      44.494  28.416   3.083  1.00  0.00    -0.000 C 
BRANCH  12  13
ATOM     13  C   UNL     1      45.341  29.038   1.958  1.00  0.00    -0.000 C 
BRANCH  13  14
ATOM     14  C   UNL     1      45.680  28.036   0.842  1.00  0.00    -0.000 C 
BRANCH  14  15
ATOM     15  C   UNL     1      45.580  28.659  -0.561  1.00  0.00    -0.000 C 
BRANCH  15  16
ATOM     16  C   UNL     1      45.214  27.625  -1.640  1.00  0.00    -0.000 C 
BRANCH  16  17
ATOM     17  C   UNL     1      45.030  28.264  -3.026  1.00  0.00    -0.003 C 
ATOM     18  C   UNL     1      43.978  29.373  -3.033  1.00  0.00     0.004 C 
ENDBRANCH  16  17
ENDBRANCH  15  16
ENDBRANCH  14  15
ENDBRANCH  13  14
ENDBRANCH  12  13
ENDBRANCH  11  12
ENDBRANCH   1  11
TORSDOF 14
ENDMDL
MODEL 3
REMARK VINA RESULT:    -4.328      1.685      2.838
REMARK INTER + INTRA:          -8.763
REMARK INTER:                  -7.257
REMARK INTRA:                  -1.506
REMARK UNBOUND:                -0.892
REMARK SMILES CCCCCCCCCCCCCCCC(=O)[O-]
REMARK SMILES IDX 9 1 10 2 11 3 12 4 13 5 14 6 15 7 16 8 17 9 18 10 8 11 7 12
REMARK SMILES IDX 6 13 5 14 4 15 3 16 2 17 1 18
REMARK H PARENT
REMARK Flexibility Score: inf
ROOT
ATOM      1  C   UNL     1      44.875  25.982   4.015  1.00  0.00     0.000 C 
ENDROOT
BRANCH   1   2
ATOM      2  C   UNL     1      44.125  26.896   3.030  1.00  0.00     0.000 C 
BRANCH   2   3
ATOM      3  C   UNL     1      45.077  27.658   2.094  1.00  0.00     0.000 C 
BRANCH   3   4
ATOM      4  C   UNL     1      44.847  29.179   2.133  1.00  0.00     0.000 C 
BRANCH   4   5
ATOM      5  C   UNL     1      45.844  29.958   1.255  1.00  0.00     0.000 C 
BRANCH   5   6
ATOM      6  C   UNL     1      46.297  29.228  -0.022  1.00  0.00     0.006 C 
BRANCH   6   7
ATOM      7  C   UNL     1      45.340  29.437  -1.203  1.00  0.00     0.053 C 
BRANCH   7   8
ATOM      8  C   UNL     1      45.163  28.162  -1.965  1.00  0.00     0.041 C 
ATOM      9  O   UNL     1      44.951  28.189  -3.205  1.00  0.00    -0.550 OA
ATOM     10  O   UNL     1      45.180  26.944  -1.295  1.00  0.00    -0.550 OA
ENDBRANCH   7   8
ENDBRANCH   6   7
ENDBRANCH   5   6
ENDBRANCH   4   5
ENDBRANCH   3   4
ENDBRANCH   2   3
ENDBRANCH   1   2
BRANCH   1  11
ATOM     11  C   UNL     1      46.403  26.148   3.937  1.00  0.00     0.000 C 
BRANCH  11  12
ATOM     12  C   UNL     1      47.049  26.857   5.144  1.00  0.00    -0.000 C 
BRANCH  12  13
ATOM     13  C   UNL     1      47.115  28.393   5.047  1.00  0.00    -0.000 C 
BRANCH  13  14
ATOM     14  C   UNL     1      46.022  29.090   5.874  1.00  0.00    -0.000 C 
BRANCH  14  15
ATOM     15  C   UNL     1      45.661  28.312   7.151  1.00  0.00    -0.000 C 
BRANCH  15  16
ATOM     16  C   UNL     1      45.243  29.237   8.307  1.00  0.00    -0.000 C 
BRANCH  16  17
ATOM     17  C   UNL     1      44.868  28.456   9.577  1.00  0.00    -0.003 C 
ATOM     18  C   UNL     1      45.231  26.973   9.490  1.00  0.00     0.004 C 
ENDBRANCH  16  17
ENDBRANCH  15  16
ENDBRANCH  14  15
ENDBRANCH  13  14
ENDBRANCH  12  13
ENDBRANCH  11  12
ENDBRANCH   1  11
TORSDOF 14
ENDMDL
MODEL 4
REMARK VINA RESULT:    -4.304      5.018      9.695
REMARK INTER + INTRA:          -8.719
REMARK INTER:                  -7.772
REMARK INTRA:                  -0.947
REMARK UNBOUND:                -0.892
REMARK SMILES CCCCCCCCCCCCCCCC(=O)[O-]
REMARK SMILES IDX 9 1 10 2 11 3 12 4 13 5 14 6 15 7 16 8 17 9 18 10 8 11 7 12
REMARK SMILES IDX 6 13 5 14 4 15 3 16 2 17 1 18
REMARK H PARENT
REMARK Flexibility Score: inf
ROOT
ATOM      1  C   UNL     1      44.637  28.335   3.114  1.00  0.00     0.000 C 
ENDROOT
BRANCH   1   2
ATOM      2  C   UNL     1      44.321  26.832   3.036  1.00  0.00     0.000 C 
BRANCH   2   3
ATOM      3  C   UNL     1      44.996  26.030   4.161  1.00  0.00     0.000 C 
BRANCH   3   4
ATOM      4  C   UNL     1      46.508  26.298   4.250  1.00  0.00     0.000 C 
BRANCH   4   5
ATOM      5  C   UNL     1      46.944  26.820   5.631  1.00  0.00     0.000 C 
BRANCH   5   6
ATOM      6  C   UNL     1      45.849  26.799   6.712  1.00  0.00     0.006 C 
BRANCH   6   7
ATOM      7  C   UNL     1      45.932  27.992   7.673  1.00  0.00     0.053 C 
BRANCH   7   8
ATOM      8  C   UNL     1      45.248  27.671   8.965  1.00  0.00     0.041 C 
ATOM      9  O   UNL     1      44.737  28.590   9.656  1.00  0.00    -0.550 OA
ATOM     10  O   UNL     1      45.220  26.362   9.430  1.00  0.00    -0.550 OA
ENDBRANCH   7   8
ENDBRANCH   6   7
ENDBRANCH   5   6
ENDBRANCH   4   5
ENDBRANCH   3   4
ENDBRANCH   2   3
ENDBRANCH   1   2
BRANCH   1  11
ATOM     11  C   UNL     1      45.380  28.853   1.869  1.00  0.00     0.000 C 
BRANCH  11  12
ATOM     12  C   UNL     1      45.513  27.839   0.714  1.00  0.00    -0.000 C 
BRANCH  12  13
ATOM     13  C   UNL     1      45.687  28.455  -0.686  1.00  0.00    -0.000 C 
BRANCH  13  14
ATOM     14  C   UNL     1      45.231  27.514  -1.813  1.00  0.00    -0.000 C 
BRANCH  14  15
ATOM     15  C   UNL     1      45.777  27.932  -3.188  1.00  0.00    -0.000 C 
BRANCH  15  16
ATOM     16  C   UNL     1      44.857  27.501  -4.344  1.00  0.00    -0.000 C 
BRANCH  16  17
ATOM     17  C   UNL     1      43.448  27.120  -3.862  1.00  0.00    -0.003 C 
ATOM     18  C   UNL     1      42.361  28.034  -4.428  1.00  0.00     0.004 C 
ENDBRANCH  16  17
ENDBRANCH  15  16
ENDBRANCH  14  15
ENDBRANCH  13  14
ENDBRANCH  12  13
ENDBRANCH  11  12
ENDBRANCH   1  11
TORSDOF 14
ENDMDL
MODEL 5
REMARK VINA RESULT:    -4.266      1.056      1.659
REMARK INTER + INTRA:          -8.649
REMARK INTER:                  -7.546
REMARK INTRA:                  -1.104
REMARK UNBOUND:                -0.892
REMARK SMILES CCCCCCCCCCCCCCCC(=O)[O-]
REMARK SMILES IDX 9 1 10 2 11 3 12 4 13 5 14 6 15 7 16 8 17 9 18 10 8 11 7 12
REMARK SMILES IDX 6 13 5 14 4 15 3 16 2 17 1 18
REMARK H PARENT
REMARK Flexibility Score: inf
ROOT
ATOM      1  C   UNL     1      44.142  27.114   2.634  1.00  0.00     0.000 C 
ENDROOT
BRANCH   1   2
ATOM      2  C   UNL     1      44.437  28.611   2.830  1.00  0.00     0.000 C 
BRANCH   2   3
ATOM      3  C   UNL     1      45.481  29.141   1.834  1.00  0.00     0.000 C 
BRANCH   3   4
ATOM      4  C   UNL     1      45.664  28.211   0.622  1.00  0.00     0.000 C 
BRANCH   4   5
ATOM      5  C   UNL     1      45.998  28.973  -0.674  1.00  0.00     0.000 C 
BRANCH   5   6
ATOM      6  C   UNL     1      45.051  28.698  -1.855  1.00  0.00     0.006 C 
BRANCH   6   7
ATOM      7  C   UNL     1      45.494  27.506  -2.714  1.00  0.00     0.053 C 
BRANCH   7   8
ATOM      8  C   UNL     1      44.495  27.240  -3.795  1.00  0.00     0.041 C 
ATOM      9  O   UNL     1      43.502  26.499  -3.571  1.00  0.00    -0.550 OA
ATOM     10  O   UNL     1      44.686  27.770  -5.065  1.00  0.00    -0.550 OA
ENDBRANCH   7   8
ENDBRANCH   6   7
ENDBRANCH   5   6
ENDBRANCH   4   5
ENDBRANCH   3   4
ENDBRANCH   2   3
ENDBRANCH   1   2
BRANCH   1  11
ATOM     11  C   UNL     1      44.614  26.253   3.821  1.00  0.00     0.000 C 
BRANCH  11  12
ATOM     12  C   UNL     1      46.143  26.115   3.964  1.00  0.00    -0.000 C 
BRANCH  12  13
ATOM     13  C   UNL     1      46.702  26.419   5.366  1.00  0.00    -0.000 C 
BRANCH  13  14
ATOM     14  C   UNL     1      46.510  27.888   5.779  1.00  0.00    -0.000 C 
BRANCH  14  15
ATOM     15  C   UNL     1      45.791  28.032   7.131  1.00  0.00    -0.000 C 
BRANCH  15  16
ATOM     16  C   UNL     1      45.839  26.740   7.965  1.00  0.00    -0.000 C 
BRANCH  16  17
ATOM     17  C   UNL     1      45.107  26.882   9.309  1.00  0.00    -0.003 C 
ATOM     18  C   UNL     1      45.749  27.922  10.227  1.00  0.00     0.004 C 
ENDBRANCH  16  17
ENDBRANCH  15  16
ENDBRANCH  14  15
ENDBRANCH  13  14
ENDBRANCH  12  13
ENDBRANCH  11  12
ENDBRANCH   1  11
TORSDOF 14
ENDMDL
MODEL 6
REMARK VINA RESULT:    -4.172      5.126      9.750
REMARK INTER + INTRA:          -8.478
REMARK INTER:                  -7.545
REMARK INTRA:                  -0.933
REMARK UNBOUND:                -0.892
REMARK SMILES CCCCCCCCCCCCCCCC(=O)[O-]
REMARK SMILES IDX 9 1 10 2 11 3 12 4 13 5 14 6 15 7 16 8 17 9 18 10 8 11 7 12
REMARK SMILES IDX 6 13 5 14 4 15 3 16 2 17 1 18
REMARK H PARENT
REMARK Flexibility Score: inf
ROOT
ATOM      1  C   UNL     1      44.308  27.047   2.997  1.00  0.00     0.000 C 
ENDROOT
BRANCH   1   2
ATOM      2  C   UNL     1      44.876  26.061   4.032  1.00  0.00     0.000 C 
BRANCH   2   3
ATOM      3  C   UNL     1      46.412  26.079   4.080  1.00  0.00     0.000 C 
BRANCH   3   4
ATOM      4  C   UNL     1      46.953  26.576   5.432  1.00  0.00     0.000 C 
BRANCH   4   5
ATOM      5  C   UNL     1      46.399  27.957   5.828  1.00  0.00     0.000 C 
BRANCH   5   6
ATOM      6  C   UNL     1      45.910  28.070   7.282  1.00  0.00     0.006 C 
BRANCH   6   7
ATOM      7  C   UNL     1      45.630  26.707   7.929  1.00  0.00     0.053 C 
BRANCH   7   8
ATOM      8  C   UNL     1      45.434  26.858   9.404  1.00  0.00     0.041 C 
ATOM      9  O   UNL     1      44.761  27.820   9.859  1.00  0.00    -0.550 OA
ATOM     10  O   UNL     1      46.038  25.965  10.281  1.00  0.00    -0.550 OA
ENDBRANCH   7   8
ENDBRANCH   6   7
ENDBRANCH   5   6
ENDBRANCH   4   5
ENDBRANCH   3   4
ENDBRANCH   2   3
ENDBRANCH   1   2
BRANCH   1  11
ATOM     11  C   UNL     1      45.367  27.525   1.986  1.00  0.00     0.000 C 
BRANCH  11  12
ATOM     12  C   UNL     1      45.398  29.047   1.739  1.00  0.00    -0.000 C 
BRANCH  12  13
ATOM     13  C   UNL     1      45.398  29.473   0.259  1.00  0.00    -0.000 C 
BRANCH  13  14
ATOM     14  C   UNL     1      45.584  28.288  -0.703  1.00  0.00    -0.000 C 
BRANCH  14  15
ATOM     15  C   UNL     1      45.498  28.707  -2.180  1.00  0.00    -0.000 C 
BRANCH  15  16
ATOM     16  C   UNL     1      44.718  27.694  -3.036  1.00  0.00    -0.000 C 
BRANCH  16  17
ATOM     17  C   UNL     1      43.972  28.363  -4.202  1.00  0.00    -0.003 C 
ATOM     18  C   UNL     1      42.486  28.006  -4.239  1.00  0.00     0.004 C 
ENDBRANCH  16  17
ENDBRANCH  15  16
ENDBRANCH  14  15
ENDBRANCH  13  14
ENDBRANCH  12  13
ENDBRANCH  11  12
ENDBRANCH   1  11
TORSDOF 14
ENDMDL
MODEL 7
REMARK VINA RESULT:    -3.900      4.062      9.344
REMARK INTER + INTRA:          -7.984
REMARK INTER:                  -6.399
REMARK INTRA:                  -1.585
REMARK UNBOUND:                -0.892
REMARK SMILES CCCCCCCCCCCCCCCC(=O)[O-]
REMARK SMILES IDX 9 1 10 2 11 3 12 4 13 5 14 6 15 7 16 8 17 9 18 10 8 11 7 12
REMARK SMILES IDX 6 13 5 14 4 15 3 16 2 17 1 18
REMARK H PARENT
REMARK Flexibility Score: inf
ROOT
ATOM      1  C   UNL     1      45.147  27.562  -2.553  1.00  0.00     0.000 C 
ENDROOT
BRANCH   1   2
ATOM      2  C   UNL     1      45.146  29.032  -2.100  1.00  0.00     0.000 C 
BRANCH   2   3
ATOM      3  C   UNL     1      45.394  29.182  -0.590  1.00  0.00     0.000 C 
BRANCH   3   4
ATOM      4  C   UNL     1      46.522  28.265  -0.085  1.00  0.00     0.000 C 
BRANCH   4   5
ATOM      5  C   UNL     1      46.383  27.910   1.407  1.00  0.00     0.000 C 
BRANCH   5   6
ATOM      6  C   UNL     1      45.067  28.361   2.064  1.00  0.00     0.006 C 
BRANCH   6   7
ATOM      7  C   UNL     1      44.277  27.200   2.683  1.00  0.00     0.053 C 
BRANCH   7   8
ATOM      8  C   UNL     1      45.068  26.553   3.775  1.00  0.00     0.041 C 
ATOM      9  O   UNL     1      45.207  25.302   3.800  1.00  0.00    -0.550 OA
ATOM     10  O   UNL     1      45.609  27.327   4.795  1.00  0.00    -0.550 OA
ENDBRANCH   7   8
ENDBRANCH   6   7
ENDBRANCH   5   6
ENDBRANCH   4   5
ENDBRANCH   3   4
ENDBRANCH   2   3
ENDBRANCH   1   2
BRANCH   1  11
ATOM     11  C   UNL     1      46.209  27.271  -3.630  1.00  0.00     0.000 C 
BRANCH  11  12
ATOM     12  C   UNL     1      46.794  28.516  -4.328  1.00  0.00    -0.000 C 
BRANCH  12  13
ATOM     13  C   UNL     1      46.395  28.688  -5.805  1.00  0.00    -0.000 C 
BRANCH  13  14
ATOM     14  C   UNL     1      45.552  27.517  -6.336  1.00  0.00    -0.000 C 
BRANCH  14  15
ATOM     15  C   UNL     1      44.153  27.959  -6.798  1.00  0.00    -0.000 C 
BRANCH  15  16
ATOM     16  C   UNL     1      43.705  29.277  -6.143  1.00  0.00    -0.000 C 
BRANCH  16  17
ATOM     17  C   UNL     1      42.340  29.152  -5.448  1.00  0.00    -0.003 C 
ATOM     18  C   UNL     1      42.298  28.019  -4.422  1.00  0.00     0.004 C 
ENDBRANCH  16  17
ENDBRANCH  15  16
ENDBRANCH  14  15
ENDBRANCH  13  14
ENDBRANCH  12  13
ENDBRANCH  11  12
ENDBRANCH   1  11
TORSDOF 14
ENDMDL
MODEL 8
REMARK VINA RESULT:    -3.709      4.208      9.199
REMARK INTER + INTRA:          -7.636
REMARK INTER:                  -6.528
REMARK INTRA:                  -1.108
REMARK UNBOUND:                -0.892
REMARK SMILES CCCCCCCCCCCCCCCC(=O)[O-]
REMARK SMILES IDX 9 1 10 2 11 3 12 4 13 5 14 6 15 7 16 8 17 9 18 10 8 11 7 12
REMARK SMILES IDX 6 13 5 14 4 15 3 16 2 17 1 18
REMARK H PARENT
REMARK Flexibility Score: inf
ROOT
ATOM      1  C   UNL     1      46.365  29.277   1.460  1.00  0.00     0.000 C 
ENDROOT
BRANCH   1   2
ATOM      2  C   UNL     1      44.909  29.563   1.866  1.00  0.00     0.000 C 
BRANCH   2   3
ATOM      3  C   UNL     1      44.502  28.828   3.154  1.00  0.00     0.000 C 
BRANCH   3   4
ATOM      4  C   UNL     1      44.049  27.382   2.889  1.00  0.00     0.000 C 
BRANCH   4   5
ATOM      5  C   UNL     1      44.878  26.342   3.665  1.00  0.00     0.000 C 
BRANCH   5   6
ATOM      6  C   UNL     1      46.248  26.838   4.159  1.00  0.00     0.006 C 
BRANCH   6   7
ATOM      7  C   UNL     1      46.603  26.321   5.559  1.00  0.00     0.053 C 
BRANCH   7   8
ATOM      8  C   UNL     1      45.988  27.191   6.609  1.00  0.00     0.041 C 
ATOM      9  O   UNL     1      45.855  28.427   6.409  1.00  0.00    -0.550 OA
ATOM     10  O   UNL     1      45.609  26.646   7.830  1.00  0.00    -0.550 OA
ENDBRANCH   7   8
ENDBRANCH   6   7
ENDBRANCH   5   6
ENDBRANCH   4   5
ENDBRANCH   3   4
ENDBRANCH   2   3
ENDBRANCH   1   2
BRANCH   1  11
ATOM     11  C   UNL     1      46.473  28.310   0.267  1.00  0.00     0.000 C 
BRANCH  11  12
ATOM     12  C   UNL     1      46.525  28.982  -1.120  1.00  0.00    -0.000 C 
BRANCH  12  13
ATOM     13  C   UNL     1      45.158  29.236  -1.780  1.00  0.00    -0.000 C 
BRANCH  13  14
ATOM     14  C   UNL     1      45.038  28.595  -3.172  1.00  0.00    -0.000 C 
BRANCH  14  15
ATOM     15  C   UNL     1      44.502  27.155  -3.114  1.00  0.00    -0.000 C 
BRANCH  15  16
ATOM     16  C   UNL     1      43.263  26.950  -4.004  1.00  0.00    -0.000 C 
BRANCH  16  17
ATOM     17  C   UNL     1      43.315  27.798  -5.285  1.00  0.00    -0.003 C 
ATOM     18  C   UNL     1      42.091  28.699  -5.450  1.00  0.00     0.004 C 
ENDBRANCH  16  17
ENDBRANCH  15  16
ENDBRANCH  14  15
ENDBRANCH  13  14
ENDBRANCH  12  13
ENDBRANCH  11  12
ENDBRANCH   1  11
TORSDOF 14
ENDMDL
MODEL 9
REMARK VINA RESULT:    -3.677      2.389      4.284
REMARK INTER + INTRA:          -7.578
REMARK INTER:                  -6.447
REMARK INTRA:                  -1.132
REMARK UNBOUND:                -0.892
REMARK SMILES CCCCCCCCCCCCCCCC(=O)[O-]
REMARK SMILES IDX 9 1 10 2 11 3 12 4 13 5 14 6 15 7 16 8 17 9 18 10 8 11 7 12
REMARK SMILES IDX 6 13 5 14 4 15 3 16 2 17 1 18
REMARK H PARENT
REMARK Flexibility Score: inf
ROOT
ATOM      1  C   UNL     1      45.277  27.785  -1.873  1.00  0.00     0.000 C 
ENDROOT
BRANCH   1   2
ATOM      2  C   UNL     1      46.116  28.528  -2.927  1.00  0.00     0.000 C 
BRANCH   2   3
ATOM      3  C   UNL     1      46.860  27.568  -3.870  1.00  0.00     0.000 C 
BRANCH   3   4
ATOM      4  C   UNL     1      46.524  27.816  -5.350  1.00  0.00     0.000 C 
BRANCH   4   5
ATOM      5  C   UNL     1      45.320  28.757  -5.541  1.00  0.00     0.000 C 
BRANCH   5   6
ATOM      6  C   UNL     1      44.176  28.185  -6.397  1.00  0.00     0.006 C 
BRANCH   6   7
ATOM      7  C   UNL     1      42.788  28.631  -5.918  1.00  0.00     0.053 C 
BRANCH   7   8
ATOM      8  C   UNL     1      42.596  28.282  -4.476  1.00  0.00     0.041 C 
ATOM      9  O   UNL     1      42.311  29.178  -3.640  1.00  0.00    -0.550 OA
ATOM     10  O   UNL     1      42.780  26.973  -4.047  1.00  0.00    -0.550 OA
ENDBRANCH   7   8
ENDBRANCH   6   7
ENDBRANCH   5   6
ENDBRANCH   4   5
ENDBRANCH   3   4
ENDBRANCH   2   3
ENDBRANCH   1   2
BRANCH   1  11
ATOM     11  C   UNL     1      45.648  28.177  -0.431  1.00  0.00     0.000 C 
BRANCH  11  12
ATOM     12  C   UNL     1      45.265  29.614  -0.022  1.00  0.00    -0.000 C 
BRANCH  12  13
ATOM     13  C   UNL     1      45.741  30.048   1.376  1.00  0.00    -0.000 C 
BRANCH  13  14
ATOM     14  C   UNL     1      46.109  28.858   2.277  1.00  0.00    -0.000 C 
BRANCH  14  15
ATOM     15  C   UNL     1      44.959  28.450   3.214  1.00  0.00    -0.000 C 
BRANCH  15  16
ATOM     16  C   UNL     1      44.503  26.998   2.989  1.00  0.00    -0.000 C 
BRANCH  16  17
ATOM     17  C   UNL     1      44.945  26.061   4.125  1.00  0.00    -0.003 C 
ATOM     18  C   UNL     1      46.414  25.651   4.017  1.00  0.00     0.004 C 
ENDBRANCH  16  17
ENDBRANCH  15  16
ENDBRANCH  14  15
ENDBRANCH  13  14
ENDBRANCH  12  13
ENDBRANCH  11  12
ENDBRANCH   1  11
TORSDOF 14
ENDMDL
