MODEL 1
REMARK VINA RESULT:    -3.228      0.000      0.000
REMARK INTER + INTRA:         -10.742
REMARK INTER:                  -7.002
REMARK INTRA:                  -3.740
REMARK UNBOUND:                -3.740
REMARK SMILES CCCCCCCCCCCCCCCCCCCCCC(=O)[O-]
REMARK SMILES IDX 12 1 11 2 10 3 9 4 8 5 7 6 6 7 5 8 4 9 3 10 2 11 1 12 13 13
REMARK SMILES IDX 14 14 15 15 16 16 17 17 18 18 19 19 20 20 21 21 22 22 23 23
REMARK SMILES IDX 24 24
REMARK H PARENT
REMARK Flexibility Score: inf
ROOT
ATOM      1  C   UNL     1      41.255  34.109  45.916  1.00  0.00     0.000 C 
ENDROOT
BRANCH   1   2
ATOM      2  C   UNL     1      42.470  34.109  44.977  1.00  0.00     0.000 C 
BRANCH   2   3
ATOM      3  C   UNL     1      43.622  33.232  45.498  1.00  0.00     0.000 C 
BRANCH   3   4
ATOM      4  C   UNL     1      44.938  34.014  45.648  1.00  0.00    -0.000 C 
BRANCH   4   5
ATOM      5  C   UNL     1      44.770  35.306  46.464  1.00  0.00    -0.000 C 
BRANCH   5   6
ATOM      6  C   UNL     1      45.920  35.478  47.461  1.00  0.00    -0.000 C 
BRANCH   6   7
ATOM      7  C   UNL     1      45.931  36.894  48.050  1.00  0.00    -0.000 C 
BRANCH   7   8
ATOM      8  C   UNL     1      44.559  37.566  47.897  1.00  0.00    -0.000 C 
BRANCH   8   9
ATOM      9  C   UNL     1      44.248  38.555  49.031  1.00  0.00    -0.000 C 
BRANCH   9  10
ATOM     10  C   UNL     1      44.595  38.053  50.444  1.00  0.00    -0.000 C 
BRANCH  10  11
ATOM     11  C   UNL     1      44.738  39.181  51.487  1.00  0.00    -0.003 C 
ATOM     12  C   UNL     1      44.110  38.817  52.833  1.00  0.00     0.004 C 
ENDBRANCH  10  11
ENDBRANCH   9  10
ENDBRANCH   8   9
ENDBRANCH   7   8
ENDBRANCH   6   7
ENDBRANCH   5   6
ENDBRANCH   4   5
ENDBRANCH   3   4
ENDBRANCH   2   3
ENDBRANCH   1   2
BRANCH   1  13
ATOM     13  C   UNL     1      40.891  35.518  46.419  1.00  0.00     0.000 C 
BRANCH  13  14
ATOM     14  C   UNL     1      41.023  35.659  47.945  1.00  0.00     0.000 C 
BRANCH  14  15
ATOM     15  C   UNL     1      41.815  34.534  48.635  1.00  0.00     0.000 C 
BRANCH  15  16
ATOM     16  C   UNL     1      42.652  35.039  49.822  1.00  0.00     0.000 C 
BRANCH  16  17
ATOM     17  C   UNL     1      43.796  34.077  50.186  1.00  0.00     0.000 C 
BRANCH  17  18
ATOM     18  C   UNL     1      43.928  32.913  49.188  1.00  0.00     0.000 C 
BRANCH  18  19
ATOM     19  C   UNL     1      45.122  31.997  49.504  1.00  0.00     0.000 C 
BRANCH  19  20
ATOM     20  C   UNL     1      45.894  31.577  48.245  1.00  0.00     0.006 C 
BRANCH  20  21
ATOM     21  C   UNL     1      45.235  30.370  47.571  1.00  0.00     0.053 C 
BRANCH  21  22
ATOM     22  C   UNL     1      45.388  29.146  48.418  1.00  0.00     0.041 C 
ATOM     23  O   UNL     1      44.413  28.370  48.595  1.00  0.00    -0.550 OA
ATOM     24  O   UNL     1      46.625  28.833  48.970  1.00  0.00    -0.550 OA
ENDBRANCH  21  22
ENDBRANCH  20  21
ENDBRANCH  19  20
ENDBRANCH  18  19
ENDBRANCH  17  18
ENDBRANCH  16  17
ENDBRANCH  15  16
ENDBRANCH  14  15
ENDBRANCH  13  14
ENDBRANCH   1  13
TORSDOF 20
ENDMDL
MODEL 2
REMARK VINA RESULT:    -3.227      4.585      7.199
REMARK INTER + INTRA:         -10.740
REMARK INTER:                  -7.801
REMARK INTRA:                  -2.939
REMARK UNBOUND:                -3.740
REMARK SMILES CCCCCCCCCCCCCCCCCCCCCC(=O)[O-]
REMARK SMILES IDX 12 1 11 2 10 3 9 4 8 5 7 6 6 7 5 8 4 9 3 10 2 11 1 12 13 13
REMARK SMILES IDX 14 14 15 15 16 16 17 17 18 18 19 19 20 20 21 21 22 22 23 23
REMARK SMILES IDX 24 24
REMARK H PARENT
REMARK Flexibility Score: inf
ROOT
ATOM      1  C   UNL     1      45.599  29.595  50.136  1.00  0.00     0.000 C 
ENDROOT
BRANCH   1   2
ATOM      2  C   UNL     1      46.945  29.391  50.846  1.00  0.00     0.000 C 
BRANCH   2   3
ATOM      3  C   UNL     1      47.799  30.670  50.877  1.00  0.00     0.000 C 
BRANCH   3   4
ATOM      4  C   UNL     1      48.623  30.862  49.593  1.00  0.00    -0.000 C 
BRANCH   4   5
ATOM      5  C   UNL     1      49.132  32.303  49.424  1.00  0.00    -0.000 C 
BRANCH   5   6
ATOM      6  C   UNL     1      49.446  32.935  50.784  1.00  0.00    -0.000 C 
BRANCH   6   7
ATOM      7  C   UNL     1      50.931  32.783  51.133  1.00  0.00    -0.000 C 
BRANCH   7   8
ATOM      8  C   UNL     1      51.115  32.396  52.608  1.00  0.00    -0.000 C 
BRANCH   8   9
ATOM      9  C   UNL     1      49.783  32.279  53.365  1.00  0.00    -0.000 C 
BRANCH   9  10
ATOM     10  C   UNL     1      49.833  32.723  54.839  1.00  0.00    -0.000 C 
BRANCH  10  11
ATOM     11  C   UNL     1      49.346  31.645  55.829  1.00  0.00    -0.003 C 
ATOM     12  C   UNL     1      50.442  31.206  56.802  1.00  0.00     0.004 C 
ENDBRANCH  10  11
ENDBRANCH   9  10
ENDBRANCH   8   9
ENDBRANCH   7   8
ENDBRANCH   6   7
ENDBRANCH   5   6
ENDBRANCH   4   5
ENDBRANCH   3   4
ENDBRANCH   2   3
ENDBRANCH   1   2
BRANCH   1  13
ATOM     13  C   UNL     1      45.174  28.371  49.304  1.00  0.00     0.000 C 
BRANCH  13  14
ATOM     14  C   UNL     1      44.932  28.712  47.823  1.00  0.00     0.000 C 
BRANCH  14  15
ATOM     15  C   UNL     1      45.969  29.663  47.199  1.00  0.00     0.000 C 
BRANCH  15  16
ATOM     16  C   UNL     1      45.350  30.991  46.730  1.00  0.00     0.000 C 
BRANCH  16  17
ATOM     17  C   UNL     1      46.296  32.185  46.936  1.00  0.00     0.000 C 
BRANCH  17  18
ATOM     18  C   UNL     1      45.619  33.355  47.674  1.00  0.00     0.000 C 
BRANCH  18  19
ATOM     19  C   UNL     1      45.568  33.143  49.196  1.00  0.00     0.000 C 
BRANCH  19  20
ATOM     20  C   UNL     1      44.139  32.921  49.713  1.00  0.00     0.006 C 
BRANCH  20  21
ATOM     21  C   UNL     1      43.119  33.674  48.854  1.00  0.00     0.053 C 
BRANCH  21  22
ATOM     22  C   UNL     1      42.828  35.020  49.441  1.00  0.00     0.041 C 
ATOM     23  O   UNL     1      42.804  35.176  50.689  1.00  0.00    -0.550 OA
ATOM     24  O   UNL     1      42.637  36.115  48.607  1.00  0.00    -0.550 OA
ENDBRANCH  21  22
ENDBRANCH  20  21
ENDBRANCH  19  20
ENDBRANCH  18  19
ENDBRANCH  17  18
ENDBRANCH  16  17
ENDBRANCH  15  16
ENDBRANCH  14  15
ENDBRANCH  13  14
ENDBRANCH   1  13
TORSDOF 20
ENDMDL
MODEL 3
REMARK VINA RESULT:    -3.129      2.297      5.368
REMARK INTER + INTRA:         -10.526
REMARK INTER:                  -6.903
REMARK INTRA:                  -3.623
REMARK UNBOUND:                -3.740
REMARK SMILES CCCCCCCCCCCCCCCCCCCCCC(=O)[O-]
REMARK SMILES IDX 12 1 11 2 10 3 9 4 8 5 7 6 6 7 5 8 4 9 3 10 2 11 1 12 13 13
REMARK SMILES IDX 14 14 15 15 16 16 17 17 18 18 19 19 20 20 21 21 22 22 23 23
REMARK SMILES IDX 24 24
REMARK H PARENT
REMARK Flexibility Score: inf
ROOT
ATOM      1  C   UNL     1      45.270  32.028  49.666  1.00  0.00     0.000 C 
ENDROOT
BRANCH   1   2
ATOM      2  C   UNL     1      44.028  32.807  49.205  1.00  0.00     0.000 C 
BRANCH   2   3
ATOM      3  C   UNL     1      43.577  33.863  50.229  1.00  0.00     0.000 C 
BRANCH   3   4
ATOM      4  C   UNL     1      42.720  34.972  49.595  1.00  0.00    -0.000 C 
BRANCH   4   5
ATOM      5  C   UNL     1      41.705  34.427  48.577  1.00  0.00    -0.000 C 
BRANCH   5   6
ATOM      6  C   UNL     1      41.174  35.550  47.679  1.00  0.00    -0.000 C 
BRANCH   6   7
ATOM      7  C   UNL     1      42.248  36.617  47.438  1.00  0.00    -0.000 C 
BRANCH   7   8
ATOM      8  C   UNL     1      42.432  36.887  45.938  1.00  0.00    -0.000 C 
BRANCH   8   9
ATOM      9  C   UNL     1      43.750  36.322  45.386  1.00  0.00    -0.000 C 
BRANCH   9  10
ATOM     10  C   UNL     1      44.603  35.548  46.409  1.00  0.00    -0.000 C 
BRANCH  10  11
ATOM     11  C   UNL     1      45.026  34.144  45.929  1.00  0.00    -0.003 C 
ATOM     12  C   UNL     1      43.829  33.266  45.562  1.00  0.00     0.004 C 
ENDBRANCH  10  11
ENDBRANCH   9  10
ENDBRANCH   8   9
ENDBRANCH   7   8
ENDBRANCH   6   7
ENDBRANCH   5   6
ENDBRANCH   4   5
ENDBRANCH   3   4
ENDBRANCH   2   3
ENDBRANCH   1   2
BRANCH   1  13
ATOM     13  C   UNL     1      46.583  32.640  49.144  1.00  0.00     0.000 C 
BRANCH  13  14
ATOM     14  C   UNL     1      47.804  31.742  49.406  1.00  0.00     0.000 C 
BRANCH  14  15
ATOM     15  C   UNL     1      47.734  30.912  50.701  1.00  0.00     0.000 C 
BRANCH  15  16
ATOM     16  C   UNL     1      47.792  29.398  50.439  1.00  0.00     0.000 C 
BRANCH  16  17
ATOM     17  C   UNL     1      46.478  28.688  50.803  1.00  0.00     0.000 C 
BRANCH  17  18
ATOM     18  C   UNL     1      45.953  27.795  49.664  1.00  0.00     0.000 C 
BRANCH  18  19
ATOM     19  C   UNL     1      44.820  28.462  48.866  1.00  0.00     0.000 C 
BRANCH  19  20
ATOM     20  C   UNL     1      45.061  28.417  47.350  1.00  0.00     0.006 C 
BRANCH  20  21
ATOM     21  C   UNL     1      45.169  29.829  46.766  1.00  0.00     0.053 C 
BRANCH  21  22
ATOM     22  C   UNL     1      46.583  30.130  46.377  1.00  0.00     0.041 C 
ATOM     23  O   UNL     1      46.843  31.128  45.657  1.00  0.00    -0.550 OA
ATOM     24  O   UNL     1      47.619  29.336  46.855  1.00  0.00    -0.550 OA
ENDBRANCH  21  22
ENDBRANCH  20  21
ENDBRANCH  19  20
ENDBRANCH  18  19
ENDBRANCH  17  18
ENDBRANCH  16  17
ENDBRANCH  15  16
ENDBRANCH  14  15
ENDBRANCH  13  14
ENDBRANCH   1  13
TORSDOF 20
ENDMDL
MODEL 4
REMARK VINA RESULT:    -3.109      4.970      7.496
REMARK INTER + INTRA:         -10.483
REMARK INTER:                  -7.551
REMARK INTRA:                  -2.932
REMARK UNBOUND:                -3.740
REMARK SMILES CCCCCCCCCCCCCCCCCCCCCC(=O)[O-]
REMARK SMILES IDX 12 1 11 2 10 3 9 4 8 5 7 6 6 7 5 8 4 9 3 10 2 11 1 12 13 13
REMARK SMILES IDX 14 14 15 15 16 16 17 17 18 18 19 19 20 20 21 21 22 22 23 23
REMARK SMILES IDX 24 24
REMARK H PARENT
REMARK Flexibility Score: inf
ROOT
ATOM      1  C   UNL     1      46.798  29.133  50.891  1.00  0.00     0.000 C 
ENDROOT
BRANCH   1   2
ATOM      2  C   UNL     1      45.480  29.063  50.104  1.00  0.00     0.000 C 
BRANCH   2   3
ATOM      3  C   UNL     1      45.613  28.261  48.798  1.00  0.00     0.000 C 
BRANCH   3   4
ATOM      4  C   UNL     1      45.021  29.002  47.587  1.00  0.00    -0.000 C 
BRANCH   4   5
ATOM      5  C   UNL     1      46.020  29.978  46.944  1.00  0.00    -0.000 C 
BRANCH   5   6
ATOM      6  C   UNL     1      45.558  31.429  47.116  1.00  0.00    -0.000 C 
BRANCH   6   7
ATOM      7  C   UNL     1      46.512  32.206  48.031  1.00  0.00    -0.000 C 
BRANCH   7   8
ATOM      8  C   UNL     1      45.807  32.636  49.326  1.00  0.00    -0.000 C 
BRANCH   8   9
ATOM      9  C   UNL     1      44.286  32.424  49.277  1.00  0.00    -0.000 C 
BRANCH   9  10
ATOM     10  C   UNL     1      43.452  33.717  49.205  1.00  0.00    -0.000 C 
BRANCH  10  11
ATOM     11  C   UNL     1      43.732  34.702  50.359  1.00  0.00    -0.003 C 
ATOM     12  C   UNL     1      43.842  36.150  49.879  1.00  0.00     0.004 C 
ENDBRANCH  10  11
ENDBRANCH   9  10
ENDBRANCH   8   9
ENDBRANCH   7   8
ENDBRANCH   6   7
ENDBRANCH   5   6
ENDBRANCH   4   5
ENDBRANCH   3   4
ENDBRANCH   2   3
ENDBRANCH   1   2
BRANCH   1  13
ATOM     13  C   UNL     1      48.037  28.980  49.991  1.00  0.00     0.000 C 
BRANCH  13  14
ATOM     14  C   UNL     1      48.931  30.232  49.989  1.00  0.00     0.000 C 
BRANCH  14  15
ATOM     15  C   UNL     1      48.619  31.254  51.097  1.00  0.00     0.000 C 
BRANCH  15  16
ATOM     16  C   UNL     1      49.301  32.612  50.860  1.00  0.00     0.000 C 
BRANCH  16  17
ATOM     17  C   UNL     1      50.145  33.063  52.064  1.00  0.00     0.000 C 
BRANCH  17  18
ATOM     18  C   UNL     1      51.202  32.020  52.469  1.00  0.00     0.000 C 
BRANCH  18  19
ATOM     19  C   UNL     1      51.241  31.778  53.987  1.00  0.00     0.000 C 
BRANCH  19  20
ATOM     20  C   UNL     1      50.105  32.496  54.729  1.00  0.00     0.006 C 
BRANCH  20  21
ATOM     21  C   UNL     1      49.443  31.569  55.754  1.00  0.00     0.053 C 
BRANCH  21  22
ATOM     22  C   UNL     1      50.441  31.111  56.770  1.00  0.00     0.041 C 
ATOM     23  O   UNL     1      50.678  29.884  56.919  1.00  0.00    -0.550 OA
ATOM     24  O   UNL     1      51.151  32.044  57.517  1.00  0.00    -0.550 OA
ENDBRANCH  21  22
ENDBRANCH  20  21
ENDBRANCH  19  20
ENDBRANCH  18  19
ENDBRANCH  17  18
ENDBRANCH  16  17
ENDBRANCH  15  16
ENDBRANCH  14  15
ENDBRANCH  13  14
ENDBRANCH   1  13
TORSDOF 20
ENDMDL
MODEL 5
REMARK VINA RESULT:    -3.060      2.558      5.504
REMARK INTER + INTRA:         -10.377
REMARK INTER:                  -7.092
REMARK INTRA:                  -3.285
REMARK UNBOUND:                -3.740
REMARK SMILES CCCCCCCCCCCCCCCCCCCCCC(=O)[O-]
REMARK SMILES IDX 12 1 11 2 10 3 9 4 8 5 7 6 6 7 5 8 4 9 3 10 2 11 1 12 13 13
REMARK SMILES IDX 14 14 15 15 16 16 17 17 18 18 19 19 20 20 21 21 22 22 23 23
REMARK SMILES IDX 24 24
REMARK H PARENT
REMARK Flexibility Score: inf
ROOT
ATOM      1  C   UNL     1      45.263  33.185  49.066  1.00  0.00     0.000 C 
ENDROOT
BRANCH   1   2
ATOM      2  C   UNL     1      43.899  33.346  49.754  1.00  0.00     0.000 C 
BRANCH   2   3
ATOM      3  C   UNL     1      43.548  34.817  50.037  1.00  0.00     0.000 C 
BRANCH   3   4
ATOM      4  C   UNL     1      42.207  35.235  49.411  1.00  0.00    -0.000 C 
BRANCH   4   5
ATOM      5  C   UNL     1      41.701  34.229  48.365  1.00  0.00    -0.000 C 
BRANCH   5   6
ATOM      6  C   UNL     1      41.049  34.951  47.181  1.00  0.00    -0.000 C 
BRANCH   6   7
ATOM      7  C   UNL     1      41.563  34.397  45.847  1.00  0.00    -0.000 C 
BRANCH   7   8
ATOM      8  C   UNL     1      42.953  33.765  46.011  1.00  0.00    -0.000 C 
BRANCH   8   9
ATOM      9  C   UNL     1      44.081  34.651  45.458  1.00  0.00    -0.000 C 
BRANCH   9  10
ATOM     10  C   UNL     1      44.705  35.620  46.479  1.00  0.00    -0.000 C 
BRANCH  10  11
ATOM     11  C   UNL     1      44.088  37.034  46.451  1.00  0.00    -0.003 C 
ATOM     12  C   UNL     1      44.193  37.745  47.801  1.00  0.00     0.004 C 
ENDBRANCH  10  11
ENDBRANCH   9  10
ENDBRANCH   8   9
ENDBRANCH   7   8
ENDBRANCH   6   7
ENDBRANCH   5   6
ENDBRANCH   4   5
ENDBRANCH   3   4
ENDBRANCH   2   3
ENDBRANCH   1   2
BRANCH   1  13
ATOM     13  C   UNL     1      45.360  31.892  48.235  1.00  0.00     0.000 C 
BRANCH  13  14
ATOM     14  C   UNL     1      45.059  30.629  49.061  1.00  0.00     0.000 C 
BRANCH  14  15
ATOM     15  C   UNL     1      45.009  29.321  48.250  1.00  0.00     0.000 C 
BRANCH  15  16
ATOM     16  C   UNL     1      45.336  28.082  49.101  1.00  0.00     0.000 C 
BRANCH  16  17
ATOM     17  C   UNL     1      46.405  28.369  50.169  1.00  0.00     0.000 C 
BRANCH  17  18
ATOM     18  C   UNL     1      47.833  28.354  49.594  1.00  0.00     0.000 C 
BRANCH  18  19
ATOM     19  C   UNL     1      48.764  29.352  50.303  1.00  0.00     0.000 C 
BRANCH  19  20
ATOM     20  C   UNL     1      47.995  30.467  51.026  1.00  0.00     0.006 C 
BRANCH  20  21
ATOM     21  C   UNL     1      48.355  31.843  50.457  1.00  0.00     0.053 C 
BRANCH  21  22
ATOM     22  C   UNL     1      49.375  32.518  51.320  1.00  0.00     0.041 C 
ATOM     23  O   UNL     1      49.668  32.040  52.447  1.00  0.00    -0.550 OA
ATOM     24  O   UNL     1      50.041  33.646  50.856  1.00  0.00    -0.550 OA
ENDBRANCH  21  22
ENDBRANCH  20  21
ENDBRANCH  19  20
ENDBRANCH  18  19
ENDBRANCH  17  18
ENDBRANCH  16  17
ENDBRANCH  15  16
ENDBRANCH  14  15
ENDBRANCH  13  14
ENDBRANCH   1  13
TORSDOF 20
ENDMDL
MODEL 6
REMARK VINA RESULT:    -3.036      3.251      6.591
REMARK INTER + INTRA:         -10.326
REMARK INTER:                  -6.736
REMARK INTRA:                  -3.589
REMARK UNBOUND:                -3.740
REMARK SMILES CCCCCCCCCCCCCCCCCCCCCC(=O)[O-]
REMARK SMILES IDX 12 1 11 2 10 3 9 4 8 5 7 6 6 7 5 8 4 9 3 10 2 11 1 12 13 13
REMARK SMILES IDX 14 14 15 15 16 16 17 17 18 18 19 19 20 20 21 21 22 22 23 23
REMARK SMILES IDX 24 24
REMARK H PARENT
REMARK Flexibility Score: inf
ROOT
ATOM      1  C   UNL     1      40.878  35.571  46.271  1.00  0.00     0.000 C 
ENDROOT
BRANCH   1   2
ATOM      2  C   UNL     1      40.885  35.915  47.768  1.00  0.00     0.000 C 
BRANCH   2   3
ATOM      3  C   UNL     1      41.481  34.790  48.631  1.00  0.00     0.000 C 
BRANCH   3   4
ATOM      4  C   UNL     1      42.306  35.326  49.814  1.00  0.00    -0.000 C 
BRANCH   4   5
ATOM      5  C   UNL     1      43.432  34.367  50.234  1.00  0.00    -0.000 C 
BRANCH   5   6
ATOM      6  C   UNL     1      43.565  33.209  49.240  1.00  0.00    -0.000 C 
BRANCH   6   7
ATOM      7  C   UNL     1      44.940  32.540  49.353  1.00  0.00    -0.000 C 
BRANCH   7   8
ATOM      8  C   UNL     1      45.117  31.456  48.279  1.00  0.00    -0.000 C 
BRANCH   8   9
ATOM      9  C   UNL     1      46.051  30.321  48.725  1.00  0.00    -0.000 C 
BRANCH   9  10
ATOM     10  C   UNL     1      45.705  29.692  50.088  1.00  0.00    -0.000 C 
BRANCH  10  11
ATOM     11  C   UNL     1      46.940  29.353  50.947  1.00  0.00    -0.003 C 
ATOM     12  C   UNL     1      47.953  30.497  50.994  1.00  0.00     0.004 C 
ENDBRANCH  10  11
ENDBRANCH   9  10
ENDBRANCH   8   9
ENDBRANCH   7   8
ENDBRANCH   6   7
ENDBRANCH   5   6
ENDBRANCH   4   5
ENDBRANCH   3   4
ENDBRANCH   2   3
ENDBRANCH   1   2
BRANCH   1  13
ATOM     13  C   UNL     1      41.275  34.109  45.994  1.00  0.00     0.000 C 
BRANCH  13  14
ATOM     14  C   UNL     1      42.405  33.985  44.957  1.00  0.00     0.000 C 
BRANCH  14  15
ATOM     15  C   UNL     1      43.782  33.619  45.540  1.00  0.00     0.000 C 
BRANCH  15  16
ATOM     16  C   UNL     1      44.905  34.541  45.035  1.00  0.00     0.000 C 
BRANCH  16  17
ATOM     17  C   UNL     1      45.691  35.192  46.185  1.00  0.00     0.000 C 
BRANCH  17  18
ATOM     18  C   UNL     1      44.776  35.900  47.201  1.00  0.00     0.000 C 
BRANCH  18  19
ATOM     19  C   UNL     1      44.273  37.262  46.694  1.00  0.00     0.000 C 
BRANCH  19  20
ATOM     20  C   UNL     1      43.770  38.165  47.829  1.00  0.00     0.006 C 
BRANCH  20  21
ATOM     21  C   UNL     1      44.632  38.005  49.085  1.00  0.00     0.053 C 
BRANCH  21  22
ATOM     22  C   UNL     1      45.860  38.855  48.992  1.00  0.00     0.041 C 
ATOM     23  O   UNL     1      45.785  40.099  49.168  1.00  0.00    -0.550 OA
ATOM     24  O   UNL     1      47.098  38.266  48.762  1.00  0.00    -0.550 OA
ENDBRANCH  21  22
ENDBRANCH  20  21
ENDBRANCH  19  20
ENDBRANCH  18  19
ENDBRANCH  17  18
ENDBRANCH  16  17
ENDBRANCH  15  16
ENDBRANCH  14  15
ENDBRANCH  13  14
ENDBRANCH   1  13
TORSDOF 20
ENDMDL
MODEL 7
REMARK VINA RESULT:    -3.018      1.467      2.253
REMARK INTER + INTRA:         -10.286
REMARK INTER:                  -6.672
REMARK INTRA:                  -3.614
REMARK UNBOUND:                -3.740
REMARK SMILES CCCCCCCCCCCCCCCCCCCCCC(=O)[O-]
REMARK SMILES IDX 12 1 11 2 10 3 9 4 8 5 7 6 6 7 5 8 4 9 3 10 2 11 1 12 13 13
REMARK SMILES IDX 14 14 15 15 16 16 17 17 18 18 19 19 20 20 21 21 22 22 23 23
REMARK SMILES IDX 24 24
REMARK H PARENT
REMARK Flexibility Score: inf
ROOT
ATOM      1  C   UNL     1      40.872  35.489  46.904  1.00  0.00     0.000 C 
ENDROOT
BRANCH   1   2
ATOM      2  C   UNL     1      41.260  34.109  46.352  1.00  0.00     0.000 C 
BRANCH   2   3
ATOM      3  C   UNL     1      42.488  34.163  45.427  1.00  0.00     0.000 C 
BRANCH   3   4
ATOM      4  C   UNL     1      43.652  33.298  45.940  1.00  0.00    -0.000 C 
BRANCH   4   5
ATOM      5  C   UNL     1      44.961  34.091  46.080  1.00  0.00    -0.000 C 
BRANCH   5   6
ATOM      6  C   UNL     1      44.745  35.571  45.747  1.00  0.00    -0.000 C 
BRANCH   6   7
ATOM      7  C   UNL     1      45.024  36.457  46.966  1.00  0.00    -0.000 C 
BRANCH   7   8
ATOM      8  C   UNL     1      43.986  37.583  47.080  1.00  0.00    -0.000 C 
BRANCH   8   9
ATOM      9  C   UNL     1      43.938  38.212  48.481  1.00  0.00    -0.000 C 
BRANCH   9  10
ATOM     10  C   UNL     1      45.178  37.946  49.355  1.00  0.00    -0.000 C 
BRANCH  10  11
ATOM     11  C   UNL     1      45.785  39.220  49.977  1.00  0.00    -0.003 C 
ATOM     12  C   UNL     1      45.957  40.345  48.955  1.00  0.00     0.004 C 
ENDBRANCH  10  11
ENDBRANCH   9  10
ENDBRANCH   8   9
ENDBRANCH   7   8
ENDBRANCH   6   7
ENDBRANCH   5   6
ENDBRANCH   4   5
ENDBRANCH   3   4
ENDBRANCH   2   3
ENDBRANCH   1   2
BRANCH   1  13
ATOM     13  C   UNL     1      41.121  35.616  48.418  1.00  0.00     0.000 C 
BRANCH  13  14
ATOM     14  C   UNL     1      42.006  34.486  48.973  1.00  0.00     0.000 C 
BRANCH  14  15
ATOM     15  C   UNL     1      43.156  34.951  49.885  1.00  0.00     0.000 C 
BRANCH  15  16
ATOM     16  C   UNL     1      44.434  34.117  49.699  1.00  0.00     0.000 C 
BRANCH  16  17
ATOM     17  C   UNL     1      44.155  32.605  49.696  1.00  0.00     0.000 C 
BRANCH  17  18
ATOM     18  C   UNL     1      45.297  31.794  49.059  1.00  0.00     0.000 C 
BRANCH  18  19
ATOM     19  C   UNL     1      46.684  32.371  49.384  1.00  0.00     0.000 C 
BRANCH  19  20
ATOM     20  C   UNL     1      47.533  31.421  50.241  1.00  0.00     0.006 C 
BRANCH  20  21
ATOM     21  C   UNL     1      46.762  30.139  50.572  1.00  0.00     0.053 C 
BRANCH  21  22
ATOM     22  C   UNL     1      47.604  28.933  50.296  1.00  0.00     0.041 C 
ATOM     23  O   UNL     1      48.859  29.020  50.309  1.00  0.00    -0.550 OA
ATOM     24  O   UNL     1      47.001  27.700  50.077  1.00  0.00    -0.550 OA
ENDBRANCH  21  22
ENDBRANCH  20  21
ENDBRANCH  19  20
ENDBRANCH  18  19
ENDBRANCH  17  18
ENDBRANCH  16  17
ENDBRANCH  15  16
ENDBRANCH  14  15
ENDBRANCH  13  14
ENDBRANCH   1  13
TORSDOF 20
ENDMDL
MODEL 8
REMARK VINA RESULT:    -3.010      3.243      7.134
REMARK INTER + INTRA:         -10.270
REMARK INTER:                  -6.412
REMARK INTRA:                  -3.858
REMARK UNBOUND:                -3.740
REMARK SMILES CCCCCCCCCCCCCCCCCCCCCC(=O)[O-]
REMARK SMILES IDX 12 1 11 2 10 3 9 4 8 5 7 6 6 7 5 8 4 9 3 10 2 11 1 12 13 13
REMARK SMILES IDX 14 14 15 15 16 16 17 17 18 18 19 19 20 20 21 21 22 22 23 23
REMARK SMILES IDX 24 24
REMARK H PARENT
REMARK Flexibility Score: inf
ROOT
ATOM      1  C   UNL     1      43.910  33.100  49.712  1.00  0.00     0.000 C 
ENDROOT
BRANCH   1   2
ATOM      2  C   UNL     1      44.705  32.367  48.621  1.00  0.00     0.000 C 
BRANCH   2   3
ATOM      3  C   UNL     1      45.927  33.168  48.139  1.00  0.00     0.000 C 
BRANCH   3   4
ATOM      4  C   UNL     1      47.250  32.412  48.351  1.00  0.00    -0.000 C 
BRANCH   4   5
ATOM      5  C   UNL     1      47.439  31.943  49.802  1.00  0.00    -0.000 C 
BRANCH   5   6
ATOM      6  C   UNL     1      47.929  30.492  49.849  1.00  0.00    -0.000 C 
BRANCH   6   7
ATOM      7  C   UNL     1      47.202  29.699  50.942  1.00  0.00    -0.000 C 
BRANCH   7   8
ATOM      8  C   UNL     1      45.895  29.094  50.408  1.00  0.00    -0.000 C 
BRANCH   8   9
ATOM      9  C   UNL     1      46.033  28.536  48.983  1.00  0.00    -0.000 C 
BRANCH   9  10
ATOM     10  C   UNL     1      44.857  28.857  48.043  1.00  0.00    -0.000 C 
BRANCH  10  11
ATOM     11  C   UNL     1      45.292  29.277  46.624  1.00  0.00    -0.003 C 
ATOM     12  C   UNL     1      46.811  29.259  46.448  1.00  0.00     0.004 C 
ENDBRANCH  10  11
ENDBRANCH   9  10
ENDBRANCH   8   9
ENDBRANCH   7   8
ENDBRANCH   6   7
ENDBRANCH   5   6
ENDBRANCH   4   5
ENDBRANCH   3   4
ENDBRANCH   2   3
ENDBRANCH   1   2
BRANCH   1  13
ATOM     13  C   UNL     1      43.948  34.631  49.549  1.00  0.00     0.000 C 
BRANCH  13  14
ATOM     14  C   UNL     1      42.549  35.245  49.363  1.00  0.00     0.000 C 
BRANCH  14  15
ATOM     15  C   UNL     1      41.561  34.377  48.564  1.00  0.00     0.000 C 
BRANCH  15  16
ATOM     16  C   UNL     1      41.456  34.800  47.089  1.00  0.00     0.000 C 
BRANCH  16  17
ATOM     17  C   UNL     1      42.370  33.970  46.173  1.00  0.00     0.000 C 
BRANCH  17  18
ATOM     18  C   UNL     1      43.616  34.750  45.717  1.00  0.00     0.000 C 
BRANCH  18  19
ATOM     19  C   UNL     1      43.408  36.272  45.759  1.00  0.00     0.000 C 
BRANCH  19  20
ATOM     20  C   UNL     1      44.423  36.983  46.666  1.00  0.00     0.006 C 
BRANCH  20  21
ATOM     21  C   UNL     1      43.793  38.198  47.354  1.00  0.00     0.053 C 
BRANCH  21  22
ATOM     22  C   UNL     1      44.469  38.471  48.661  1.00  0.00     0.041 C 
ATOM     23  O   UNL     1      43.989  39.320  49.458  1.00  0.00    -0.550 OA
ATOM     24  O   UNL     1      45.600  37.750  49.023  1.00  0.00    -0.550 OA
ENDBRANCH  21  22
ENDBRANCH  20  21
ENDBRANCH  19  20
ENDBRANCH  18  19
ENDBRANCH  17  18
ENDBRANCH  16  17
ENDBRANCH  15  16
ENDBRANCH  14  15
ENDBRANCH  13  14
ENDBRANCH   1  13
TORSDOF 20
ENDMDL
MODEL 9
REMARK VINA RESULT:    -2.964      3.699      7.372
REMARK INTER + INTRA:         -10.168
REMARK INTER:                  -7.335
REMARK INTRA:                  -2.834
REMARK UNBOUND:                -3.740
REMARK SMILES CCCCCCCCCCCCCCCCCCCCCC(=O)[O-]
REMARK SMILES IDX 12 1 11 2 10 3 9 4 8 5 7 6 6 7 5 8 4 9 3 10 2 11 1 12 13 13
REMARK SMILES IDX 14 14 15 15 16 16 17 17 18 18 19 19 20 20 21 21 22 22 23 23
REMARK SMILES IDX 24 24
REMARK H PARENT
REMARK Flexibility Score: inf
ROOT
ATOM      1  C   UNL     1      40.910  35.536  46.372  1.00  0.00     0.000 C 
ENDROOT
BRANCH   1   2
ATOM      2  C   UNL     1      40.929  35.730  47.896  1.00  0.00     0.000 C 
BRANCH   2   3
ATOM      3  C   UNL     1      41.639  34.581  48.632  1.00  0.00     0.000 C 
BRANCH   3   4
ATOM      4  C   UNL     1      42.510  35.076  49.799  1.00  0.00    -0.000 C 
BRANCH   4   5
ATOM      5  C   UNL     1      43.534  34.026  50.261  1.00  0.00    -0.000 C 
BRANCH   5   6
ATOM      6  C   UNL     1      43.854  33.040  49.132  1.00  0.00    -0.000 C 
BRANCH   6   7
ATOM      7  C   UNL     1      45.262  32.455  49.295  1.00  0.00    -0.000 C 
BRANCH   7   8
ATOM      8  C   UNL     1      45.295  30.974  48.888  1.00  0.00    -0.000 C 
BRANCH   8   9
ATOM      9  C   UNL     1      45.768  30.053  50.023  1.00  0.00    -0.000 C 
BRANCH   9  10
ATOM     10  C   UNL     1      45.475  28.556  49.810  1.00  0.00    -0.000 C 
BRANCH  10  11
ATOM     11  C   UNL     1      44.644  28.260  48.544  1.00  0.00    -0.003 C 
ATOM     12  C   UNL     1      45.487  27.665  47.416  1.00  0.00     0.004 C 
ENDBRANCH  10  11
ENDBRANCH   9  10
ENDBRANCH   8   9
ENDBRANCH   7   8
ENDBRANCH   6   7
ENDBRANCH   5   6
ENDBRANCH   4   5
ENDBRANCH   3   4
ENDBRANCH   2   3
ENDBRANCH   1   2
BRANCH   1  13
ATOM     13  C   UNL     1      41.317  34.112  45.950  1.00  0.00     0.000 C 
BRANCH  13  14
ATOM     14  C   UNL     1      42.489  34.098  44.952  1.00  0.00     0.000 C 
BRANCH  14  15
ATOM     15  C   UNL     1      43.886  34.033  45.594  1.00  0.00     0.000 C 
BRANCH  15  16
ATOM     16  C   UNL     1      44.590  35.401  45.624  1.00  0.00     0.000 C 
BRANCH  16  17
ATOM     17  C   UNL     1      45.146  35.745  47.016  1.00  0.00     0.000 C 
BRANCH  17  18
ATOM     18  C   UNL     1      44.536  37.035  47.593  1.00  0.00     0.000 C 
BRANCH  18  19
ATOM     19  C   UNL     1      45.174  37.442  48.932  1.00  0.00     0.000 C 
BRANCH  19  20
ATOM     20  C   UNL     1      44.649  38.789  49.450  1.00  0.00     0.006 C 
BRANCH  20  21
ATOM     21  C   UNL     1      44.718  38.856  50.980  1.00  0.00     0.053 C 
BRANCH  21  22
ATOM     22  C   UNL     1      43.909  40.006  51.493  1.00  0.00     0.041 C 
ATOM     23  O   UNL     1      43.814  40.212  52.730  1.00  0.00    -0.550 OA
ATOM     24  O   UNL     1      43.302  40.881  50.600  1.00  0.00    -0.550 OA
ENDBRANCH  21  22
ENDBRANCH  20  21
ENDBRANCH  19  20
ENDBRANCH  18  19
ENDBRANCH  17  18
ENDBRANCH  16  17
ENDBRANCH  15  16
ENDBRANCH  14  15
ENDBRANCH  13  14
ENDBRANCH   1  13
TORSDOF 20
ENDMDL
