MODEL 1
REMARK VINA RESULT:    -3.856      0.000      0.000
REMARK INTER + INTRA:          -4.812
REMARK INTER:                  -4.532
REMARK INTRA:                  -0.280
REMARK UNBOUND:                -0.280
REMARK SMILES O=c1cc(-c2ccc(O)c(O)c2)oc2cc(O)cc(O)c12
REMARK SMILES IDX 4 1 3 2 2 3 1 4 21 5 19 6 18 7 16 8 15 9 14 10 13 11 5 12
REMARK SMILES IDX 6 13 7 14 8 15 12 16 10 17 9 18 11 20 20 22 17 24
REMARK H PARENT 9 19 11 21 20 23 17 25
REMARK Flexibility Score: inf
ROOT
ATOM      1  C   UNL     1      -2.325   9.041  -2.927  1.00  0.00     0.138 A 
ATOM      2  C   UNL     1      -2.270  10.014  -3.934  1.00  0.00     0.100 A 
ATOM      3  C   UNL     1      -1.905   9.647  -5.230  1.00  0.00     0.197 A 
ATOM      4  O   UNL     1      -1.927  10.531  -6.126  1.00  0.00    -0.289 OA
ATOM      5  C   UNL     1      -1.564   8.303  -5.510  1.00  0.00     0.107 A 
ATOM      6  C   UNL     1      -1.138   7.822  -6.785  1.00  0.00     0.134 A 
ATOM      7  C   UNL     1      -0.939   6.449  -6.972  1.00  0.00     0.093 A 
ATOM      8  C   UNL     1      -1.090   5.547  -5.915  1.00  0.00     0.123 A 
ATOM      9  C   UNL     1      -1.453   6.014  -4.654  1.00  0.00     0.094 A 
ATOM     10  C   UNL     1      -1.693   7.374  -4.444  1.00  0.00     0.146 A 
ATOM     11  O   UNL     1      -2.052   7.776  -3.230  1.00  0.00    -0.456 OA
ENDROOT
BRANCH   1  12
ATOM     12  C   UNL     1      -2.704   9.377  -1.532  1.00  0.00     0.021 A 
ATOM     13  C   UNL     1      -3.926  10.008  -1.228  1.00  0.00     0.016 A 
ATOM     14  C   UNL     1      -4.252  10.321   0.094  1.00  0.00     0.051 A 
ATOM     15  C   UNL     1      -3.364  10.019   1.132  1.00  0.00     0.157 A 
ATOM     16  C   UNL     1      -1.812   9.088  -0.483  1.00  0.00     0.062 A 
ATOM     17  C   UNL     1      -2.141   9.402   0.844  1.00  0.00     0.158 A 
BRANCH  15  18
ATOM     18  O   UNL     1      -3.687  10.328   2.452  1.00  0.00    -0.504 OA
ATOM     19  H   UNL     1      -4.453  10.954   2.677  1.00  0.00     0.293 HD
ENDBRANCH  15  18
BRANCH  17  20
ATOM     20  O   UNL     1      -1.256   9.105   1.879  1.00  0.00    -0.504 OA
ATOM     21  H   UNL     1      -1.486   9.299   2.846  1.00  0.00     0.293 HD
ENDBRANCH  17  20
ENDBRANCH   1  12
BRANCH   6  22
ATOM     22  O   UNL     1      -0.875   8.646  -7.883  1.00  0.00    -0.507 OA
ATOM     23  H   UNL     1      -0.635   9.624  -7.826  1.00  0.00     0.293 HD
ENDBRANCH   6  22
BRANCH   8  24
ATOM     24  O   UNL     1      -0.875   4.183  -6.107  1.00  0.00    -0.508 OA
ATOM     25  H   UNL     1       0.032   3.763  -5.947  1.00  0.00     0.293 HD
ENDBRANCH   8  24
TORSDOF 5
ENDMDL
MODEL 2
REMARK VINA RESULT:    -3.425      1.254      2.743
REMARK INTER + INTRA:          -4.306
REMARK INTER:                  -4.043
REMARK INTRA:                  -0.263
REMARK UNBOUND:                -0.280
REMARK SMILES O=c1cc(-c2ccc(O)c(O)c2)oc2cc(O)cc(O)c12
REMARK SMILES IDX 4 1 3 2 2 3 1 4 21 5 19 6 18 7 16 8 15 9 14 10 13 11 5 12
REMARK SMILES IDX 6 13 7 14 8 15 12 16 10 17 9 18 11 20 20 22 17 24
REMARK H PARENT 9 19 11 21 20 23 17 25
REMARK Flexibility Score: inf
ROOT
ATOM      1  C   UNL     1      -2.177   8.791  -2.397  1.00  0.00     0.138 A 
ATOM      2  C   UNL     1      -1.916   7.438  -2.653  1.00  0.00     0.100 A 
ATOM      3  C   UNL     1      -1.520   7.041  -3.930  1.00  0.00     0.197 A 
ATOM      4  O   UNL     1      -1.230   5.830  -4.113  1.00  0.00    -0.289 OA
ATOM      5  C   UNL     1      -1.416   8.002  -4.965  1.00  0.00     0.107 A 
ATOM      6  C   UNL     1      -1.060   7.706  -6.315  1.00  0.00     0.134 A 
ATOM      7  C   UNL     1      -0.876   8.755  -7.224  1.00  0.00     0.093 A 
ATOM      8  C   UNL     1      -1.094  10.083  -6.848  1.00  0.00     0.123 A 
ATOM      9  C   UNL     1      -1.494  10.377  -5.547  1.00  0.00     0.094 A 
ATOM     10  C   UNL     1      -1.652   9.356  -4.607  1.00  0.00     0.146 A 
ATOM     11  O   UNL     1      -2.020   9.680  -3.372  1.00  0.00    -0.456 OA
ENDROOT
BRANCH   1  12
ATOM     12  C   UNL     1      -2.604   9.267  -1.057  1.00  0.00     0.021 A 
ATOM     13  C   UNL     1      -3.899   9.771  -0.827  1.00  0.00     0.016 A 
ATOM     14  C   UNL     1      -4.270  10.220   0.442  1.00  0.00     0.051 A 
ATOM     15  C   UNL     1      -3.354  10.184   1.500  1.00  0.00     0.157 A 
ATOM     16  C   UNL     1      -1.687   9.246   0.010  1.00  0.00     0.062 A 
ATOM     17  C   UNL     1      -2.059   9.697   1.284  1.00  0.00     0.158 A 
BRANCH  15  18
ATOM     18  O   UNL     1      -3.721  10.630   2.769  1.00  0.00    -0.504 OA
ATOM     19  H   UNL     1      -3.720  11.617   3.003  1.00  0.00     0.293 HD
ENDBRANCH  15  18
BRANCH  17  20
ATOM     20  O   UNL     1      -1.149   9.664   2.338  1.00  0.00    -0.504 OA
ATOM     21  H   UNL     1      -0.393  10.335   2.408  1.00  0.00     0.293 HD
ENDBRANCH  17  20
ENDBRANCH   1  12
BRANCH   6  22
ATOM     22  O   UNL     1      -0.903   6.411  -6.816  1.00  0.00    -0.507 OA
ATOM     23  H   UNL     1      -1.384   6.042  -7.621  1.00  0.00     0.293 HD
ENDBRANCH   6  22
BRANCH   8  24
ATOM     24  O   UNL     1      -0.923  11.119  -7.765  1.00  0.00    -0.508 OA
ATOM     25  H   UNL     1      -0.602  10.942  -8.710  1.00  0.00     0.293 HD
ENDBRANCH   8  24
TORSDOF 5
ENDMDL
MODEL 3
REMARK VINA RESULT:    -3.404      2.177      3.186
REMARK INTER + INTRA:          -4.281
REMARK INTER:                  -3.990
REMARK INTRA:                  -0.292
REMARK UNBOUND:                -0.280
REMARK SMILES O=c1cc(-c2ccc(O)c(O)c2)oc2cc(O)cc(O)c12
REMARK SMILES IDX 4 1 3 2 2 3 1 4 21 5 19 6 18 7 16 8 15 9 14 10 13 11 5 12
REMARK SMILES IDX 6 13 7 14 8 15 12 16 10 17 9 18 11 20 20 22 17 24
REMARK H PARENT 9 19 11 21 20 23 17 25
REMARK Flexibility Score: inf
ROOT
ATOM      1  C   UNL     1      -3.089   9.146  -0.746  1.00  0.00     0.138 A 
ATOM      2  C   UNL     1      -4.365   9.408  -1.265  1.00  0.00     0.100 A 
ATOM      3  C   UNL     1      -4.719   8.899  -2.514  1.00  0.00     0.197 A 
ATOM      4  O   UNL     1      -5.892   9.097  -2.926  1.00  0.00    -0.289 OA
ATOM      5  C   UNL     1      -3.779   8.149  -3.261  1.00  0.00     0.107 A 
ATOM      6  C   UNL     1      -4.016   7.615  -4.563  1.00  0.00     0.134 A 
ATOM      7  C   UNL     1      -3.052   6.791  -5.156  1.00  0.00     0.093 A 
ATOM      8  C   UNL     1      -1.835   6.532  -4.519  1.00  0.00     0.123 A 
ATOM      9  C   UNL     1      -1.573   7.092  -3.273  1.00  0.00     0.094 A 
ATOM     10  C   UNL     1      -2.528   7.891  -2.639  1.00  0.00     0.146 A 
ATOM     11  O   UNL     1      -2.245   8.394  -1.443  1.00  0.00    -0.456 OA
ENDROOT
BRANCH   1  12
ATOM     12  C   UNL     1      -2.660   9.666   0.578  1.00  0.00     0.021 A 
ATOM     13  C   UNL     1      -1.308   9.665   0.970  1.00  0.00     0.016 A 
ATOM     14  C   UNL     1      -0.933  10.152   2.225  1.00  0.00     0.051 A 
ATOM     15  C   UNL     1      -1.901  10.638   3.112  1.00  0.00     0.157 A 
ATOM     16  C   UNL     1      -3.627  10.144   1.481  1.00  0.00     0.062 A 
ATOM     17  C   UNL     1      -3.251  10.633   2.740  1.00  0.00     0.158 A 
BRANCH  15  18
ATOM     18  O   UNL     1      -1.532  11.125   4.364  1.00  0.00    -0.504 OA
ATOM     19  H   UNL     1      -1.035  12.004   4.465  1.00  0.00     0.293 HD
ENDBRANCH  15  18
BRANCH  17  20
ATOM     20  O   UNL     1      -4.213  11.114   3.626  1.00  0.00    -0.504 OA
ATOM     21  H   UNL     1      -4.398  12.106   3.722  1.00  0.00     0.293 HD
ENDBRANCH  17  20
ENDBRANCH   1  12
BRANCH   6  22
ATOM     22  O   UNL     1      -5.160   7.882  -5.321  1.00  0.00    -0.507 OA
ATOM     23  H   UNL     1      -5.867   8.559  -5.078  1.00  0.00     0.293 HD
ENDBRANCH   6  22
BRANCH   8  24
ATOM     24  O   UNL     1      -0.875   5.721  -5.124  1.00  0.00    -0.508 OA
ATOM     25  H   UNL     1      -1.036   5.295  -6.029  1.00  0.00     0.293 HD
ENDBRANCH   8  24
TORSDOF 5
ENDMDL
MODEL 4
REMARK VINA RESULT:    -2.757      1.856      6.836
REMARK INTER + INTRA:          -3.520
REMARK INTER:                  -3.206
REMARK INTRA:                  -0.314
REMARK UNBOUND:                -0.280
REMARK SMILES O=c1cc(-c2ccc(O)c(O)c2)oc2cc(O)cc(O)c12
REMARK SMILES IDX 4 1 3 2 2 3 1 4 21 5 19 6 18 7 16 8 15 9 14 10 13 11 5 12
REMARK SMILES IDX 6 13 7 14 8 15 12 16 10 17 9 18 11 20 20 22 17 24
REMARK H PARENT 9 19 11 21 20 23 17 25
REMARK Flexibility Score: inf
ROOT
ATOM      1  C   UNL     1      -1.843   6.668  -4.097  1.00  0.00     0.138 A 
ATOM      2  C   UNL     1      -2.433   7.813  -4.650  1.00  0.00     0.100 A 
ATOM      3  C   UNL     1      -2.657   8.930  -3.846  1.00  0.00     0.197 A 
ATOM      4  O   UNL     1      -3.129   9.965  -4.385  1.00  0.00    -0.289 OA
ATOM      5  C   UNL     1      -2.316   8.888  -2.473  1.00  0.00     0.107 A 
ATOM      6  C   UNL     1      -2.537   9.954  -1.549  1.00  0.00     0.134 A 
ATOM      7  C   UNL     1      -2.052   9.841  -0.240  1.00  0.00     0.093 A 
ATOM      8  C   UNL     1      -1.410   8.679   0.195  1.00  0.00     0.123 A 
ATOM      9  C   UNL     1      -1.239   7.613  -0.685  1.00  0.00     0.094 A 
ATOM     10  C   UNL     1      -1.680   7.707  -2.007  1.00  0.00     0.146 A 
ATOM     11  O   UNL     1      -1.484   6.674  -2.818  1.00  0.00    -0.456 OA
ENDROOT
BRANCH   1  12
ATOM     12  C   UNL     1      -1.584   5.450  -4.907  1.00  0.00     0.021 A 
ATOM     13  C   UNL     1      -1.594   5.482  -6.315  1.00  0.00     0.016 A 
ATOM     14  C   UNL     1      -1.356   4.319  -7.051  1.00  0.00     0.051 A 
ATOM     15  C   UNL     1      -1.114   3.105  -6.398  1.00  0.00     0.157 A 
ATOM     16  C   UNL     1      -1.352   4.224  -4.259  1.00  0.00     0.062 A 
ATOM     17  C   UNL     1      -1.114   3.056  -4.999  1.00  0.00     0.158 A 
BRANCH  15  18
ATOM     18  O   UNL     1      -0.875   1.943  -7.129  1.00  0.00    -0.504 OA
ATOM     19  H   UNL     1      -0.541   1.978  -8.086  1.00  0.00     0.293 HD
ENDBRANCH  15  18
BRANCH  17  20
ATOM     20  O   UNL     1      -0.876   1.846  -4.349  1.00  0.00    -0.504 OA
ATOM     21  H   UNL     1       0.006   1.656  -3.887  1.00  0.00     0.293 HD
ENDBRANCH  17  20
ENDBRANCH   1  12
BRANCH   6  22
ATOM     22  O   UNL     1      -3.241  11.121  -1.856  1.00  0.00    -0.507 OA
ATOM     23  H   UNL     1      -2.966  12.051  -1.576  1.00  0.00     0.293 HD
ENDBRANCH   6  22
BRANCH   8  24
ATOM     24  O   UNL     1      -0.945   8.571   1.504  1.00  0.00    -0.508 OA
ATOM     25  H   UNL     1      -1.582   8.510   2.290  1.00  0.00     0.293 HD
ENDBRANCH   8  24
TORSDOF 5
ENDMDL
MODEL 5
REMARK VINA RESULT:    -2.649      1.825      6.923
REMARK INTER + INTRA:          -3.394
REMARK INTER:                  -3.126
REMARK INTRA:                  -0.268
REMARK UNBOUND:                -0.280
REMARK SMILES O=c1cc(-c2ccc(O)c(O)c2)oc2cc(O)cc(O)c12
REMARK SMILES IDX 4 1 3 2 2 3 1 4 21 5 19 6 18 7 16 8 15 9 14 10 13 11 5 12
REMARK SMILES IDX 6 13 7 14 8 15 12 16 10 17 9 18 11 20 20 22 17 24
REMARK H PARENT 9 19 11 21 20 23 17 25
REMARK Flexibility Score: inf
ROOT
ATOM      1  C   UNL     1      -2.457   7.766  -3.367  1.00  0.00     0.138 A 
ATOM      2  C   UNL     1      -3.489   8.700  -3.531  1.00  0.00     0.100 A 
ATOM      3  C   UNL     1      -3.850   9.524  -2.465  1.00  0.00     0.197 A 
ATOM      4  O   UNL     1      -4.737  10.395  -2.662  1.00  0.00    -0.289 OA
ATOM      5  C   UNL     1      -3.194   9.390  -1.219  1.00  0.00     0.107 A 
ATOM      6  C   UNL     1      -3.506  10.148  -0.051  1.00  0.00     0.134 A 
ATOM      7  C   UNL     1      -2.711  10.010   1.093  1.00  0.00     0.093 A 
ATOM      8  C   UNL     1      -1.653   9.097   1.131  1.00  0.00     0.123 A 
ATOM      9  C   UNL     1      -1.375   8.314   0.014  1.00  0.00     0.094 A 
ATOM     10  C   UNL     1      -2.128   8.453  -1.155  1.00  0.00     0.146 A 
ATOM     11  O   UNL     1      -1.821   7.698  -2.203  1.00  0.00    -0.456 OA
ENDROOT
BRANCH   1  12
ATOM     12  C   UNL     1      -2.034   6.863  -4.468  1.00  0.00     0.021 A 
ATOM     13  C   UNL     1      -1.259   7.325  -5.549  1.00  0.00     0.016 A 
ATOM     14  C   UNL     1      -0.884   6.455  -6.575  1.00  0.00     0.051 A 
ATOM     15  C   UNL     1      -1.282   5.113  -6.545  1.00  0.00     0.157 A 
ATOM     16  C   UNL     1      -2.439   5.516  -4.452  1.00  0.00     0.062 A 
ATOM     17  C   UNL     1      -2.062   4.643  -5.483  1.00  0.00     0.158 A 
BRANCH  15  18
ATOM     18  O   UNL     1      -0.908   4.242  -7.567  1.00  0.00    -0.504 OA
ATOM     19  H   UNL     1      -0.337   4.552  -8.345  1.00  0.00     0.293 HD
ENDBRANCH  15  18
BRANCH  17  20
ATOM     20  O   UNL     1      -2.460   3.307  -5.456  1.00  0.00    -0.504 OA
ATOM     21  H   UNL     1      -2.444   2.765  -4.600  1.00  0.00     0.293 HD
ENDBRANCH  17  20
ENDBRANCH   1  12
BRANCH   6  22
ATOM     22  O   UNL     1      -4.592  11.023   0.046  1.00  0.00    -0.507 OA
ATOM     23  H   UNL     1      -5.025  11.493  -0.735  1.00  0.00     0.293 HD
ENDBRANCH   6  22
BRANCH   8  24
ATOM     24  O   UNL     1      -0.876   8.957   2.280  1.00  0.00    -0.508 OA
ATOM     25  H   UNL     1      -0.728   8.052   2.711  1.00  0.00     0.293 HD
ENDBRANCH   8  24
TORSDOF 5
ENDMDL
MODEL 6
REMARK VINA RESULT:    -2.522      1.265      1.970
REMARK INTER + INTRA:          -3.245
REMARK INTER:                  -2.971
REMARK INTRA:                  -0.273
REMARK UNBOUND:                -0.280
REMARK SMILES O=c1cc(-c2ccc(O)c(O)c2)oc2cc(O)cc(O)c12
REMARK SMILES IDX 4 1 3 2 2 3 1 4 21 5 19 6 18 7 16 8 15 9 14 10 13 11 5 12
REMARK SMILES IDX 6 13 7 14 8 15 12 16 10 17 9 18 11 20 20 22 17 24
REMARK H PARENT 9 19 11 21 20 23 17 25
REMARK Flexibility Score: inf
ROOT
ATOM      1  C   UNL     1      -1.607   8.000  -2.400  1.00  0.00     0.138 A 
ATOM      2  C   UNL     1      -1.638   8.836  -3.525  1.00  0.00     0.100 A 
ATOM      3  C   UNL     1      -1.482   8.286  -4.797  1.00  0.00     0.197 A 
ATOM      4  O   UNL     1      -1.578   9.053  -5.791  1.00  0.00    -0.289 OA
ATOM      5  C   UNL     1      -1.263   6.896  -4.941  1.00  0.00     0.107 A 
ATOM      6  C   UNL     1      -1.051   6.231  -6.186  1.00  0.00     0.134 A 
ATOM      7  C   UNL     1      -0.961   4.834  -6.215  1.00  0.00     0.093 A 
ATOM      8  C   UNL     1      -1.014   4.083  -5.038  1.00  0.00     0.123 A 
ATOM      9  C   UNL     1      -1.167   4.727  -3.813  1.00  0.00     0.094 A 
ATOM     10  C   UNL     1      -1.295   6.117  -3.754  1.00  0.00     0.146 A 
ATOM     11  O   UNL     1      -1.454   6.691  -2.567  1.00  0.00    -0.456 OA
ENDROOT
BRANCH   1  12
ATOM     12  C   UNL     1      -1.766   8.533  -1.023  1.00  0.00     0.021 A 
ATOM     13  C   UNL     1      -0.911   8.140   0.025  1.00  0.00     0.016 A 
ATOM     14  C   UNL     1      -1.090   8.651   1.314  1.00  0.00     0.051 A 
ATOM     15  C   UNL     1      -2.126   9.553   1.579  1.00  0.00     0.157 A 
ATOM     16  C   UNL     1      -2.812   9.430  -0.744  1.00  0.00     0.062 A 
ATOM     17  C   UNL     1      -2.991   9.942   0.550  1.00  0.00     0.158 A 
BRANCH  15  18
ATOM     18  O   UNL     1      -2.307  10.065   2.863  1.00  0.00    -0.504 OA
ATOM     19  H   UNL     1      -1.979   9.566   3.683  1.00  0.00     0.293 HD
ENDBRANCH  15  18
BRANCH  17  20
ATOM     20  O   UNL     1      -4.024  10.838   0.817  1.00  0.00    -0.504 OA
ATOM     21  H   UNL     1      -4.480  11.359   0.077  1.00  0.00     0.293 HD
ENDBRANCH  17  20
ENDBRANCH   1  12
BRANCH   6  22
ATOM     22  O   UNL     1      -0.897   6.892  -7.408  1.00  0.00    -0.507 OA
ATOM     23  H   UNL     1      -0.266   7.661  -7.573  1.00  0.00     0.293 HD
ENDBRANCH   6  22
BRANCH   8  24
ATOM     24  O   UNL     1      -0.908   2.694  -5.076  1.00  0.00    -0.508 OA
ATOM     25  H   UNL     1      -1.723   2.104  -5.200  1.00  0.00     0.293 HD
ENDBRANCH   8  24
TORSDOF 5
ENDMDL
MODEL 7
REMARK VINA RESULT:    -2.034      2.246      3.073
REMARK INTER + INTRA:          -2.671
REMARK INTER:                  -2.381
REMARK INTRA:                  -0.290
REMARK UNBOUND:                -0.280
REMARK SMILES O=c1cc(-c2ccc(O)c(O)c2)oc2cc(O)cc(O)c12
REMARK SMILES IDX 4 1 3 2 2 3 1 4 21 5 19 6 18 7 16 8 15 9 14 10 13 11 5 12
REMARK SMILES IDX 6 13 7 14 8 15 12 16 10 17 9 18 11 20 20 22 17 24
REMARK H PARENT 9 19 11 21 20 23 17 25
REMARK Flexibility Score: inf
ROOT
ATOM      1  C   UNL     1      -2.454   9.926  -0.870  1.00  0.00     0.138 A 
ATOM      2  C   UNL     1      -1.719  10.662  -1.810  1.00  0.00     0.100 A 
ATOM      3  C   UNL     1      -1.785  10.318  -3.160  1.00  0.00     0.197 A 
ATOM      4  O   UNL     1      -1.165  11.036  -3.987  1.00  0.00    -0.289 OA
ATOM      5  C   UNL     1      -2.567   9.211  -3.566  1.00  0.00     0.107 A 
ATOM      6  C   UNL     1      -2.677   8.744  -4.911  1.00  0.00     0.134 A 
ATOM      7  C   UNL     1      -3.572   7.710  -5.210  1.00  0.00     0.093 A 
ATOM      8  C   UNL     1      -4.316   7.087  -4.205  1.00  0.00     0.123 A 
ATOM      9  C   UNL     1      -4.176   7.500  -2.883  1.00  0.00     0.094 A 
ATOM     10  C   UNL     1      -3.317   8.552  -2.556  1.00  0.00     0.146 A 
ATOM     11  O   UNL     1      -3.223   8.925  -1.285  1.00  0.00    -0.456 OA
ENDROOT
BRANCH   1  12
ATOM     12  C   UNL     1      -2.419  10.248   0.579  1.00  0.00     0.021 A 
ATOM     13  C   UNL     1      -1.204  10.417   1.270  1.00  0.00     0.016 A 
ATOM     14  C   UNL     1      -1.200  10.710   2.636  1.00  0.00     0.051 A 
ATOM     15  C   UNL     1      -2.406  10.830   3.336  1.00  0.00     0.157 A 
ATOM     16  C   UNL     1      -3.625  10.358   1.294  1.00  0.00     0.062 A 
ATOM     17  C   UNL     1      -3.622  10.652   2.665  1.00  0.00     0.158 A 
BRANCH  15  18
ATOM     18  O   UNL     1      -2.407  11.124   4.699  1.00  0.00    -0.504 OA
ATOM     19  H   UNL     1      -2.402  10.390   5.399  1.00  0.00     0.293 HD
ENDBRANCH  15  18
BRANCH  17  20
ATOM     20  O   UNL     1      -4.821  10.769   3.364  1.00  0.00    -0.504 OA
ATOM     21  H   UNL     1      -5.628  11.232   2.962  1.00  0.00     0.293 HD
ENDBRANCH  17  20
ENDBRANCH   1  12
BRANCH   6  22
ATOM     22  O   UNL     1      -1.917   9.239  -5.974  1.00  0.00    -0.507 OA
ATOM     23  H   UNL     1      -1.181   9.923  -5.888  1.00  0.00     0.293 HD
ENDBRANCH   6  22
BRANCH   8  24
ATOM     24  O   UNL     1      -5.195   6.048  -4.511  1.00  0.00    -0.508 OA
ATOM     25  H   UNL     1      -5.549   5.426  -3.795  1.00  0.00     0.293 HD
ENDBRANCH   8  24
TORSDOF 5
ENDMDL
MODEL 8
REMARK VINA RESULT:    -1.706      2.279      6.821
REMARK INTER + INTRA:          -2.285
REMARK INTER:                  -1.986
REMARK INTRA:                  -0.299
REMARK UNBOUND:                -0.280
REMARK SMILES O=c1cc(-c2ccc(O)c(O)c2)oc2cc(O)cc(O)c12
REMARK SMILES IDX 4 1 3 2 2 3 1 4 21 5 19 6 18 7 16 8 15 9 14 10 13 11 5 12
REMARK SMILES IDX 6 13 7 14 8 15 12 16 10 17 9 18 11 20 20 22 17 24
REMARK H PARENT 9 19 11 21 20 23 17 25
REMARK Flexibility Score: inf
ROOT
ATOM      1  C   UNL     1      -1.881   6.002  -5.205  1.00  0.00     0.138 A 
ATOM      2  C   UNL     1      -1.372   7.050  -5.985  1.00  0.00     0.100 A 
ATOM      3  C   UNL     1      -1.655   8.370  -5.636  1.00  0.00     0.197 A 
ATOM      4  O   UNL     1      -1.132   9.290  -6.317  1.00  0.00    -0.289 OA
ATOM      5  C   UNL     1      -2.479   8.640  -4.517  1.00  0.00     0.107 A 
ATOM      6  C   UNL     1      -2.868   9.946  -4.092  1.00  0.00     0.134 A 
ATOM      7  C   UNL     1      -3.591  10.097  -2.902  1.00  0.00     0.093 A 
ATOM      8  C   UNL     1      -3.990   8.985  -2.155  1.00  0.00     0.123 A 
ATOM      9  C   UNL     1      -3.662   7.705  -2.591  1.00  0.00     0.094 A 
ATOM     10  C   UNL     1      -2.912   7.523  -3.756  1.00  0.00     0.146 A 
ATOM     11  O   UNL     1      -2.607   6.285  -4.129  1.00  0.00    -0.456 OA
ENDROOT
BRANCH   1  12
ATOM     12  C   UNL     1      -1.613   4.578  -5.533  1.00  0.00     0.021 A 
ATOM     13  C   UNL     1      -1.621   4.110  -6.861  1.00  0.00     0.016 A 
ATOM     14  C   UNL     1      -1.373   2.764  -7.139  1.00  0.00     0.051 A 
ATOM     15  C   UNL     1      -1.123   1.861  -6.099  1.00  0.00     0.157 A 
ATOM     16  C   UNL     1      -1.372   3.662  -4.493  1.00  0.00     0.062 A 
ATOM     17  C   UNL     1      -1.124   2.310  -4.773  1.00  0.00     0.158 A 
BRANCH  15  18
ATOM     18  O   UNL     1      -0.875   0.517  -6.373  1.00  0.00    -0.504 OA
ATOM     19  H   UNL     1      -1.622  -0.116  -6.636  1.00  0.00     0.293 HD
ENDBRANCH  15  18
BRANCH  17  20
ATOM     20  O   UNL     1      -0.878   1.410  -3.739  1.00  0.00    -0.504 OA
ATOM     21  H   UNL     1      -1.632   0.932  -3.259  1.00  0.00     0.293 HD
ENDBRANCH  17  20
ENDBRANCH   1  12
BRANCH   6  22
ATOM     22  O   UNL     1      -2.594  11.115  -4.808  1.00  0.00    -0.507 OA
ATOM     23  H   UNL     1      -1.945  11.830  -4.517  1.00  0.00     0.293 HD
ENDBRANCH   6  22
BRANCH   8  24
ATOM     24  O   UNL     1      -4.722   9.145  -0.980  1.00  0.00    -0.508 OA
ATOM     25  H   UNL     1      -5.656   8.764  -0.881  1.00  0.00     0.293 HD
ENDBRANCH   8  24
TORSDOF 5
ENDMDL
MODEL 9
REMARK VINA RESULT:    -1.212      2.176      7.030
REMARK INTER + INTRA:          -1.704
REMARK INTER:                  -1.433
REMARK INTRA:                  -0.271
REMARK UNBOUND:                -0.280
REMARK SMILES O=c1cc(-c2ccc(O)c(O)c2)oc2cc(O)cc(O)c12
REMARK SMILES IDX 4 1 3 2 2 3 1 4 21 5 19 6 18 7 16 8 15 9 14 10 13 11 5 12
REMARK SMILES IDX 6 13 7 14 8 15 12 16 10 17 9 18 11 20 20 22 17 24
REMARK H PARENT 9 19 11 21 20 23 17 25
REMARK Flexibility Score: inf
ROOT
ATOM      1  C   UNL     1      -1.993   6.778  -3.556  1.00  0.00     0.138 A 
ATOM      2  C   UNL     1      -1.224   6.970  -2.400  1.00  0.00     0.100 A 
ATOM      3  C   UNL     1      -1.544   8.006  -1.522  1.00  0.00     0.197 A 
ATOM      4  O   UNL     1      -0.875   8.113  -0.461  1.00  0.00    -0.289 OA
ATOM      5  C   UNL     1      -2.621   8.873  -1.821  1.00  0.00     0.107 A 
ATOM      6  C   UNL     1      -3.013   9.988  -1.020  1.00  0.00     0.134 A 
ATOM      7  C   UNL     1      -4.167  10.706  -1.355  1.00  0.00     0.093 A 
ATOM      8  C   UNL     1      -4.908  10.388  -2.496  1.00  0.00     0.123 A 
ATOM      9  C   UNL     1      -4.504   9.336  -3.313  1.00  0.00     0.094 A 
ATOM     10  C   UNL     1      -3.376   8.578  -2.987  1.00  0.00     0.146 A 
ATOM     11  O   UNL     1      -3.032   7.574  -3.785  1.00  0.00    -0.456 OA
ENDROOT
BRANCH   1  12
ATOM     12  C   UNL     1      -1.695   5.692  -4.524  1.00  0.00     0.021 A 
ATOM     13  C   UNL     1      -1.594   5.941  -5.906  1.00  0.00     0.016 A 
ATOM     14  C   UNL     1      -1.321   4.898  -6.796  1.00  0.00     0.051 A 
ATOM     15  C   UNL     1      -1.155   3.591  -6.323  1.00  0.00     0.157 A 
ATOM     16  C   UNL     1      -1.539   4.374  -4.060  1.00  0.00     0.062 A 
ATOM     17  C   UNL     1      -1.266   3.328  -4.953  1.00  0.00     0.158 A 
BRANCH  15  18
ATOM     18  O   UNL     1      -0.883   2.549  -7.207  1.00  0.00    -0.504 OA
ATOM     19  H   UNL     1      -1.566   1.824  -7.398  1.00  0.00     0.293 HD
ENDBRANCH  15  18
BRANCH  17  20
ATOM     20  O   UNL     1      -1.103   2.025  -4.485  1.00  0.00    -0.504 OA
ATOM     21  H   UNL     1      -0.507   1.816  -3.692  1.00  0.00     0.293 HD
ENDBRANCH  17  20
ENDBRANCH   1  12
BRANCH   6  22
ATOM     22  O   UNL     1      -2.295  10.443   0.090  1.00  0.00    -0.507 OA
ATOM     23  H   UNL     1      -2.023  11.401   0.247  1.00  0.00     0.293 HD
ENDBRANCH   6  22
BRANCH   8  24
ATOM     24  O   UNL     1      -6.048  11.118  -2.830  1.00  0.00    -0.508 OA
ATOM     25  H   UNL     1      -6.978  10.779  -2.611  1.00  0.00     0.293 HD
ENDBRANCH   8  24
TORSDOF 5
ENDMDL
