MODEL 1
REMARK VINA RESULT:    -6.383      0.000      0.000
REMARK INTER + INTRA:          -7.820
REMARK INTER:                  -7.503
REMARK INTRA:                  -0.317
REMARK UNBOUND:                -0.317
REMARK SMILES O=c1cc(-c2ccc(O)c(O)c2)oc2cc(O)cc(O)c12
REMARK SMILES IDX 4 1 3 2 2 3 1 4 21 5 19 6 18 7 16 8 15 9 14 10 13 11 5 12
REMARK SMILES IDX 6 13 7 14 8 15 12 16 10 17 9 18 11 20 20 22 17 24
REMARK H PARENT 9 19 11 21 20 23 17 25
REMARK Flexibility Score: inf
ROOT
ATOM      1  C   UNL     1    -115.794  -1.498  78.175  1.00  0.00     0.138 A 
ATOM      2  C   UNL     1    -115.223  -1.076  79.382  1.00  0.00     0.100 A 
ATOM      3  C   UNL     1    -113.928  -0.553  79.388  1.00  0.00     0.197 A 
ATOM      4  O   UNL     1    -113.423  -0.234  80.495  1.00  0.00    -0.289 OA
ATOM      5  C   UNL     1    -113.218  -0.420  78.171  1.00  0.00     0.107 A 
ATOM      6  C   UNL     1    -111.906   0.129  78.050  1.00  0.00     0.134 A 
ATOM      7  C   UNL     1    -111.266   0.118  76.804  1.00  0.00     0.093 A 
ATOM      8  C   UNL     1    -111.908  -0.369  75.668  1.00  0.00     0.123 A 
ATOM      9  C   UNL     1    -113.209  -0.863  75.764  1.00  0.00     0.094 A 
ATOM     10  C   UNL     1    -113.863  -0.898  76.998  1.00  0.00     0.146 A 
ATOM     11  O   UNL     1    -115.094  -1.392  77.051  1.00  0.00    -0.456 OA
ENDROOT
BRANCH   1  12
ATOM     12  C   UNL     1    -117.168  -2.060  78.111  1.00  0.00     0.021 A 
ATOM     13  C   UNL     1    -117.883  -2.276  79.301  1.00  0.00     0.016 A 
ATOM     14  C   UNL     1    -119.179  -2.796  79.268  1.00  0.00     0.051 A 
ATOM     15  C   UNL     1    -119.787  -3.100  78.047  1.00  0.00     0.157 A 
ATOM     16  C   UNL     1    -117.791  -2.354  76.882  1.00  0.00     0.062 A 
ATOM     17  C   UNL     1    -119.093  -2.874  76.848  1.00  0.00     0.158 A 
BRANCH  15  18
ATOM     18  O   UNL     1    -121.082  -3.619  78.046  1.00  0.00    -0.504 OA
ATOM     19  H   UNL     1    -121.643  -3.665  77.204  1.00  0.00     0.293 HD
ENDBRANCH  15  18
BRANCH  17  20
ATOM     20  O   UNL     1    -119.700  -3.165  75.626  1.00  0.00    -0.504 OA
ATOM     21  H   UNL     1    -120.595  -3.637  75.578  1.00  0.00     0.293 HD
ENDBRANCH  17  20
ENDBRANCH   1  12
BRANCH   6  22
ATOM     22  O   UNL     1    -111.202   0.717  79.106  1.00  0.00    -0.507 OA
ATOM     23  H   UNL     1    -110.230   0.984  79.077  1.00  0.00     0.293 HD
ENDBRANCH   6  22
BRANCH   8  24
ATOM     24  O   UNL     1    -111.244  -0.350  74.442  1.00  0.00    -0.508 OA
ATOM     25  H   UNL     1    -111.389  -1.076  73.750  1.00  0.00     0.293 HD
ENDBRANCH   8  24
TORSDOF 5
ENDMDL
MODEL 2
REMARK VINA RESULT:    -6.379      8.374      9.264
REMARK INTER + INTRA:          -7.816
REMARK INTER:                  -7.513
REMARK INTRA:                  -0.302
REMARK UNBOUND:                -0.317
REMARK SMILES O=c1cc(-c2ccc(O)c(O)c2)oc2cc(O)cc(O)c12
REMARK SMILES IDX 4 1 3 2 2 3 1 4 21 5 19 6 18 7 16 8 15 9 14 10 13 11 5 12
REMARK SMILES IDX 6 13 7 14 8 15 12 16 10 17 9 18 11 20 20 22 17 24
REMARK H PARENT 9 19 11 21 20 23 17 25
REMARK Flexibility Score: inf
ROOT
ATOM      1  C   UNL     1    -116.092  -9.726  80.767  1.00  0.00     0.138 A 
ATOM      2  C   UNL     1    -115.552  -8.467  81.057  1.00  0.00     0.100 A 
ATOM      3  C   UNL     1    -114.747  -7.827  80.113  1.00  0.00     0.197 A 
ATOM      4  O   UNL     1    -114.233  -6.722  80.425  1.00  0.00    -0.289 OA
ATOM      5  C   UNL     1    -114.512  -8.439  78.858  1.00  0.00     0.107 A 
ATOM      6  C   UNL     1    -113.735  -7.866  77.807  1.00  0.00     0.134 A 
ATOM      7  C   UNL     1    -113.491  -8.611  76.646  1.00  0.00     0.093 A 
ATOM      8  C   UNL     1    -114.040  -9.880  76.474  1.00  0.00     0.123 A 
ATOM      9  C   UNL     1    -114.842 -10.430  77.475  1.00  0.00     0.094 A 
ATOM     10  C   UNL     1    -115.076  -9.727  78.659  1.00  0.00     0.146 A 
ATOM     11  O   UNL     1    -115.831 -10.293  79.595  1.00  0.00    -0.456 OA
ENDROOT
BRANCH   1  12
ATOM     12  C   UNL     1    -116.958 -10.450  81.733  1.00  0.00     0.021 A 
ATOM     13  C   UNL     1    -116.722 -10.312  83.111  1.00  0.00     0.016 A 
ATOM     14  C   UNL     1    -117.526 -10.976  84.041  1.00  0.00     0.051 A 
ATOM     15  C   UNL     1    -118.584 -11.782  83.612  1.00  0.00     0.157 A 
ATOM     16  C   UNL     1    -118.035 -11.253  81.306  1.00  0.00     0.062 A 
ATOM     17  C   UNL     1    -118.843 -11.919  82.239  1.00  0.00     0.158 A 
BRANCH  15  18
ATOM     18  O   UNL     1    -119.368 -12.435  84.563  1.00  0.00    -0.504 OA
ATOM     19  H   UNL     1    -120.376 -12.341  84.587  1.00  0.00     0.293 HD
ENDBRANCH  15  18
BRANCH  17  20
ATOM     20  O   UNL     1    -119.905 -12.712  81.806  1.00  0.00    -0.504 OA
ATOM     21  H   UNL     1    -119.902 -13.718  81.931  1.00  0.00     0.293 HD
ENDBRANCH  17  20
ENDBRANCH   1  12
BRANCH   6  22
ATOM     22  O   UNL     1    -113.204  -6.573  77.838  1.00  0.00    -0.507 OA
ATOM     23  H   UNL     1    -112.258  -6.328  77.592  1.00  0.00     0.293 HD
ENDBRANCH   6  22
BRANCH   8  24
ATOM     24  O   UNL     1    -113.788 -10.586  75.299  1.00  0.00    -0.508 OA
ATOM     25  H   UNL     1    -114.250 -10.349  74.429  1.00  0.00     0.293 HD
ENDBRANCH   8  24
TORSDOF 5
ENDMDL
MODEL 3
REMARK VINA RESULT:    -6.360      9.611      9.948
REMARK INTER + INTRA:          -7.792
REMARK INTER:                  -7.484
REMARK INTRA:                  -0.308
REMARK UNBOUND:                -0.317
REMARK SMILES O=c1cc(-c2ccc(O)c(O)c2)oc2cc(O)cc(O)c12
REMARK SMILES IDX 4 1 3 2 2 3 1 4 21 5 19 6 18 7 16 8 15 9 14 10 13 11 5 12
REMARK SMILES IDX 6 13 7 14 8 15 12 16 10 17 9 18 11 20 20 22 17 24
REMARK H PARENT 9 19 11 21 20 23 17 25
REMARK Flexibility Score: inf
ROOT
ATOM      1  C   UNL     1    -115.149 -10.624  80.774  1.00  0.00     0.138 A 
ATOM      2  C   UNL     1    -113.847 -10.511  81.278  1.00  0.00     0.100 A 
ATOM      3  C   UNL     1    -112.771 -10.411  80.394  1.00  0.00     0.197 A 
ATOM      4  O   UNL     1    -111.610 -10.365  80.877  1.00  0.00    -0.289 OA
ATOM      5  C   UNL     1    -113.006 -10.388  78.998  1.00  0.00     0.107 A 
ATOM      6  C   UNL     1    -111.991 -10.257  78.004  1.00  0.00     0.134 A 
ATOM      7  C   UNL     1    -112.337 -10.348  76.649  1.00  0.00     0.093 A 
ATOM      8  C   UNL     1    -113.663 -10.507  76.253  1.00  0.00     0.123 A 
ATOM      9  C   UNL     1    -114.670 -10.587  77.214  1.00  0.00     0.094 A 
ATOM     10  C   UNL     1    -114.355 -10.535  78.574  1.00  0.00     0.146 A 
ATOM     11  O   UNL     1    -115.341 -10.632  79.459  1.00  0.00    -0.456 OA
ENDROOT
BRANCH   1  12
ATOM     12  C   UNL     1    -116.331 -10.730  81.668  1.00  0.00     0.021 A 
ATOM     13  C   UNL     1    -116.277 -10.166  82.954  1.00  0.00     0.016 A 
ATOM     14  C   UNL     1    -117.377 -10.245  83.811  1.00  0.00     0.051 A 
ATOM     15  C   UNL     1    -118.551 -10.880  83.398  1.00  0.00     0.157 A 
ATOM     16  C   UNL     1    -117.522 -11.356  81.250  1.00  0.00     0.062 A 
ATOM     17  C   UNL     1    -118.627 -11.435  82.110  1.00  0.00     0.158 A 
BRANCH  15  18
ATOM     18  O   UNL     1    -119.632 -10.945  84.277  1.00  0.00    -0.504 OA
ATOM     19  H   UNL     1    -119.855 -10.189  84.914  1.00  0.00     0.293 HD
ENDBRANCH  15  18
BRANCH  17  20
ATOM     20  O   UNL     1    -119.801 -12.059  81.689  1.00  0.00    -0.504 OA
ATOM     21  H   UNL     1    -120.708 -11.625  81.816  1.00  0.00     0.293 HD
ENDBRANCH  17  20
ENDBRANCH   1  12
BRANCH   6  22
ATOM     22  O   UNL     1    -110.643 -10.014  78.286  1.00  0.00    -0.507 OA
ATOM     23  H   UNL     1    -109.986 -10.704  78.617  1.00  0.00     0.293 HD
ENDBRANCH   6  22
BRANCH   8  24
ATOM     24  O   UNL     1    -113.970 -10.578  74.894  1.00  0.00    -0.508 OA
ATOM     25  H   UNL     1    -114.362  -9.787  74.398  1.00  0.00     0.293 HD
ENDBRANCH   8  24
TORSDOF 5
ENDMDL
MODEL 4
REMARK VINA RESULT:    -6.187      2.488      2.945
REMARK INTER + INTRA:          -7.589
REMARK INTER:                  -7.315
REMARK INTRA:                  -0.275
REMARK UNBOUND:                -0.317
REMARK SMILES O=c1cc(-c2ccc(O)c(O)c2)oc2cc(O)cc(O)c12
REMARK SMILES IDX 4 1 3 2 2 3 1 4 21 5 19 6 18 7 16 8 15 9 14 10 13 11 5 12
REMARK SMILES IDX 6 13 7 14 8 15 12 16 10 17 9 18 11 20 20 22 17 24
REMARK H PARENT 9 19 11 21 20 23 17 25
REMARK Flexibility Score: inf
ROOT
ATOM      1  C   UNL     1    -115.171  -2.793  76.924  1.00  0.00     0.138 A 
ATOM      2  C   UNL     1    -114.358  -3.861  77.325  1.00  0.00     0.100 A 
ATOM      3  C   UNL     1    -113.099  -4.025  76.744  1.00  0.00     0.197 A 
ATOM      4  O   UNL     1    -112.415  -5.024  77.086  1.00  0.00    -0.289 OA
ATOM      5  C   UNL     1    -112.640  -3.093  75.783  1.00  0.00     0.107 A 
ATOM      6  C   UNL     1    -111.363  -3.140  75.148  1.00  0.00     0.134 A 
ATOM      7  C   UNL     1    -111.059  -2.218  74.139  1.00  0.00     0.093 A 
ATOM      8  C   UNL     1    -111.961  -1.218  73.782  1.00  0.00     0.123 A 
ATOM      9  C   UNL     1    -113.193  -1.131  74.429  1.00  0.00     0.094 A 
ATOM     10  C   UNL     1    -113.540  -2.057  75.416  1.00  0.00     0.146 A 
ATOM     11  O   UNL     1    -114.731  -1.950  75.996  1.00  0.00    -0.456 OA
ENDROOT
BRANCH   1  12
ATOM     12  C   UNL     1    -116.518  -2.568  77.510  1.00  0.00     0.021 A 
ATOM     13  C   UNL     1    -116.635  -2.273  78.879  1.00  0.00     0.016 A 
ATOM     14  C   UNL     1    -117.888  -2.051  79.454  1.00  0.00     0.051 A 
ATOM     15  C   UNL     1    -119.045  -2.109  78.672  1.00  0.00     0.157 A 
ATOM     16  C   UNL     1    -117.685  -2.613  76.723  1.00  0.00     0.062 A 
ATOM     17  C   UNL     1    -118.944  -2.387  77.299  1.00  0.00     0.158 A 
BRANCH  15  18
ATOM     18  O   UNL     1    -120.283  -1.884  79.274  1.00  0.00    -0.504 OA
ATOM     19  H   UNL     1    -121.091  -1.577  78.747  1.00  0.00     0.293 HD
ENDBRANCH  15  18
BRANCH  17  20
ATOM     20  O   UNL     1    -120.095  -2.436  76.512  1.00  0.00    -0.504 OA
ATOM     21  H   UNL     1    -120.832  -3.107  76.691  1.00  0.00     0.293 HD
ENDBRANCH  17  20
ENDBRANCH   1  12
BRANCH   6  22
ATOM     22  O   UNL     1    -110.353  -4.049  75.484  1.00  0.00    -0.507 OA
ATOM     23  H   UNL     1    -110.501  -5.016  75.726  1.00  0.00     0.293 HD
ENDBRANCH   6  22
BRANCH   8  24
ATOM     24  O   UNL     1    -111.618  -0.308  72.782  1.00  0.00    -0.508 OA
ATOM     25  H   UNL     1    -110.980  -0.556  72.036  1.00  0.00     0.293 HD
ENDBRANCH   8  24
TORSDOF 5
ENDMDL
MODEL 5
REMARK VINA RESULT:    -6.099      4.767      7.879
REMARK INTER + INTRA:          -7.486
REMARK INTER:                  -7.191
REMARK INTRA:                  -0.295
REMARK UNBOUND:                -0.317
REMARK SMILES O=c1cc(-c2ccc(O)c(O)c2)oc2cc(O)cc(O)c12
REMARK SMILES IDX 4 1 3 2 2 3 1 4 21 5 19 6 18 7 16 8 15 9 14 10 13 11 5 12
REMARK SMILES IDX 6 13 7 14 8 15 12 16 10 17 9 18 11 20 20 22 17 24
REMARK H PARENT 9 19 11 21 20 23 17 25
REMARK Flexibility Score: inf
ROOT
ATOM      1  C   UNL     1    -109.455  -2.047  74.739  1.00  0.00     0.138 A 
ATOM      2  C   UNL     1    -109.272  -3.355  74.272  1.00  0.00     0.100 A 
ATOM      3  C   UNL     1    -108.016  -3.756  73.814  1.00  0.00     0.197 A 
ATOM      4  O   UNL     1    -107.898  -4.919  73.350  1.00  0.00    -0.289 OA
ATOM      5  C   UNL     1    -106.928  -2.850  73.860  1.00  0.00     0.107 A 
ATOM      6  C   UNL     1    -105.596  -3.157  73.452  1.00  0.00     0.134 A 
ATOM      7  C   UNL     1    -104.625  -2.147  73.450  1.00  0.00     0.093 A 
ATOM      8  C   UNL     1    -104.922  -0.860  73.894  1.00  0.00     0.123 A 
ATOM      9  C   UNL     1    -106.209  -0.561  74.342  1.00  0.00     0.094 A 
ATOM     10  C   UNL     1    -107.209  -1.536  74.324  1.00  0.00     0.146 A 
ATOM     11  O   UNL     1    -108.426  -1.206  74.742  1.00  0.00    -0.456 OA
ENDROOT
BRANCH   1  12
ATOM     12  C   UNL     1    -110.769  -1.568  75.240  1.00  0.00     0.021 A 
ATOM     13  C   UNL     1    -111.942  -1.924  74.553  1.00  0.00     0.016 A 
ATOM     14  C   UNL     1    -113.190  -1.494  75.007  1.00  0.00     0.051 A 
ATOM     15  C   UNL     1    -113.291  -0.708  76.159  1.00  0.00     0.157 A 
ATOM     16  C   UNL     1    -110.876  -0.788  76.408  1.00  0.00     0.062 A 
ATOM     17  C   UNL     1    -112.130  -0.357  76.866  1.00  0.00     0.158 A 
BRANCH  15  18
ATOM     18  O   UNL     1    -114.552  -0.291  76.586  1.00  0.00    -0.504 OA
ATOM     19  H   UNL     1    -115.385  -0.435  76.028  1.00  0.00     0.293 HD
ENDBRANCH  15  18
BRANCH  17  20
ATOM     20  O   UNL     1    -112.227   0.417  78.022  1.00  0.00    -0.504 OA
ATOM     21  H   UNL     1    -113.014   1.034  78.184  1.00  0.00     0.293 HD
ENDBRANCH  17  20
ENDBRANCH   1  12
BRANCH   6  22
ATOM     22  O   UNL     1    -105.168  -4.431  73.065  1.00  0.00    -0.507 OA
ATOM     23  H   UNL     1    -105.756  -5.248  73.008  1.00  0.00     0.293 HD
ENDBRANCH   6  22
BRANCH   8  24
ATOM     24  O   UNL     1    -103.926   0.115  73.892  1.00  0.00    -0.508 OA
ATOM     25  H   UNL     1    -103.668   0.606  73.045  1.00  0.00     0.293 HD
ENDBRANCH   8  24
TORSDOF 5
ENDMDL
MODEL 6
REMARK VINA RESULT:    -6.098      5.001      9.516
REMARK INTER + INTRA:          -7.485
REMARK INTER:                  -7.195
REMARK INTRA:                  -0.290
REMARK UNBOUND:                -0.317
REMARK SMILES O=c1cc(-c2ccc(O)c(O)c2)oc2cc(O)cc(O)c12
REMARK SMILES IDX 4 1 3 2 2 3 1 4 21 5 19 6 18 7 16 8 15 9 14 10 13 11 5 12
REMARK SMILES IDX 6 13 7 14 8 15 12 16 10 17 9 18 11 20 20 22 17 24
REMARK H PARENT 9 19 11 21 20 23 17 25
REMARK Flexibility Score: inf
ROOT
ATOM      1  C   UNL     1    -109.183  -3.175  74.440  1.00  0.00     0.138 A 
ATOM      2  C   UNL     1    -109.809  -3.574  75.627  1.00  0.00     0.100 A 
ATOM      3  C   UNL     1    -111.121  -3.173  75.885  1.00  0.00     0.197 A 
ATOM      4  O   UNL     1    -111.637  -3.503  76.984  1.00  0.00    -0.289 OA
ATOM      5  C   UNL     1    -111.820  -2.396  74.930  1.00  0.00     0.107 A 
ATOM      6  C   UNL     1    -113.171  -1.957  75.069  1.00  0.00     0.134 A 
ATOM      7  C   UNL     1    -113.723  -1.108  74.101  1.00  0.00     0.093 A 
ATOM      8  C   UNL     1    -112.996  -0.731  72.974  1.00  0.00     0.123 A 
ATOM      9  C   UNL     1    -111.692  -1.194  72.802  1.00  0.00     0.094 A 
ATOM     10  C   UNL     1    -111.100  -2.013  73.766  1.00  0.00     0.146 A 
ATOM     11  O   UNL     1    -109.849  -2.419  73.574  1.00  0.00    -0.456 OA
ENDROOT
BRANCH   1  12
ATOM     12  C   UNL     1    -107.790  -3.575  74.113  1.00  0.00     0.021 A 
ATOM     13  C   UNL     1    -107.410  -4.922  74.244  1.00  0.00     0.016 A 
ATOM     14  C   UNL     1    -106.109  -5.326  73.936  1.00  0.00     0.051 A 
ATOM     15  C   UNL     1    -105.168  -4.397  73.485  1.00  0.00     0.157 A 
ATOM     16  C   UNL     1    -106.842  -2.644  73.645  1.00  0.00     0.062 A 
ATOM     17  C   UNL     1    -105.536  -3.050  73.334  1.00  0.00     0.158 A 
BRANCH  15  18
ATOM     18  O   UNL     1    -103.876  -4.830  73.187  1.00  0.00    -0.504 OA
ATOM     19  H   UNL     1    -103.647  -5.811  73.085  1.00  0.00     0.293 HD
ENDBRANCH  15  18
BRANCH  17  20
ATOM     20  O   UNL     1    -104.604  -2.121  72.873  1.00  0.00    -0.504 OA
ATOM     21  H   UNL     1    -104.875  -1.350  72.273  1.00  0.00     0.293 HD
ENDBRANCH  17  20
ENDBRANCH   1  12
BRANCH   6  22
ATOM     22  O   UNL     1    -114.016  -2.339  76.115  1.00  0.00    -0.507 OA
ATOM     23  H   UNL     1    -113.783  -2.292  77.095  1.00  0.00     0.293 HD
ENDBRANCH   6  22
BRANCH   8  24
ATOM     24  O   UNL     1    -113.585   0.103  72.023  1.00  0.00    -0.508 OA
ATOM     25  H   UNL     1    -113.345   0.039  71.041  1.00  0.00     0.293 HD
ENDBRANCH   8  24
TORSDOF 5
ENDMDL
MODEL 7
REMARK VINA RESULT:    -6.092      9.450     11.650
REMARK INTER + INTRA:          -7.478
REMARK INTER:                  -7.185
REMARK INTRA:                  -0.293
REMARK UNBOUND:                -0.317
REMARK SMILES O=c1cc(-c2ccc(O)c(O)c2)oc2cc(O)cc(O)c12
REMARK SMILES IDX 4 1 3 2 2 3 1 4 21 5 19 6 18 7 16 8 15 9 14 10 13 11 5 12
REMARK SMILES IDX 6 13 7 14 8 15 12 16 10 17 9 18 11 20 20 22 17 24
REMARK H PARENT 9 19 11 21 20 23 17 25
REMARK Flexibility Score: inf
ROOT
ATOM      1  C   UNL     1    -115.713 -10.578  80.626  1.00  0.00     0.138 A 
ATOM      2  C   UNL     1    -116.993 -11.146  80.586  1.00  0.00     0.100 A 
ATOM      3  C   UNL     1    -117.776 -11.164  81.742  1.00  0.00     0.197 A 
ATOM      4  O   UNL     1    -118.899 -11.730  81.687  1.00  0.00    -0.289 OA
ATOM      5  C   UNL     1    -117.286 -10.578  82.934  1.00  0.00     0.107 A 
ATOM      6  C   UNL     1    -118.008 -10.508  84.163  1.00  0.00     0.134 A 
ATOM      7  C   UNL     1    -117.380  -9.991  85.303  1.00  0.00     0.093 A 
ATOM      8  C   UNL     1    -116.081  -9.491  85.246  1.00  0.00     0.123 A 
ATOM      9  C   UNL     1    -115.383  -9.508  84.039  1.00  0.00     0.094 A 
ATOM     10  C   UNL     1    -115.968 -10.048  82.891  1.00  0.00     0.146 A 
ATOM     11  O   UNL     1    -115.264 -10.062  81.765  1.00  0.00    -0.456 OA
ENDROOT
BRANCH   1  12
ATOM     12  C   UNL     1    -114.838 -10.528  79.426  1.00  0.00     0.021 A 
ATOM     13  C   UNL     1    -115.378 -10.119  78.194  1.00  0.00     0.016 A 
ATOM     14  C   UNL     1    -114.576 -10.057  77.052  1.00  0.00     0.051 A 
ATOM     15  C   UNL     1    -113.221 -10.392  77.121  1.00  0.00     0.157 A 
ATOM     16  C   UNL     1    -113.469 -10.851  79.494  1.00  0.00     0.062 A 
ATOM     17  C   UNL     1    -112.662 -10.787  78.348  1.00  0.00     0.158 A 
BRANCH  15  18
ATOM     18  O   UNL     1    -112.445 -10.321  75.964  1.00  0.00    -0.504 OA
ATOM     19  H   UNL     1    -111.704  -9.641  75.853  1.00  0.00     0.293 HD
ENDBRANCH  15  18
BRANCH  17  20
ATOM     20  O   UNL     1    -111.308 -11.111  78.425  1.00  0.00    -0.504 OA
ATOM     21  H   UNL     1    -110.846 -11.251  79.315  1.00  0.00     0.293 HD
ENDBRANCH  17  20
ENDBRANCH   1  12
BRANCH   6  22
ATOM     22  O   UNL     1    -119.340 -10.906  84.313  1.00  0.00    -0.507 OA
ATOM     23  H   UNL     1    -119.647 -11.848  84.501  1.00  0.00     0.293 HD
ENDBRANCH   6  22
BRANCH   8  24
ATOM     24  O   UNL     1    -115.493  -8.970  86.398  1.00  0.00    -0.508 OA
ATOM     25  H   UNL     1    -114.592  -8.509  86.371  1.00  0.00     0.293 HD
ENDBRANCH   8  24
TORSDOF 5
ENDMDL
MODEL 8
REMARK VINA RESULT:    -6.079      8.941      9.149
REMARK INTER + INTRA:          -7.463
REMARK INTER:                  -7.164
REMARK INTRA:                  -0.299
REMARK UNBOUND:                -0.317
REMARK SMILES O=c1cc(-c2ccc(O)c(O)c2)oc2cc(O)cc(O)c12
REMARK SMILES IDX 4 1 3 2 2 3 1 4 21 5 19 6 18 7 16 8 15 9 14 10 13 11 5 12
REMARK SMILES IDX 6 13 7 14 8 15 12 16 10 17 9 18 11 20 20 22 17 24
REMARK H PARENT 9 19 11 21 20 23 17 25
REMARK Flexibility Score: inf
ROOT
ATOM      1  C   UNL     1    -110.597  -9.132  77.746  1.00  0.00     0.138 A 
ATOM      2  C   UNL     1    -109.994  -9.445  78.971  1.00  0.00     0.100 A 
ATOM      3  C   UNL     1    -108.704  -8.985  79.243  1.00  0.00     0.197 A 
ATOM      4  O   UNL     1    -108.170  -9.328  80.329  1.00  0.00    -0.289 OA
ATOM      5  C   UNL     1    -108.030  -8.177  78.295  1.00  0.00     0.107 A 
ATOM      6  C   UNL     1    -106.727  -7.625  78.477  1.00  0.00     0.134 A 
ATOM      7  C   UNL     1    -106.123  -6.923  77.427  1.00  0.00     0.093 A 
ATOM      8  C   UNL     1    -106.794  -6.705  76.225  1.00  0.00     0.123 A 
ATOM      9  C   UNL     1    -108.087  -7.198  76.054  1.00  0.00     0.094 A 
ATOM     10  C   UNL     1    -108.705  -7.932  77.069  1.00  0.00     0.146 A 
ATOM     11  O   UNL     1    -109.931  -8.399  76.860  1.00  0.00    -0.456 OA
ENDROOT
BRANCH   1  12
ATOM     12  C   UNL     1    -111.967  -9.592  77.405  1.00  0.00     0.021 A 
ATOM     13  C   UNL     1    -112.958  -9.610  78.401  1.00  0.00     0.016 A 
ATOM     14  C   UNL     1    -114.256 -10.031  78.106  1.00  0.00     0.051 A 
ATOM     15  C   UNL     1    -114.592 -10.432  76.810  1.00  0.00     0.157 A 
ATOM     16  C   UNL     1    -112.313  -9.983  76.097  1.00  0.00     0.062 A 
ATOM     17  C   UNL     1    -113.618 -10.404  75.799  1.00  0.00     0.158 A 
BRANCH  15  18
ATOM     18  O   UNL     1    -115.896 -10.849  76.545  1.00  0.00    -0.504 OA
ATOM     19  H   UNL     1    -116.680 -10.564  77.120  1.00  0.00     0.293 HD
ENDBRANCH  15  18
BRANCH  17  20
ATOM     20  O   UNL     1    -113.950 -10.792  74.501  1.00  0.00    -0.504 OA
ATOM     21  H   UNL     1    -113.456 -10.427  73.695  1.00  0.00     0.293 HD
ENDBRANCH  17  20
ENDBRANCH   1  12
BRANCH   6  22
ATOM     22  O   UNL     1    -105.997  -7.713  79.667  1.00  0.00    -0.507 OA
ATOM     23  H   UNL     1    -106.015  -7.032  80.410  1.00  0.00     0.293 HD
ENDBRANCH   6  22
BRANCH   8  24
ATOM     24  O   UNL     1    -106.166  -5.988  75.207  1.00  0.00    -0.508 OA
ATOM     25  H   UNL     1    -106.449  -6.084  74.239  1.00  0.00     0.293 HD
ENDBRANCH   8  24
TORSDOF 5
ENDMDL
MODEL 9
REMARK VINA RESULT:    -5.993      4.686      9.380
REMARK INTER + INTRA:          -7.362
REMARK INTER:                  -7.059
REMARK INTRA:                  -0.303
REMARK UNBOUND:                -0.317
REMARK SMILES O=c1cc(-c2ccc(O)c(O)c2)oc2cc(O)cc(O)c12
REMARK SMILES IDX 4 1 3 2 2 3 1 4 21 5 19 6 18 7 16 8 15 9 14 10 13 11 5 12
REMARK SMILES IDX 6 13 7 14 8 15 12 16 10 17 9 18 11 20 20 22 17 24
REMARK H PARENT 9 19 11 21 20 23 17 25
REMARK Flexibility Score: inf
ROOT
ATOM      1  C   UNL     1    -108.638  -1.907  74.972  1.00  0.00     0.138 A 
ATOM      2  C   UNL     1    -108.607  -0.768  75.787  1.00  0.00     0.100 A 
ATOM      3  C   UNL     1    -109.788  -0.298  76.363  1.00  0.00     0.197 A 
ATOM      4  O   UNL     1    -109.736   0.758  77.045  1.00  0.00    -0.289 OA
ATOM      5  C   UNL     1    -111.002  -0.996  76.149  1.00  0.00     0.107 A 
ATOM      6  C   UNL     1    -112.261  -0.629  76.711  1.00  0.00     0.134 A 
ATOM      7  C   UNL     1    -113.412  -1.340  76.347  1.00  0.00     0.093 A 
ATOM      8  C   UNL     1    -113.341  -2.436  75.490  1.00  0.00     0.123 A 
ATOM      9  C   UNL     1    -112.108  -2.834  74.973  1.00  0.00     0.094 A 
ATOM     10  C   UNL     1    -110.947  -2.125  75.289  1.00  0.00     0.146 A 
ATOM     11  O   UNL     1    -109.795  -2.526  74.761  1.00  0.00    -0.456 OA
ENDROOT
BRANCH   1  12
ATOM     12  C   UNL     1    -107.411  -2.453  74.337  1.00  0.00     0.021 A 
ATOM     13  C   UNL     1    -106.386  -1.574  73.947  1.00  0.00     0.016 A 
ATOM     14  C   UNL     1    -105.219  -2.061  73.354  1.00  0.00     0.051 A 
ATOM     15  C   UNL     1    -105.051  -3.433  73.148  1.00  0.00     0.157 A 
ATOM     16  C   UNL     1    -107.231  -3.836  74.140  1.00  0.00     0.062 A 
ATOM     17  C   UNL     1    -106.059  -4.326  73.547  1.00  0.00     0.158 A 
BRANCH  15  18
ATOM     18  O   UNL     1    -103.875  -3.890  72.552  1.00  0.00    -0.504 OA
ATOM     19  H   UNL     1    -103.422  -4.747  72.843  1.00  0.00     0.293 HD
ENDBRANCH  15  18
BRANCH  17  20
ATOM     20  O   UNL     1    -105.891  -5.697  73.354  1.00  0.00    -0.504 OA
ATOM     21  H   UNL     1    -105.301  -6.061  72.614  1.00  0.00     0.293 HD
ENDBRANCH  17  20
ENDBRANCH   1  12
BRANCH   6  22
ATOM     22  O   UNL     1    -112.435   0.400  77.643  1.00  0.00    -0.507 OA
ATOM     23  H   UNL     1    -111.933   0.485  78.513  1.00  0.00     0.293 HD
ENDBRANCH   6  22
BRANCH   8  24
ATOM     24  O   UNL     1    -114.506  -3.129  75.162  1.00  0.00    -0.508 OA
ATOM     25  H   UNL     1    -114.580  -3.664  74.305  1.00  0.00     0.293 HD
ENDBRANCH   8  24
TORSDOF 5
ENDMDL
