MODEL 1
REMARK VINA RESULT:    -6.338      0.000      0.000
REMARK INTER + INTRA:          -6.356
REMARK INTER:                  -6.894
REMARK INTRA:                   0.538
REMARK UNBOUND:                 0.538
REMARK SMILES C[C@H]1[C@H]2C3=CC[C@H]4[C@@]5(C)CC[C@@H](O)C(C)(C)[C@@H]5CC[C@@]4(C)[C@]3(C)CC[C@]2(C(=O)[O-])CC[C@@H]1C
REMARK SMILES IDX 26 1 30 2 25 3 3 4 31 5 24 6 4 7 2 8 32 9 22 10 5 11 1 12
REMARK SMILES IDX 33 13 23 14 20 15 6 16 7 17 19 18 21 19 8 20 18 21 17 22
REMARK SMILES IDX 10 23 9 24 14 25 11 26 12 27 15 28 16 29 27 30 28 31 29 32
REMARK SMILES IDX 13 33
REMARK H PARENT 13 34
REMARK Flexibility Score: inf
ROOT
ATOM      1  C   UNL     1      -3.316  -9.025  16.928  1.00  0.00     0.017 C 
ATOM      2  C   UNL     1      -3.033  -7.515  17.254  1.00  0.00     0.014 C 
ATOM      3  C   UNL     1      -2.000  -9.810  17.074  1.00  0.00     0.014 C 
ATOM      4  C   UNL     1      -4.333  -9.554  17.982  1.00  0.00     0.030 C 
ATOM      5  C   UNL     1      -4.250  -6.738  17.808  1.00  0.00     0.004 C 
ATOM      6  C   UNL     1      -2.183 -11.304  16.783  1.00  0.00     0.013 C 
ATOM      7  C   UNL     1      -4.350 -11.079  18.201  1.00  0.00    -0.063 C 
ATOM      8  C   UNL     1      -5.733  -8.834  17.867  1.00  0.00    -0.003 C 
ATOM      9  C   UNL     1      -5.597  -7.351  17.384  1.00  0.00    -0.011 C 
ATOM     10  C   UNL     1      -3.276 -12.051  17.649  1.00  0.00    -0.006 C 
ATOM     11  C   UNL     1      -5.226 -11.569  19.104  1.00  0.00    -0.027 C 
ATOM     12  C   UNL     1      -6.780  -9.579  17.005  1.00  0.00     0.008 C 
ATOM     13  C   UNL     1      -6.753  -6.484  17.908  1.00  0.00     0.008 C 
ATOM     14  C   UNL     1      -4.017 -13.029  16.665  1.00  0.00     0.017 C 
ATOM     15  C   UNL     1      -2.609 -12.867  18.888  1.00  0.00    -0.020 C 
ATOM     16  C   UNL     1      -5.174 -12.991  19.558  1.00  0.00     0.032 C 
ATOM     17  C   UNL     1      -3.724 -13.368  19.964  1.00  0.00     0.006 C 
ATOM     18  C   UNL     1      -1.694 -14.016  18.309  1.00  0.00     0.008 C 
ATOM     19  C   UNL     1      -1.654 -11.909  19.670  1.00  0.00     0.012 C 
ATOM     20  C   UNL     1      -3.558 -14.826  20.634  1.00  0.00    -0.025 C 
ATOM     21  C   UNL     1      -1.490 -15.220  19.209  1.00  0.00     0.005 C 
ATOM     22  C   UNL     1      -2.854 -15.798  19.626  1.00  0.00     0.003 C 
ATOM     23  C   UNL     1      -4.937 -15.450  21.029  1.00  0.00     0.010 C 
ATOM     24  C   UNL     1      -2.755 -14.638  21.964  1.00  0.00     0.012 C 
ATOM     25  C   UNL     1      -2.814 -17.347  19.994  1.00  0.00    -0.006 C 
ATOM     26  C   UNL     1      -4.854 -16.896  21.532  1.00  0.00     0.033 C 
ATOM     27  C   UNL     1      -4.218 -17.836  20.496  1.00  0.00     0.120 C 
ATOM     28  C   UNL     1      -2.453 -18.170  18.721  1.00  0.00     0.014 C 
ATOM     29  C   UNL     1      -1.740 -17.703  21.064  1.00  0.00     0.014 C 
ENDROOT
BRANCH   1  30
ATOM     30  C   UNL     1      -3.824  -9.172  15.490  1.00  0.00     0.048 C 
ATOM     31  O   UNL     1      -3.572  -8.294  14.622  1.00  0.00    -0.550 OA
ATOM     32  O   UNL     1      -4.483 -10.326  15.085  1.00  0.00    -0.550 OA
ENDBRANCH   1  30
BRANCH  27  33
ATOM     33  O   UNL     1      -5.123 -18.081  19.441  1.00  0.00    -0.393 OA
ATOM     34  H   UNL     1      -4.616 -18.427  18.665  1.00  0.00     0.210 HD
ENDBRANCH  27  33
TORSDOF 2
ENDMDL
MODEL 2
REMARK VINA RESULT:    -6.249      1.724      3.211
REMARK INTER + INTRA:          -6.259
REMARK INTER:                  -7.216
REMARK INTRA:                   0.957
REMARK UNBOUND:                 0.538
REMARK SMILES C[C@H]1[C@H]2C3=CC[C@H]4[C@@]5(C)CC[C@@H](O)C(C)(C)[C@@H]5CC[C@@]4(C)[C@]3(C)CC[C@]2(C(=O)[O-])CC[C@@H]1C
REMARK SMILES IDX 26 1 30 2 25 3 3 4 31 5 24 6 4 7 2 8 32 9 22 10 5 11 1 12
REMARK SMILES IDX 33 13 23 14 20 15 6 16 7 17 19 18 21 19 8 20 18 21 17 22
REMARK SMILES IDX 10 23 9 24 14 25 11 26 12 27 15 28 16 29 27 30 28 31 29 32
REMARK SMILES IDX 13 33
REMARK H PARENT 13 34
REMARK Flexibility Score: inf
ROOT
ATOM      1  C   UNL     1      -4.310  -8.705  15.821  1.00  0.00     0.017 C 
ATOM      2  C   UNL     1      -3.885  -7.802  14.608  1.00  0.00     0.014 C 
ATOM      3  C   UNL     1      -4.769 -10.070  15.275  1.00  0.00     0.014 C 
ATOM      4  C   UNL     1      -3.053  -8.922  16.714  1.00  0.00     0.030 C 
ATOM      5  C   UNL     1      -2.819  -6.734  14.946  1.00  0.00     0.004 C 
ATOM      6  C   UNL     1      -5.196 -11.026  16.395  1.00  0.00     0.013 C 
ATOM      7  C   UNL     1      -3.074 -10.164  17.626  1.00  0.00    -0.063 C 
ATOM      8  C   UNL     1      -2.545  -7.573  17.358  1.00  0.00    -0.003 C 
ATOM      9  C   UNL     1      -2.814  -6.338  16.434  1.00  0.00    -0.011 C 
ATOM     10  C   UNL     1      -4.117 -11.306  17.517  1.00  0.00    -0.006 C 
ATOM     11  C   UNL     1      -2.001 -10.375  18.416  1.00  0.00    -0.027 C 
ATOM     12  C   UNL     1      -3.072  -7.294  18.785  1.00  0.00     0.008 C 
ATOM     13  C   UNL     1      -1.784  -5.223  16.675  1.00  0.00     0.008 C 
ATOM     14  C   UNL     1      -4.902 -11.330  18.879  1.00  0.00     0.017 C 
ATOM     15  C   UNL     1      -3.340 -12.714  17.269  1.00  0.00    -0.020 C 
ATOM     16  C   UNL     1      -1.817 -11.654  19.165  1.00  0.00     0.032 C 
ATOM     17  C   UNL     1      -2.022 -12.863  18.214  1.00  0.00     0.006 C 
ATOM     18  C   UNL     1      -4.376 -13.899  17.396  1.00  0.00     0.008 C 
ATOM     19  C   UNL     1      -2.821 -12.752  15.795  1.00  0.00     0.012 C 
ATOM     20  C   UNL     1      -1.686 -14.305  18.856  1.00  0.00    -0.025 C 
ATOM     21  C   UNL     1      -3.803 -15.241  17.806  1.00  0.00     0.005 C 
ATOM     22  C   UNL     1      -3.013 -15.093  19.120  1.00  0.00     0.003 C 
ATOM     23  C   UNL     1      -0.918 -14.177  20.214  1.00  0.00     0.010 C 
ATOM     24  C   UNL     1      -0.723 -15.041  17.866  1.00  0.00     0.012 C 
ATOM     25  C   UNL     1      -2.923 -16.434  19.973  1.00  0.00    -0.006 C 
ATOM     26  C   UNL     1      -0.704 -15.507  20.944  1.00  0.00     0.033 C 
ATOM     27  C   UNL     1      -2.028 -16.225  21.245  1.00  0.00     0.120 C 
ATOM     28  C   UNL     1      -4.349 -16.835  20.459  1.00  0.00     0.014 C 
ATOM     29  C   UNL     1      -2.380 -17.649  19.164  1.00  0.00     0.014 C 
ENDROOT
BRANCH   1  30
ATOM     30  C   UNL     1      -5.472  -8.060  16.583  1.00  0.00     0.048 C 
ATOM     31  O   UNL     1      -6.105  -8.703  17.463  1.00  0.00    -0.550 OA
ATOM     32  O   UNL     1      -5.785  -6.720  16.398  1.00  0.00    -0.550 OA
ENDBRANCH   1  30
BRANCH  27  33
ATOM     33  O   UNL     1      -2.709 -15.571  22.293  1.00  0.00    -0.393 OA
ATOM     34  H   UNL     1      -3.004 -14.683  21.972  1.00  0.00     0.210 HD
ENDBRANCH  27  33
TORSDOF 2
ENDMDL
MODEL 3
REMARK VINA RESULT:    -5.832      1.745      7.965
REMARK INTER + INTRA:          -5.806
REMARK INTER:                  -6.346
REMARK INTRA:                   0.540
REMARK UNBOUND:                 0.538
REMARK SMILES C[C@H]1[C@H]2C3=CC[C@H]4[C@@]5(C)CC[C@@H](O)C(C)(C)[C@@H]5CC[C@@]4(C)[C@]3(C)CC[C@]2(C(=O)[O-])CC[C@@H]1C
REMARK SMILES IDX 26 1 30 2 25 3 3 4 31 5 24 6 4 7 2 8 32 9 22 10 5 11 1 12
REMARK SMILES IDX 33 13 23 14 20 15 6 16 7 17 19 18 21 19 8 20 18 21 17 22
REMARK SMILES IDX 10 23 9 24 14 25 11 26 12 27 15 28 16 29 27 30 28 31 29 32
REMARK SMILES IDX 13 33
REMARK H PARENT 13 34
REMARK Flexibility Score: inf
ROOT
ATOM      1  C   UNL     1      -2.642 -16.369  19.798  1.00  0.00     0.017 C 
ATOM      2  C   UNL     1      -2.594 -17.878  19.363  1.00  0.00     0.014 C 
ATOM      3  C   UNL     1      -1.584 -15.595  18.991  1.00  0.00     0.014 C 
ATOM      4  C   UNL     1      -4.051 -15.816  19.432  1.00  0.00     0.030 C 
ATOM      5  C   UNL     1      -3.934 -18.635  19.522  1.00  0.00     0.004 C 
ATOM      6  C   UNL     1      -1.565 -14.103  19.344  1.00  0.00     0.013 C 
ATOM      7  C   UNL     1      -4.157 -14.288  19.263  1.00  0.00    -0.063 C 
ATOM      8  C   UNL     1      -5.197 -16.523  20.257  1.00  0.00    -0.003 C 
ATOM      9  C   UNL     1      -4.853 -18.014  20.589  1.00  0.00    -0.011 C 
ATOM     10  C   UNL     1      -2.938 -13.334  19.180  1.00  0.00    -0.006 C 
ATOM     11  C   UNL     1      -5.368 -13.778  18.952  1.00  0.00    -0.027 C 
ATOM     12  C   UNL     1      -5.629 -15.778  21.543  1.00  0.00     0.008 C 
ATOM     13  C   UNL     1      -6.125 -18.862  20.741  1.00  0.00     0.008 C 
ATOM     14  C   UNL     1      -3.042 -12.362  20.411  1.00  0.00     0.017 C 
ATOM     15  C   UNL     1      -3.003 -12.509  17.779  1.00  0.00    -0.020 C 
ATOM     16  C   UNL     1      -5.538 -12.350  18.546  1.00  0.00     0.032 C 
ATOM     17  C   UNL     1      -4.508 -11.983  17.446  1.00  0.00     0.006 C 
ATOM     18  C   UNL     1      -1.902 -11.377  17.802  1.00  0.00     0.008 C 
ATOM     19  C   UNL     1      -2.611 -13.467  16.608  1.00  0.00     0.012 C 
ATOM     20  C   UNL     1      -4.692 -10.518  16.796  1.00  0.00    -0.025 C 
ATOM     21  C   UNL     1      -2.179 -10.164  16.935  1.00  0.00     0.005 C 
ATOM     22  C   UNL     1      -3.552  -9.566  17.294  1.00  0.00     0.003 C 
ATOM     23  C   UNL     1      -6.066  -9.875  17.182  1.00  0.00     0.010 C 
ATOM     24  C   UNL     1      -4.704 -10.697  15.241  1.00  0.00     0.012 C 
ATOM     25  C   UNL     1      -3.685  -8.013  16.969  1.00  0.00    -0.006 C 
ATOM     26  C   UNL     1      -6.234  -8.423  16.718  1.00  0.00     0.033 C 
ATOM     27  C   UNL     1      -5.137  -7.504  17.275  1.00  0.00     0.120 C 
ATOM     28  C   UNL     1      -2.701  -7.210  17.871  1.00  0.00     0.014 C 
ATOM     29  C   UNL     1      -3.321  -7.654  15.498  1.00  0.00     0.014 C 
ENDROOT
BRANCH   1  30
ATOM     30  C   UNL     1      -2.324 -16.235  21.291  1.00  0.00     0.048 C 
ATOM     31  O   UNL     1      -1.720 -17.153  21.907  1.00  0.00    -0.550 OA
ATOM     32  O   UNL     1      -2.599 -15.057  21.972  1.00  0.00    -0.550 OA
ENDBRANCH   1  30
BRANCH  27  33
ATOM     33  O   UNL     1      -5.355  -7.263  18.648  1.00  0.00    -0.393 OA
ATOM     34  H   UNL     1      -6.134  -6.660  18.743  1.00  0.00     0.210 HD
ENDBRANCH  27  33
TORSDOF 2
ENDMDL
MODEL 4
REMARK VINA RESULT:    -5.688     10.140     13.046
REMARK INTER + INTRA:          -5.649
REMARK INTER:                  -6.188
REMARK INTRA:                   0.539
REMARK UNBOUND:                 0.538
REMARK SMILES C[C@H]1[C@H]2C3=CC[C@H]4[C@@]5(C)CC[C@@H](O)C(C)(C)[C@@H]5CC[C@@]4(C)[C@]3(C)CC[C@]2(C(=O)[O-])CC[C@@H]1C
REMARK SMILES IDX 26 1 30 2 25 3 3 4 31 5 24 6 4 7 2 8 32 9 22 10 5 11 1 12
REMARK SMILES IDX 33 13 23 14 20 15 6 16 7 17 19 18 21 19 8 20 18 21 17 22
REMARK SMILES IDX 10 23 9 24 14 25 11 26 12 27 15 28 16 29 27 30 28 31 29 32
REMARK SMILES IDX 13 33
REMARK H PARENT 13 34
REMARK Flexibility Score: inf
ROOT
ATOM      1  C   UNL     1     -16.055 -16.971  14.311  1.00  0.00     0.017 C 
ATOM      2  C   UNL     1     -16.068 -17.566  12.857  1.00  0.00     0.014 C 
ATOM      3  C   UNL     1     -14.677 -17.250  14.939  1.00  0.00     0.014 C 
ATOM      4  C   UNL     1     -16.246 -15.430  14.194  1.00  0.00     0.030 C 
ATOM      5  C   UNL     1     -17.022 -16.844  11.877  1.00  0.00     0.004 C 
ATOM      6  C   UNL     1     -14.568 -16.694  16.364  1.00  0.00     0.013 C 
ATOM      7  C   UNL     1     -15.743 -14.591  15.385  1.00  0.00    -0.063 C 
ATOM      8  C   UNL     1     -17.661 -15.053  13.603  1.00  0.00    -0.003 C 
ATOM      9  C   UNL     1     -18.182 -16.124  12.587  1.00  0.00    -0.011 C 
ATOM     10  C   UNL     1     -14.855 -15.147  16.528  1.00  0.00    -0.006 C 
ATOM     11  C   UNL     1     -15.901 -13.253  15.315  1.00  0.00    -0.027 C 
ATOM     12  C   UNL     1     -18.749 -14.751  14.661  1.00  0.00     0.008 C 
ATOM     13  C   UNL     1     -19.124 -15.497  11.547  1.00  0.00     0.008 C 
ATOM     14  C   UNL     1     -15.685 -14.997  17.855  1.00  0.00     0.017 C 
ATOM     15  C   UNL     1     -13.479 -14.282  16.601  1.00  0.00    -0.020 C 
ATOM     16  C   UNL     1     -15.254 -12.333  16.298  1.00  0.00     0.032 C 
ATOM     17  C   UNL     1     -13.749 -12.684  16.445  1.00  0.00     0.006 C 
ATOM     18  C   UNL     1     -12.689 -14.690  17.906  1.00  0.00     0.008 C 
ATOM     19  C   UNL     1     -12.564 -14.684  15.399  1.00  0.00     0.012 C 
ATOM     20  C   UNL     1     -12.892 -11.659  17.350  1.00  0.00    -0.025 C 
ATOM     21  C   UNL     1     -11.758 -13.637  18.474  1.00  0.00     0.005 C 
ATOM     22  C   UNL     1     -12.534 -12.330  18.720  1.00  0.00     0.003 C 
ATOM     23  C   UNL     1     -13.680 -10.340  17.646  1.00  0.00     0.010 C 
ATOM     24  C   UNL     1     -11.630 -11.250  16.520  1.00  0.00     0.012 C 
ATOM     25  C   UNL     1     -11.905 -11.408  19.856  1.00  0.00    -0.006 C 
ATOM     26  C   UNL     1     -12.977  -9.392  18.625  1.00  0.00     0.033 C 
ATOM     27  C   UNL     1     -12.697 -10.060  19.980  1.00  0.00     0.120 C 
ATOM     28  C   UNL     1     -12.000 -12.142  21.227  1.00  0.00     0.014 C 
ATOM     29  C   UNL     1     -10.396 -11.093  19.633  1.00  0.00     0.014 C 
ENDROOT
BRANCH   1  30
ATOM     30  C   UNL     1     -17.135 -17.637  15.169  1.00  0.00     0.048 C 
ATOM     31  O   UNL     1     -17.587 -18.775  14.870  1.00  0.00    -0.550 OA
ATOM     32  O   UNL     1     -17.565 -17.050  16.352  1.00  0.00    -0.550 OA
ENDBRANCH   1  30
BRANCH  27  33
ATOM     33  O   UNL     1     -13.895 -10.193  20.713  1.00  0.00    -0.393 OA
ATOM     34  H   UNL     1     -14.431 -10.921  20.311  1.00  0.00     0.210 HD
ENDBRANCH  27  33
TORSDOF 2
ENDMDL
MODEL 5
REMARK VINA RESULT:    -5.300     10.657     12.755
REMARK INTER + INTRA:          -5.226
REMARK INTER:                  -5.766
REMARK INTRA:                   0.540
REMARK UNBOUND:                 0.538
REMARK SMILES C[C@H]1[C@H]2C3=CC[C@H]4[C@@]5(C)CC[C@@H](O)C(C)(C)[C@@H]5CC[C@@]4(C)[C@]3(C)CC[C@]2(C(=O)[O-])CC[C@@H]1C
REMARK SMILES IDX 26 1 30 2 25 3 3 4 31 5 24 6 4 7 2 8 32 9 22 10 5 11 1 12
REMARK SMILES IDX 33 13 23 14 20 15 6 16 7 17 19 18 21 19 8 20 18 21 17 22
REMARK SMILES IDX 10 23 9 24 14 25 11 26 12 27 15 28 16 29 27 30 28 31 29 32
REMARK SMILES IDX 13 33
REMARK H PARENT 13 34
REMARK Flexibility Score: inf
ROOT
ATOM      1  C   UNL     1     -13.306 -12.919  19.472  1.00  0.00     0.017 C 
ATOM      2  C   UNL     1     -13.530 -12.191  20.846  1.00  0.00     0.014 C 
ATOM      3  C   UNL     1     -13.573 -14.423  19.669  1.00  0.00     0.014 C 
ATOM      4  C   UNL     1     -14.348 -12.356  18.461  1.00  0.00     0.030 C 
ATOM      5  C   UNL     1     -13.966 -10.711  20.724  1.00  0.00     0.004 C 
ATOM      6  C   UNL     1     -13.387 -15.217  18.371  1.00  0.00     0.013 C 
ATOM      7  C   UNL     1     -14.681 -13.257  17.256  1.00  0.00    -0.063 C 
ATOM      8  C   UNL     1     -14.114 -10.824  18.162  1.00  0.00    -0.003 C 
ATOM      9  C   UNL     1     -13.528 -10.063  19.399  1.00  0.00    -0.011 C 
ATOM     10  C   UNL     1     -14.255 -14.743  17.136  1.00  0.00    -0.006 C 
ATOM     11  C   UNL     1     -15.576 -12.793  16.360  1.00  0.00    -0.027 C 
ATOM     12  C   UNL     1     -13.262 -10.528  16.905  1.00  0.00     0.008 C 
ATOM     13  C   UNL     1     -13.929  -8.579  19.385  1.00  0.00     0.008 C 
ATOM     14  C   UNL     1     -13.314 -14.841  15.880  1.00  0.00     0.017 C 
ATOM     15  C   UNL     1     -15.582 -15.663  16.942  1.00  0.00    -0.020 C 
ATOM     16  C   UNL     1     -16.138 -13.666  15.286  1.00  0.00     0.032 C 
ATOM     17  C   UNL     1     -16.639 -15.003  15.895  1.00  0.00     0.006 C 
ATOM     18  C   UNL     1     -15.135 -17.135  16.584  1.00  0.00     0.008 C 
ATOM     19  C   UNL     1     -16.334 -15.762  18.309  1.00  0.00     0.012 C 
ATOM     20  C   UNL     1     -17.425 -15.970  14.870  1.00  0.00    -0.025 C 
ATOM     21  C   UNL     1     -16.132 -17.956  15.790  1.00  0.00     0.005 C 
ATOM     22  C   UNL     1     -16.527 -17.202  14.507  1.00  0.00     0.003 C 
ATOM     23  C   UNL     1     -17.800 -15.235  13.541  1.00  0.00     0.010 C 
ATOM     24  C   UNL     1     -18.773 -16.376  15.553  1.00  0.00     0.012 C 
ATOM     25  C   UNL     1     -17.012 -18.151  13.323  1.00  0.00    -0.006 C 
ATOM     26  C   UNL     1     -18.414 -16.143  12.469  1.00  0.00     0.033 C 
ATOM     27  C   UNL     1     -17.483 -17.305  12.089  1.00  0.00     0.120 C 
ATOM     28  C   UNL     1     -15.823 -19.045  12.859  1.00  0.00     0.014 C 
ATOM     29  C   UNL     1     -18.155 -19.125  13.738  1.00  0.00     0.014 C 
ENDROOT
BRANCH   1  30
ATOM     30  C   UNL     1     -11.862 -12.730  18.999  1.00  0.00     0.048 C 
ATOM     31  O   UNL     1     -10.943 -12.460  19.818  1.00  0.00    -0.550 OA
ATOM     32  O   UNL     1     -11.513 -12.955  17.673  1.00  0.00    -0.550 OA
ENDBRANCH   1  30
BRANCH  27  33
ATOM     33  O   UNL     1     -16.409 -16.831  11.307  1.00  0.00    -0.393 OA
ATOM     34  H   UNL     1     -16.565 -17.092  10.365  1.00  0.00     0.210 HD
ENDBRANCH  27  33
TORSDOF 2
ENDMDL
MODEL 6
REMARK VINA RESULT:    -5.209      9.031     12.694
REMARK INTER + INTRA:          -5.128
REMARK INTER:                  -5.700
REMARK INTRA:                   0.572
REMARK UNBOUND:                 0.538
REMARK SMILES C[C@H]1[C@H]2C3=CC[C@H]4[C@@]5(C)CC[C@@H](O)C(C)(C)[C@@H]5CC[C@@]4(C)[C@]3(C)CC[C@]2(C(=O)[O-])CC[C@@H]1C
REMARK SMILES IDX 26 1 30 2 25 3 3 4 31 5 24 6 4 7 2 8 32 9 22 10 5 11 1 12
REMARK SMILES IDX 33 13 23 14 20 15 6 16 7 17 19 18 21 19 8 20 18 21 17 22
REMARK SMILES IDX 10 23 9 24 14 25 11 26 12 27 15 28 16 29 27 30 28 31 29 32
REMARK SMILES IDX 13 33
REMARK H PARENT 13 34
REMARK Flexibility Score: inf
ROOT
ATOM      1  C   UNL     1     -15.752 -17.140  19.656  1.00  0.00     0.017 C 
ATOM      2  C   UNL     1     -17.100 -17.877  19.327  1.00  0.00     0.014 C 
ATOM      3  C   UNL     1     -14.889 -17.110  18.382  1.00  0.00     0.014 C 
ATOM      4  C   UNL     1     -16.099 -15.676  20.057  1.00  0.00     0.030 C 
ATOM      5  C   UNL     1     -18.302 -17.436  20.195  1.00  0.00     0.004 C 
ATOM      6  C   UNL     1     -13.550 -16.398  18.607  1.00  0.00     0.013 C 
ATOM      7  C   UNL     1     -14.966 -14.643  19.902  1.00  0.00    -0.063 C 
ATOM      8  C   UNL     1     -16.944 -15.611  21.389  1.00  0.00    -0.003 C 
ATOM      9  C   UNL     1     -17.879 -16.856  21.557  1.00  0.00    -0.011 C 
ATOM     10  C   UNL     1     -13.637 -14.915  19.151  1.00  0.00    -0.006 C 
ATOM     11  C   UNL     1     -15.235 -13.366  20.247  1.00  0.00    -0.027 C 
ATOM     12  C   UNL     1     -16.115 -15.392  22.676  1.00  0.00     0.008 C 
ATOM     13  C   UNL     1     -19.125 -16.513  22.388  1.00  0.00     0.008 C 
ATOM     14  C   UNL     1     -12.484 -14.772  20.211  1.00  0.00     0.017 C 
ATOM     15  C   UNL     1     -13.467 -13.823  17.956  1.00  0.00    -0.020 C 
ATOM     16  C   UNL     1     -14.293 -12.252  19.928  1.00  0.00     0.032 C 
ATOM     17  C   UNL     1     -13.872 -12.321  18.436  1.00  0.00     0.006 C 
ATOM     18  C   UNL     1     -12.015 -13.950  17.351  1.00  0.00     0.008 C 
ATOM     19  C   UNL     1     -14.450 -14.185  16.797  1.00  0.00     0.012 C 
ATOM     20  C   UNL     1     -12.989 -11.075  17.916  1.00  0.00    -0.025 C 
ATOM     21  C   UNL     1     -11.453 -12.699  16.705  1.00  0.00     0.005 C 
ATOM     22  C   UNL     1     -11.504 -11.527  17.702  1.00  0.00     0.003 C 
ATOM     23  C   UNL     1     -12.993  -9.887  18.934  1.00  0.00     0.010 C 
ATOM     24  C   UNL     1     -13.661 -10.543  16.606  1.00  0.00     0.012 C 
ATOM     25  C   UNL     1     -10.415 -10.397  17.427  1.00  0.00    -0.006 C 
ATOM     26  C   UNL     1     -12.051  -8.736  18.564  1.00  0.00     0.033 C 
ATOM     27  C   UNL     1     -10.593  -9.200  18.425  1.00  0.00     0.120 C 
ATOM     28  C   UNL     1      -8.990 -10.989  17.645  1.00  0.00     0.014 C 
ATOM     29  C   UNL     1     -10.443  -9.852  15.968  1.00  0.00     0.014 C 
ENDROOT
BRANCH   1  30
ATOM     30  C   UNL     1     -14.991 -17.889  20.754  1.00  0.00     0.048 C 
ATOM     31  O   UNL     1     -15.311 -19.065  21.075  1.00  0.00    -0.550 OA
ATOM     32  O   UNL     1     -13.866 -17.329  21.346  1.00  0.00    -0.550 OA
ENDBRANCH   1  30
BRANCH  27  33
ATOM     33  O   UNL     1     -10.042  -9.460  19.697  1.00  0.00    -0.393 OA
ATOM     34  H   UNL     1      -9.405  -8.735  19.919  1.00  0.00     0.210 HD
ENDBRANCH  27  33
TORSDOF 2
ENDMDL
MODEL 7
REMARK VINA RESULT:    -5.140      5.743     10.094
REMARK INTER + INTRA:          -5.053
REMARK INTER:                  -5.596
REMARK INTRA:                   0.543
REMARK UNBOUND:                 0.538
REMARK SMILES C[C@H]1[C@H]2C3=CC[C@H]4[C@@]5(C)CC[C@@H](O)C(C)(C)[C@@H]5CC[C@@]4(C)[C@]3(C)CC[C@]2(C(=O)[O-])CC[C@@H]1C
REMARK SMILES IDX 26 1 30 2 25 3 3 4 31 5 24 6 4 7 2 8 32 9 22 10 5 11 1 12
REMARK SMILES IDX 33 13 23 14 20 15 6 16 7 17 19 18 21 19 8 20 18 21 17 22
REMARK SMILES IDX 10 23 9 24 14 25 11 26 12 27 15 28 16 29 27 30 28 31 29 32
REMARK SMILES IDX 13 33
REMARK H PARENT 13 34
REMARK Flexibility Score: inf
ROOT
ATOM      1  C   UNL     1      -8.136 -17.291  19.653  1.00  0.00     0.017 C 
ATOM      2  C   UNL     1      -7.210 -18.037  20.680  1.00  0.00     0.014 C 
ATOM      3  C   UNL     1      -9.598 -17.464  20.101  1.00  0.00     0.014 C 
ATOM      4  C   UNL     1      -7.775 -15.777  19.702  1.00  0.00     0.030 C 
ATOM      5  C   UNL     1      -5.784 -17.448  20.803  1.00  0.00     0.004 C 
ATOM      6  C   UNL     1     -10.579 -16.758  19.158  1.00  0.00     0.013 C 
ATOM      7  C   UNL     1      -8.865 -14.804  19.213  1.00  0.00    -0.063 C 
ATOM      8  C   UNL     1      -6.301 -15.503  19.207  1.00  0.00    -0.003 C 
ATOM      9  C   UNL     1      -5.336 -16.690  19.541  1.00  0.00    -0.011 C 
ATOM     10  C   UNL     1     -10.335 -15.211  18.936  1.00  0.00    -0.006 C 
ATOM     11  C   UNL     1      -8.579 -13.485  19.238  1.00  0.00    -0.027 C 
ATOM     12  C   UNL     1      -6.176 -15.121  17.713  1.00  0.00     0.008 C 
ATOM     13  C   UNL     1      -3.888 -16.203  19.711  1.00  0.00     0.008 C 
ATOM     14  C   UNL     1     -10.595 -14.945  17.408  1.00  0.00     0.017 C 
ATOM     15  C   UNL     1     -11.322 -14.305  19.860  1.00  0.00    -0.020 C 
ATOM     16  C   UNL     1      -9.630 -12.449  19.004  1.00  0.00     0.032 C 
ATOM     17  C   UNL     1     -10.872 -12.741  19.888  1.00  0.00     0.006 C 
ATOM     18  C   UNL     1     -12.814 -14.551  19.407  1.00  0.00     0.008 C 
ATOM     19  C   UNL     1     -11.233 -14.807  21.338  1.00  0.00     0.012 C 
ATOM     20  C   UNL     1     -12.016 -11.603  19.859  1.00  0.00    -0.025 C 
ATOM     21  C   UNL     1     -13.785 -13.419  19.677  1.00  0.00     0.005 C 
ATOM     22  C   UNL     1     -13.256 -12.115  19.051  1.00  0.00     0.003 C 
ATOM     23  C   UNL     1     -11.511 -10.282  19.189  1.00  0.00     0.010 C 
ATOM     24  C   UNL     1     -12.357 -11.249  21.345  1.00  0.00     0.012 C 
ATOM     25  C   UNL     1     -14.395 -11.062  18.693  1.00  0.00    -0.006 C 
ATOM     26  C   UNL     1     -12.597  -9.217  18.998  1.00  0.00     0.033 C 
ATOM     27  C   UNL     1     -13.770  -9.730  18.148  1.00  0.00     0.120 C 
ATOM     28  C   UNL     1     -15.308 -11.649  17.574  1.00  0.00     0.014 C 
ATOM     29  C   UNL     1     -15.333 -10.730  19.892  1.00  0.00     0.014 C 
ENDROOT
BRANCH   1  30
ATOM     30  C   UNL     1      -7.971 -17.893  18.253  1.00  0.00     0.048 C 
ATOM     31  O   UNL     1      -7.536 -19.066  18.101  1.00  0.00    -0.550 OA
ATOM     32  O   UNL     1      -8.396 -17.199  17.128  1.00  0.00    -0.550 OA
ENDBRANCH   1  30
BRANCH  27  33
ATOM     33  O   UNL     1     -13.387  -9.818  16.793  1.00  0.00    -0.393 OA
ATOM     34  H   UNL     1     -13.863 -10.580  16.380  1.00  0.00     0.210 HD
ENDBRANCH  27  33
TORSDOF 2
ENDMDL
MODEL 8
REMARK VINA RESULT:    -5.123      4.118      6.138
REMARK INTER + INTRA:          -5.034
REMARK INTER:                  -5.572
REMARK INTRA:                   0.538
REMARK UNBOUND:                 0.538
REMARK SMILES C[C@H]1[C@H]2C3=CC[C@H]4[C@@]5(C)CC[C@@H](O)C(C)(C)[C@@H]5CC[C@@]4(C)[C@]3(C)CC[C@]2(C(=O)[O-])CC[C@@H]1C
REMARK SMILES IDX 26 1 30 2 25 3 3 4 31 5 24 6 4 7 2 8 32 9 22 10 5 11 1 12
REMARK SMILES IDX 33 13 23 14 20 15 6 16 7 17 19 18 21 19 8 20 18 21 17 22
REMARK SMILES IDX 10 23 9 24 14 25 11 26 12 27 15 28 16 29 27 30 28 31 29 32
REMARK SMILES IDX 13 33
REMARK H PARENT 13 34
REMARK Flexibility Score: inf
ROOT
ATOM      1  C   UNL     1      -2.451 -11.871  10.486  1.00  0.00     0.017 C 
ATOM      2  C   UNL     1      -1.470 -12.063   9.275  1.00  0.00     0.014 C 
ATOM      3  C   UNL     1      -3.004 -13.250  10.888  1.00  0.00     0.014 C 
ATOM      4  C   UNL     1      -1.628 -11.297  11.676  1.00  0.00     0.030 C 
ATOM      5  C   UNL     1      -0.357 -10.993   9.174  1.00  0.00     0.004 C 
ATOM      6  C   UNL     1      -3.970 -13.162  12.076  1.00  0.00     0.013 C 
ATOM      7  C   UNL     1      -2.217 -11.526  13.082  1.00  0.00    -0.063 C 
ATOM      8  C   UNL     1      -1.064  -9.856  11.366  1.00  0.00    -0.003 C 
ATOM      9  C   UNL     1      -0.741  -9.662   9.846  1.00  0.00    -0.011 C 
ATOM     10  C   UNL     1      -3.398 -12.484  13.385  1.00  0.00    -0.006 C 
ATOM     11  C   UNL     1      -1.530 -11.034  14.133  1.00  0.00    -0.027 C 
ATOM     12  C   UNL     1      -1.945  -8.689  11.873  1.00  0.00     0.008 C 
ATOM     13  C   UNL     1       0.380  -8.631   9.639  1.00  0.00     0.008 C 
ATOM     14  C   UNL     1      -4.562 -11.595  13.958  1.00  0.00     0.017 C 
ATOM     15  C   UNL     1      -2.918 -13.590  14.478  1.00  0.00    -0.020 C 
ATOM     16  C   UNL     1      -1.886 -11.389  15.540  1.00  0.00     0.032 C 
ATOM     17  C   UNL     1      -2.041 -12.926  15.679  1.00  0.00     0.006 C 
ATOM     18  C   UNL     1      -4.178 -14.410  14.961  1.00  0.00     0.008 C 
ATOM     19  C   UNL     1      -1.977 -14.621  13.774  1.00  0.00     0.012 C 
ATOM     20  C   UNL     1      -2.259 -13.460  17.186  1.00  0.00    -0.025 C 
ATOM     21  C   UNL     1      -4.082 -15.020  16.346  1.00  0.00     0.005 C 
ATOM     22  C   UNL     1      -3.742 -13.927  17.376  1.00  0.00     0.003 C 
ATOM     23  C   UNL     1      -1.959 -12.351  18.249  1.00  0.00     0.010 C 
ATOM     24  C   UNL     1      -1.221 -14.605  17.428  1.00  0.00     0.012 C 
ATOM     25  C   UNL     1      -4.233 -14.258  18.854  1.00  0.00    -0.006 C 
ATOM     26  C   UNL     1      -2.292 -12.753  19.690  1.00  0.00     0.033 C 
ATOM     27  C   UNL     1      -3.768 -13.144  19.857  1.00  0.00     0.120 C 
ATOM     28  C   UNL     1      -5.790 -14.303  18.884  1.00  0.00     0.014 C 
ATOM     29  C   UNL     1      -3.746 -15.644  19.374  1.00  0.00     0.014 C 
ENDROOT
BRANCH   1  30
ATOM     30  C   UNL     1      -3.620 -10.966  10.085  1.00  0.00     0.048 C 
ATOM     31  O   UNL     1      -3.947 -10.829   8.875  1.00  0.00    -0.550 OA
ATOM     32  O   UNL     1      -4.413 -10.360  11.051  1.00  0.00    -0.550 OA
ENDBRANCH   1  30
BRANCH  27  33
ATOM     33  O   UNL     1      -4.584 -11.994  19.815  1.00  0.00    -0.393 OA
ATOM     34  H   UNL     1      -4.021 -11.201  19.998  1.00  0.00     0.210 HD
ENDBRANCH  27  33
TORSDOF 2
ENDMDL
MODEL 9
REMARK VINA RESULT:    -5.093      2.588      4.158
REMARK INTER + INTRA:          -5.001
REMARK INTER:                  -5.581
REMARK INTRA:                   0.579
REMARK UNBOUND:                 0.538
REMARK SMILES C[C@H]1[C@H]2C3=CC[C@H]4[C@@]5(C)CC[C@@H](O)C(C)(C)[C@@H]5CC[C@@]4(C)[C@]3(C)CC[C@]2(C(=O)[O-])CC[C@@H]1C
REMARK SMILES IDX 26 1 30 2 25 3 3 4 31 5 24 6 4 7 2 8 32 9 22 10 5 11 1 12
REMARK SMILES IDX 33 13 23 14 20 15 6 16 7 17 19 18 21 19 8 20 18 21 17 22
REMARK SMILES IDX 10 23 9 24 14 25 11 26 12 27 15 28 16 29 27 30 28 31 29 32
REMARK SMILES IDX 13 33
REMARK H PARENT 13 34
REMARK Flexibility Score: inf
ROOT
ATOM      1  C   UNL     1      -2.338 -12.212  12.935  1.00  0.00     0.017 C 
ATOM      2  C   UNL     1      -1.393 -11.663  11.806  1.00  0.00     0.014 C 
ATOM      3  C   UNL     1      -2.011 -13.699  13.163  1.00  0.00     0.014 C 
ATOM      4  C   UNL     1      -2.022 -11.425  14.241  1.00  0.00     0.030 C 
ATOM      5  C   UNL     1      -1.091 -10.149  11.901  1.00  0.00     0.004 C 
ATOM      6  C   UNL     1      -2.884 -14.320  14.261  1.00  0.00     0.013 C 
ATOM      7  C   UNL     1      -2.409 -12.119  15.561  1.00  0.00    -0.063 C 
ATOM      8  C   UNL     1      -2.377  -9.893  14.110  1.00  0.00    -0.003 C 
ATOM      9  C   UNL     1      -2.184  -9.364  12.649  1.00  0.00    -0.011 C 
ATOM     10  C   UNL     1      -2.836 -13.605  15.671  1.00  0.00    -0.006 C 
ATOM     11  C   UNL     1      -2.153 -11.459  16.710  1.00  0.00    -0.027 C 
ATOM     12  C   UNL     1      -3.779  -9.502  14.635  1.00  0.00     0.008 C 
ATOM     13  C   UNL     1      -1.851  -7.864  12.636  1.00  0.00     0.008 C 
ATOM     14  C   UNL     1      -4.313 -13.610  16.211  1.00  0.00     0.017 C 
ATOM     15  C   UNL     1      -1.837 -14.371  16.703  1.00  0.00    -0.020 C 
ATOM     16  C   UNL     1      -2.278 -12.123  18.042  1.00  0.00     0.032 C 
ATOM     17  C   UNL     1      -1.529 -13.482  18.032  1.00  0.00     0.006 C 
ATOM     18  C   UNL     1      -2.413 -15.812  16.995  1.00  0.00     0.008 C 
ATOM     19  C   UNL     1      -0.458 -14.592  16.001  1.00  0.00     0.012 C 
ATOM     20  C   UNL     1      -1.440 -14.227  19.460  1.00  0.00    -0.025 C 
ATOM     21  C   UNL     1      -2.020 -16.426  18.325  1.00  0.00     0.005 C 
ATOM     22  C   UNL     1      -2.393 -15.470  19.473  1.00  0.00     0.003 C 
ATOM     23  C   UNL     1      -1.855 -13.284  20.639  1.00  0.00     0.010 C 
ATOM     24  C   UNL     1       0.061 -14.604  19.696  1.00  0.00     0.012 C 
ATOM     25  C   UNL     1      -2.642 -16.201  20.866  1.00  0.00    -0.006 C 
ATOM     26  C   UNL     1      -1.934 -13.979  22.003  1.00  0.00     0.033 C 
ATOM     27  C   UNL     1      -2.924 -15.154  22.000  1.00  0.00     0.120 C 
ATOM     28  C   UNL     1      -3.893 -17.122  20.749  1.00  0.00     0.014 C 
ATOM     29  C   UNL     1      -1.463 -17.119  21.305  1.00  0.00     0.014 C 
ENDROOT
BRANCH   1  30
ATOM     30  C   UNL     1      -3.804 -12.085  12.509  1.00  0.00     0.048 C 
ATOM     31  O   UNL     1      -4.725 -12.036  13.369  1.00  0.00    -0.550 OA
ATOM     32  O   UNL     1      -4.143 -11.915  11.173  1.00  0.00    -0.550 OA
ENDBRANCH   1  30
BRANCH  27  33
ATOM     33  O   UNL     1      -4.251 -14.672  21.984  1.00  0.00    -0.393 OA
ATOM     34  H   UNL     1      -4.559 -14.630  21.044  1.00  0.00     0.210 HD
ENDBRANCH  27  33
TORSDOF 2
ENDMDL
