MODEL 1
REMARK VINA RESULT:    -6.484      0.000      0.000
REMARK INTER + INTRA:          -9.914
REMARK INTER:                  -9.327
REMARK INTRA:                  -0.587
REMARK UNBOUND:                -0.587
REMARK SMILES O=c1cc(-c2ccc(O)c(O)c2)oc2cc(O[C@@H]3O[C@@H](CO)[C@@H](O)[C@H](O)[C@H]3O)cc(O)c12
REMARK SMILES IDX 17 1 16 2 4 3 3 4 13 5 2 6 14 7 1 8 32 9 15 10 30 11 29 12
REMARK SMILES IDX 5 13 6 14 7 15 8 16 12 17 10 18 9 19 11 21 31 23 18 25 27 26
REMARK SMILES IDX 19 27 25 28 20 29 23 30 28 31 26 33 21 35 22 36 24 38
REMARK H PARENT 9 20 11 22 31 24 28 32 26 34 22 37 24 39
REMARK Flexibility Score: inf
ROOT
ATOM      1  O   UNL     1      -3.388  91.021 -16.032  1.00  0.00    -0.462 OA
ENDROOT
BRANCH   1   2
ATOM      2  C   UNL     1      -4.236  91.618 -15.082  1.00  0.00     0.130 A 
ATOM      3  C   UNL     1      -8.467  91.921 -12.919  1.00  0.00     0.138 A 
ATOM      4  C   UNL     1      -8.027  92.930 -12.052  1.00  0.00     0.100 A 
ATOM      5  O   UNL     1      -7.610  91.360 -13.767  1.00  0.00    -0.456 OA
ATOM      6  C   UNL     1      -6.708  93.380 -12.138  1.00  0.00     0.197 A 
ATOM      7  C   UNL     1      -6.351  91.761 -13.896  1.00  0.00     0.146 A 
ATOM      8  O   UNL     1      -6.316  94.283 -11.351  1.00  0.00    -0.289 OA
ATOM      9  C   UNL     1      -5.848  92.822 -13.105  1.00  0.00     0.107 A 
ATOM     10  C   UNL     1      -5.537  91.146 -14.845  1.00  0.00     0.094 A 
ATOM     11  C   UNL     1      -4.537  93.296 -13.339  1.00  0.00     0.134 A 
ATOM     12  C   UNL     1      -3.761  92.709 -14.347  1.00  0.00     0.093 A 
BRANCH   3  13
ATOM     13  C   UNL     1      -9.885  91.499 -12.952  1.00  0.00     0.021 A 
ATOM     14  C   UNL     1     -10.893  92.355 -12.475  1.00  0.00     0.016 A 
ATOM     15  C   UNL     1     -12.239  92.009 -12.615  1.00  0.00     0.051 A 
ATOM     16  C   UNL     1     -12.599  90.795 -13.217  1.00  0.00     0.157 A 
ATOM     17  C   UNL     1     -10.247  90.287 -13.560  1.00  0.00     0.062 A 
ATOM     18  C   UNL     1     -11.596  89.929 -13.685  1.00  0.00     0.158 A 
BRANCH  16  19
ATOM     19  O   UNL     1     -13.944  90.455 -13.364  1.00  0.00    -0.504 OA
ATOM     20  H   UNL     1     -14.264  89.878 -14.130  1.00  0.00     0.293 HD
ENDBRANCH  16  19
BRANCH  18  21
ATOM     21  O   UNL     1     -11.919  88.715 -14.288  1.00  0.00    -0.504 OA
ATOM     22  H   UNL     1     -12.103  88.638 -15.282  1.00  0.00     0.293 HD
ENDBRANCH  18  21
ENDBRANCH   3  13
BRANCH  11  23
ATOM     23  O   UNL     1      -4.009  94.345 -12.588  1.00  0.00    -0.507 OA
ATOM     24  H   UNL     1      -4.522  95.205 -12.435  1.00  0.00     0.293 HD
ENDBRANCH  11  23
ENDBRANCH   1   2
BRANCH   1  25
ATOM     25  C   UNL     1      -3.553  91.122 -17.449  1.00  0.00     0.339 C 
ATOM     26  C   UNL     1      -4.621  92.212 -17.738  1.00  0.00     0.214 C 
ATOM     27  O   UNL     1      -2.276  91.398 -18.014  1.00  0.00    -0.332 OA
ATOM     28  C   UNL     1      -4.069  93.329 -18.632  1.00  0.00     0.180 C 
ATOM     29  C   UNL     1      -2.282  91.665 -19.411  1.00  0.00     0.179 C 
ATOM     30  C   UNL     1      -3.360  92.701 -19.863  1.00  0.00     0.177 C 
BRANCH  26  31
ATOM     31  O   UNL     1      -5.738  91.614 -18.347  1.00  0.00    -0.384 OA
ATOM     32  H   UNL     1      -5.821  90.693 -17.982  1.00  0.00     0.211 HD
ENDBRANCH  26  31
BRANCH  28  33
ATOM     33  O   UNL     1      -3.212  94.144 -17.857  1.00  0.00    -0.387 OA
ATOM     34  H   UNL     1      -3.082  95.020 -18.299  1.00  0.00     0.211 HD
ENDBRANCH  28  33
BRANCH  29  35
ATOM     35  C   UNL     1      -2.164  90.383 -20.284  1.00  0.00     0.191 C 
BRANCH  35  36
ATOM     36  O   UNL     1      -1.877  89.212 -19.564  1.00  0.00    -0.394 OA
ATOM     37  H   UNL     1      -2.144  88.426 -20.103  1.00  0.00     0.210 HD
ENDBRANCH  35  36
ENDBRANCH  29  35
BRANCH  30  38
ATOM     38  O   UNL     1      -4.276  92.120 -20.763  1.00  0.00    -0.387 OA
ATOM     39  H   UNL     1      -5.181  92.177 -20.353  1.00  0.00     0.211 HD
ENDBRANCH  30  38
ENDBRANCH   1  25
TORSDOF 11
ENDMDL
MODEL 2
REMARK VINA RESULT:    -6.444      8.363     12.088
REMARK INTER + INTRA:          -9.856
REMARK INTER:                  -9.180
REMARK INTRA:                  -0.675
REMARK UNBOUND:                -0.587
REMARK SMILES O=c1cc(-c2ccc(O)c(O)c2)oc2cc(O[C@@H]3O[C@@H](CO)[C@@H](O)[C@H](O)[C@H]3O)cc(O)c12
REMARK SMILES IDX 17 1 16 2 4 3 3 4 13 5 2 6 14 7 1 8 32 9 15 10 30 11 29 12
REMARK SMILES IDX 5 13 6 14 7 15 8 16 12 17 10 18 9 19 11 21 31 23 18 25 27 26
REMARK SMILES IDX 19 27 25 28 20 29 23 30 28 31 26 33 21 35 22 36 24 38
REMARK H PARENT 9 20 11 22 31 24 28 32 26 34 22 37 24 39
REMARK Flexibility Score: inf
ROOT
ATOM      1  O   UNL     1     -13.795  87.985  -9.503  1.00  0.00    -0.462 OA
ENDROOT
BRANCH   1   2
ATOM      2  C   UNL     1     -13.216  86.705  -9.537  1.00  0.00     0.130 A 
ATOM      3  C   UNL     1      -9.475  83.832  -8.876  1.00  0.00     0.138 A 
ATOM      4  C   UNL     1     -10.208  82.688  -9.217  1.00  0.00     0.100 A 
ATOM      5  O   UNL     1     -10.085  85.013  -8.816  1.00  0.00    -0.456 OA
ATOM      6  C   UNL     1     -11.557  82.815  -9.556  1.00  0.00     0.197 A 
ATOM      7  C   UNL     1     -11.361  85.187  -9.142  1.00  0.00     0.146 A 
ATOM      8  O   UNL     1     -12.213  81.781  -9.857  1.00  0.00    -0.289 OA
ATOM      9  C   UNL     1     -12.152  84.092  -9.564  1.00  0.00     0.107 A 
ATOM     10  C   UNL     1     -11.904  86.469  -9.095  1.00  0.00     0.094 A 
ATOM     11  C   UNL     1     -13.475  84.326 -10.005  1.00  0.00     0.134 A 
ATOM     12  C   UNL     1     -13.977  85.634 -10.017  1.00  0.00     0.093 A 
BRANCH   3  13
ATOM     13  C   UNL     1      -8.018  83.768  -8.630  1.00  0.00     0.021 A 
ATOM     14  C   UNL     1      -7.520  83.714  -7.317  1.00  0.00     0.016 A 
ATOM     15  C   UNL     1      -6.154  83.533  -7.086  1.00  0.00     0.051 A 
ATOM     16  C   UNL     1      -5.262  83.420  -8.162  1.00  0.00     0.157 A 
ATOM     17  C   UNL     1      -7.125  83.648  -9.707  1.00  0.00     0.062 A 
ATOM     18  C   UNL     1      -5.752  83.484  -9.478  1.00  0.00     0.158 A 
BRANCH  16  19
ATOM     19  O   UNL     1      -3.900  83.230  -7.929  1.00  0.00    -0.504 OA
ATOM     20  H   UNL     1      -3.346  83.916  -7.435  1.00  0.00     0.293 HD
ENDBRANCH  16  19
BRANCH  18  21
ATOM     21  O   UNL     1      -4.894  83.376 -10.571  1.00  0.00    -0.504 OA
ATOM     22  H   UNL     1      -5.197  82.991 -11.458  1.00  0.00     0.293 HD
ENDBRANCH  18  21
ENDBRANCH   3  13
BRANCH  11  23
ATOM     23  O   UNL     1     -14.283  83.276 -10.438  1.00  0.00    -0.507 OA
ATOM     24  H   UNL     1     -14.806  82.700  -9.789  1.00  0.00     0.293 HD
ENDBRANCH  11  23
ENDBRANCH   1   2
BRANCH   1  25
ATOM     25  C   UNL     1     -14.172  88.739 -10.658  1.00  0.00     0.339 C 
ATOM     26  C   UNL     1     -15.522  89.446 -10.359  1.00  0.00     0.214 C 
ATOM     27  O   UNL     1     -13.105  89.631 -10.960  1.00  0.00    -0.332 OA
ATOM     28  C   UNL     1     -15.416  90.968 -10.517  1.00  0.00     0.180 C 
ATOM     29  C   UNL     1     -13.372  90.556 -12.007  1.00  0.00     0.179 C 
ATOM     30  C   UNL     1     -14.738  91.300 -11.874  1.00  0.00     0.177 C 
BRANCH  26  31
ATOM     31  O   UNL     1     -16.510  88.940 -11.221  1.00  0.00    -0.384 OA
ATOM     32  H   UNL     1     -16.254  89.189 -12.149  1.00  0.00     0.211 HD
ENDBRANCH  26  31
BRANCH  28  33
ATOM     33  O   UNL     1     -14.711  91.488  -9.406  1.00  0.00    -0.387 OA
ATOM     34  H   UNL     1     -15.317  92.028  -8.839  1.00  0.00     0.211 HD
ENDBRANCH  28  33
BRANCH  29  35
ATOM     35  C   UNL     1     -13.035  90.001 -13.420  1.00  0.00     0.191 C 
BRANCH  35  36
ATOM     36  O   UNL     1     -12.330  88.786 -13.416  1.00  0.00    -0.394 OA
ATOM     37  H   UNL     1     -11.747  88.752 -12.618  1.00  0.00     0.210 HD
ENDBRANCH  35  36
ENDBRANCH  29  35
BRANCH  30  38
ATOM     38  O   UNL     1     -15.579  91.015 -12.969  1.00  0.00    -0.387 OA
ATOM     39  H   UNL     1     -16.143  91.819 -13.135  1.00  0.00     0.211 HD
ENDBRANCH  30  38
ENDBRANCH   1  25
TORSDOF 11
ENDMDL
MODEL 3
REMARK VINA RESULT:    -6.433      1.634      1.887
REMARK INTER + INTRA:          -9.841
REMARK INTER:                  -9.097
REMARK INTRA:                  -0.744
REMARK UNBOUND:                -0.587
REMARK SMILES O=c1cc(-c2ccc(O)c(O)c2)oc2cc(O[C@@H]3O[C@@H](CO)[C@@H](O)[C@H](O)[C@H]3O)cc(O)c12
REMARK SMILES IDX 17 1 16 2 4 3 3 4 13 5 2 6 14 7 1 8 32 9 15 10 30 11 29 12
REMARK SMILES IDX 5 13 6 14 7 15 8 16 12 17 10 18 9 19 11 21 31 23 18 25 27 26
REMARK SMILES IDX 19 27 25 28 20 29 23 30 28 31 26 33 21 35 22 36 24 38
REMARK H PARENT 9 20 11 22 31 24 28 32 26 34 22 37 24 39
REMARK Flexibility Score: inf
ROOT
ATOM      1  O   UNL     1      -4.388  93.589 -17.483  1.00  0.00    -0.462 OA
ENDROOT
BRANCH   1   2
ATOM      2  C   UNL     1      -4.863  92.939 -16.330  1.00  0.00     0.130 A 
ATOM      3  C   UNL     1      -8.469  91.284 -13.697  1.00  0.00     0.138 A 
ATOM      4  C   UNL     1      -7.607  90.752 -12.729  1.00  0.00     0.100 A 
ATOM      5  O   UNL     1      -7.965  91.849 -14.790  1.00  0.00    -0.456 OA
ATOM      6  C   UNL     1      -6.227  90.884 -12.894  1.00  0.00     0.197 A 
ATOM      7  C   UNL     1      -6.662  92.010 -14.988  1.00  0.00     0.146 A 
ATOM      8  O   UNL     1      -5.456  90.399 -12.023  1.00  0.00    -0.289 OA
ATOM      9  C   UNL     1      -5.726  91.562 -14.024  1.00  0.00     0.107 A 
ATOM     10  C   UNL     1      -6.225  92.656 -16.143  1.00  0.00     0.094 A 
ATOM     11  C   UNL     1      -4.354  91.842 -14.213  1.00  0.00     0.134 A 
ATOM     12  C   UNL     1      -3.945  92.556 -15.347  1.00  0.00     0.093 A 
BRANCH   3  13
ATOM     13  C   UNL     1      -9.936  91.281 -13.506  1.00  0.00     0.021 A 
ATOM     14  C   UNL     1     -10.628  92.486 -13.294  1.00  0.00     0.016 A 
ATOM     15  C   UNL     1     -12.024  92.498 -13.234  1.00  0.00     0.051 A 
ATOM     16  C   UNL     1     -12.749  91.306 -13.366  1.00  0.00     0.157 A 
ATOM     17  C   UNL     1     -10.664  90.088 -13.645  1.00  0.00     0.062 A 
ATOM     18  C   UNL     1     -12.063  90.096 -13.566  1.00  0.00     0.158 A 
BRANCH  16  19
ATOM     19  O   UNL     1     -14.143  91.321 -13.314  1.00  0.00    -0.504 OA
ATOM     20  H   UNL     1     -14.644  91.969 -12.721  1.00  0.00     0.293 HD
ENDBRANCH  16  19
BRANCH  18  21
ATOM     21  O   UNL     1     -12.752  88.892 -13.701  1.00  0.00    -0.504 OA
ATOM     22  H   UNL     1     -13.738  88.858 -13.936  1.00  0.00     0.293 HD
ENDBRANCH  18  21
ENDBRANCH   3  13
BRANCH  11  23
ATOM     23  O   UNL     1      -3.403  91.427 -13.282  1.00  0.00    -0.507 OA
ATOM     24  H   UNL     1      -3.124  90.457 -13.197  1.00  0.00     0.293 HD
ENDBRANCH  11  23
ENDBRANCH   1   2
BRANCH   1  25
ATOM     25  C   UNL     1      -4.196  92.959 -18.752  1.00  0.00     0.339 C 
ATOM     26  C   UNL     1      -4.898  93.824 -19.835  1.00  0.00     0.214 C 
ATOM     27  O   UNL     1      -2.796  92.805 -18.952  1.00  0.00    -0.332 OA
ATOM     28  C   UNL     1      -3.920  94.275 -20.927  1.00  0.00     0.180 C 
ATOM     29  C   UNL     1      -2.421  92.316 -20.233  1.00  0.00     0.179 C 
ATOM     30  C   UNL     1      -3.107  93.051 -21.428  1.00  0.00     0.177 C 
BRANCH  26  31
ATOM     31  O   UNL     1      -5.950  93.086 -20.405  1.00  0.00    -0.384 OA
ATOM     32  H   UNL     1      -5.936  92.180 -19.996  1.00  0.00     0.211 HD
ENDBRANCH  26  31
BRANCH  28  33
ATOM     33  O   UNL     1      -3.104  95.303 -20.403  1.00  0.00    -0.387 OA
ATOM     34  H   UNL     1      -3.484  96.190 -20.627  1.00  0.00     0.211 HD
ENDBRANCH  28  33
BRANCH  29  35
ATOM     35  C   UNL     1      -2.396  90.762 -20.316  1.00  0.00     0.191 C 
BRANCH  35  36
ATOM     36  O   UNL     1      -2.181  90.117 -19.087  1.00  0.00    -0.394 OA
ATOM     37  H   UNL     1      -1.261  90.306 -18.778  1.00  0.00     0.210 HD
ENDBRANCH  35  36
ENDBRANCH  29  35
BRANCH  30  38
ATOM     38  O   UNL     1      -3.898  92.162 -22.184  1.00  0.00    -0.387 OA
ATOM     39  H   UNL     1      -3.762  92.378 -23.146  1.00  0.00     0.211 HD
ENDBRANCH  30  38
ENDBRANCH   1  25
TORSDOF 11
ENDMDL
MODEL 4
REMARK VINA RESULT:    -6.350      4.799      8.793
REMARK INTER + INTRA:          -9.720
REMARK INTER:                  -8.967
REMARK INTRA:                  -0.754
REMARK UNBOUND:                -0.587
REMARK SMILES O=c1cc(-c2ccc(O)c(O)c2)oc2cc(O[C@@H]3O[C@@H](CO)[C@@H](O)[C@H](O)[C@H]3O)cc(O)c12
REMARK SMILES IDX 17 1 16 2 4 3 3 4 13 5 2 6 14 7 1 8 32 9 15 10 30 11 29 12
REMARK SMILES IDX 5 13 6 14 7 15 8 16 12 17 10 18 9 19 11 21 31 23 18 25 27 26
REMARK SMILES IDX 19 27 25 28 20 29 23 30 28 31 26 33 21 35 22 36 24 38
REMARK H PARENT 9 20 11 22 31 24 28 32 26 34 22 37 24 39
REMARK Flexibility Score: inf
ROOT
ATOM      1  O   UNL     1      -6.786  88.101 -11.025  1.00  0.00    -0.462 OA
ENDROOT
BRANCH   1   2
ATOM      2  C   UNL     1      -6.161  89.281 -11.466  1.00  0.00     0.130 A 
ATOM      3  C   UNL     1      -4.787  92.173 -14.991  1.00  0.00     0.138 A 
ATOM      4  C   UNL     1      -4.275  93.126 -14.100  1.00  0.00     0.100 A 
ATOM      5  O   UNL     1      -5.408  91.096 -14.519  1.00  0.00    -0.456 OA
ATOM      6  C   UNL     1      -4.365  92.897 -12.726  1.00  0.00     0.197 A 
ATOM      7  C   UNL     1      -5.508  90.827 -13.222  1.00  0.00     0.146 A 
ATOM      8  O   UNL     1      -3.908  93.760 -11.929  1.00  0.00    -0.289 OA
ATOM      9  C   UNL     1      -4.955  91.705 -12.259  1.00  0.00     0.107 A 
ATOM     10  C   UNL     1      -6.135  89.649 -12.820  1.00  0.00     0.094 A 
ATOM     11  C   UNL     1      -4.984  91.339 -10.894  1.00  0.00     0.134 A 
ATOM     12  C   UNL     1      -5.557  90.116 -10.520  1.00  0.00     0.093 A 
BRANCH   3  13
ATOM     13  C   UNL     1      -4.605  92.310 -16.453  1.00  0.00     0.021 A 
ATOM     14  C   UNL     1      -3.359  92.688 -16.981  1.00  0.00     0.016 A 
ATOM     15  C   UNL     1      -3.152  92.702 -18.363  1.00  0.00     0.051 A 
ATOM     16  C   UNL     1      -4.190  92.355 -19.238  1.00  0.00     0.157 A 
ATOM     17  C   UNL     1      -5.642  91.957 -17.330  1.00  0.00     0.062 A 
ATOM     18  C   UNL     1      -5.442  91.988 -18.716  1.00  0.00     0.158 A 
BRANCH  16  19
ATOM     19  O   UNL     1      -3.979  92.361 -20.617  1.00  0.00    -0.504 OA
ATOM     20  H   UNL     1      -4.667  92.735 -21.257  1.00  0.00     0.293 HD
ENDBRANCH  16  19
BRANCH  18  21
ATOM     21  O   UNL     1      -6.497  91.638 -19.558  1.00  0.00    -0.504 OA
ATOM     22  H   UNL     1      -6.700  90.673 -19.796  1.00  0.00     0.293 HD
ENDBRANCH  18  21
ENDBRANCH   3  13
BRANCH  11  23
ATOM     23  O   UNL     1      -4.442  92.171  -9.917  1.00  0.00    -0.507 OA
ATOM     24  H   UNL     1      -4.776  92.162  -8.961  1.00  0.00     0.293 HD
ENDBRANCH  11  23
ENDBRANCH   1   2
BRANCH   1  25
ATOM     25  C   UNL     1      -6.307  87.275  -9.961  1.00  0.00     0.339 C 
ATOM     26  C   UNL     1      -7.513  86.901  -9.056  1.00  0.00     0.214 C 
ATOM     27  O   UNL     1      -5.651  86.155 -10.544  1.00  0.00    -0.332 OA
ATOM     28  C   UNL     1      -7.692  85.382  -8.943  1.00  0.00     0.180 C 
ATOM     29  C   UNL     1      -5.231  85.157  -9.622  1.00  0.00     0.179 C 
ATOM     30  C   UNL     1      -6.327  84.727  -8.597  1.00  0.00     0.177 C 
BRANCH  26  31
ATOM     31  O   UNL     1      -7.323  87.460  -7.780  1.00  0.00    -0.384 OA
ATOM     32  H   UNL     1      -6.565  88.100  -7.843  1.00  0.00     0.211 HD
ENDBRANCH  26  31
BRANCH  28  33
ATOM     33  O   UNL     1      -8.243  84.903 -10.153  1.00  0.00    -0.387 OA
ATOM     34  H   UNL     1      -7.557  84.414 -10.672  1.00  0.00     0.211 HD
ENDBRANCH  28  33
BRANCH  29  35
ATOM     35  C   UNL     1      -3.815  85.420  -9.032  1.00  0.00     0.191 C 
BRANCH  35  36
ATOM     36  O   UNL     1      -2.910  84.357  -9.193  1.00  0.00    -0.394 OA
ATOM     37  H   UNL     1      -3.251  83.744  -9.890  1.00  0.00     0.210 HD
ENDBRANCH  35  36
ENDBRANCH  29  35
BRANCH  30  38
ATOM     38  O   UNL     1      -5.925  85.007  -7.275  1.00  0.00    -0.387 OA
ATOM     39  H   UNL     1      -5.966  84.158  -6.759  1.00  0.00     0.211 HD
ENDBRANCH  30  38
ENDBRANCH   1  25
TORSDOF 11
ENDMDL
MODEL 5
REMARK VINA RESULT:    -6.304      4.003      4.710
REMARK INTER + INTRA:          -9.654
REMARK INTER:                  -8.879
REMARK INTRA:                  -0.775
REMARK UNBOUND:                -0.587
REMARK SMILES O=c1cc(-c2ccc(O)c(O)c2)oc2cc(O[C@@H]3O[C@@H](CO)[C@@H](O)[C@H](O)[C@H]3O)cc(O)c12
REMARK SMILES IDX 17 1 16 2 4 3 3 4 13 5 2 6 14 7 1 8 32 9 15 10 30 11 29 12
REMARK SMILES IDX 5 13 6 14 7 15 8 16 12 17 10 18 9 19 11 21 31 23 18 25 27 26
REMARK SMILES IDX 19 27 25 28 20 29 23 30 28 31 26 33 21 35 22 36 24 38
REMARK H PARENT 9 20 11 22 31 24 28 32 26 34 22 37 24 39
REMARK Flexibility Score: inf
ROOT
ATOM      1  O   UNL     1      -6.752  91.879 -16.110  1.00  0.00    -0.462 OA
ENDROOT
BRANCH   1   2
ATOM      2  C   UNL     1      -6.551  91.651 -14.737  1.00  0.00     0.130 A 
ATOM      3  C   UNL     1      -6.228  88.673 -11.035  1.00  0.00     0.138 A 
ATOM      4  C   UNL     1      -5.924  89.709 -10.142  1.00  0.00     0.100 A 
ATOM      5  O   UNL     1      -6.363  88.938 -12.331  1.00  0.00    -0.456 OA
ATOM      6  C   UNL     1      -5.835  91.019 -10.617  1.00  0.00     0.197 A 
ATOM      7  C   UNL     1      -6.301  90.168 -12.830  1.00  0.00     0.146 A 
ATOM      8  O   UNL     1      -5.556  91.946  -9.810  1.00  0.00    -0.289 OA
ATOM      9  C   UNL     1      -6.067  91.278 -11.983  1.00  0.00     0.107 A 
ATOM     10  C   UNL     1      -6.502  90.357 -14.196  1.00  0.00     0.094 A 
ATOM     11  C   UNL     1      -6.111  92.582 -12.526  1.00  0.00     0.134 A 
ATOM     12  C   UNL     1      -6.386  92.752 -13.890  1.00  0.00     0.093 A 
BRANCH   3  13
ATOM     13  C   UNL     1      -6.455  87.290 -10.561  1.00  0.00     0.021 A 
ATOM     14  C   UNL     1      -7.746  86.867 -10.199  1.00  0.00     0.016 A 
ATOM     15  C   UNL     1      -7.984  85.531  -9.867  1.00  0.00     0.051 A 
ATOM     16  C   UNL     1      -6.935  84.601  -9.874  1.00  0.00     0.157 A 
ATOM     17  C   UNL     1      -5.407  86.357 -10.574  1.00  0.00     0.062 A 
ATOM     18  C   UNL     1      -5.640  85.020 -10.224  1.00  0.00     0.158 A 
BRANCH  16  19
ATOM     19  O   UNL     1      -7.176  83.266  -9.550  1.00  0.00    -0.504 OA
ATOM     20  H   UNL     1      -8.034  82.802  -9.817  1.00  0.00     0.293 HD
ENDBRANCH  16  19
BRANCH  18  21
ATOM     21  O   UNL     1      -4.573  84.123 -10.241  1.00  0.00    -0.504 OA
ATOM     22  H   UNL     1      -3.624  84.416 -10.444  1.00  0.00     0.293 HD
ENDBRANCH  18  21
ENDBRANCH   3  13
BRANCH  11  23
ATOM     23  O   UNL     1      -5.896  93.701 -11.724  1.00  0.00    -0.507 OA
ATOM     24  H   UNL     1      -5.637  93.618 -10.748  1.00  0.00     0.293 HD
ENDBRANCH  11  23
ENDBRANCH   1   2
BRANCH   1  25
ATOM     25  C   UNL     1      -5.718  91.861 -17.098  1.00  0.00     0.339 C 
ATOM     26  C   UNL     1      -6.273  92.511 -18.394  1.00  0.00     0.214 C 
ATOM     27  O   UNL     1      -4.587  92.531 -16.552  1.00  0.00    -0.332 OA
ATOM     28  C   UNL     1      -5.429  93.712 -18.837  1.00  0.00     0.180 C 
ATOM     29  C   UNL     1      -3.508  92.725 -17.458  1.00  0.00     0.179 C 
ATOM     30  C   UNL     1      -3.928  93.314 -18.842  1.00  0.00     0.177 C 
BRANCH  26  31
ATOM     31  O   UNL     1      -6.311  91.546 -19.415  1.00  0.00    -0.384 OA
ATOM     32  H   UNL     1      -6.832  90.771 -19.076  1.00  0.00     0.211 HD
ENDBRANCH  26  31
BRANCH  28  33
ATOM     33  O   UNL     1      -5.709  94.800 -17.979  1.00  0.00    -0.387 OA
ATOM     34  H   UNL     1      -6.115  95.544 -18.490  1.00  0.00     0.211 HD
ENDBRANCH  28  33
BRANCH  29  35
ATOM     35  C   UNL     1      -2.518  91.525 -17.503  1.00  0.00     0.191 C 
BRANCH  35  36
ATOM     36  O   UNL     1      -3.014  90.385 -18.157  1.00  0.00    -0.394 OA
ATOM     37  H   UNL     1      -2.365  90.097 -18.845  1.00  0.00     0.210 HD
ENDBRANCH  35  36
ENDBRANCH  29  35
BRANCH  30  38
ATOM     38  O   UNL     1      -3.620  92.421 -19.888  1.00  0.00    -0.387 OA
ATOM     39  H   UNL     1      -2.824  91.892 -19.611  1.00  0.00     0.211 HD
ENDBRANCH  30  38
ENDBRANCH   1  25
TORSDOF 11
ENDMDL
MODEL 6
REMARK VINA RESULT:    -6.282      4.025      5.268
REMARK INTER + INTRA:          -9.623
REMARK INTER:                  -8.696
REMARK INTRA:                  -0.926
REMARK UNBOUND:                -0.587
REMARK SMILES O=c1cc(-c2ccc(O)c(O)c2)oc2cc(O[C@@H]3O[C@@H](CO)[C@@H](O)[C@H](O)[C@H]3O)cc(O)c12
REMARK SMILES IDX 17 1 16 2 4 3 3 4 13 5 2 6 14 7 1 8 32 9 15 10 30 11 29 12
REMARK SMILES IDX 5 13 6 14 7 15 8 16 12 17 10 18 9 19 11 21 31 23 18 25 27 26
REMARK SMILES IDX 19 27 25 28 20 29 23 30 28 31 26 33 21 35 22 36 24 38
REMARK H PARENT 9 20 11 22 31 24 28 32 26 34 22 37 24 39
REMARK Flexibility Score: inf
ROOT
ATOM      1  O   UNL     1      -5.586  90.892 -16.720  1.00  0.00    -0.462 OA
ENDROOT
BRANCH   1   2
ATOM      2  C   UNL     1      -6.192  90.799 -15.455  1.00  0.00     0.130 A 
ATOM      3  C   UNL     1      -6.867  88.492 -11.344  1.00  0.00     0.138 A 
ATOM      4  C   UNL     1      -7.699  89.498 -10.838  1.00  0.00     0.100 A 
ATOM      5  O   UNL     1      -6.284  88.652 -12.529  1.00  0.00    -0.456 OA
ATOM      6  C   UNL     1      -7.960  90.628 -11.617  1.00  0.00     0.197 A 
ATOM      7  C   UNL     1      -6.509  89.700 -13.312  1.00  0.00     0.146 A 
ATOM      8  O   UNL     1      -8.706  91.533 -11.154  1.00  0.00    -0.289 OA
ATOM      9  C   UNL     1      -7.393  90.728 -12.903  1.00  0.00     0.107 A 
ATOM     10  C   UNL     1      -5.890  89.761 -14.559  1.00  0.00     0.094 A 
ATOM     11  C   UNL     1      -7.694  91.777 -13.801  1.00  0.00     0.134 A 
ATOM     12  C   UNL     1      -7.115  91.780 -15.078  1.00  0.00     0.093 A 
BRANCH   3  13
ATOM     13  C   UNL     1      -6.661  87.223 -10.612  1.00  0.00     0.021 A 
ATOM     14  C   UNL     1      -7.758  86.413 -10.272  1.00  0.00     0.016 A 
ATOM     15  C   UNL     1      -7.556  85.159  -9.688  1.00  0.00     0.051 A 
ATOM     16  C   UNL     1      -6.259  84.703  -9.419  1.00  0.00     0.157 A 
ATOM     17  C   UNL     1      -5.361  86.762 -10.348  1.00  0.00     0.062 A 
ATOM     18  C   UNL     1      -5.158  85.513  -9.746  1.00  0.00     0.158 A 
BRANCH  16  19
ATOM     19  O   UNL     1      -6.059  83.448  -8.844  1.00  0.00    -0.504 OA
ATOM     20  H   UNL     1      -6.830  82.901  -8.485  1.00  0.00     0.293 HD
ENDBRANCH  16  19
BRANCH  18  21
ATOM     21  O   UNL     1      -3.854  85.091  -9.493  1.00  0.00    -0.504 OA
ATOM     22  H   UNL     1      -3.105  85.217 -10.165  1.00  0.00     0.293 HD
ENDBRANCH  18  21
ENDBRANCH   3  13
BRANCH  11  23
ATOM     23  O   UNL     1      -8.567  92.802 -13.441  1.00  0.00    -0.507 OA
ATOM     24  H   UNL     1      -8.497  93.275 -12.548  1.00  0.00     0.293 HD
ENDBRANCH  11  23
ENDBRANCH   1   2
BRANCH   1  25
ATOM     25  C   UNL     1      -4.680  91.925 -17.116  1.00  0.00     0.339 C 
ATOM     26  C   UNL     1      -3.243  91.489 -16.720  1.00  0.00     0.214 C 
ATOM     27  O   UNL     1      -4.856  92.144 -18.511  1.00  0.00    -0.332 OA
ATOM     28  C   UNL     1      -2.304  91.450 -17.932  1.00  0.00     0.180 C 
ATOM     29  C   UNL     1      -3.931  93.051 -19.099  1.00  0.00     0.179 C 
ATOM     30  C   UNL     1      -2.438  92.775 -18.731  1.00  0.00     0.177 C 
BRANCH  26  31
ATOM     31  O   UNL     1      -2.742  92.376 -15.751  1.00  0.00    -0.384 OA
ATOM     32  H   UNL     1      -3.272  93.215 -15.809  1.00  0.00     0.211 HD
ENDBRANCH  26  31
BRANCH  28  33
ATOM     33  O   UNL     1      -2.613  90.306 -18.703  1.00  0.00    -0.387 OA
ATOM     34  H   UNL     1      -3.554  90.036 -18.554  1.00  0.00     0.211 HD
ENDBRANCH  28  33
BRANCH  29  35
ATOM     35  C   UNL     1      -4.388  94.536 -19.017  1.00  0.00     0.191 C 
BRANCH  35  36
ATOM     36  O   UNL     1      -4.261  95.115 -17.744  1.00  0.00    -0.394 OA
ATOM     37  H   UNL     1      -4.898  94.680 -17.125  1.00  0.00     0.210 HD
ENDBRANCH  35  36
ENDBRANCH  29  35
BRANCH  30  38
ATOM     38  O   UNL     1      -1.875  93.868 -18.042  1.00  0.00    -0.387 OA
ATOM     39  H   UNL     1      -1.372  93.509 -17.263  1.00  0.00     0.211 HD
ENDBRANCH  30  38
ENDBRANCH   1  25
TORSDOF 11
ENDMDL
MODEL 7
REMARK VINA RESULT:    -6.177      5.488      8.979
REMARK INTER + INTRA:          -9.471
REMARK INTER:                  -8.717
REMARK INTRA:                  -0.754
REMARK UNBOUND:                -0.587
REMARK SMILES O=c1cc(-c2ccc(O)c(O)c2)oc2cc(O[C@@H]3O[C@@H](CO)[C@@H](O)[C@H](O)[C@H]3O)cc(O)c12
REMARK SMILES IDX 17 1 16 2 4 3 3 4 13 5 2 6 14 7 1 8 32 9 15 10 30 11 29 12
REMARK SMILES IDX 5 13 6 14 7 15 8 16 12 17 10 18 9 19 11 21 31 23 18 25 27 26
REMARK SMILES IDX 19 27 25 28 20 29 23 30 28 31 26 33 21 35 22 36 24 38
REMARK H PARENT 9 20 11 22 31 24 28 32 26 34 22 37 24 39
REMARK Flexibility Score: inf
ROOT
ATOM      1  O   UNL     1      -6.126  88.314  -8.695  1.00  0.00    -0.462 OA
ENDROOT
BRANCH   1   2
ATOM      2  C   UNL     1      -5.690  89.487  -9.334  1.00  0.00     0.130 A 
ATOM      3  C   UNL     1      -4.798  91.951 -13.311  1.00  0.00     0.138 A 
ATOM      4  C   UNL     1      -4.426  93.098 -12.597  1.00  0.00     0.100 A 
ATOM      5  O   UNL     1      -5.246  90.884 -12.656  1.00  0.00    -0.456 OA
ATOM      6  C   UNL     1      -4.467  93.080 -11.201  1.00  0.00     0.197 A 
ATOM      7  C   UNL     1      -5.292  90.812 -11.331  1.00  0.00     0.146 A 
ATOM      8  O   UNL     1      -4.137  94.116 -10.565  1.00  0.00    -0.289 OA
ATOM      9  C   UNL     1      -4.868  91.904 -10.535  1.00  0.00     0.107 A 
ATOM     10  C   UNL     1      -5.732  89.635 -10.730  1.00  0.00     0.094 A 
ATOM     11  C   UNL     1      -4.829  91.759  -9.130  1.00  0.00     0.134 A 
ATOM     12  C   UNL     1      -5.208  90.541  -8.551  1.00  0.00     0.093 A 
BRANCH   3  13
ATOM     13  C   UNL     1      -4.652  91.879 -14.781  1.00  0.00     0.021 A 
ATOM     14  C   UNL     1      -5.561  91.131 -15.549  1.00  0.00     0.016 A 
ATOM     15  C   UNL     1      -5.498  91.159 -16.944  1.00  0.00     0.051 A 
ATOM     16  C   UNL     1      -4.516  91.919 -17.594  1.00  0.00     0.157 A 
ATOM     17  C   UNL     1      -3.674  92.646 -15.433  1.00  0.00     0.062 A 
ATOM     18  C   UNL     1      -3.597  92.661 -16.832  1.00  0.00     0.158 A 
BRANCH  16  19
ATOM     19  O   UNL     1      -4.460  91.953 -18.988  1.00  0.00    -0.504 OA
ATOM     20  H   UNL     1      -4.411  91.105 -19.536  1.00  0.00     0.293 HD
ENDBRANCH  16  19
BRANCH  18  21
ATOM     21  O   UNL     1      -2.608  93.428 -17.445  1.00  0.00    -0.504 OA
ATOM     22  H   UNL     1      -1.621  93.224 -17.335  1.00  0.00     0.293 HD
ENDBRANCH  18  21
ENDBRANCH   3  13
BRANCH  11  23
ATOM     23  O   UNL     1      -4.407  92.807  -8.313  1.00  0.00    -0.507 OA
ATOM     24  H   UNL     1      -3.488  93.224  -8.408  1.00  0.00     0.293 HD
ENDBRANCH  11  23
ENDBRANCH   1   2
BRANCH   1  25
ATOM     25  C   UNL     1      -5.262  87.310  -8.156  1.00  0.00     0.339 C 
ATOM     26  C   UNL     1      -5.878  85.919  -8.465  1.00  0.00     0.214 C 
ATOM     27  O   UNL     1      -3.968  87.508  -8.715  1.00  0.00    -0.332 OA
ATOM     28  C   UNL     1      -4.916  85.033  -9.265  1.00  0.00     0.180 C 
ATOM     29  C   UNL     1      -3.012  86.507  -8.388  1.00  0.00     0.179 C 
ATOM     30  C   UNL     1      -3.519  85.044  -8.586  1.00  0.00     0.177 C 
BRANCH  26  31
ATOM     31  O   UNL     1      -6.223  85.288  -7.257  1.00  0.00    -0.384 OA
ATOM     32  H   UNL     1      -7.158  84.963  -7.345  1.00  0.00     0.211 HD
ENDBRANCH  26  31
BRANCH  28  33
ATOM     33  O   UNL     1      -4.883  85.496 -10.601  1.00  0.00    -0.387 OA
ATOM     34  H   UNL     1      -3.947  85.568 -10.916  1.00  0.00     0.211 HD
ENDBRANCH  28  33
BRANCH  29  35
ATOM     35  C   UNL     1      -2.255  86.790  -7.058  1.00  0.00     0.191 C 
BRANCH  35  36
ATOM     36  O   UNL     1      -1.877  88.130  -6.876  1.00  0.00    -0.394 OA
ATOM     37  H   UNL     1      -1.103  88.168  -6.261  1.00  0.00     0.210 HD
ENDBRANCH  35  36
ENDBRANCH  29  35
BRANCH  30  38
ATOM     38  O   UNL     1      -3.519  84.337  -7.366  1.00  0.00    -0.387 OA
ATOM     39  H   UNL     1      -4.449  84.027  -7.195  1.00  0.00     0.211 HD
ENDBRANCH  30  38
ENDBRANCH   1  25
TORSDOF 11
ENDMDL
MODEL 8
REMARK VINA RESULT:    -6.172      3.193      4.017
REMARK INTER + INTRA:          -9.465
REMARK INTER:                  -8.561
REMARK INTRA:                  -0.904
REMARK UNBOUND:                -0.587
REMARK SMILES O=c1cc(-c2ccc(O)c(O)c2)oc2cc(O[C@@H]3O[C@@H](CO)[C@@H](O)[C@H](O)[C@H]3O)cc(O)c12
REMARK SMILES IDX 17 1 16 2 4 3 3 4 13 5 2 6 14 7 1 8 32 9 15 10 30 11 29 12
REMARK SMILES IDX 5 13 6 14 7 15 8 16 12 17 10 18 9 19 11 21 31 23 18 25 27 26
REMARK SMILES IDX 19 27 25 28 20 29 23 30 28 31 26 33 21 35 22 36 24 38
REMARK H PARENT 9 20 11 22 31 24 28 32 26 34 22 37 24 39
REMARK Flexibility Score: inf
ROOT
ATOM      1  O   UNL     1      -3.925  91.259 -16.646  1.00  0.00    -0.462 OA
ENDROOT
BRANCH   1   2
ATOM      2  C   UNL     1      -4.218  91.414 -15.279  1.00  0.00     0.130 A 
ATOM      3  C   UNL     1      -6.131  89.767 -11.241  1.00  0.00     0.138 A 
ATOM      4  C   UNL     1      -5.704  90.880 -10.506  1.00  0.00     0.100 A 
ATOM      5  O   UNL     1      -5.786  89.650 -12.521  1.00  0.00    -0.456 OA
ATOM      6  C   UNL     1      -4.979  91.887 -11.146  1.00  0.00     0.197 A 
ATOM      7  C   UNL     1      -5.110  90.585 -13.177  1.00  0.00     0.146 A 
ATOM      8  O   UNL     1      -4.593  92.884 -10.478  1.00  0.00    -0.289 OA
ATOM      9  C   UNL     1      -4.702  91.773 -12.523  1.00  0.00     0.107 A 
ATOM     10  C   UNL     1      -4.834  90.399 -14.531  1.00  0.00     0.094 A 
ATOM     11  C   UNL     1      -4.077  92.794 -13.274  1.00  0.00     0.134 A 
ATOM     12  C   UNL     1      -3.874  92.614 -14.649  1.00  0.00     0.093 A 
BRANCH   3  13
ATOM     13  C   UNL     1      -7.006  88.737 -10.640  1.00  0.00     0.021 A 
ATOM     14  C   UNL     1      -8.327  89.051 -10.277  1.00  0.00     0.016 A 
ATOM     15  C   UNL     1      -9.191  88.052  -9.821  1.00  0.00     0.051 A 
ATOM     16  C   UNL     1      -8.745  86.729  -9.705  1.00  0.00     0.157 A 
ATOM     17  C   UNL     1      -6.563  87.410 -10.529  1.00  0.00     0.062 A 
ATOM     18  C   UNL     1      -7.422  86.410 -10.055  1.00  0.00     0.158 A 
BRANCH  16  19
ATOM     19  O   UNL     1      -9.612  85.731  -9.258  1.00  0.00    -0.504 OA
ATOM     20  H   UNL     1      -9.802  85.596  -8.274  1.00  0.00     0.293 HD
ENDBRANCH  16  19
BRANCH  18  21
ATOM     21  O   UNL     1      -6.946  85.104  -9.952  1.00  0.00    -0.504 OA
ATOM     22  H   UNL     1      -7.409  84.404  -9.384  1.00  0.00     0.293 HD
ENDBRANCH  18  21
ENDBRANCH   3  13
BRANCH  11  23
ATOM     23  O   UNL     1      -3.670  93.982 -12.670  1.00  0.00    -0.507 OA
ATOM     24  H   UNL     1      -4.141  94.862 -12.847  1.00  0.00     0.293 HD
ENDBRANCH  11  23
ENDBRANCH   1   2
BRANCH   1  25
ATOM     25  C   UNL     1      -4.088  92.280 -17.634  1.00  0.00     0.339 C 
ATOM     26  C   UNL     1      -2.737  92.455 -18.380  1.00  0.00     0.214 C 
ATOM     27  O   UNL     1      -5.170  91.897 -18.476  1.00  0.00    -0.332 OA
ATOM     28  C   UNL     1      -2.886  92.232 -19.890  1.00  0.00     0.180 C 
ATOM     29  C   UNL     1      -5.382  92.739 -19.603  1.00  0.00     0.179 C 
ATOM     30  C   UNL     1      -4.089  93.061 -20.417  1.00  0.00     0.177 C 
BRANCH  26  31
ATOM     31  O   UNL     1      -2.235  93.744 -18.130  1.00  0.00    -0.384 OA
ATOM     32  H   UNL     1      -2.345  94.275 -18.963  1.00  0.00     0.211 HD
ENDBRANCH  26  31
BRANCH  28  33
ATOM     33  O   UNL     1      -3.024  90.846 -20.129  1.00  0.00    -0.387 OA
ATOM     34  H   UNL     1      -2.460  90.332 -19.497  1.00  0.00     0.211 HD
ENDBRANCH  28  33
BRANCH  29  35
ATOM     35  C   UNL     1      -6.313  93.949 -19.301  1.00  0.00     0.191 C 
BRANCH  35  36
ATOM     36  O   UNL     1      -6.889  94.539 -20.438  1.00  0.00    -0.394 OA
ATOM     37  H   UNL     1      -6.852  93.897 -21.190  1.00  0.00     0.210 HD
ENDBRANCH  35  36
ENDBRANCH  29  35
BRANCH  30  38
ATOM     38  O   UNL     1      -3.820  94.445 -20.417  1.00  0.00    -0.387 OA
ATOM     39  H   UNL     1      -4.598  94.905 -20.001  1.00  0.00     0.211 HD
ENDBRANCH  30  38
ENDBRANCH   1  25
TORSDOF 11
ENDMDL
MODEL 9
REMARK VINA RESULT:    -6.066      7.401     12.026
REMARK INTER + INTRA:          -9.312
REMARK INTER:                  -8.442
REMARK INTRA:                  -0.870
REMARK UNBOUND:                -0.587
REMARK SMILES O=c1cc(-c2ccc(O)c(O)c2)oc2cc(O[C@@H]3O[C@@H](CO)[C@@H](O)[C@H](O)[C@H]3O)cc(O)c12
REMARK SMILES IDX 17 1 16 2 4 3 3 4 13 5 2 6 14 7 1 8 32 9 15 10 30 11 29 12
REMARK SMILES IDX 5 13 6 14 7 15 8 16 12 17 10 18 9 19 11 21 31 23 18 25 27 26
REMARK SMILES IDX 19 27 25 28 20 29 23 30 28 31 26 33 21 35 22 36 24 38
REMARK H PARENT 9 20 11 22 31 24 28 32 26 34 22 37 24 39
REMARK Flexibility Score: inf
ROOT
ATOM      1  O   UNL     1      -9.598  84.118  -7.715  1.00  0.00    -0.462 OA
ENDROOT
BRANCH   1   2
ATOM      2  C   UNL     1      -8.287  84.541  -7.993  1.00  0.00     0.130 A 
ATOM      3  C   UNL     1      -5.045  88.010  -8.365  1.00  0.00     0.138 A 
ATOM      4  C   UNL     1      -4.018  87.109  -8.676  1.00  0.00     0.100 A 
ATOM      5  O   UNL     1      -6.257  87.550  -8.066  1.00  0.00    -0.456 OA
ATOM      6  C   UNL     1      -4.300  85.742  -8.736  1.00  0.00     0.197 A 
ATOM      7  C   UNL     1      -6.578  86.263  -8.121  1.00  0.00     0.146 A 
ATOM      8  O   UNL     1      -3.371  84.936  -9.011  1.00  0.00    -0.289 OA
ATOM      9  C   UNL     1      -5.615  85.296  -8.496  1.00  0.00     0.107 A 
ATOM     10  C   UNL     1      -7.887  85.878  -7.838  1.00  0.00     0.094 A 
ATOM     11  C   UNL     1      -6.014  83.948  -8.648  1.00  0.00     0.134 A 
ATOM     12  C   UNL     1      -7.352  83.595  -8.427  1.00  0.00     0.093 A 
BRANCH   3  13
ATOM     13  C   UNL     1      -4.826  89.472  -8.411  1.00  0.00     0.021 A 
ATOM     14  C   UNL     1      -4.151  90.123  -7.365  1.00  0.00     0.016 A 
ATOM     15  C   UNL     1      -3.838  91.481  -7.463  1.00  0.00     0.051 A 
ATOM     16  C   UNL     1      -4.210  92.214  -8.599  1.00  0.00     0.157 A 
ATOM     17  C   UNL     1      -5.191  90.205  -9.551  1.00  0.00     0.062 A 
ATOM     18  C   UNL     1      -4.895  91.571  -9.644  1.00  0.00     0.158 A 
BRANCH  16  19
ATOM     19  O   UNL     1      -3.889  93.568  -8.699  1.00  0.00    -0.504 OA
ATOM     20  H   UNL     1      -2.935  93.879  -8.822  1.00  0.00     0.293 HD
ENDBRANCH  16  19
BRANCH  18  21
ATOM     21  O   UNL     1      -5.279  92.269 -10.788  1.00  0.00    -0.504 OA
ATOM     22  H   UNL     1      -6.249  92.493 -10.983  1.00  0.00     0.293 HD
ENDBRANCH  18  21
ENDBRANCH   3  13
BRANCH  11  23
ATOM     23  O   UNL     1      -5.098  82.967  -9.026  1.00  0.00    -0.507 OA
ATOM     24  H   UNL     1      -4.166  83.201  -9.346  1.00  0.00     0.293 HD
ENDBRANCH  11  23
ENDBRANCH   1   2
BRANCH   1  25
ATOM     25  C   UNL     1     -10.624  83.948  -8.697  1.00  0.00     0.339 C 
ATOM     26  C   UNL     1     -10.585  82.477  -9.193  1.00  0.00     0.214 C 
ATOM     27  O   UNL     1     -11.860  84.326  -8.101  1.00  0.00    -0.332 OA
ATOM     28  C   UNL     1     -11.928  81.767  -8.981  1.00  0.00     0.180 C 
ATOM     29  C   UNL     1     -13.012  84.088  -8.902  1.00  0.00     0.179 C 
ATOM     30  C   UNL     1     -13.075  82.659  -9.528  1.00  0.00     0.177 C 
BRANCH  26  31
ATOM     31  O   UNL     1     -10.239  82.458 -10.555  1.00  0.00    -0.384 OA
ATOM     32  H   UNL     1      -9.541  81.762 -10.678  1.00  0.00     0.211 HD
ENDBRANCH  26  31
BRANCH  28  33
ATOM     33  O   UNL     1     -12.067  81.471  -7.605  1.00  0.00    -0.387 OA
ATOM     34  H   UNL     1     -12.741  82.067  -7.193  1.00  0.00     0.211 HD
ENDBRANCH  28  33
BRANCH  29  35
ATOM     35  C   UNL     1     -13.349  85.266  -9.860  1.00  0.00     0.191 C 
BRANCH  35  36
ATOM     36  O   UNL     1     -14.586  85.148 -10.516  1.00  0.00    -0.394 OA
ATOM     37  H   UNL     1     -14.557  84.370 -11.126  1.00  0.00     0.210 HD
ENDBRANCH  35  36
ENDBRANCH  29  35
BRANCH  30  38
ATOM     38  O   UNL     1     -13.070  82.722 -10.937  1.00  0.00    -0.387 OA
ATOM     39  H   UNL     1     -13.298  81.817 -11.281  1.00  0.00     0.211 HD
ENDBRANCH  30  38
ENDBRANCH   1  25
TORSDOF 11
ENDMDL
