MODEL 1
REMARK VINA RESULT:    -2.886      0.000      0.000
REMARK INTER + INTRA:         -11.017
REMARK INTER:                  -6.599
REMARK INTRA:                  -4.418
REMARK UNBOUND:                -4.418
REMARK SMILES CCCCCCCCCCCCCCCCCCCCCCCC(=O)[O-]
REMARK SMILES IDX 13 1 14 2 15 3 16 4 17 5 18 6 19 7 20 8 21 9 22 10 23 11
REMARK SMILES IDX 24 12 25 13 26 14 12 15 11 16 10 17 9 18 8 19 7 20 6 21 5 22
REMARK SMILES IDX 4 23 3 24 2 25 1 26
REMARK H PARENT
REMARK Flexibility Score: inf
ROOT
ATOM      1  C   UNL     1      62.640  36.523  61.360  1.00  0.00     0.000 C 
ENDROOT
BRANCH   1   2
ATOM      2  C   UNL     1      63.853  35.578  61.498  1.00  0.00     0.000 C 
BRANCH   2   3
ATOM      3  C   UNL     1      65.211  36.292  61.376  1.00  0.00     0.000 C 
BRANCH   3   4
ATOM      4  C   UNL     1      65.453  36.878  59.975  1.00  0.00     0.000 C 
BRANCH   4   5
ATOM      5  C   UNL     1      65.256  35.842  58.858  1.00  0.00     0.000 C 
BRANCH   5   6
ATOM      6  C   UNL     1      64.410  36.377  57.693  1.00  0.00     0.000 C 
BRANCH   6   7
ATOM      7  C   UNL     1      63.200  35.468  57.436  1.00  0.00     0.000 C 
BRANCH   7   8
ATOM      8  C   UNL     1      61.953  36.243  56.974  1.00  0.00     0.000 C 
BRANCH   8   9
ATOM      9  C   UNL     1      61.188  35.602  55.801  1.00  0.00     0.000 C 
BRANCH   9  10
ATOM     10  C   UNL     1      59.721  36.056  55.724  1.00  0.00     0.006 C 
BRANCH  10  11
ATOM     11  C   UNL     1      58.997  35.803  57.050  1.00  0.00     0.053 C 
BRANCH  11  12
ATOM     12  C   UNL     1      57.932  34.767  56.875  1.00  0.00     0.041 C 
ATOM     13  O   UNL     1      58.152  33.571  57.198  1.00  0.00    -0.550 OA
ATOM     14  O   UNL     1      56.711  35.114  56.310  1.00  0.00    -0.550 OA
ENDBRANCH  11  12
ENDBRANCH  10  11
ENDBRANCH   9  10
ENDBRANCH   8   9
ENDBRANCH   7   8
ENDBRANCH   6   7
ENDBRANCH   5   6
ENDBRANCH   4   5
ENDBRANCH   3   4
ENDBRANCH   2   3
ENDBRANCH   1   2
BRANCH   1  15
ATOM     15  C   UNL     1      61.450  35.846  60.657  1.00  0.00     0.000 C 
BRANCH  15  16
ATOM     16  C   UNL     1      61.592  34.316  60.594  1.00  0.00     0.000 C 
BRANCH  16  17
ATOM     17  C   UNL     1      60.849  33.648  59.420  1.00  0.00     0.000 C 
BRANCH  17  18
ATOM     18  C   UNL     1      60.467  32.176  59.691  1.00  0.00    -0.000 C 
BRANCH  18  19
ATOM     19  C   UNL     1      60.856  31.726  61.110  1.00  0.00    -0.000 C 
BRANCH  19  20
ATOM     20  C   UNL     1      60.999  30.200  61.235  1.00  0.00    -0.000 C 
BRANCH  20  21
ATOM     21  C   UNL     1      62.431  29.766  61.584  1.00  0.00    -0.000 C 
BRANCH  21  22
ATOM     22  C   UNL     1      63.404  30.953  61.716  1.00  0.00    -0.000 C 
BRANCH  22  23
ATOM     23  C   UNL     1      64.530  31.002  60.667  1.00  0.00    -0.000 C 
BRANCH  23  24
ATOM     24  C   UNL     1      64.559  32.324  59.881  1.00  0.00    -0.000 C 
BRANCH  24  25
ATOM     25  C   UNL     1      64.134  32.147  58.415  1.00  0.00    -0.003 C 
ATOM     26  C   UNL     1      63.641  30.733  58.107  1.00  0.00     0.004 C 
ENDBRANCH  24  25
ENDBRANCH  23  24
ENDBRANCH  22  23
ENDBRANCH  21  22
ENDBRANCH  20  21
ENDBRANCH  19  20
ENDBRANCH  18  19
ENDBRANCH  17  18
ENDBRANCH  16  17
ENDBRANCH  15  16
ENDBRANCH   1  15
TORSDOF 22
ENDMDL
MODEL 2
REMARK VINA RESULT:    -2.881      3.711      7.411
REMARK INTER + INTRA:         -11.004
REMARK INTER:                  -7.222
REMARK INTRA:                  -3.781
REMARK UNBOUND:                -4.418
REMARK SMILES CCCCCCCCCCCCCCCCCCCCCCCC(=O)[O-]
REMARK SMILES IDX 13 1 14 2 15 3 16 4 17 5 18 6 19 7 20 8 21 9 22 10 23 11
REMARK SMILES IDX 24 12 25 13 26 14 12 15 11 16 10 17 9 18 8 19 7 20 6 21 5 22
REMARK SMILES IDX 4 23 3 24 2 25 1 26
REMARK H PARENT
REMARK Flexibility Score: inf
ROOT
ATOM      1  C   UNL     1      63.939  33.861  61.067  1.00  0.00     0.000 C 
ENDROOT
BRANCH   1   2
ATOM      2  C   UNL     1      63.552  33.801  59.573  1.00  0.00     0.000 C 
BRANCH   2   3
ATOM      3  C   UNL     1      62.199  33.115  59.312  1.00  0.00     0.000 C 
BRANCH   3   4
ATOM      4  C   UNL     1      61.190  33.332  60.451  1.00  0.00     0.000 C 
BRANCH   4   5
ATOM      5  C   UNL     1      60.643  32.012  61.017  1.00  0.00     0.000 C 
BRANCH   5   6
ATOM      6  C   UNL     1      61.527  30.806  60.670  1.00  0.00     0.000 C 
BRANCH   6   7
ATOM      7  C   UNL     1      62.380  30.389  61.876  1.00  0.00     0.000 C 
BRANCH   7   8
ATOM      8  C   UNL     1      63.694  29.694  61.474  1.00  0.00     0.000 C 
BRANCH   8   9
ATOM      9  C   UNL     1      64.178  29.998  60.043  1.00  0.00     0.000 C 
BRANCH   9  10
ATOM     10  C   UNL     1      65.463  29.241  59.673  1.00  0.00     0.006 C 
BRANCH  10  11
ATOM     11  C   UNL     1      66.341  29.012  60.907  1.00  0.00     0.053 C 
BRANCH  11  12
ATOM     12  C   UNL     1      67.767  29.352  60.606  1.00  0.00     0.041 C 
ATOM     13  O   UNL     1      68.058  30.000  59.567  1.00  0.00    -0.550 OA
ATOM     14  O   UNL     1      68.779  28.910  61.448  1.00  0.00    -0.550 OA
ENDBRANCH  11  12
ENDBRANCH  10  11
ENDBRANCH   9  10
ENDBRANCH   8   9
ENDBRANCH   7   8
ENDBRANCH   6   7
ENDBRANCH   5   6
ENDBRANCH   4   5
ENDBRANCH   3   4
ENDBRANCH   2   3
ENDBRANCH   1   2
BRANCH   1  15
ATOM     15  C   UNL     1      64.307  35.287  61.517  1.00  0.00     0.000 C 
BRANCH  15  16
ATOM     16  C   UNL     1      63.562  36.370  60.721  1.00  0.00     0.000 C 
BRANCH  16  17
ATOM     17  C   UNL     1      62.345  36.980  61.446  1.00  0.00     0.000 C 
BRANCH  17  18
ATOM     18  C   UNL     1      61.068  37.020  60.580  1.00  0.00    -0.000 C 
BRANCH  18  19
ATOM     19  C   UNL     1      61.368  36.780  59.089  1.00  0.00    -0.000 C 
BRANCH  19  20
ATOM     20  C   UNL     1      60.178  37.125  58.177  1.00  0.00    -0.000 C 
BRANCH  20  21
ATOM     21  C   UNL     1      58.857  36.511  58.669  1.00  0.00    -0.000 C 
BRANCH  21  22
ATOM     22  C   UNL     1      58.313  35.422  57.726  1.00  0.00    -0.000 C 
BRANCH  22  23
ATOM     23  C   UNL     1      59.233  34.204  57.525  1.00  0.00    -0.000 C 
BRANCH  23  24
ATOM     24  C   UNL     1      58.479  32.961  57.021  1.00  0.00    -0.000 C 
BRANCH  24  25
ATOM     25  C   UNL     1      58.435  31.834  58.066  1.00  0.00    -0.003 C 
ATOM     26  C   UNL     1      59.302  30.636  57.682  1.00  0.00     0.004 C 
ENDBRANCH  24  25
ENDBRANCH  23  24
ENDBRANCH  22  23
ENDBRANCH  21  22
ENDBRANCH  20  21
ENDBRANCH  19  20
ENDBRANCH  18  19
ENDBRANCH  17  18
ENDBRANCH  16  17
ENDBRANCH  15  16
ENDBRANCH   1  15
TORSDOF 22
ENDMDL
MODEL 3
REMARK VINA RESULT:    -2.860      3.517      7.585
REMARK INTER + INTRA:         -10.958
REMARK INTER:                  -7.491
REMARK INTRA:                  -3.466
REMARK UNBOUND:                -4.418
REMARK SMILES CCCCCCCCCCCCCCCCCCCCCCCC(=O)[O-]
REMARK SMILES IDX 13 1 14 2 15 3 16 4 17 5 18 6 19 7 20 8 21 9 22 10 23 11
REMARK SMILES IDX 24 12 25 13 26 14 12 15 11 16 10 17 9 18 8 19 7 20 6 21 5 22
REMARK SMILES IDX 4 23 3 24 2 25 1 26
REMARK H PARENT
REMARK Flexibility Score: inf
ROOT
ATOM      1  C   UNL     1      64.027  33.959  61.046  1.00  0.00     0.000 C 
ENDROOT
BRANCH   1   2
ATOM      2  C   UNL     1      63.871  33.983  59.510  1.00  0.00     0.000 C 
BRANCH   2   3
ATOM      3  C   UNL     1      62.585  33.302  59.008  1.00  0.00     0.000 C 
BRANCH   3   4
ATOM      4  C   UNL     1      61.485  33.241  60.080  1.00  0.00     0.000 C 
BRANCH   4   5
ATOM      5  C   UNL     1      60.338  32.292  59.698  1.00  0.00     0.000 C 
BRANCH   5   6
ATOM      6  C   UNL     1      60.438  30.928  60.399  1.00  0.00     0.000 C 
BRANCH   6   7
ATOM      7  C   UNL     1      61.180  31.055  61.736  1.00  0.00     0.000 C 
BRANCH   7   8
ATOM      8  C   UNL     1      62.299  30.012  61.906  1.00  0.00     0.000 C 
BRANCH   8   9
ATOM      9  C   UNL     1      63.721  30.532  61.627  1.00  0.00     0.000 C 
BRANCH   9  10
ATOM     10  C   UNL     1      64.424  29.773  60.491  1.00  0.00     0.006 C 
BRANCH  10  11
ATOM     11  C   UNL     1      63.676  28.482  60.146  1.00  0.00     0.053 C 
BRANCH  11  12
ATOM     12  C   UNL     1      64.478  27.287  60.552  1.00  0.00     0.041 C 
ATOM     13  O   UNL     1      63.901  26.224  60.899  1.00  0.00    -0.550 OA
ATOM     14  O   UNL     1      65.865  27.362  60.594  1.00  0.00    -0.550 OA
ENDBRANCH  11  12
ENDBRANCH  10  11
ENDBRANCH   9  10
ENDBRANCH   8   9
ENDBRANCH   7   8
ENDBRANCH   6   7
ENDBRANCH   5   6
ENDBRANCH   4   5
ENDBRANCH   3   4
ENDBRANCH   2   3
ENDBRANCH   1   2
BRANCH   1  15
ATOM     15  C   UNL     1      64.150  35.374  61.641  1.00  0.00     0.000 C 
BRANCH  15  16
ATOM     16  C   UNL     1      63.438  36.438  60.790  1.00  0.00     0.000 C 
BRANCH  16  17
ATOM     17  C   UNL     1      62.087  36.918  61.355  1.00  0.00     0.000 C 
BRANCH  17  18
ATOM     18  C   UNL     1      60.931  36.850  60.334  1.00  0.00    -0.000 C 
BRANCH  18  19
ATOM     19  C   UNL     1      61.439  36.835  58.881  1.00  0.00    -0.000 C 
BRANCH  19  20
ATOM     20  C   UNL     1      60.328  36.535  57.862  1.00  0.00    -0.000 C 
BRANCH  20  21
ATOM     21  C   UNL     1      59.173  35.720  58.468  1.00  0.00    -0.000 C 
BRANCH  21  22
ATOM     22  C   UNL     1      58.603  34.670  57.496  1.00  0.00    -0.000 C 
BRANCH  22  23
ATOM     23  C   UNL     1      57.078  34.724  57.289  1.00  0.00    -0.000 C 
BRANCH  23  24
ATOM     24  C   UNL     1      56.397  35.818  58.128  1.00  0.00    -0.000 C 
BRANCH  24  25
ATOM     25  C   UNL     1      55.165  35.299  58.886  1.00  0.00    -0.003 C 
ATOM     26  C   UNL     1      53.851  35.835  58.318  1.00  0.00     0.004 C 
ENDBRANCH  24  25
ENDBRANCH  23  24
ENDBRANCH  22  23
ENDBRANCH  21  22
ENDBRANCH  20  21
ENDBRANCH  19  20
ENDBRANCH  18  19
ENDBRANCH  17  18
ENDBRANCH  16  17
ENDBRANCH  15  16
ENDBRANCH   1  15
TORSDOF 22
ENDMDL
MODEL 4
REMARK VINA RESULT:    -2.850      9.840     13.221
REMARK INTER + INTRA:         -10.934
REMARK INTER:                  -7.064
REMARK INTRA:                  -3.870
REMARK UNBOUND:                -4.418
REMARK SMILES CCCCCCCCCCCCCCCCCCCCCCCC(=O)[O-]
REMARK SMILES IDX 13 1 14 2 15 3 16 4 17 5 18 6 19 7 20 8 21 9 22 10 23 11
REMARK SMILES IDX 24 12 25 13 26 14 12 15 11 16 10 17 9 18 8 19 7 20 6 21 5 22
REMARK SMILES IDX 4 23 3 24 2 25 1 26
REMARK H PARENT
REMARK Flexibility Score: inf
ROOT
ATOM      1  C   UNL     1      53.976  29.628  50.407  1.00  0.00     0.000 C 
ENDROOT
BRANCH   1   2
ATOM      2  C   UNL     1      53.119  28.473  49.844  1.00  0.00     0.000 C 
BRANCH   2   3
ATOM      3  C   UNL     1      53.859  27.124  49.786  1.00  0.00     0.000 C 
BRANCH   3   4
ATOM      4  C   UNL     1      55.387  27.278  49.866  1.00  0.00     0.000 C 
BRANCH   4   5
ATOM      5  C   UNL     1      56.076  26.037  50.454  1.00  0.00     0.000 C 
BRANCH   5   6
ATOM      6  C   UNL     1      56.145  26.066  51.988  1.00  0.00     0.000 C 
BRANCH   6   7
ATOM      7  C   UNL     1      57.595  25.931  52.472  1.00  0.00     0.000 C 
BRANCH   7   8
ATOM      8  C   UNL     1      58.172  24.520  52.260  1.00  0.00     0.000 C 
BRANCH   8   9
ATOM      9  C   UNL     1      59.379  24.172  53.151  1.00  0.00     0.000 C 
BRANCH   9  10
ATOM     10  C   UNL     1      60.380  23.230  52.461  1.00  0.00     0.006 C 
BRANCH  10  11
ATOM     11  C   UNL     1      60.353  23.418  50.941  1.00  0.00     0.053 C 
BRANCH  11  12
ATOM     12  C   UNL     1      60.138  22.106  50.255  1.00  0.00     0.041 C 
ATOM     13  O   UNL     1      59.824  21.086  50.923  1.00  0.00    -0.550 OA
ATOM     14  O   UNL     1      60.332  21.998  48.884  1.00  0.00    -0.550 OA
ENDBRANCH  11  12
ENDBRANCH  10  11
ENDBRANCH   9  10
ENDBRANCH   8   9
ENDBRANCH   7   8
ENDBRANCH   6   7
ENDBRANCH   5   6
ENDBRANCH   4   5
ENDBRANCH   3   4
ENDBRANCH   2   3
ENDBRANCH   1   2
BRANCH   1  15
ATOM     15  C   UNL     1      53.599  29.979  51.857  1.00  0.00     0.000 C 
BRANCH  15  16
ATOM     16  C   UNL     1      54.716  30.739  52.592  1.00  0.00     0.000 C 
BRANCH  16  17
ATOM     17  C   UNL     1      55.998  29.919  52.838  1.00  0.00     0.000 C 
BRANCH  17  18
ATOM     18  C   UNL     1      57.251  30.790  53.075  1.00  0.00    -0.000 C 
BRANCH  18  19
ATOM     19  C   UNL     1      58.361  30.502  52.049  1.00  0.00    -0.000 C 
BRANCH  19  20
ATOM     20  C   UNL     1      58.095  29.233  51.221  1.00  0.00    -0.000 C 
BRANCH  20  21
ATOM     21  C   UNL     1      58.166  29.488  49.707  1.00  0.00    -0.000 C 
BRANCH  21  22
ATOM     22  C   UNL     1      59.317  28.728  49.022  1.00  0.00    -0.000 C 
BRANCH  22  23
ATOM     23  C   UNL     1      59.430  27.236  49.385  1.00  0.00    -0.000 C 
BRANCH  23  24
ATOM     24  C   UNL     1      60.831  26.847  49.888  1.00  0.00    -0.000 C 
BRANCH  24  25
ATOM     25  C   UNL     1      61.001  27.082  51.398  1.00  0.00    -0.003 C 
ATOM     26  C   UNL     1      61.802  28.344  51.715  1.00  0.00     0.004 C 
ENDBRANCH  24  25
ENDBRANCH  23  24
ENDBRANCH  22  23
ENDBRANCH  21  22
ENDBRANCH  20  21
ENDBRANCH  19  20
ENDBRANCH  18  19
ENDBRANCH  17  18
ENDBRANCH  16  17
ENDBRANCH  15  16
ENDBRANCH   1  15
TORSDOF 22
ENDMDL
MODEL 5
REMARK VINA RESULT:    -2.850      3.950      7.682
REMARK INTER + INTRA:         -10.933
REMARK INTER:                  -7.365
REMARK INTRA:                  -3.568
REMARK UNBOUND:                -4.418
REMARK SMILES CCCCCCCCCCCCCCCCCCCCCCCC(=O)[O-]
REMARK SMILES IDX 13 1 14 2 15 3 16 4 17 5 18 6 19 7 20 8 21 9 22 10 23 11
REMARK SMILES IDX 24 12 25 13 26 14 12 15 11 16 10 17 9 18 8 19 7 20 6 21 5 22
REMARK SMILES IDX 4 23 3 24 2 25 1 26
REMARK H PARENT
REMARK Flexibility Score: inf
ROOT
ATOM      1  C   UNL     1      64.036  33.273  60.737  1.00  0.00     0.000 C 
ENDROOT
BRANCH   1   2
ATOM      2  C   UNL     1      62.777  32.735  60.024  1.00  0.00     0.000 C 
BRANCH   2   3
ATOM      3  C   UNL     1      61.480  32.925  60.831  1.00  0.00     0.000 C 
BRANCH   3   4
ATOM      4  C   UNL     1      60.779  31.595  61.154  1.00  0.00     0.000 C 
BRANCH   4   5
ATOM      5  C   UNL     1      61.697  30.604  61.887  1.00  0.00     0.000 C 
BRANCH   5   6
ATOM      6  C   UNL     1      61.545  29.164  61.377  1.00  0.00     0.000 C 
BRANCH   6   7
ATOM      7  C   UNL     1      62.907  28.459  61.317  1.00  0.00     0.000 C 
BRANCH   7   8
ATOM      8  C   UNL     1      63.926  29.193  60.426  1.00  0.00     0.000 C 
BRANCH   8   9
ATOM      9  C   UNL     1      65.247  29.567  61.123  1.00  0.00     0.000 C 
BRANCH   9  10
ATOM     10  C   UNL     1      66.441  28.734  60.629  1.00  0.00     0.006 C 
BRANCH  10  11
ATOM     11  C   UNL     1      67.703  29.049  61.438  1.00  0.00     0.053 C 
BRANCH  11  12
ATOM     12  C   UNL     1      68.897  29.117  60.540  1.00  0.00     0.041 C 
ATOM     13  O   UNL     1      69.149  30.171  59.900  1.00  0.00    -0.550 OA
ATOM     14  O   UNL     1      69.706  28.000  60.372  1.00  0.00    -0.550 OA
ENDBRANCH  11  12
ENDBRANCH  10  11
ENDBRANCH   9  10
ENDBRANCH   8   9
ENDBRANCH   7   8
ENDBRANCH   6   7
ENDBRANCH   5   6
ENDBRANCH   4   5
ENDBRANCH   3   4
ENDBRANCH   2   3
ENDBRANCH   1   2
BRANCH   1  15
ATOM     15  C   UNL     1      64.264  34.771  60.468  1.00  0.00     0.000 C 
BRANCH  15  16
ATOM     16  C   UNL     1      64.436  35.585  61.760  1.00  0.00     0.000 C 
BRANCH  16  17
ATOM     17  C   UNL     1      63.516  36.817  61.874  1.00  0.00     0.000 C 
BRANCH  17  18
ATOM     18  C   UNL     1      62.655  37.062  60.616  1.00  0.00    -0.000 C 
BRANCH  18  19
ATOM     19  C   UNL     1      61.148  37.015  60.924  1.00  0.00    -0.000 C 
BRANCH  19  20
ATOM     20  C   UNL     1      60.334  36.313  59.825  1.00  0.00    -0.000 C 
BRANCH  20  21
ATOM     21  C   UNL     1      61.135  36.118  58.527  1.00  0.00    -0.000 C 
BRANCH  21  22
ATOM     22  C   UNL     1      60.723  34.856  57.749  1.00  0.00    -0.000 C 
BRANCH  22  23
ATOM     23  C   UNL     1      61.778  34.312  56.768  1.00  0.00    -0.000 C 
BRANCH  23  24
ATOM     24  C   UNL     1      63.153  34.980  56.935  1.00  0.00    -0.000 C 
BRANCH  24  25
ATOM     25  C   UNL     1      64.308  33.966  56.918  1.00  0.00    -0.003 C 
ATOM     26  C   UNL     1      63.906  32.621  56.314  1.00  0.00     0.004 C 
ENDBRANCH  24  25
ENDBRANCH  23  24
ENDBRANCH  22  23
ENDBRANCH  21  22
ENDBRANCH  20  21
ENDBRANCH  19  20
ENDBRANCH  18  19
ENDBRANCH  17  18
ENDBRANCH  16  17
ENDBRANCH  15  16
ENDBRANCH   1  15
TORSDOF 22
ENDMDL
MODEL 6
REMARK VINA RESULT:    -2.819      2.909      5.728
REMARK INTER + INTRA:         -10.863
REMARK INTER:                  -6.906
REMARK INTRA:                  -3.957
REMARK UNBOUND:                -4.418
REMARK SMILES CCCCCCCCCCCCCCCCCCCCCCCC(=O)[O-]
REMARK SMILES IDX 13 1 14 2 15 3 16 4 17 5 18 6 19 7 20 8 21 9 22 10 23 11
REMARK SMILES IDX 24 12 25 13 26 14 12 15 11 16 10 17 9 18 8 19 7 20 6 21 5 22
REMARK SMILES IDX 4 23 3 24 2 25 1 26
REMARK H PARENT
REMARK Flexibility Score: inf
ROOT
ATOM      1  C   UNL     1      61.238  28.444  59.937  1.00  0.00     0.000 C 
ENDROOT
BRANCH   1   2
ATOM      2  C   UNL     1      62.169  29.048  58.863  1.00  0.00     0.000 C 
BRANCH   2   3
ATOM      3  C   UNL     1      61.478  30.080  57.954  1.00  0.00     0.000 C 
BRANCH   3   4
ATOM      4  C   UNL     1      59.944  29.976  57.992  1.00  0.00     0.000 C 
BRANCH   4   5
ATOM      5  C   UNL     1      59.266  31.330  58.249  1.00  0.00     0.000 C 
BRANCH   5   6
ATOM      6  C   UNL     1      59.905  32.476  57.450  1.00  0.00     0.000 C 
BRANCH   6   7
ATOM      7  C   UNL     1      59.508  33.838  58.036  1.00  0.00     0.000 C 
BRANCH   7   8
ATOM      8  C   UNL     1      60.720  34.720  58.385  1.00  0.00     0.000 C 
BRANCH   8   9
ATOM      9  C   UNL     1      60.447  35.811  59.437  1.00  0.00     0.000 C 
BRANCH   9  10
ATOM     10  C   UNL     1      61.682  36.676  59.736  1.00  0.00     0.006 C 
BRANCH  10  11
ATOM     11  C   UNL     1      62.267  36.344  61.112  1.00  0.00     0.053 C 
BRANCH  11  12
ATOM     12  C   UNL     1      63.745  36.138  61.018  1.00  0.00     0.041 C 
ATOM     13  O   UNL     1      64.374  35.609  61.971  1.00  0.00    -0.550 OA
ATOM     14  O   UNL     1      64.437  36.576  59.896  1.00  0.00    -0.550 OA
ENDBRANCH  11  12
ENDBRANCH  10  11
ENDBRANCH   9  10
ENDBRANCH   8   9
ENDBRANCH   7   8
ENDBRANCH   6   7
ENDBRANCH   5   6
ENDBRANCH   4   5
ENDBRANCH   3   4
ENDBRANCH   2   3
ENDBRANCH   1   2
BRANCH   1  15
ATOM     15  C   UNL     1      61.853  28.514  61.347  1.00  0.00     0.000 C 
BRANCH  15  16
ATOM     16  C   UNL     1      62.189  29.952  61.776  1.00  0.00     0.000 C 
BRANCH  16  17
ATOM     17  C   UNL     1      60.968  30.878  61.938  1.00  0.00     0.000 C 
BRANCH  17  18
ATOM     18  C   UNL     1      61.000  32.110  61.008  1.00  0.00    -0.000 C 
BRANCH  18  19
ATOM     19  C   UNL     1      62.366  32.819  61.028  1.00  0.00    -0.000 C 
BRANCH  19  20
ATOM     20  C   UNL     1      63.184  32.576  59.748  1.00  0.00    -0.000 C 
BRANCH  20  21
ATOM     21  C   UNL     1      64.659  32.255  60.041  1.00  0.00    -0.000 C 
BRANCH  21  22
ATOM     22  C   UNL     1      65.068  30.841  59.588  1.00  0.00    -0.000 C 
BRANCH  22  23
ATOM     23  C   UNL     1      65.661  29.942  60.688  1.00  0.00    -0.000 C 
BRANCH  23  24
ATOM     24  C   UNL     1      65.938  28.508  60.206  1.00  0.00    -0.000 C 
BRANCH  24  25
ATOM     25  C   UNL     1      67.213  27.913  60.826  1.00  0.00    -0.003 C 
ATOM     26  C   UNL     1      67.870  28.849  61.840  1.00  0.00     0.004 C 
ENDBRANCH  24  25
ENDBRANCH  23  24
ENDBRANCH  22  23
ENDBRANCH  21  22
ENDBRANCH  20  21
ENDBRANCH  19  20
ENDBRANCH  18  19
ENDBRANCH  17  18
ENDBRANCH  16  17
ENDBRANCH  15  16
ENDBRANCH   1  15
TORSDOF 22
ENDMDL
MODEL 7
REMARK VINA RESULT:    -2.807      9.194     12.010
REMARK INTER + INTRA:         -10.836
REMARK INTER:                  -7.044
REMARK INTRA:                  -3.792
REMARK UNBOUND:                -4.418
REMARK SMILES CCCCCCCCCCCCCCCCCCCCCCCC(=O)[O-]
REMARK SMILES IDX 13 1 14 2 15 3 16 4 17 5 18 6 19 7 20 8 21 9 22 10 23 11
REMARK SMILES IDX 24 12 25 13 26 14 12 15 11 16 10 17 9 18 8 19 7 20 6 21 5 22
REMARK SMILES IDX 4 23 3 24 2 25 1 26
REMARK H PARENT
REMARK Flexibility Score: inf
ROOT
ATOM      1  C   UNL     1      57.911  27.539  52.576  1.00  0.00     0.000 C 
ENDROOT
BRANCH   1   2
ATOM      2  C   UNL     1      56.640  26.757  52.180  1.00  0.00     0.000 C 
BRANCH   2   3
ATOM      3  C   UNL     1      56.641  26.273  50.719  1.00  0.00     0.000 C 
BRANCH   3   4
ATOM      4  C   UNL     1      55.407  26.747  49.933  1.00  0.00     0.000 C 
BRANCH   4   5
ATOM      5  C   UNL     1      55.128  28.246  50.118  1.00  0.00     0.000 C 
BRANCH   5   6
ATOM      6  C   UNL     1      53.635  28.591  50.009  1.00  0.00     0.000 C 
BRANCH   6   7
ATOM      7  C   UNL     1      53.177  29.419  51.218  1.00  0.00     0.000 C 
BRANCH   7   8
ATOM      8  C   UNL     1      53.518  28.757  52.565  1.00  0.00     0.000 C 
BRANCH   8   9
ATOM      9  C   UNL     1      54.120  29.705  53.620  1.00  0.00     0.000 C 
BRANCH   9  10
ATOM     10  C   UNL     1      53.965  31.189  53.250  1.00  0.00     0.006 C 
BRANCH  10  11
ATOM     11  C   UNL     1      54.819  32.075  54.162  1.00  0.00     0.053 C 
BRANCH  11  12
ATOM     12  C   UNL     1      55.546  33.106  53.358  1.00  0.00     0.041 C 
ATOM     13  O   UNL     1      56.772  32.966  53.108  1.00  0.00    -0.550 OA
ATOM     14  O   UNL     1      54.882  34.246  52.926  1.00  0.00    -0.550 OA
ENDBRANCH  11  12
ENDBRANCH  10  11
ENDBRANCH   9  10
ENDBRANCH   8   9
ENDBRANCH   7   8
ENDBRANCH   6   7
ENDBRANCH   5   6
ENDBRANCH   4   5
ENDBRANCH   3   4
ENDBRANCH   2   3
ENDBRANCH   1   2
BRANCH   1  15
ATOM     15  C   UNL     1      57.601  28.996  52.967  1.00  0.00     0.000 C 
BRANCH  15  16
ATOM     16  C   UNL     1      57.661  29.956  51.768  1.00  0.00     0.000 C 
BRANCH  16  17
ATOM     17  C   UNL     1      58.899  29.785  50.866  1.00  0.00     0.000 C 
BRANCH  17  18
ATOM     18  C   UNL     1      58.562  29.298  49.440  1.00  0.00    -0.000 C 
BRANCH  18  19
ATOM     19  C   UNL     1      59.477  28.146  48.987  1.00  0.00    -0.000 C 
BRANCH  19  20
ATOM     20  C   UNL     1      60.789  28.076  49.786  1.00  0.00    -0.000 C 
BRANCH  20  21
ATOM     21  C   UNL     1      61.198  26.634  50.128  1.00  0.00    -0.000 C 
BRANCH  21  22
ATOM     22  C   UNL     1      60.139  25.595  49.717  1.00  0.00    -0.000 C 
BRANCH  22  23
ATOM     23  C   UNL     1      59.766  24.569  50.803  1.00  0.00    -0.000 C 
BRANCH  23  24
ATOM     24  C   UNL     1      60.938  23.650  51.187  1.00  0.00    -0.000 C 
BRANCH  24  25
ATOM     25  C   UNL     1      61.467  22.840  49.993  1.00  0.00    -0.003 C 
ATOM     26  C   UNL     1      60.370  22.051  49.279  1.00  0.00     0.004 C 
ENDBRANCH  24  25
ENDBRANCH  23  24
ENDBRANCH  22  23
ENDBRANCH  21  22
ENDBRANCH  20  21
ENDBRANCH  19  20
ENDBRANCH  18  19
ENDBRANCH  17  18
ENDBRANCH  16  17
ENDBRANCH  15  16
ENDBRANCH   1  15
TORSDOF 22
ENDMDL
MODEL 8
REMARK VINA RESULT:    -2.776      8.924     11.673
REMARK INTER + INTRA:         -10.764
REMARK INTER:                  -5.994
REMARK INTRA:                  -4.770
REMARK UNBOUND:                -4.418
REMARK SMILES CCCCCCCCCCCCCCCCCCCCCCCC(=O)[O-]
REMARK SMILES IDX 13 1 14 2 15 3 16 4 17 5 18 6 19 7 20 8 21 9 22 10 23 11
REMARK SMILES IDX 24 12 25 13 26 14 12 15 11 16 10 17 9 18 8 19 7 20 6 21 5 22
REMARK SMILES IDX 4 23 3 24 2 25 1 26
REMARK H PARENT
REMARK Flexibility Score: inf
ROOT
ATOM      1  C   UNL     1      61.764  29.899  52.397  1.00  0.00     0.000 C 
ENDROOT
BRANCH   1   2
ATOM      2  C   UNL     1      60.767  28.799  52.821  1.00  0.00     0.000 C 
BRANCH   2   3
ATOM      3  C   UNL     1      59.351  29.327  53.115  1.00  0.00     0.000 C 
BRANCH   3   4
ATOM      4  C   UNL     1      58.279  28.226  53.055  1.00  0.00     0.000 C 
BRANCH   4   5
ATOM      5  C   UNL     1      57.014  28.671  52.305  1.00  0.00     0.000 C 
BRANCH   5   6
ATOM      6  C   UNL     1      57.311  29.682  51.188  1.00  0.00     0.000 C 
BRANCH   6   7
ATOM      7  C   UNL     1      57.622  28.962  49.868  1.00  0.00     0.000 C 
BRANCH   7   8
ATOM      8  C   UNL     1      59.006  29.321  49.297  1.00  0.00     0.000 C 
BRANCH   8   9
ATOM      9  C   UNL     1      60.008  28.154  49.238  1.00  0.00     0.000 C 
BRANCH   9  10
ATOM     10  C   UNL     1      59.326  26.777  49.271  1.00  0.00     0.006 C 
BRANCH  10  11
ATOM     11  C   UNL     1      59.777  25.968  50.491  1.00  0.00     0.053 C 
BRANCH  11  12
ATOM     12  C   UNL     1      58.634  25.182  51.051  1.00  0.00     0.041 C 
ATOM     13  O   UNL     1      57.449  25.512  50.785  1.00  0.00    -0.550 OA
ATOM     14  O   UNL     1      58.877  24.115  51.905  1.00  0.00    -0.550 OA
ENDBRANCH  11  12
ENDBRANCH  10  11
ENDBRANCH   9  10
ENDBRANCH   8   9
ENDBRANCH   7   8
ENDBRANCH   6   7
ENDBRANCH   5   6
ENDBRANCH   4   5
ENDBRANCH   3   4
ENDBRANCH   2   3
ENDBRANCH   1   2
BRANCH   1  15
ATOM     15  C   UNL     1      61.061  31.108  51.756  1.00  0.00     0.000 C 
BRANCH  15  16
ATOM     16  C   UNL     1      61.772  31.602  50.486  1.00  0.00     0.000 C 
BRANCH  16  17
ATOM     17  C   UNL     1      62.757  30.591  49.865  1.00  0.00     0.000 C 
BRANCH  17  18
ATOM     18  C   UNL     1      64.237  31.015  49.990  1.00  0.00    -0.000 C 
BRANCH  18  19
ATOM     19  C   UNL     1      64.877  31.305  48.621  1.00  0.00    -0.000 C 
BRANCH  19  20
ATOM     20  C   UNL     1      65.677  30.113  48.071  1.00  0.00    -0.000 C 
BRANCH  20  21
ATOM     21  C   UNL     1      64.852  29.235  47.116  1.00  0.00    -0.000 C 
BRANCH  21  22
ATOM     22  C   UNL     1      65.100  27.729  47.317  1.00  0.00    -0.000 C 
BRANCH  22  23
ATOM     23  C   UNL     1      64.998  27.233  48.771  1.00  0.00    -0.000 C 
BRANCH  23  24
ATOM     24  C   UNL     1      63.551  26.944  49.205  1.00  0.00    -0.000 C 
BRANCH  24  25
ATOM     25  C   UNL     1      63.354  27.077  50.724  1.00  0.00    -0.003 C 
ATOM     26  C   UNL     1      64.607  27.575  51.443  1.00  0.00     0.004 C 
ENDBRANCH  24  25
ENDBRANCH  23  24
ENDBRANCH  22  23
ENDBRANCH  21  22
ENDBRANCH  20  21
ENDBRANCH  19  20
ENDBRANCH  18  19
ENDBRANCH  17  18
ENDBRANCH  16  17
ENDBRANCH  15  16
ENDBRANCH   1  15
TORSDOF 22
ENDMDL
MODEL 9
REMARK VINA RESULT:    -2.769      3.709      8.074
REMARK INTER + INTRA:         -10.749
REMARK INTER:                  -6.645
REMARK INTRA:                  -4.103
REMARK UNBOUND:                -4.418
REMARK SMILES CCCCCCCCCCCCCCCCCCCCCCCC(=O)[O-]
REMARK SMILES IDX 13 1 14 2 15 3 16 4 17 5 18 6 19 7 20 8 21 9 22 10 23 11
REMARK SMILES IDX 24 12 25 13 26 14 12 15 11 16 10 17 9 18 8 19 7 20 6 21 5 22
REMARK SMILES IDX 4 23 3 24 2 25 1 26
REMARK H PARENT
REMARK Flexibility Score: inf
ROOT
ATOM      1  C   UNL     1      61.661  28.979  58.409  1.00  0.00     0.000 C 
ENDROOT
BRANCH   1   2
ATOM      2  C   UNL     1      62.482  27.707  58.709  1.00  0.00     0.000 C 
BRANCH   2   3
ATOM      3  C   UNL     1      61.725  26.665  59.552  1.00  0.00     0.000 C 
BRANCH   3   4
ATOM      4  C   UNL     1      62.494  26.248  60.817  1.00  0.00     0.000 C 
BRANCH   4   5
ATOM      5  C   UNL     1      61.840  26.767  62.106  1.00  0.00     0.000 C 
BRANCH   5   6
ATOM      6  C   UNL     1      61.381  25.635  63.037  1.00  0.00     0.000 C 
BRANCH   6   7
ATOM      7  C   UNL     1      60.377  24.717  62.326  1.00  0.00     0.000 C 
BRANCH   7   8
ATOM      8  C   UNL     1      58.960  24.799  62.920  1.00  0.00     0.000 C 
BRANCH   8   9
ATOM      9  C   UNL     1      57.856  25.189  61.919  1.00  0.00     0.000 C 
BRANCH   9  10
ATOM     10  C   UNL     1      58.276  26.333  60.981  1.00  0.00     0.006 C 
BRANCH  10  11
ATOM     11  C   UNL     1      58.056  27.696  61.644  1.00  0.00     0.053 C 
BRANCH  11  12
ATOM     12  C   UNL     1      56.620  28.102  61.542  1.00  0.00     0.041 C 
ATOM     13  O   UNL     1      55.940  28.292  62.585  1.00  0.00    -0.550 OA
ATOM     14  O   UNL     1      56.018  28.223  60.297  1.00  0.00    -0.550 OA
ENDBRANCH  11  12
ENDBRANCH  10  11
ENDBRANCH   9  10
ENDBRANCH   8   9
ENDBRANCH   7   8
ENDBRANCH   6   7
ENDBRANCH   5   6
ENDBRANCH   4   5
ENDBRANCH   3   4
ENDBRANCH   2   3
ENDBRANCH   1   2
BRANCH   1  15
ATOM     15  C   UNL     1      60.560  29.223  59.456  1.00  0.00     0.000 C 
BRANCH  15  16
ATOM     16  C   UNL     1      60.454  30.700  59.871  1.00  0.00     0.000 C 
BRANCH  16  17
ATOM     17  C   UNL     1      60.773  30.978  61.354  1.00  0.00     0.000 C 
BRANCH  17  18
ATOM     18  C   UNL     1      61.931  30.120  61.906  1.00  0.00    -0.000 C 
BRANCH  18  19
ATOM     19  C   UNL     1      63.295  30.815  61.750  1.00  0.00    -0.000 C 
BRANCH  19  20
ATOM     20  C   UNL     1      64.246  30.059  60.807  1.00  0.00    -0.000 C 
BRANCH  20  21
ATOM     21  C   UNL     1      64.827  30.960  59.705  1.00  0.00    -0.000 C 
BRANCH  21  22
ATOM     22  C   UNL     1      64.437  32.440  59.870  1.00  0.00    -0.000 C 
BRANCH  22  23
ATOM     23  C   UNL     1      63.371  32.956  58.885  1.00  0.00    -0.000 C 
BRANCH  23  24
ATOM     24  C   UNL     1      62.290  33.811  59.566  1.00  0.00    -0.000 C 
BRANCH  24  25
ATOM     25  C   UNL     1      62.763  34.407  60.901  1.00  0.00    -0.003 C 
ATOM     26  C   UNL     1      62.752  35.936  60.905  1.00  0.00     0.004 C 
ENDBRANCH  24  25
ENDBRANCH  23  24
ENDBRANCH  22  23
ENDBRANCH  21  22
ENDBRANCH  20  21
ENDBRANCH  19  20
ENDBRANCH  18  19
ENDBRANCH  17  18
ENDBRANCH  16  17
ENDBRANCH  15  16
ENDBRANCH   1  15
TORSDOF 22
ENDMDL
