MODEL 1
REMARK VINA RESULT:    -1.734      0.000      0.000
REMARK INTER + INTRA:          -5.294
REMARK INTER:                  -3.965
REMARK INTRA:                  -1.329
REMARK UNBOUND:                -1.329
REMARK SMILES CCCCCCCCCCCCCCCCCCCCCCCC(=O)[O-]
REMARK SMILES IDX 13 1 14 2 15 3 16 4 17 5 18 6 19 7 20 8 21 9 22 10 23 11
REMARK SMILES IDX 24 12 25 13 26 14 12 15 11 16 10 17 9 18 8 19 7 20 6 21 5 22
REMARK SMILES IDX 4 23 3 24 2 25 1 26
REMARK H PARENT
REMARK Flexibility Score: inf
ROOT
ATOM      1  C   UNL     1       3.304   2.366  15.964  1.00  0.00     0.000 C 
ENDROOT
BRANCH   1   2
ATOM      2  C   UNL     1       2.904   3.136  14.684  1.00  0.00     0.000 C 
BRANCH   2   3
ATOM      3  C   UNL     1       4.032   4.013  14.109  1.00  0.00     0.000 C 
BRANCH   3   4
ATOM      4  C   UNL     1       4.754   3.416  12.885  1.00  0.00     0.000 C 
BRANCH   4   5
ATOM      5  C   UNL     1       4.898   1.880  12.893  1.00  0.00     0.000 C 
BRANCH   5   6
ATOM      6  C   UNL     1       6.306   1.349  13.226  1.00  0.00     0.000 C 
BRANCH   6   7
ATOM      7  C   UNL     1       6.548  -0.130  12.875  1.00  0.00     0.000 C 
BRANCH   7   8
ATOM      8  C   UNL     1       5.699  -1.087  13.729  1.00  0.00     0.000 C 
BRANCH   8   9
ATOM      9  C   UNL     1       4.826  -2.023  12.876  1.00  0.00     0.000 C 
BRANCH   9  10
ATOM     10  C   UNL     1       3.367  -2.077  13.355  1.00  0.00     0.006 C 
BRANCH  10  11
ATOM     11  C   UNL     1       2.887  -0.695  13.810  1.00  0.00     0.053 C 
BRANCH  11  12
ATOM     12  C   UNL     1       1.683  -0.813  14.692  1.00  0.00     0.041 C 
ATOM     13  O   UNL     1       0.773   0.056  14.643  1.00  0.00    -0.550 OA
ATOM     14  O   UNL     1       1.561  -1.890  15.562  1.00  0.00    -0.550 OA
ENDBRANCH  11  12
ENDBRANCH  10  11
ENDBRANCH   9  10
ENDBRANCH   8   9
ENDBRANCH   7   8
ENDBRANCH   6   7
ENDBRANCH   5   6
ENDBRANCH   4   5
ENDBRANCH   3   4
ENDBRANCH   2   3
ENDBRANCH   1   2
BRANCH   1  15
ATOM     15  C   UNL     1       4.803   2.447  16.300  1.00  0.00     0.000 C 
BRANCH  15  16
ATOM     16  C   UNL     1       5.398   1.079  16.676  1.00  0.00     0.000 C 
BRANCH  16  17
ATOM     17  C   UNL     1       4.381  -0.068  16.540  1.00  0.00     0.000 C 
BRANCH  17  18
ATOM     18  C   UNL     1       4.933  -1.475  16.851  1.00  0.00    -0.000 C 
BRANCH  18  19
ATOM     19  C   UNL     1       6.337  -1.501  17.485  1.00  0.00    -0.000 C 
BRANCH  19  20
ATOM     20  C   UNL     1       6.356  -1.778  19.000  1.00  0.00    -0.000 C 
BRANCH  20  21
ATOM     21  C   UNL     1       6.193  -0.509  19.864  1.00  0.00    -0.000 C 
BRANCH  21  22
ATOM     22  C   UNL     1       4.730  -0.044  19.956  1.00  0.00    -0.000 C 
BRANCH  22  23
ATOM     23  C   UNL     1       4.503   1.328  19.301  1.00  0.00    -0.000 C 
BRANCH  23  24
ATOM     24  C   UNL     1       3.424   2.158  20.021  1.00  0.00    -0.000 C 
BRANCH  24  25
ATOM     25  C   UNL     1       2.095   1.400  20.156  1.00  0.00    -0.003 C 
ATOM     26  C   UNL     1       0.921   2.324  20.478  1.00  0.00     0.004 C 
ENDBRANCH  24  25
ENDBRANCH  23  24
ENDBRANCH  22  23
ENDBRANCH  21  22
ENDBRANCH  20  21
ENDBRANCH  19  20
ENDBRANCH  18  19
ENDBRANCH  17  18
ENDBRANCH  16  17
ENDBRANCH  15  16
ENDBRANCH   1  15
TORSDOF 22
ENDMDL
MODEL 2
REMARK VINA RESULT:    -0.906      0.975      2.809
REMARK INTER + INTRA:          -3.400
REMARK INTER:                  -2.649
REMARK INTRA:                  -0.751
REMARK UNBOUND:                -1.329
REMARK SMILES CCCCCCCCCCCCCCCCCCCCCCCC(=O)[O-]
REMARK SMILES IDX 13 1 14 2 15 3 16 4 17 5 18 6 19 7 20 8 21 9 22 10 23 11
REMARK SMILES IDX 24 12 25 13 26 14 12 15 11 16 10 17 9 18 8 19 7 20 6 21 5 22
REMARK SMILES IDX 4 23 3 24 2 25 1 26
REMARK H PARENT
REMARK Flexibility Score: inf
ROOT
ATOM      1  C   UNL     1       5.939   0.226  12.878  1.00  0.00     0.000 C 
ENDROOT
BRANCH   1   2
ATOM      2  C   UNL     1       6.330   1.721  12.888  1.00  0.00     0.000 C 
BRANCH   2   3
ATOM      3  C   UNL     1       5.124   2.680  12.876  1.00  0.00     0.000 C 
BRANCH   3   4
ATOM      4  C   UNL     1       4.918   3.473  14.181  1.00  0.00     0.000 C 
BRANCH   4   5
ATOM      5  C   UNL     1       3.519   4.101  14.354  1.00  0.00     0.000 C 
BRANCH   5   6
ATOM      6  C   UNL     1       2.423   3.144  14.864  1.00  0.00     0.000 C 
BRANCH   6   7
ATOM      7  C   UNL     1       2.776   2.370  16.147  1.00  0.00     0.000 C 
BRANCH   7   8
ATOM      8  C   UNL     1       3.939   1.384  15.942  1.00  0.00     0.000 C 
BRANCH   8   9
ATOM      9  C   UNL     1       3.458  -0.065  15.758  1.00  0.00     0.000 C 
BRANCH   9  10
ATOM     10  C   UNL     1       3.262  -0.443  14.281  1.00  0.00     0.006 C 
BRANCH  10  11
ATOM     11  C   UNL     1       1.844  -0.104  13.810  1.00  0.00     0.053 C 
BRANCH  11  12
ATOM     12  C   UNL     1       0.822  -0.714  14.719  1.00  0.00     0.041 C 
ATOM     13  O   UNL     1       0.713  -1.967  14.800  1.00  0.00    -0.550 OA
ATOM     14  O   UNL     1      -0.004   0.100  15.484  1.00  0.00    -0.550 OA
ENDBRANCH  11  12
ENDBRANCH  10  11
ENDBRANCH   9  10
ENDBRANCH   8   9
ENDBRANCH   7   8
ENDBRANCH   6   7
ENDBRANCH   5   6
ENDBRANCH   4   5
ENDBRANCH   3   4
ENDBRANCH   2   3
ENDBRANCH   1   2
BRANCH   1  15
ATOM     15  C   UNL     1       7.058  -0.717  13.354  1.00  0.00     0.000 C 
BRANCH  15  16
ATOM     16  C   UNL     1       6.527  -2.102  13.763  1.00  0.00     0.000 C 
BRANCH  16  17
ATOM     17  C   UNL     1       5.677  -2.058  15.046  1.00  0.00     0.000 C 
BRANCH  17  18
ATOM     18  C   UNL     1       6.357  -1.392  16.260  1.00  0.00    -0.000 C 
BRANCH  18  19
ATOM     19  C   UNL     1       5.696  -1.685  17.621  1.00  0.00    -0.000 C 
BRANCH  19  20
ATOM     20  C   UNL     1       6.648  -1.609  18.830  1.00  0.00    -0.000 C 
BRANCH  20  21
ATOM     21  C   UNL     1       6.157  -0.661  19.945  1.00  0.00    -0.000 C 
BRANCH  21  22
ATOM     22  C   UNL     1       4.732  -0.141  19.690  1.00  0.00    -0.000 C 
BRANCH  22  23
ATOM     23  C   UNL     1       4.719   1.212  18.960  1.00  0.00    -0.000 C 
BRANCH  23  24
ATOM     24  C   UNL     1       3.575   2.129  19.431  1.00  0.00    -0.000 C 
BRANCH  24  25
ATOM     25  C   UNL     1       2.348   1.337  19.908  1.00  0.00    -0.003 C 
ATOM     26  C   UNL     1       1.162   2.240  20.249  1.00  0.00     0.004 C 
ENDBRANCH  24  25
ENDBRANCH  23  24
ENDBRANCH  22  23
ENDBRANCH  21  22
ENDBRANCH  20  21
ENDBRANCH  19  20
ENDBRANCH  18  19
ENDBRANCH  17  18
ENDBRANCH  16  17
ENDBRANCH  15  16
ENDBRANCH   1  15
TORSDOF 22
ENDMDL
MODEL 3
REMARK VINA RESULT:    -0.740      2.038      5.944
REMARK INTER + INTRA:          -3.021
REMARK INTER:                  -1.286
REMARK INTRA:                  -1.735
REMARK UNBOUND:                -1.329
REMARK SMILES CCCCCCCCCCCCCCCCCCCCCCCC(=O)[O-]
REMARK SMILES IDX 13 1 14 2 15 3 16 4 17 5 18 6 19 7 20 8 21 9 22 10 23 11
REMARK SMILES IDX 24 12 25 13 26 14 12 15 11 16 10 17 9 18 8 19 7 20 6 21 5 22
REMARK SMILES IDX 4 23 3 24 2 25 1 26
REMARK H PARENT
REMARK Flexibility Score: inf
ROOT
ATOM      1  C   UNL     1       5.936   1.291  14.987  1.00  0.00     0.000 C 
ENDROOT
BRANCH   1   2
ATOM      2  C   UNL     1       5.702   0.633  16.366  1.00  0.00     0.000 C 
BRANCH   2   3
ATOM      3  C   UNL     1       5.335  -0.862  16.288  1.00  0.00     0.000 C 
BRANCH   3   4
ATOM      4  C   UNL     1       4.903  -1.492  17.627  1.00  0.00     0.000 C 
BRANCH   4   5
ATOM      5  C   UNL     1       6.041  -2.123  18.454  1.00  0.00     0.000 C 
BRANCH   5   6
ATOM      6  C   UNL     1       6.585  -1.252  19.604  1.00  0.00     0.000 C 
BRANCH   6   7
ATOM      7  C   UNL     1       6.183   0.233  19.545  1.00  0.00     0.000 C 
BRANCH   7   8
ATOM      8  C   UNL     1       4.779   0.490  20.118  1.00  0.00     0.000 C 
BRANCH   8   9
ATOM      9  C   UNL     1       4.097   1.713  19.482  1.00  0.00     0.000 C 
BRANCH   9  10
ATOM     10  C   UNL     1       2.991   1.326  18.487  1.00  0.00     0.006 C 
BRANCH  10  11
ATOM     11  C   UNL     1       1.674   2.031  18.829  1.00  0.00     0.053 C 
BRANCH  11  12
ATOM     12  C   UNL     1       1.363   1.901  20.288  1.00  0.00     0.041 C 
ATOM     13  O   UNL     1       1.181   2.930  20.991  1.00  0.00    -0.550 OA
ATOM     14  O   UNL     1       1.265   0.643  20.869  1.00  0.00    -0.550 OA
ENDBRANCH  11  12
ENDBRANCH  10  11
ENDBRANCH   9  10
ENDBRANCH   8   9
ENDBRANCH   7   8
ENDBRANCH   6   7
ENDBRANCH   5   6
ENDBRANCH   4   5
ENDBRANCH   3   4
ENDBRANCH   2   3
ENDBRANCH   1   2
BRANCH   1  15
ATOM     15  C   UNL     1       6.549   0.345  13.940  1.00  0.00     0.000 C 
BRANCH  15  16
ATOM     16  C   UNL     1       5.529  -0.095  12.875  1.00  0.00     0.000 C 
BRANCH  16  17
ATOM     17  C   UNL     1       5.253  -1.609  12.907  1.00  0.00     0.000 C 
BRANCH  17  18
ATOM     18  C   UNL     1       3.784  -2.003  13.164  1.00  0.00    -0.000 C 
BRANCH  18  19
ATOM     19  C   UNL     1       3.308  -1.839  14.620  1.00  0.00    -0.000 C 
BRANCH  19  20
ATOM     20  C   UNL     1       1.785  -1.675  14.787  1.00  0.00    -0.000 C 
BRANCH  20  21
ATOM     21  C   UNL     1       1.304  -0.213  14.672  1.00  0.00    -0.000 C 
BRANCH  21  22
ATOM     22  C   UNL     1       2.468   0.776  14.481  1.00  0.00    -0.000 C 
BRANCH  22  23
ATOM     23  C   UNL     1       2.181   2.152  15.102  1.00  0.00    -0.000 C 
BRANCH  23  24
ATOM     24  C   UNL     1       3.365   3.126  14.958  1.00  0.00    -0.000 C 
BRANCH  24  25
ATOM     25  C   UNL     1       3.466   3.722  13.546  1.00  0.00    -0.003 C 
ATOM     26  C   UNL     1       4.824   3.461  12.893  1.00  0.00     0.004 C 
ENDBRANCH  24  25
ENDBRANCH  23  24
ENDBRANCH  22  23
ENDBRANCH  21  22
ENDBRANCH  20  21
ENDBRANCH  19  20
ENDBRANCH  18  19
ENDBRANCH  17  18
ENDBRANCH  16  17
ENDBRANCH  15  16
ENDBRANCH   1  15
TORSDOF 22
ENDMDL
MODEL 4
REMARK VINA RESULT:    -0.384      1.398      3.189
REMARK INTER + INTRA:          -2.207
REMARK INTER:                  -1.357
REMARK INTRA:                  -0.850
REMARK UNBOUND:                -1.329
REMARK SMILES CCCCCCCCCCCCCCCCCCCCCCCC(=O)[O-]
REMARK SMILES IDX 13 1 14 2 15 3 16 4 17 5 18 6 19 7 20 8 21 9 22 10 23 11
REMARK SMILES IDX 24 12 25 13 26 14 12 15 11 16 10 17 9 18 8 19 7 20 6 21 5 22
REMARK SMILES IDX 4 23 3 24 2 25 1 26
REMARK H PARENT
REMARK Flexibility Score: inf
ROOT
ATOM      1  C   UNL     1       5.296   1.316  14.256  1.00  0.00     0.000 C 
ENDROOT
BRANCH   1   2
ATOM      2  C   UNL     1       5.075   2.017  12.896  1.00  0.00     0.000 C 
BRANCH   2   3
ATOM      3  C   UNL     1       4.992   3.553  12.995  1.00  0.00     0.000 C 
BRANCH   3   4
ATOM      4  C   UNL     1       5.172   4.119  14.417  1.00  0.00     0.000 C 
BRANCH   4   5
ATOM      5  C   UNL     1       3.863   4.446  15.164  1.00  0.00     0.000 C 
BRANCH   5   6
ATOM      6  C   UNL     1       2.566   4.097  14.409  1.00  0.00     0.000 C 
BRANCH   6   7
ATOM      7  C   UNL     1       1.726   2.971  15.037  1.00  0.00     0.000 C 
BRANCH   7   8
ATOM      8  C   UNL     1       2.474   1.628  15.079  1.00  0.00     0.000 C 
BRANCH   8   9
ATOM      9  C   UNL     1       1.766   0.531  14.265  1.00  0.00     0.000 C 
BRANCH   9  10
ATOM     10  C   UNL     1       2.739  -0.292  13.406  1.00  0.00     0.006 C 
BRANCH  10  11
ATOM     11  C   UNL     1       2.739  -1.764  13.833  1.00  0.00     0.053 C 
BRANCH  11  12
ATOM     12  C   UNL     1       1.809  -1.983  14.987  1.00  0.00     0.041 C 
ATOM     13  O   UNL     1       2.267  -2.124  16.152  1.00  0.00    -0.550 OA
ATOM     14  O   UNL     1       0.436  -2.021  14.777  1.00  0.00    -0.550 OA
ENDBRANCH  11  12
ENDBRANCH  10  11
ENDBRANCH   9  10
ENDBRANCH   8   9
ENDBRANCH   7   8
ENDBRANCH   6   7
ENDBRANCH   5   6
ENDBRANCH   4   5
ENDBRANCH   3   4
ENDBRANCH   2   3
ENDBRANCH   1   2
BRANCH   1  15
ATOM     15  C   UNL     1       6.737   0.827  14.480  1.00  0.00     0.000 C 
BRANCH  15  16
ATOM     16  C   UNL     1       7.254  -0.037  13.316  1.00  0.00     0.000 C 
BRANCH  16  17
ATOM     17  C   UNL     1       6.696  -1.472  13.348  1.00  0.00     0.000 C 
BRANCH  17  18
ATOM     18  C   UNL     1       6.614  -2.112  14.748  1.00  0.00    -0.000 C 
BRANCH  18  19
ATOM     19  C   UNL     1       5.219  -2.074  15.404  1.00  0.00    -0.000 C 
BRANCH  19  20
ATOM     20  C   UNL     1       5.231  -1.930  16.938  1.00  0.00    -0.000 C 
BRANCH  20  21
ATOM     21  C   UNL     1       6.544  -1.338  17.494  1.00  0.00    -0.000 C 
BRANCH  21  22
ATOM     22  C   UNL     1       6.588  -1.345  19.032  1.00  0.00    -0.000 C 
BRANCH  22  23
ATOM     23  C   UNL     1       6.081  -0.028  19.643  1.00  0.00    -0.000 C 
BRANCH  23  24
ATOM     24  C   UNL     1       4.546   0.083  19.623  1.00  0.00    -0.000 C 
BRANCH  24  25
ATOM     25  C   UNL     1       4.060   1.367  18.934  1.00  0.00    -0.003 C 
ATOM     26  C   UNL     1       4.781   1.634  17.613  1.00  0.00     0.004 C 
ENDBRANCH  24  25
ENDBRANCH  23  24
ENDBRANCH  22  23
ENDBRANCH  21  22
ENDBRANCH  20  21
ENDBRANCH  19  20
ENDBRANCH  18  19
ENDBRANCH  17  18
ENDBRANCH  16  17
ENDBRANCH  15  16
ENDBRANCH   1  15
TORSDOF 22
ENDMDL
MODEL 5
REMARK VINA RESULT:    -0.297      2.011      4.480
REMARK INTER + INTRA:          -2.009
REMARK INTER:                  -1.428
REMARK INTRA:                  -0.581
REMARK UNBOUND:                -1.329
REMARK SMILES CCCCCCCCCCCCCCCCCCCCCCCC(=O)[O-]
REMARK SMILES IDX 13 1 14 2 15 3 16 4 17 5 18 6 19 7 20 8 21 9 22 10 23 11
REMARK SMILES IDX 24 12 25 13 26 14 12 15 11 16 10 17 9 18 8 19 7 20 6 21 5 22
REMARK SMILES IDX 4 23 3 24 2 25 1 26
REMARK H PARENT
REMARK Flexibility Score: inf
ROOT
ATOM      1  C   UNL     1       1.339   1.219  16.123  1.00  0.00     0.000 C 
ENDROOT
BRANCH   1   2
ATOM      2  C   UNL     1       2.384   2.006  15.300  1.00  0.00     0.000 C 
BRANCH   2   3
ATOM      3  C   UNL     1       1.864   3.350  14.756  1.00  0.00     0.000 C 
BRANCH   3   4
ATOM      4  C   UNL     1       2.884   4.147  13.920  1.00  0.00     0.000 C 
BRANCH   4   5
ATOM      5  C   UNL     1       4.342   3.656  14.020  1.00  0.00     0.000 C 
BRANCH   5   6
ATOM      6  C   UNL     1       4.802   2.717  12.886  1.00  0.00     0.000 C 
BRANCH   6   7
ATOM      7  C   UNL     1       5.809   1.631  13.305  1.00  0.00     0.000 C 
BRANCH   7   8
ATOM      8  C   UNL     1       6.296   1.802  14.754  1.00  0.00     0.000 C 
BRANCH   8   9
ATOM      9  C   UNL     1       5.418   1.045  15.765  1.00  0.00     0.000 C 
BRANCH   9  10
ATOM     10  C   UNL     1       4.997   1.918  16.958  1.00  0.00     0.006 C 
BRANCH  10  11
ATOM     11  C   UNL     1       3.716   1.383  17.606  1.00  0.00     0.053 C 
BRANCH  11  12
ATOM     12  C   UNL     1       3.739   1.599  19.088  1.00  0.00     0.041 C 
ATOM     13  O   UNL     1       4.812   1.913  19.666  1.00  0.00    -0.550 OA
ATOM     14  O   UNL     1       2.571   1.463  19.829  1.00  0.00    -0.550 OA
ENDBRANCH  11  12
ENDBRANCH  10  11
ENDBRANCH   9  10
ENDBRANCH   8   9
ENDBRANCH   7   8
ENDBRANCH   6   7
ENDBRANCH   5   6
ENDBRANCH   4   5
ENDBRANCH   3   4
ENDBRANCH   2   3
ENDBRANCH   1   2
BRANCH   1  15
ATOM     15  C   UNL     1       0.649   0.090  15.340  1.00  0.00     0.000 C 
BRANCH  15  16
ATOM     16  C   UNL     1       1.297  -0.156  13.966  1.00  0.00     0.000 C 
BRANCH  16  17
ATOM     17  C   UNL     1       2.461  -1.161  14.030  1.00  0.00     0.000 C 
BRANCH  17  18
ATOM     18  C   UNL     1       3.636  -0.864  13.075  1.00  0.00    -0.000 C 
BRANCH  18  19
ATOM     19  C   UNL     1       4.629  -2.027  12.880  1.00  0.00    -0.000 C 
BRANCH  19  20
ATOM     20  C   UNL     1       6.115  -1.630  12.976  1.00  0.00    -0.000 C 
BRANCH  20  21
ATOM     21  C   UNL     1       6.739  -1.902  14.361  1.00  0.00    -0.000 C 
BRANCH  21  22
ATOM     22  C   UNL     1       5.676  -2.118  15.453  1.00  0.00    -0.000 C 
BRANCH  22  23
ATOM     23  C   UNL     1       6.246  -1.960  16.872  1.00  0.00    -0.000 C 
BRANCH  23  24
ATOM     24  C   UNL     1       5.158  -1.657  17.918  1.00  0.00    -0.000 C 
BRANCH  24  25
ATOM     25  C   UNL     1       5.701  -1.686  19.354  1.00  0.00    -0.003 C 
ATOM     26  C   UNL     1       6.939  -0.806  19.533  1.00  0.00     0.004 C 
ENDBRANCH  24  25
ENDBRANCH  23  24
ENDBRANCH  22  23
ENDBRANCH  21  22
ENDBRANCH  20  21
ENDBRANCH  19  20
ENDBRANCH  18  19
ENDBRANCH  17  18
ENDBRANCH  16  17
ENDBRANCH  15  16
ENDBRANCH   1  15
TORSDOF 22
ENDMDL
MODEL 6
REMARK VINA RESULT:    -0.134      1.915      5.603
REMARK INTER + INTRA:          -1.636
REMARK INTER:                  -0.345
REMARK INTRA:                  -1.292
REMARK UNBOUND:                -1.329
REMARK SMILES CCCCCCCCCCCCCCCCCCCCCCCC(=O)[O-]
REMARK SMILES IDX 13 1 14 2 15 3 16 4 17 5 18 6 19 7 20 8 21 9 22 10 23 11
REMARK SMILES IDX 24 12 25 13 26 14 12 15 11 16 10 17 9 18 8 19 7 20 6 21 5 22
REMARK SMILES IDX 4 23 3 24 2 25 1 26
REMARK H PARENT
REMARK Flexibility Score: inf
ROOT
ATOM      1  C   UNL     1       5.278   1.941  13.314  1.00  0.00     0.000 C 
ENDROOT
BRANCH   1   2
ATOM      2  C   UNL     1       5.550   0.436  13.087  1.00  0.00     0.000 C 
BRANCH   2   3
ATOM      3  C   UNL     1       6.714  -0.120  13.931  1.00  0.00     0.000 C 
BRANCH   3   4
ATOM      4  C   UNL     1       6.689  -1.647  14.139  1.00  0.00     0.000 C 
BRANCH   4   5
ATOM      5  C   UNL     1       6.732  -2.110  15.610  1.00  0.00     0.000 C 
BRANCH   5   6
ATOM      6  C   UNL     1       5.568  -1.618  16.492  1.00  0.00     0.000 C 
BRANCH   6   7
ATOM      7  C   UNL     1       5.850  -1.614  18.005  1.00  0.00     0.000 C 
BRANCH   7   8
ATOM      8  C   UNL     1       6.078  -0.198  18.561  1.00  0.00     0.000 C 
BRANCH   8   9
ATOM      9  C   UNL     1       5.214   0.097  19.799  1.00  0.00     0.000 C 
BRANCH   9  10
ATOM     10  C   UNL     1       4.124   1.145  19.528  1.00  0.00     0.006 C 
BRANCH  10  11
ATOM     11  C   UNL     1       2.775   0.695  20.096  1.00  0.00     0.053 C 
BRANCH  11  12
ATOM     12  C   UNL     1       1.759   1.790  19.987  1.00  0.00     0.041 C 
ATOM     13  O   UNL     1       1.288   2.323  21.027  1.00  0.00    -0.550 OA
ATOM     14  O   UNL     1       1.341   2.229  18.737  1.00  0.00    -0.550 OA
ENDBRANCH  11  12
ENDBRANCH  10  11
ENDBRANCH   9  10
ENDBRANCH   8   9
ENDBRANCH   7   8
ENDBRANCH   6   7
ENDBRANCH   5   6
ENDBRANCH   4   5
ENDBRANCH   3   4
ENDBRANCH   2   3
ENDBRANCH   1   2
BRANCH   1  15
ATOM     15  C   UNL     1       3.875   2.395  12.877  1.00  0.00     0.000 C 
BRANCH  15  16
ATOM     16  C   UNL     1       3.723   3.927  12.885  1.00  0.00     0.000 C 
BRANCH  16  17
ATOM     17  C   UNL     1       4.601   4.605  13.952  1.00  0.00     0.000 C 
BRANCH  17  18
ATOM     18  C   UNL     1       4.067   4.513  15.396  1.00  0.00    -0.000 C 
BRANCH  18  19
ATOM     19  C   UNL     1       4.639   3.352  16.232  1.00  0.00    -0.000 C 
BRANCH  19  20
ATOM     20  C   UNL     1       3.612   2.275  16.629  1.00  0.00    -0.000 C 
BRANCH  20  21
ATOM     21  C   UNL     1       4.067   0.836  16.303  1.00  0.00    -0.000 C 
BRANCH  21  22
ATOM     22  C   UNL     1       2.882  -0.121  16.085  1.00  0.00    -0.000 C 
BRANCH  22  23
ATOM     23  C   UNL     1       1.747   0.519  15.270  1.00  0.00    -0.000 C 
BRANCH  23  24
ATOM     24  C   UNL     1       1.051  -0.484  14.333  1.00  0.00    -0.000 C 
BRANCH  24  25
ATOM     25  C   UNL     1       1.607  -1.908  14.482  1.00  0.00    -0.003 C 
ATOM     26  C   UNL     1       2.933  -2.102  13.747  1.00  0.00     0.004 C 
ENDBRANCH  24  25
ENDBRANCH  23  24
ENDBRANCH  22  23
ENDBRANCH  21  22
ENDBRANCH  20  21
ENDBRANCH  19  20
ENDBRANCH  18  19
ENDBRANCH  17  18
ENDBRANCH  16  17
ENDBRANCH  15  16
ENDBRANCH   1  15
TORSDOF 22
ENDMDL
MODEL 7
REMARK VINA RESULT:    -0.011      2.209      4.064
REMARK INTER + INTRA:          -1.355
REMARK INTER:                  -0.322
REMARK INTRA:                  -1.033
REMARK UNBOUND:                -1.329
REMARK SMILES CCCCCCCCCCCCCCCCCCCCCCCC(=O)[O-]
REMARK SMILES IDX 13 1 14 2 15 3 16 4 17 5 18 6 19 7 20 8 21 9 22 10 23 11
REMARK SMILES IDX 24 12 25 13 26 14 12 15 11 16 10 17 9 18 8 19 7 20 6 21 5 22
REMARK SMILES IDX 4 23 3 24 2 25 1 26
REMARK H PARENT
REMARK Flexibility Score: inf
ROOT
ATOM      1  C   UNL     1       3.433   4.100  15.028  1.00  0.00     0.000 C 
ENDROOT
BRANCH   1   2
ATOM      2  C   UNL     1       2.293   3.159  14.575  1.00  0.00     0.000 C 
BRANCH   2   3
ATOM      3  C   UNL     1       2.156   1.890  15.436  1.00  0.00     0.000 C 
BRANCH   3   4
ATOM      4  C   UNL     1       1.556   0.674  14.703  1.00  0.00     0.000 C 
BRANCH   4   5
ATOM      5  C   UNL     1       2.438   0.078  13.587  1.00  0.00     0.000 C 
BRANCH   5   6
ATOM      6  C   UNL     1       2.807  -1.408  13.759  1.00  0.00     0.000 C 
BRANCH   6   7
ATOM      7  C   UNL     1       2.113  -2.124  14.931  1.00  0.00     0.000 C 
BRANCH   7   8
ATOM      8  C   UNL     1       2.954  -2.104  16.219  1.00  0.00     0.000 C 
BRANCH   8   9
ATOM      9  C   UNL     1       4.335  -1.459  16.013  1.00  0.00     0.000 C 
BRANCH   9  10
ATOM     10  C   UNL     1       5.380  -1.956  17.023  1.00  0.00     0.006 C 
BRANCH  10  11
ATOM     11  C   UNL     1       4.888  -1.769  18.461  1.00  0.00     0.053 C 
BRANCH  11  12
ATOM     12  C   UNL     1       5.970  -1.198  19.324  1.00  0.00     0.041 C 
ATOM     13  O   UNL     1       5.744  -0.183  20.036  1.00  0.00    -0.550 OA
ATOM     14  O   UNL     1       7.226  -1.792  19.350  1.00  0.00    -0.550 OA
ENDBRANCH  11  12
ENDBRANCH  10  11
ENDBRANCH   9  10
ENDBRANCH   8   9
ENDBRANCH   7   8
ENDBRANCH   6   7
ENDBRANCH   5   6
ENDBRANCH   4   5
ENDBRANCH   3   4
ENDBRANCH   2   3
ENDBRANCH   1   2
BRANCH   1  15
ATOM     15  C   UNL     1       4.768   3.861  14.302  1.00  0.00     0.000 C 
BRANCH  15  16
ATOM     16  C   UNL     1       4.574   3.277  12.891  1.00  0.00     0.000 C 
BRANCH  16  17
ATOM     17  C   UNL     1       4.599   1.738  12.876  1.00  0.00     0.000 C 
BRANCH  17  18
ATOM     18  C   UNL     1       5.967   1.102  13.199  1.00  0.00    -0.000 C 
BRANCH  18  19
ATOM     19  C   UNL     1       6.148   0.647  14.661  1.00  0.00    -0.000 C 
BRANCH  19  20
ATOM     20  C   UNL     1       6.393   1.787  15.667  1.00  0.00    -0.000 C 
BRANCH  20  21
ATOM     21  C   UNL     1       5.897   1.471  17.094  1.00  0.00    -0.000 C 
BRANCH  21  22
ATOM     22  C   UNL     1       4.434   1.893  17.315  1.00  0.00    -0.000 C 
BRANCH  22  23
ATOM     23  C   UNL     1       4.048   1.927  18.802  1.00  0.00    -0.000 C 
BRANCH  23  24
ATOM     24  C   UNL     1       2.567   1.580  19.039  1.00  0.00    -0.000 C 
BRANCH  24  25
ATOM     25  C   UNL     1       2.073   2.030  20.422  1.00  0.00    -0.003 C 
ATOM     26  C   UNL     1       0.696   1.464  20.767  1.00  0.00     0.004 C 
ENDBRANCH  24  25
ENDBRANCH  23  24
ENDBRANCH  22  23
ENDBRANCH  21  22
ENDBRANCH  20  21
ENDBRANCH  19  20
ENDBRANCH  18  19
ENDBRANCH  17  18
ENDBRANCH  16  17
ENDBRANCH  15  16
ENDBRANCH   1  15
TORSDOF 22
ENDMDL
