MODEL 1
REMARK VINA RESULT:    -3.984      0.000      0.000
REMARK INTER + INTRA:          -7.004
REMARK INTER:                  -5.847
REMARK INTRA:                  -1.157
REMARK UNBOUND:                -1.157
REMARK SMILES O=c1c(O[C@H]2O[C@H](CO)[C@@H](O)[C@H](O)[C@@H]2O)c(-c2ccc(O)c(O)c2)oc2cc(O)cc(O)c12
REMARK SMILES IDX 4 1 3 2 16 3 25 4 2 5 26 6 1 7 33 8 27 9 31 10 28 11 30 12
REMARK SMILES IDX 17 13 18 14 19 15 20 16 24 17 22 18 21 19 23 21 32 23 29 25
REMARK SMILES IDX 5 27 14 28 6 29 12 30 7 31 10 32 15 33 13 35 8 37 9 38 11 40
REMARK H PARENT 21 20 23 22 32 24 29 26 15 34 13 36 9 39 11 41
REMARK Flexibility Score: inf
ROOT
ATOM      1  O   UNL     1       4.763 -15.663   8.834  1.00  0.00    -0.454 OA
ENDROOT
BRANCH   1   2
ATOM      2  C   UNL     1       4.544 -14.895   7.683  1.00  0.00     0.214 A 
ATOM      3  C   UNL     1       4.163 -15.485   6.462  1.00  0.00     0.180 A 
ATOM      4  O   UNL     1       3.911 -14.713   5.412  1.00  0.00    -0.452 OA
ATOM      5  C   UNL     1       4.710 -13.508   7.745  1.00  0.00     0.239 A 
ATOM      6  C   UNL     1       4.015 -13.389   5.435  1.00  0.00     0.146 A 
ATOM      7  O   UNL     1       5.150 -13.006   8.812  1.00  0.00    -0.285 OA
ATOM      8  C   UNL     1       4.401 -12.707   6.619  1.00  0.00     0.111 A 
ATOM      9  C   UNL     1       3.751 -12.679   4.260  1.00  0.00     0.094 A 
ATOM     10  C   UNL     1       4.473 -11.282   6.590  1.00  0.00     0.134 A 
ATOM     11  C   UNL     1       3.876 -11.290   4.231  1.00  0.00     0.123 A 
ATOM     12  C   UNL     1       4.239 -10.602   5.388  1.00  0.00     0.093 A 
BRANCH   3  13
ATOM     13  C   UNL     1       4.051 -16.951   6.290  1.00  0.00     0.025 A 
ATOM     14  C   UNL     1       2.975 -17.522   5.588  1.00  0.00     0.016 A 
ATOM     15  C   UNL     1       2.886 -18.908   5.442  1.00  0.00     0.051 A 
ATOM     16  C   UNL     1       3.856 -19.743   6.004  1.00  0.00     0.157 A 
ATOM     17  C   UNL     1       5.013 -17.792   6.871  1.00  0.00     0.062 A 
ATOM     18  C   UNL     1       4.923 -19.184   6.725  1.00  0.00     0.158 A 
BRANCH  16  19
ATOM     19  O   UNL     1       3.740 -21.124   5.840  1.00  0.00    -0.504 OA
ATOM     20  H   UNL     1       4.213 -21.619   5.093  1.00  0.00     0.293 HD
ENDBRANCH  16  19
BRANCH  18  21
ATOM     21  O   UNL     1       5.892 -20.011   7.294  1.00  0.00    -0.504 OA
ATOM     22  H   UNL     1       6.877 -19.887   7.097  1.00  0.00     0.293 HD
ENDBRANCH  18  21
ENDBRANCH   3  13
BRANCH  10  23
ATOM     23  O   UNL     1       4.741 -10.489   7.711  1.00  0.00    -0.507 OA
ATOM     24  H   UNL     1       5.279 -10.782   8.511  1.00  0.00     0.293 HD
ENDBRANCH  10  23
BRANCH  11  25
ATOM     25  O   UNL     1       3.636 -10.580   3.057  1.00  0.00    -0.508 OA
ATOM     26  H   UNL     1       2.729 -10.596   2.604  1.00  0.00     0.293 HD
ENDBRANCH  11  25
ENDBRANCH   1   2
BRANCH   1  27
ATOM     27  C   UNL     1       3.832 -15.709   9.921  1.00  0.00     0.339 C 
ATOM     28  C   UNL     1       4.553 -15.574  11.279  1.00  0.00     0.214 C 
ATOM     29  O   UNL     1       3.053 -16.893   9.867  1.00  0.00    -0.332 OA
ATOM     30  C   UNL     1       5.415 -16.820  11.540  1.00  0.00     0.180 C 
ATOM     31  C   UNL     1       3.856 -18.059   9.973  1.00  0.00     0.179 C 
ATOM     32  C   UNL     1       4.579 -18.098  11.347  1.00  0.00     0.177 C 
BRANCH  28  33
ATOM     33  O   UNL     1       3.609 -15.427  12.309  1.00  0.00    -0.384 OA
ATOM     34  H   UNL     1       3.492 -16.323  12.722  1.00  0.00     0.211 HD
ENDBRANCH  28  33
BRANCH  30  35
ATOM     35  O   UNL     1       5.932 -16.791  12.847  1.00  0.00    -0.387 OA
ATOM     36  H   UNL     1       6.174 -15.846  13.036  1.00  0.00     0.211 HD
ENDBRANCH  30  35
BRANCH  31  37
ATOM     37  C   UNL     1       2.936 -19.279   9.790  1.00  0.00     0.191 C 
BRANCH  37  38
ATOM     38  O   UNL     1       3.674 -20.437   9.504  1.00  0.00    -0.394 OA
ATOM     39  H   UNL     1       3.934 -20.830  10.377  1.00  0.00     0.210 HD
ENDBRANCH  37  38
ENDBRANCH  31  37
BRANCH  32  40
ATOM     40  O   UNL     1       5.394 -19.237  11.471  1.00  0.00    -0.387 OA
ATOM     41  H   UNL     1       6.007 -19.256  10.689  1.00  0.00     0.211 HD
ENDBRANCH  32  40
ENDBRANCH   1  27
TORSDOF 12
ENDMDL
MODEL 2
REMARK VINA RESULT:    -3.221      1.552      4.746
REMARK INTER + INTRA:          -5.885
REMARK INTER:                  -5.687
REMARK INTRA:                  -0.198
REMARK UNBOUND:                -1.157
REMARK SMILES O=c1c(O[C@H]2O[C@H](CO)[C@@H](O)[C@H](O)[C@@H]2O)c(-c2ccc(O)c(O)c2)oc2cc(O)cc(O)c12
REMARK SMILES IDX 4 1 3 2 16 3 25 4 2 5 26 6 1 7 33 8 27 9 31 10 28 11 30 12
REMARK SMILES IDX 17 13 18 14 19 15 20 16 24 17 22 18 21 19 23 21 32 23 29 25
REMARK SMILES IDX 5 27 14 28 6 29 12 30 7 31 10 32 15 33 13 35 8 37 9 38 11 40
REMARK H PARENT 21 20 23 22 32 24 29 26 15 34 13 36 9 39 11 41
REMARK Flexibility Score: inf
ROOT
ATOM      1  O   UNL     1       4.609 -17.081   6.650  1.00  0.00    -0.454 OA
ENDROOT
BRANCH   1   2
ATOM      2  C   UNL     1       4.343 -15.706   6.627  1.00  0.00     0.214 A 
ATOM      3  C   UNL     1       4.365 -14.930   7.802  1.00  0.00     0.180 A 
ATOM      4  O   UNL     1       4.164 -13.620   7.726  1.00  0.00    -0.452 OA
ATOM      5  C   UNL     1       4.047 -15.086   5.409  1.00  0.00     0.239 A 
ATOM      6  C   UNL     1       3.921 -12.981   6.587  1.00  0.00     0.146 A 
ATOM      7  O   UNL     1       3.929 -15.808   4.385  1.00  0.00    -0.285 OA
ATOM      8  C   UNL     1       3.870 -13.682   5.354  1.00  0.00     0.111 A 
ATOM      9  C   UNL     1       3.696 -11.603   6.631  1.00  0.00     0.094 A 
ATOM     10  C   UNL     1       3.627 -12.940   4.159  1.00  0.00     0.134 A 
ATOM     11  C   UNL     1       3.407 -10.897   5.462  1.00  0.00     0.123 A 
ATOM     12  C   UNL     1       3.370 -11.566   4.240  1.00  0.00     0.093 A 
BRANCH   3  13
ATOM     13  C   UNL     1       4.585 -15.522   9.141  1.00  0.00     0.025 A 
ATOM     14  C   UNL     1       5.529 -14.982  10.032  1.00  0.00     0.016 A 
ATOM     15  C   UNL     1       5.724 -15.560  11.288  1.00  0.00     0.051 A 
ATOM     16  C   UNL     1       4.994 -16.691  11.668  1.00  0.00     0.157 A 
ATOM     17  C   UNL     1       3.868 -16.670   9.516  1.00  0.00     0.062 A 
ATOM     18  C   UNL     1       4.064 -17.251  10.777  1.00  0.00     0.158 A 
BRANCH  16  19
ATOM     19  O   UNL     1       5.210 -17.245  12.929  1.00  0.00    -0.504 OA
ATOM     20  H   UNL     1       6.142 -17.393  13.301  1.00  0.00     0.293 HD
ENDBRANCH  16  19
BRANCH  18  21
ATOM     21  O   UNL     1       3.336 -18.382  11.147  1.00  0.00    -0.504 OA
ATOM     22  H   UNL     1       3.488 -18.844  12.035  1.00  0.00     0.293 HD
ENDBRANCH  18  21
ENDBRANCH   3  13
BRANCH  10  23
ATOM     23  O   UNL     1       3.654 -13.493   2.875  1.00  0.00    -0.507 OA
ATOM     24  H   UNL     1       3.744 -12.967   2.020  1.00  0.00     0.293 HD
ENDBRANCH  10  23
BRANCH  11  25
ATOM     25  O   UNL     1       3.162  -9.526   5.503  1.00  0.00    -0.508 OA
ATOM     26  H   UNL     1       2.349  -9.148   5.977  1.00  0.00     0.293 HD
ENDBRANCH  11  25
ENDBRANCH   1   2
BRANCH   1  27
ATOM     27  C   UNL     1       3.575 -18.066   6.764  1.00  0.00     0.339 C 
ATOM     28  C   UNL     1       3.974 -19.181   7.753  1.00  0.00     0.214 C 
ATOM     29  O   UNL     1       3.248 -18.600   5.491  1.00  0.00    -0.332 OA
ATOM     30  C   UNL     1       5.140 -20.002   7.177  1.00  0.00     0.180 C 
ATOM     31  C   UNL     1       4.358 -19.247   4.888  1.00  0.00     0.179 C 
ATOM     32  C   UNL     1       4.812 -20.460   5.744  1.00  0.00     0.177 C 
BRANCH  28  33
ATOM     33  O   UNL     1       2.875 -20.023   7.993  1.00  0.00    -0.384 OA
ATOM     34  H   UNL     1       2.415 -20.149   7.122  1.00  0.00     0.211 HD
ENDBRANCH  28  33
BRANCH  30  35
ATOM     35  O   UNL     1       5.392 -21.125   7.983  1.00  0.00    -0.387 OA
ATOM     36  H   UNL     1       4.507 -21.469   8.277  1.00  0.00     0.211 HD
ENDBRANCH  30  35
BRANCH  31  37
ATOM     37  C   UNL     1       3.933 -19.687   3.476  1.00  0.00     0.191 C 
BRANCH  37  38
ATOM     38  O   UNL     1       3.331 -20.954   3.496  1.00  0.00    -0.394 OA
ATOM     39  H   UNL     1       2.351 -20.804   3.462  1.00  0.00     0.210 HD
ENDBRANCH  37  38
ENDBRANCH  31  37
BRANCH  32  40
ATOM     40  O   UNL     1       5.922 -21.109   5.176  1.00  0.00    -0.387 OA
ATOM     41  H   UNL     1       6.295 -20.512   4.475  1.00  0.00     0.211 HD
ENDBRANCH  32  40
ENDBRANCH   1  27
TORSDOF 12
ENDMDL
MODEL 3
REMARK VINA RESULT:    -2.805      1.301      2.620
REMARK INTER + INTRA:          -5.275
REMARK INTER:                  -5.838
REMARK INTRA:                   0.563
REMARK UNBOUND:                -1.157
REMARK SMILES O=c1c(O[C@H]2O[C@H](CO)[C@@H](O)[C@H](O)[C@@H]2O)c(-c2ccc(O)c(O)c2)oc2cc(O)cc(O)c12
REMARK SMILES IDX 4 1 3 2 16 3 25 4 2 5 26 6 1 7 33 8 27 9 31 10 28 11 30 12
REMARK SMILES IDX 17 13 18 14 19 15 20 16 24 17 22 18 21 19 23 21 32 23 29 25
REMARK SMILES IDX 5 27 14 28 6 29 12 30 7 31 10 32 15 33 13 35 8 37 9 38 11 40
REMARK H PARENT 21 20 23 22 32 24 29 26 15 34 13 36 9 39 11 41
REMARK Flexibility Score: inf
ROOT
ATOM      1  O   UNL     1       3.836 -15.916   7.516  1.00  0.00    -0.454 OA
ENDROOT
BRANCH   1   2
ATOM      2  C   UNL     1       3.792 -14.912   6.540  1.00  0.00     0.214 A 
ATOM      3  C   UNL     1       3.529 -15.207   5.188  1.00  0.00     0.180 A 
ATOM      4  O   UNL     1       3.440 -14.218   4.307  1.00  0.00    -0.452 OA
ATOM      5  C   UNL     1       4.016 -13.584   6.915  1.00  0.00     0.239 A 
ATOM      6  C   UNL     1       3.604 -12.938   4.624  1.00  0.00     0.146 A 
ATOM      7  O   UNL     1       4.350 -13.347   8.105  1.00  0.00    -0.285 OA
ATOM      8  C   UNL     1       3.881 -12.547   5.960  1.00  0.00     0.111 A 
ATOM      9  C   UNL     1       3.515 -11.984   3.607  1.00  0.00     0.094 A 
ATOM     10  C   UNL     1       4.024 -11.155   6.245  1.00  0.00     0.134 A 
ATOM     11  C   UNL     1       3.709 -10.631   3.890  1.00  0.00     0.123 A 
ATOM     12  C   UNL     1       3.967 -10.226   5.199  1.00  0.00     0.093 A 
BRANCH   3  13
ATOM     13  C   UNL     1       3.367 -16.594   4.695  1.00  0.00     0.025 A 
ATOM     14  C   UNL     1       3.340 -16.879   3.319  1.00  0.00     0.016 A 
ATOM     15  C   UNL     1       3.181 -18.194   2.875  1.00  0.00     0.051 A 
ATOM     16  C   UNL     1       3.031 -19.238   3.793  1.00  0.00     0.157 A 
ATOM     17  C   UNL     1       3.196 -17.640   5.615  1.00  0.00     0.062 A 
ATOM     18  C   UNL     1       3.035 -18.960   5.170  1.00  0.00     0.158 A 
BRANCH  16  19
ATOM     19  O   UNL     1       2.875 -20.540   3.320  1.00  0.00    -0.504 OA
ATOM     20  H   UNL     1       2.827 -21.338   3.943  1.00  0.00     0.293 HD
ENDBRANCH  16  19
BRANCH  18  21
ATOM     21  O   UNL     1       2.881 -19.995   6.092  1.00  0.00    -0.504 OA
ATOM     22  H   UNL     1       3.569 -20.733   6.182  1.00  0.00     0.293 HD
ENDBRANCH  18  21
ENDBRANCH   3  13
BRANCH  10  23
ATOM     23  O   UNL     1       4.196 -10.634   7.531  1.00  0.00    -0.507 OA
ATOM     24  H   UNL     1       4.672  -9.772   7.747  1.00  0.00     0.293 HD
ENDBRANCH  10  23
BRANCH  11  25
ATOM     25  O   UNL     1       3.644  -9.678   2.876  1.00  0.00    -0.508 OA
ATOM     26  H   UNL     1       4.317  -9.663   2.118  1.00  0.00     0.293 HD
ENDBRANCH  11  25
ENDBRANCH   1   2
BRANCH   1  27
ATOM     27  C   UNL     1       5.055 -16.553   7.916  1.00  0.00     0.339 C 
ATOM     28  C   UNL     1       4.906 -18.089   7.920  1.00  0.00     0.214 C 
ATOM     29  O   UNL     1       5.481 -16.074   9.181  1.00  0.00    -0.332 OA
ATOM     30  C   UNL     1       3.937 -18.519   9.034  1.00  0.00     0.180 C 
ATOM     31  C   UNL     1       4.529 -16.348  10.198  1.00  0.00     0.179 C 
ATOM     32  C   UNL     1       4.347 -17.880  10.373  1.00  0.00     0.177 C 
BRANCH  28  33
ATOM     33  O   UNL     1       6.160 -18.690   8.124  1.00  0.00    -0.384 OA
ATOM     34  H   UNL     1       6.026 -19.412   8.792  1.00  0.00     0.211 HD
ENDBRANCH  28  33
BRANCH  30  35
ATOM     35  O   UNL     1       3.933 -19.919   9.163  1.00  0.00    -0.387 OA
ATOM     36  H   UNL     1       3.425 -20.127   9.990  1.00  0.00     0.211 HD
ENDBRANCH  30  35
BRANCH  31  37
ATOM     37  C   UNL     1       5.031 -15.693  11.496  1.00  0.00     0.191 C 
BRANCH  37  38
ATOM     38  O   UNL     1       5.122 -16.627  12.538  1.00  0.00    -0.394 OA
ATOM     39  H   UNL     1       4.191 -16.856  12.797  1.00  0.00     0.210 HD
ENDBRANCH  37  38
ENDBRANCH  31  37
BRANCH  32  40
ATOM     40  O   UNL     1       3.396 -18.178  11.365  1.00  0.00    -0.387 OA
ATOM     41  H   UNL     1       2.678 -17.494  11.310  1.00  0.00     0.211 HD
ENDBRANCH  32  40
ENDBRANCH   1  27
TORSDOF 12
ENDMDL
