MODEL 1
REMARK VINA RESULT:     4.943      0.000      0.000
REMARK INTER + INTRA:          11.274
REMARK INTER:                  11.300
REMARK INTRA:                  -0.026
REMARK UNBOUND:                -0.026
REMARK SMILES CCCCCCCCCCCCCCCCCCCCCCCC(=O)[O-]
REMARK SMILES IDX 13 1 14 2 15 3 16 4 17 5 18 6 19 7 20 8 21 9 22 10 23 11
REMARK SMILES IDX 24 12 25 13 26 14 12 15 11 16 10 17 9 18 8 19 7 20 6 21 5 22
REMARK SMILES IDX 4 23 3 24 2 25 1 26
REMARK H PARENT
REMARK Flexibility Score: inf
ROOT
ATOM      1  C   UNL     1     -54.197 122.954 -11.048  1.00  0.00     0.000 C 
ENDROOT
BRANCH   1   2
ATOM      2  C   UNL     1     -52.960 123.388 -11.854  1.00  0.00     0.000 C 
BRANCH   2   3
ATOM      3  C   UNL     1     -51.983 122.231 -12.125  1.00  0.00     0.000 C 
BRANCH   3   4
ATOM      4  C   UNL     1     -51.224 121.789 -10.864  1.00  0.00     0.000 C 
BRANCH   4   5
ATOM      5  C   UNL     1     -49.884 121.105 -11.192  1.00  0.00     0.000 C 
BRANCH   5   6
ATOM      6  C   UNL     1     -48.881 122.067 -11.850  1.00  0.00     0.000 C 
BRANCH   6   7
ATOM      7  C   UNL     1     -48.945 123.479 -11.240  1.00  0.00     0.000 C 
BRANCH   7   8
ATOM      8  C   UNL     1     -48.875 123.466  -9.705  1.00  0.00     0.000 C 
BRANCH   8   9
ATOM      9  C   UNL     1     -49.840 124.470  -9.057  1.00  0.00     0.000 C 
BRANCH   9  10
ATOM     10  C   UNL     1     -50.711 123.789  -7.995  1.00  0.00     0.006 C 
BRANCH  10  11
ATOM     11  C   UNL     1     -52.131 124.364  -7.996  1.00  0.00     0.053 C 
BRANCH  11  12
ATOM     12  C   UNL     1     -53.144 123.263  -7.961  1.00  0.00     0.041 C 
ATOM     13  O   UNL     1     -52.790 122.071  -8.156  1.00  0.00    -0.550 OA
ATOM     14  O   UNL     1     -54.470 123.548  -7.665  1.00  0.00    -0.550 OA
ENDBRANCH  11  12
ENDBRANCH  10  11
ENDBRANCH   9  10
ENDBRANCH   8   9
ENDBRANCH   7   8
ENDBRANCH   6   7
ENDBRANCH   5   6
ENDBRANCH   4   5
ENDBRANCH   3   4
ENDBRANCH   2   3
ENDBRANCH   1   2
BRANCH   1  15
ATOM     15  C   UNL     1     -55.286 122.231 -11.863  1.00  0.00     0.000 C 
BRANCH  15  16
ATOM     16  C   UNL     1     -56.709 122.318 -11.278  1.00  0.00     0.000 C 
BRANCH  16  17
ATOM     17  C   UNL     1     -56.789 122.003  -9.768  1.00  0.00     0.000 C 
BRANCH  17  18
ATOM     18  C   UNL     1     -57.209 120.559  -9.424  1.00  0.00    -0.000 C 
BRANCH  18  19
ATOM     19  C   UNL     1     -57.019 119.518 -10.549  1.00  0.00    -0.000 C 
BRANCH  19  20
ATOM     20  C   UNL     1     -55.596 118.948 -10.683  1.00  0.00    -0.000 C 
BRANCH  20  21
ATOM     21  C   UNL     1     -54.506 119.983 -10.370  1.00  0.00    -0.000 C 
BRANCH  21  22
ATOM     22  C   UNL     1     -53.120 119.322 -10.328  1.00  0.00    -0.000 C 
BRANCH  22  23
ATOM     23  C   UNL     1     -52.673 118.970  -8.900  1.00  0.00    -0.000 C 
BRANCH  23  24
ATOM     24  C   UNL     1     -51.515 117.957  -8.877  1.00  0.00    -0.000 C 
BRANCH  24  25
ATOM     25  C   UNL     1     -50.815 117.896  -7.510  1.00  0.00    -0.003 C 
ATOM     26  C   UNL     1     -49.291 117.908  -7.624  1.00  0.00     0.004 C 
ENDBRANCH  24  25
ENDBRANCH  23  24
ENDBRANCH  22  23
ENDBRANCH  21  22
ENDBRANCH  20  21
ENDBRANCH  19  20
ENDBRANCH  18  19
ENDBRANCH  17  18
ENDBRANCH  16  17
ENDBRANCH  15  16
ENDBRANCH   1  15
TORSDOF 22
ENDMDL
MODEL 2
REMARK VINA RESULT:     4.961      3.851      7.595
REMARK INTER + INTRA:          11.315
REMARK INTER:                  12.684
REMARK INTRA:                  -1.369
REMARK UNBOUND:                -0.026
REMARK SMILES CCCCCCCCCCCCCCCCCCCCCCCC(=O)[O-]
REMARK SMILES IDX 13 1 14 2 15 3 16 4 17 5 18 6 19 7 20 8 21 9 22 10 23 11
REMARK SMILES IDX 24 12 25 13 26 14 12 15 11 16 10 17 9 18 8 19 7 20 6 21 5 22
REMARK SMILES IDX 4 23 3 24 2 25 1 26
REMARK H PARENT
REMARK Flexibility Score: inf
ROOT
ATOM      1  C   UNL     1     -54.796 120.598 -11.674  1.00  0.00     0.000 C 
ENDROOT
BRANCH   1   2
ATOM      2  C   UNL     1     -55.118 120.052 -10.271  1.00  0.00     0.000 C 
BRANCH   2   3
ATOM      3  C   UNL     1     -56.242 120.831  -9.566  1.00  0.00     0.000 C 
BRANCH   3   4
ATOM      4  C   UNL     1     -57.497 119.977  -9.332  1.00  0.00     0.000 C 
BRANCH   4   5
ATOM      5  C   UNL     1     -57.564 119.408  -7.902  1.00  0.00     0.000 C 
BRANCH   5   6
ATOM      6  C   UNL     1     -58.838 118.580  -7.662  1.00  0.00     0.000 C 
BRANCH   6   7
ATOM      7  C   UNL     1     -58.719 117.680  -6.419  1.00  0.00     0.000 C 
BRANCH   7   8
ATOM      8  C   UNL     1     -59.572 118.179  -5.242  1.00  0.00     0.000 C 
BRANCH   8   9
ATOM      9  C   UNL     1     -58.860 119.250  -4.403  1.00  0.00     0.000 C 
BRANCH   9  10
ATOM     10  C   UNL     1     -59.819 119.878  -3.385  1.00  0.00     0.006 C 
BRANCH  10  11
ATOM     11  C   UNL     1     -59.456 121.341  -3.116  1.00  0.00     0.053 C 
BRANCH  11  12
ATOM     12  C   UNL     1     -58.737 121.474  -1.811  1.00  0.00     0.041 C 
ATOM     13  O   UNL     1     -59.026 122.410  -1.021  1.00  0.00    -0.550 OA
ATOM     14  O   UNL     1     -57.781 120.534  -1.446  1.00  0.00    -0.550 OA
ENDBRANCH  11  12
ENDBRANCH  10  11
ENDBRANCH   9  10
ENDBRANCH   8   9
ENDBRANCH   7   8
ENDBRANCH   6   7
ENDBRANCH   5   6
ENDBRANCH   4   5
ENDBRANCH   3   4
ENDBRANCH   2   3
ENDBRANCH   1   2
BRANCH   1  15
ATOM     15  C   UNL     1     -55.555 121.880 -12.065  1.00  0.00     0.000 C 
BRANCH  15  16
ATOM     16  C   UNL     1     -54.700 123.162 -12.106  1.00  0.00     0.000 C 
BRANCH  16  17
ATOM     17  C   UNL     1     -53.299 123.003 -11.474  1.00  0.00     0.000 C 
BRANCH  17  18
ATOM     18  C   UNL     1     -53.292 122.803  -9.945  1.00  0.00    -0.000 C 
BRANCH  18  19
ATOM     19  C   UNL     1     -52.215 121.841  -9.397  1.00  0.00    -0.000 C 
BRANCH  19  20
ATOM     20  C   UNL     1     -51.230 121.292 -10.445  1.00  0.00    -0.000 C 
BRANCH  20  21
ATOM     21  C   UNL     1     -49.872 120.903  -9.841  1.00  0.00    -0.000 C 
BRANCH  21  22
ATOM     22  C   UNL     1     -48.880 122.073  -9.930  1.00  0.00    -0.000 C 
BRANCH  22  23
ATOM     23  C   UNL     1     -49.261 123.094 -11.014  1.00  0.00    -0.000 C 
BRANCH  23  24
ATOM     24  C   UNL     1     -48.962 124.543 -10.591  1.00  0.00    -0.000 C 
BRANCH  24  25
ATOM     25  C   UNL     1     -48.875 124.704  -9.066  1.00  0.00    -0.003 C 
ATOM     26  C   UNL     1     -50.238 124.603  -8.380  1.00  0.00     0.004 C 
ENDBRANCH  24  25
ENDBRANCH  23  24
ENDBRANCH  22  23
ENDBRANCH  21  22
ENDBRANCH  20  21
ENDBRANCH  19  20
ENDBRANCH  18  19
ENDBRANCH  17  18
ENDBRANCH  16  17
ENDBRANCH  15  16
ENDBRANCH   1  15
TORSDOF 22
ENDMDL
MODEL 3
REMARK VINA RESULT:     4.998      2.750      4.435
REMARK INTER + INTRA:          11.400
REMARK INTER:                  12.641
REMARK INTRA:                  -1.241
REMARK UNBOUND:                -0.026
REMARK SMILES CCCCCCCCCCCCCCCCCCCCCCCC(=O)[O-]
REMARK SMILES IDX 13 1 14 2 15 3 16 4 17 5 18 6 19 7 20 8 21 9 22 10 23 11
REMARK SMILES IDX 24 12 25 13 26 14 12 15 11 16 10 17 9 18 8 19 7 20 6 21 5 22
REMARK SMILES IDX 4 23 3 24 2 25 1 26
REMARK H PARENT
REMARK Flexibility Score: inf
ROOT
ATOM      1  C   UNL     1     -54.490 119.499 -10.236  1.00  0.00     0.000 C 
ENDROOT
BRANCH   1   2
ATOM      2  C   UNL     1     -53.028 119.974 -10.319  1.00  0.00     0.000 C 
BRANCH   2   3
ATOM      3  C   UNL     1     -52.504 120.057 -11.763  1.00  0.00     0.000 C 
BRANCH   3   4
ATOM      4  C   UNL     1     -51.977 121.455 -12.122  1.00  0.00     0.000 C 
BRANCH   4   5
ATOM      5  C   UNL     1     -50.459 121.587 -11.903  1.00  0.00     0.000 C 
BRANCH   5   6
ATOM      6  C   UNL     1     -49.976 123.043 -12.021  1.00  0.00     0.000 C 
BRANCH   6   7
ATOM      7  C   UNL     1     -49.176 123.491 -10.784  1.00  0.00     0.000 C 
BRANCH   7   8
ATOM      8  C   UNL     1     -49.649 122.807  -9.491  1.00  0.00     0.000 C 
BRANCH   8   9
ATOM      9  C   UNL     1     -50.599 123.688  -8.665  1.00  0.00     0.000 C 
BRANCH   9  10
ATOM     10  C   UNL     1     -51.911 122.954  -8.368  1.00  0.00     0.006 C 
BRANCH  10  11
ATOM     11  C   UNL     1     -53.121 123.824  -8.719  1.00  0.00     0.053 C 
BRANCH  11  12
ATOM     12  C   UNL     1     -54.234 122.983  -9.259  1.00  0.00     0.041 C 
ATOM     13  O   UNL     1     -54.614 123.124 -10.450  1.00  0.00    -0.550 OA
ATOM     14  O   UNL     1     -54.820 122.009  -8.460  1.00  0.00    -0.550 OA
ENDBRANCH  11  12
ENDBRANCH  10  11
ENDBRANCH   9  10
ENDBRANCH   8   9
ENDBRANCH   7   8
ENDBRANCH   6   7
ENDBRANCH   5   6
ENDBRANCH   4   5
ENDBRANCH   3   4
ENDBRANCH   2   3
ENDBRANCH   1   2
BRANCH   1  15
ATOM     15  C   UNL     1     -55.256 119.511 -11.573  1.00  0.00     0.000 C 
BRANCH  15  16
ATOM     16  C   UNL     1     -55.592 120.911 -12.124  1.00  0.00     0.000 C 
BRANCH  16  17
ATOM     17  C   UNL     1     -57.096 121.261 -12.074  1.00  0.00     0.000 C 
BRANCH  17  18
ATOM     18  C   UNL     1     -57.965 120.291 -11.246  1.00  0.00    -0.000 C 
BRANCH  18  19
ATOM     19  C   UNL     1     -57.853 120.430  -9.712  1.00  0.00    -0.000 C 
BRANCH  19  20
ATOM     20  C   UNL     1     -57.837 119.104  -8.931  1.00  0.00    -0.000 C 
BRANCH  20  21
ATOM     21  C   UNL     1     -58.344 119.254  -7.489  1.00  0.00    -0.000 C 
BRANCH  21  22
ATOM     22  C   UNL     1     -58.951 117.936  -6.984  1.00  0.00    -0.000 C 
BRANCH  22  23
ATOM     23  C   UNL     1     -59.516 118.051  -5.559  1.00  0.00    -0.000 C 
BRANCH  23  24
ATOM     24  C   UNL     1     -58.705 119.017  -4.678  1.00  0.00    -0.000 C 
BRANCH  24  25
ATOM     25  C   UNL     1     -59.547 119.627  -3.547  1.00  0.00    -0.003 C 
ATOM     26  C   UNL     1     -59.034 120.996  -3.099  1.00  0.00     0.004 C 
ENDBRANCH  24  25
ENDBRANCH  23  24
ENDBRANCH  22  23
ENDBRANCH  21  22
ENDBRANCH  20  21
ENDBRANCH  19  20
ENDBRANCH  18  19
ENDBRANCH  17  18
ENDBRANCH  16  17
ENDBRANCH  15  16
ENDBRANCH   1  15
TORSDOF 22
ENDMDL
MODEL 4
REMARK VINA RESULT:     5.597      3.453      5.481
REMARK INTER + INTRA:          12.770
REMARK INTER:                  14.271
REMARK INTRA:                  -1.501
REMARK UNBOUND:                -0.026
REMARK SMILES CCCCCCCCCCCCCCCCCCCCCCCC(=O)[O-]
REMARK SMILES IDX 13 1 14 2 15 3 16 4 17 5 18 6 19 7 20 8 21 9 22 10 23 11
REMARK SMILES IDX 24 12 25 13 26 14 12 15 11 16 10 17 9 18 8 19 7 20 6 21 5 22
REMARK SMILES IDX 4 23 3 24 2 25 1 26
REMARK H PARENT
REMARK Flexibility Score: inf
ROOT
ATOM      1  C   UNL     1     -55.174 121.120 -10.938  1.00  0.00     0.000 C 
ENDROOT
BRANCH   1   2
ATOM      2  C   UNL     1     -54.483 122.378 -11.493  1.00  0.00     0.000 C 
BRANCH   2   3
ATOM      3  C   UNL     1     -53.888 123.273 -10.393  1.00  0.00     0.000 C 
BRANCH   3   4
ATOM      4  C   UNL     1     -53.718 122.534  -9.057  1.00  0.00     0.000 C 
BRANCH   4   5
ATOM      5  C   UNL     1     -52.516 123.051  -8.245  1.00  0.00     0.000 C 
BRANCH   5   6
ATOM      6  C   UNL     1     -51.494 123.793  -9.123  1.00  0.00     0.000 C 
BRANCH   6   7
ATOM      7  C   UNL     1     -50.201 124.124  -8.356  1.00  0.00     0.000 C 
BRANCH   7   8
ATOM      8  C   UNL     1     -48.946 123.552  -9.033  1.00  0.00     0.000 C 
BRANCH   8   9
ATOM      9  C   UNL     1     -48.958 123.732 -10.558  1.00  0.00     0.000 C 
BRANCH   9  10
ATOM     10  C   UNL     1     -48.906 122.376 -11.273  1.00  0.00     0.006 C 
BRANCH  10  11
ATOM     11  C   UNL     1     -49.598 121.291 -10.443  1.00  0.00     0.053 C 
BRANCH  11  12
ATOM     12  C   UNL     1     -50.962 121.002 -10.988  1.00  0.00     0.041 C 
ATOM     13  O   UNL     1     -51.294 121.432 -12.123  1.00  0.00    -0.550 OA
ATOM     14  O   UNL     1     -51.848 120.217 -10.262  1.00  0.00    -0.550 OA
ENDBRANCH  11  12
ENDBRANCH  10  11
ENDBRANCH   9  10
ENDBRANCH   8   9
ENDBRANCH   7   8
ENDBRANCH   6   7
ENDBRANCH   5   6
ENDBRANCH   4   5
ENDBRANCH   3   4
ENDBRANCH   2   3
ENDBRANCH   1   2
BRANCH   1  15
ATOM     15  C   UNL     1     -56.197 120.466 -11.886  1.00  0.00     0.000 C 
BRANCH  15  16
ATOM     16  C   UNL     1     -57.485 119.957 -11.210  1.00  0.00     0.000 C 
BRANCH  16  17
ATOM     17  C   UNL     1     -57.431 119.965  -9.666  1.00  0.00     0.000 C 
BRANCH  17  18
ATOM     18  C   UNL     1     -58.131 118.772  -8.982  1.00  0.00    -0.000 C 
BRANCH  18  19
ATOM     19  C   UNL     1     -58.189 118.821  -7.440  1.00  0.00    -0.000 C 
BRANCH  19  20
ATOM     20  C   UNL     1     -59.045 117.726  -6.779  1.00  0.00    -0.000 C 
BRANCH  20  21
ATOM     21  C   UNL     1     -59.548 118.122  -5.383  1.00  0.00    -0.000 C 
BRANCH  21  22
ATOM     22  C   UNL     1     -58.597 119.135  -4.728  1.00  0.00    -0.000 C 
BRANCH  22  23
ATOM     23  C   UNL     1     -59.339 120.193  -3.894  1.00  0.00    -0.000 C 
BRANCH  23  24
ATOM     24  C   UNL     1     -58.428 120.876  -2.860  1.00  0.00    -0.000 C 
BRANCH  24  25
ATOM     25  C   UNL     1     -58.912 122.287  -2.492  1.00  0.00    -0.003 C 
ATOM     26  C   UNL     1     -60.021 122.793  -3.415  1.00  0.00     0.004 C 
ENDBRANCH  24  25
ENDBRANCH  23  24
ENDBRANCH  22  23
ENDBRANCH  21  22
ENDBRANCH  20  21
ENDBRANCH  19  20
ENDBRANCH  18  19
ENDBRANCH  17  18
ENDBRANCH  16  17
ENDBRANCH  15  16
ENDBRANCH   1  15
TORSDOF 22
ENDMDL
MODEL 5
REMARK VINA RESULT:     5.668      3.902      7.640
REMARK INTER + INTRA:          12.932
REMARK INTER:                  14.046
REMARK INTRA:                  -1.113
REMARK UNBOUND:                -0.026
REMARK SMILES CCCCCCCCCCCCCCCCCCCCCCCC(=O)[O-]
REMARK SMILES IDX 13 1 14 2 15 3 16 4 17 5 18 6 19 7 20 8 21 9 22 10 23 11
REMARK SMILES IDX 24 12 25 13 26 14 12 15 11 16 10 17 9 18 8 19 7 20 6 21 5 22
REMARK SMILES IDX 4 23 3 24 2 25 1 26
REMARK H PARENT
REMARK Flexibility Score: inf
ROOT
ATOM      1  C   UNL     1     -55.447 120.523 -11.575  1.00  0.00     0.000 C 
ENDROOT
BRANCH   1   2
ATOM      2  C   UNL     1     -55.394 120.096 -10.097  1.00  0.00     0.000 C 
BRANCH   2   3
ATOM      3  C   UNL     1     -56.536 120.693  -9.257  1.00  0.00     0.000 C 
BRANCH   3   4
ATOM      4  C   UNL     1     -57.690 119.703  -9.037  1.00  0.00     0.000 C 
BRANCH   4   5
ATOM      5  C   UNL     1     -57.749 119.179  -7.590  1.00  0.00     0.000 C 
BRANCH   5   6
ATOM      6  C   UNL     1     -58.897 118.177  -7.378  1.00  0.00     0.000 C 
BRANCH   6   7
ATOM      7  C   UNL     1     -58.996 117.710  -5.915  1.00  0.00     0.000 C 
BRANCH   7   8
ATOM      8  C   UNL     1     -59.737 118.715  -5.019  1.00  0.00     0.000 C 
BRANCH   8   9
ATOM      9  C   UNL     1     -58.912 119.144  -3.797  1.00  0.00     0.000 C 
BRANCH   9  10
ATOM     10  C   UNL     1     -59.669 120.183  -2.960  1.00  0.00     0.006 C 
BRANCH  10  11
ATOM     11  C   UNL     1     -58.846 121.464  -2.797  1.00  0.00     0.053 C 
BRANCH  11  12
ATOM     12  C   UNL     1     -59.741 122.661  -2.753  1.00  0.00     0.041 C 
ATOM     13  O   UNL     1     -60.062 123.252  -3.817  1.00  0.00    -0.550 OA
ATOM     14  O   UNL     1     -60.262 123.095  -1.541  1.00  0.00    -0.550 OA
ENDBRANCH  11  12
ENDBRANCH  10  11
ENDBRANCH   9  10
ENDBRANCH   8   9
ENDBRANCH   7   8
ENDBRANCH   6   7
ENDBRANCH   5   6
ENDBRANCH   4   5
ENDBRANCH   3   4
ENDBRANCH   2   3
ENDBRANCH   1   2
BRANCH   1  15
ATOM     15  C   UNL     1     -55.599 122.037 -11.811  1.00  0.00     0.000 C 
BRANCH  15  16
ATOM     16  C   UNL     1     -54.304 122.858 -11.654  1.00  0.00     0.000 C 
BRANCH  16  17
ATOM     17  C   UNL     1     -54.037 123.340 -10.211  1.00  0.00     0.000 C 
BRANCH  17  18
ATOM     18  C   UNL     1     -52.881 122.620  -9.486  1.00  0.00    -0.000 C 
BRANCH  18  19
ATOM     19  C   UNL     1     -51.791 123.535  -8.885  1.00  0.00    -0.000 C 
BRANCH  19  20
ATOM     20  C   UNL     1     -50.379 122.925  -8.827  1.00  0.00    -0.000 C 
BRANCH  20  21
ATOM     21  C   UNL     1     -49.309 123.836  -9.445  1.00  0.00    -0.000 C 
BRANCH  21  22
ATOM     22  C   UNL     1     -49.139 123.541 -10.943  1.00  0.00    -0.000 C 
BRANCH  22  23
ATOM     23  C   UNL     1     -49.171 122.037 -11.259  1.00  0.00    -0.000 C 
BRANCH  23  24
ATOM     24  C   UNL     1     -50.384 121.639 -12.118  1.00  0.00    -0.000 C 
BRANCH  24  25
ATOM     25  C   UNL     1     -51.468 120.915 -11.304  1.00  0.00    -0.003 C 
ATOM     26  C   UNL     1     -52.200 119.844 -12.113  1.00  0.00     0.004 C 
ENDBRANCH  24  25
ENDBRANCH  23  24
ENDBRANCH  22  23
ENDBRANCH  21  22
ENDBRANCH  20  21
ENDBRANCH  19  20
ENDBRANCH  18  19
ENDBRANCH  17  18
ENDBRANCH  16  17
ENDBRANCH  15  16
ENDBRANCH   1  15
TORSDOF 22
ENDMDL
MODEL 6
REMARK VINA RESULT:     5.759      3.665      5.328
REMARK INTER + INTRA:          13.139
REMARK INTER:                  14.835
REMARK INTRA:                  -1.696
REMARK UNBOUND:                -0.026
REMARK SMILES CCCCCCCCCCCCCCCCCCCCCCCC(=O)[O-]
REMARK SMILES IDX 13 1 14 2 15 3 16 4 17 5 18 6 19 7 20 8 21 9 22 10 23 11
REMARK SMILES IDX 24 12 25 13 26 14 12 15 11 16 10 17 9 18 8 19 7 20 6 21 5 22
REMARK SMILES IDX 4 23 3 24 2 25 1 26
REMARK H PARENT
REMARK Flexibility Score: inf
ROOT
ATOM      1  C   UNL     1     -54.909 120.332  -9.449  1.00  0.00     0.000 C 
ENDROOT
BRANCH   1   2
ATOM      2  C   UNL     1     -53.597 119.910 -10.133  1.00  0.00     0.000 C 
BRANCH   2   3
ATOM      3  C   UNL     1     -53.423 120.525 -11.532  1.00  0.00     0.000 C 
BRANCH   3   4
ATOM      4  C   UNL     1     -52.028 120.269 -12.123  1.00  0.00     0.000 C 
BRANCH   4   5
ATOM      5  C   UNL     1     -51.127 121.517 -12.072  1.00  0.00     0.000 C 
BRANCH   5   6
ATOM      6  C   UNL     1     -49.655 121.164 -11.800  1.00  0.00     0.000 C 
BRANCH   6   7
ATOM      7  C   UNL     1     -49.132 121.813 -10.506  1.00  0.00     0.000 C 
BRANCH   7   8
ATOM      8  C   UNL     1     -49.559 123.283 -10.364  1.00  0.00     0.000 C 
BRANCH   8   9
ATOM      9  C   UNL     1     -49.622 123.745  -8.901  1.00  0.00     0.000 C 
BRANCH   9  10
ATOM     10  C   UNL     1     -51.060 124.096  -8.498  1.00  0.00     0.006 C 
BRANCH  10  11
ATOM     11  C   UNL     1     -51.971 122.868  -8.584  1.00  0.00     0.053 C 
BRANCH  11  12
ATOM     12  C   UNL     1     -53.378 123.278  -8.885  1.00  0.00     0.041 C 
ATOM     13  O   UNL     1     -54.224 123.366  -7.957  1.00  0.00    -0.550 OA
ATOM     14  O   UNL     1     -53.742 123.610 -10.183  1.00  0.00    -0.550 OA
ENDBRANCH  11  12
ENDBRANCH  10  11
ENDBRANCH   9  10
ENDBRANCH   8   9
ENDBRANCH   7   8
ENDBRANCH   6   7
ENDBRANCH   5   6
ENDBRANCH   4   5
ENDBRANCH   3   4
ENDBRANCH   2   3
ENDBRANCH   1   2
BRANCH   1  15
ATOM     15  C   UNL     1     -55.980 120.910 -10.393  1.00  0.00     0.000 C 
BRANCH  15  16
ATOM     16  C   UNL     1     -57.409 120.379 -10.168  1.00  0.00     0.000 C 
BRANCH  16  17
ATOM     17  C   UNL     1     -57.477 119.117  -9.279  1.00  0.00     0.000 C 
BRANCH  17  18
ATOM     18  C   UNL     1     -58.582 119.136  -8.202  1.00  0.00    -0.000 C 
BRANCH  18  19
ATOM     19  C   UNL     1     -58.740 117.840  -7.377  1.00  0.00    -0.000 C 
BRANCH  19  20
ATOM     20  C   UNL     1     -59.480 117.999  -6.037  1.00  0.00    -0.000 C 
BRANCH  20  21
ATOM     21  C   UNL     1     -58.646 118.735  -4.978  1.00  0.00    -0.000 C 
BRANCH  21  22
ATOM     22  C   UNL     1     -59.478 118.999  -3.714  1.00  0.00    -0.000 C 
BRANCH  22  23
ATOM     23  C   UNL     1     -59.720 120.496  -3.464  1.00  0.00    -0.000 C 
BRANCH  23  24
ATOM     24  C   UNL     1     -58.804 121.067  -2.367  1.00  0.00    -0.000 C 
BRANCH  24  25
ATOM     25  C   UNL     1     -59.230 122.474  -1.919  1.00  0.00    -0.003 C 
ATOM     26  C   UNL     1     -59.772 123.323  -3.069  1.00  0.00     0.004 C 
ENDBRANCH  24  25
ENDBRANCH  23  24
ENDBRANCH  22  23
ENDBRANCH  21  22
ENDBRANCH  20  21
ENDBRANCH  19  20
ENDBRANCH  18  19
ENDBRANCH  17  18
ENDBRANCH  16  17
ENDBRANCH  15  16
ENDBRANCH   1  15
TORSDOF 22
ENDMDL
