MODEL 1
REMARK VINA RESULT:     6.184      0.000      0.000
REMARK INTER + INTRA:           7.100
REMARK INTER:                   7.449
REMARK INTRA:                  -0.349
REMARK UNBOUND:                -0.349
REMARK SMILES Oc1cc(O)c2cc(O)c(-c3ccc(O)c(O)c3)[o+]c2c1.[Cl-]
REMARK SMILES IDX 10 1 19 2 20 3 21 4 2 5 3 6 4 7 6 8 7 9 8 10 11 11 12 12
REMARK SMILES IDX 13 13 14 14 18 15 16 16 15 17 17 19 9 21 1 23 5 25
REMARK H PARENT 15 18 17 20 9 22 1 24 5 26
REMARK Flexibility Score: inf
ROOT
ATOM      1  C   UNL     1     -18.047  33.987  -9.497  1.00  0.00     0.402 A 
ATOM      2  O   UNL     1     -17.004  34.430  -8.801  1.00  0.00    -0.202 OA
ATOM      3  C   UNL     1     -15.786  34.563  -9.317  1.00  0.00     0.368 A 
ATOM      4  C   UNL     1     -14.751  35.034  -8.504  1.00  0.00     0.162 A 
ATOM      5  C   UNL     1     -13.463  35.180  -9.017  1.00  0.00     0.128 A 
ATOM      6  C   UNL     1     -13.203  34.854 -10.352  1.00  0.00     0.093 A 
ATOM      7  C   UNL     1     -14.222  34.380 -11.187  1.00  0.00     0.136 A 
ATOM      8  C   UNL     1     -15.536  34.232 -10.670  1.00  0.00     0.125 A 
ATOM      9  C   UNL     1     -16.621  33.777 -11.436  1.00  0.00     0.078 A 
ATOM     10  C   UNL     1     -17.889  33.661 -10.857  1.00  0.00     0.223 A 
ENDROOT
BRANCH   1  11
ATOM     11  C   UNL     1     -19.353  33.873  -8.807  1.00  0.00     0.087 A 
ATOM     12  C   UNL     1     -19.712  32.709  -8.106  1.00  0.00     0.022 A 
ATOM     13  C   UNL     1     -20.939  32.635  -7.443  1.00  0.00     0.051 A 
ATOM     14  C   UNL     1     -21.819  33.725  -7.458  1.00  0.00     0.157 A 
ATOM     15  C   UNL     1     -20.229  34.971  -8.802  1.00  0.00     0.068 A 
ATOM     16  C   UNL     1     -21.459  34.900  -8.138  1.00  0.00     0.158 A 
BRANCH  14  17
ATOM     17  O   UNL     1     -23.044  33.647  -6.796  1.00  0.00    -0.504 OA
ATOM     18  H   UNL     1     -23.307  34.321  -6.087  1.00  0.00     0.293 HD
ENDBRANCH  14  17
BRANCH  16  19
ATOM     19  O   UNL     1     -22.309  36.005  -8.166  1.00  0.00    -0.504 OA
ATOM     20  H   UNL     1     -22.868  36.275  -7.366  1.00  0.00     0.293 HD
ENDBRANCH  16  19
ENDBRANCH   1  11
BRANCH  10  21
ATOM     21  O   UNL     1     -18.976  33.257 -11.630  1.00  0.00    -0.500 OA
ATOM     22  H   UNL     1     -18.856  32.873 -12.560  1.00  0.00     0.294 HD
ENDBRANCH  10  21
BRANCH   5  23
ATOM     23  O   UNL     1     -12.444  35.652  -8.190  1.00  0.00    -0.507 OA
ATOM     24  H   UNL     1     -12.556  36.495  -7.639  1.00  0.00     0.293 HD
ENDBRANCH   5  23
BRANCH   7  25
ATOM     25  O   UNL     1     -13.882  34.073 -12.508  1.00  0.00    -0.507 OA
ATOM     26  H   UNL     1     -13.126  34.505 -13.018  1.00  0.00     0.293 HD
ENDBRANCH   7  25
TORSDOF 6
ENDMDL
MODEL 2
REMARK VINA RESULT:     7.691     11.011     14.096
REMARK INTER + INTRA:           8.915
REMARK INTER:                   8.601
REMARK INTRA:                   0.314
REMARK UNBOUND:                -0.349
REMARK SMILES Oc1cc(O)c2cc(O)c(-c3ccc(O)c(O)c3)[o+]c2c1.[Cl-]
REMARK SMILES IDX 10 1 19 2 20 3 21 4 2 5 3 6 4 7 6 8 7 9 8 10 11 11 12 12
REMARK SMILES IDX 13 13 14 14 18 15 16 16 15 17 17 19 9 21 1 23 5 25
REMARK H PARENT 15 18 17 20 9 22 1 24 5 26
REMARK Flexibility Score: inf
ROOT
ATOM      1  C   UNL     1      -8.255  35.163   0.190  1.00  0.00     0.402 A 
ATOM      2  O   UNL     1      -8.242  33.852   0.417  1.00  0.00    -0.202 OA
ATOM      3  C   UNL     1      -7.235  33.225   1.017  1.00  0.00     0.368 A 
ATOM      4  C   UNL     1      -7.312  31.843   1.207  1.00  0.00     0.162 A 
ATOM      5  C   UNL     1      -6.269  31.158   1.831  1.00  0.00     0.128 A 
ATOM      6  C   UNL     1      -5.139  31.857   2.268  1.00  0.00     0.093 A 
ATOM      7  C   UNL     1      -5.038  33.242   2.089  1.00  0.00     0.136 A 
ATOM      8  C   UNL     1      -6.098  33.943   1.457  1.00  0.00     0.125 A 
ATOM      9  C   UNL     1      -6.089  35.332   1.248  1.00  0.00     0.078 A 
ATOM     10  C   UNL     1      -7.173  35.954   0.621  1.00  0.00     0.223 A 
ENDROOT
BRANCH   1  11
ATOM     11  C   UNL     1      -9.432  35.744  -0.496  1.00  0.00     0.087 A 
ATOM     12  C   UNL     1      -9.374  37.011  -1.102  1.00  0.00     0.022 A 
ATOM     13  C   UNL     1     -10.490  37.528  -1.765  1.00  0.00     0.051 A 
ATOM     14  C   UNL     1     -11.674  36.783  -1.845  1.00  0.00     0.157 A 
ATOM     15  C   UNL     1     -10.613  34.992  -0.597  1.00  0.00     0.068 A 
ATOM     16  C   UNL     1     -11.733  35.507  -1.260  1.00  0.00     0.158 A 
BRANCH  14  17
ATOM     17  O   UNL     1     -12.786  37.302  -2.505  1.00  0.00    -0.504 OA
ATOM     18  H   UNL     1     -13.668  36.804  -2.530  1.00  0.00     0.293 HD
ENDBRANCH  14  17
BRANCH  16  19
ATOM     19  O   UNL     1     -12.894  34.737  -1.328  1.00  0.00    -0.504 OA
ATOM     20  H   UNL     1     -13.762  35.033  -0.897  1.00  0.00     0.293 HD
ENDBRANCH  16  19
ENDBRANCH   1  11
BRANCH  10  21
ATOM     21  O   UNL     1      -7.187  37.339   0.458  1.00  0.00    -0.500 OA
ATOM     22  H   UNL     1      -7.880  37.800  -0.120  1.00  0.00     0.294 HD
ENDBRANCH  10  21
BRANCH   5  23
ATOM     23  O   UNL     1      -6.365  29.779   2.012  1.00  0.00    -0.507 OA
ATOM     24  H   UNL     1      -7.152  29.251   1.653  1.00  0.00     0.293 HD
ENDBRANCH   5  23
BRANCH   7  25
ATOM     25  O   UNL     1      -3.876  33.868   2.550  1.00  0.00    -0.507 OA
ATOM     26  H   UNL     1      -3.146  34.228   1.953  1.00  0.00     0.293 HD
ENDBRANCH   7  25
TORSDOF 6
ENDMDL
MODEL 3
REMARK VINA RESULT:     7.780      8.598     11.198
REMARK INTER + INTRA:           9.022
REMARK INTER:                   9.375
REMARK INTRA:                  -0.353
REMARK UNBOUND:                -0.349
REMARK SMILES Oc1cc(O)c2cc(O)c(-c3ccc(O)c(O)c3)[o+]c2c1.[Cl-]
REMARK SMILES IDX 10 1 19 2 20 3 21 4 2 5 3 6 4 7 6 8 7 9 8 10 11 11 12 12
REMARK SMILES IDX 13 13 14 14 18 15 16 16 15 17 17 19 9 21 1 23 5 25
REMARK H PARENT 15 18 17 20 9 22 1 24 5 26
REMARK Flexibility Score: inf
ROOT
ATOM      1  C   UNL     1     -22.059  25.676  -7.724  1.00  0.00     0.402 A 
ATOM      2  O   UNL     1     -22.808  25.777  -6.630  1.00  0.00    -0.202 OA
ATOM      3  C   UNL     1     -22.438  25.301  -5.445  1.00  0.00     0.368 A 
ATOM      4  C   UNL     1     -23.297  25.453  -4.353  1.00  0.00     0.162 A 
ATOM      5  C   UNL     1     -22.937  24.961  -3.099  1.00  0.00     0.128 A 
ATOM      6  C   UNL     1     -21.709  24.311  -2.931  1.00  0.00     0.093 A 
ATOM      7  C   UNL     1     -20.831  24.146  -4.010  1.00  0.00     0.136 A 
ATOM      8  C   UNL     1     -21.193  24.647  -5.287  1.00  0.00     0.125 A 
ATOM      9  C   UNL     1     -20.371  24.540  -6.421  1.00  0.00     0.078 A 
ATOM     10  C   UNL     1     -20.794  25.063  -7.646  1.00  0.00     0.223 A 
ENDROOT
BRANCH   1  11
ATOM     11  C   UNL     1     -22.585  26.238  -8.989  1.00  0.00     0.087 A 
ATOM     12  C   UNL     1     -23.349  25.459  -9.875  1.00  0.00     0.022 A 
ATOM     13  C   UNL     1     -23.856  26.018 -11.050  1.00  0.00     0.051 A 
ATOM     14  C   UNL     1     -23.620  27.365 -11.352  1.00  0.00     0.157 A 
ATOM     15  C   UNL     1     -22.369  27.594  -9.285  1.00  0.00     0.068 A 
ATOM     16  C   UNL     1     -22.875  28.158 -10.462  1.00  0.00     0.158 A 
BRANCH  14  17
ATOM     17  O   UNL     1     -24.125  27.920 -12.527  1.00  0.00    -0.504 OA
ATOM     18  H   UNL     1     -24.127  27.404 -13.399  1.00  0.00     0.293 HD
ENDBRANCH  14  17
BRANCH  16  19
ATOM     19  O   UNL     1     -22.628  29.503 -10.729  1.00  0.00    -0.504 OA
ATOM     20  H   UNL     1     -23.208  30.043 -11.361  1.00  0.00     0.293 HD
ENDBRANCH  16  19
ENDBRANCH   1  11
BRANCH  10  21
ATOM     21  O   UNL     1     -19.957  25.000  -8.760  1.00  0.00    -0.500 OA
ATOM     22  H   UNL     1     -20.290  25.228  -9.690  1.00  0.00     0.294 HD
ENDBRANCH  10  21
BRANCH   5  23
ATOM     23  O   UNL     1     -23.807  25.122  -2.022  1.00  0.00    -0.507 OA
ATOM     24  H   UNL     1     -23.538  24.862  -1.080  1.00  0.00     0.293 HD
ENDBRANCH   5  23
BRANCH   7  25
ATOM     25  O   UNL     1     -19.625  23.483  -3.763  1.00  0.00    -0.507 OA
ATOM     26  H   UNL     1     -18.884  23.376  -4.440  1.00  0.00     0.293 HD
ENDBRANCH   7  25
TORSDOF 6
ENDMDL
MODEL 4
REMARK VINA RESULT:     8.138     13.022     15.294
REMARK INTER + INTRA:           9.454
REMARK INTER:                   9.710
REMARK INTRA:                  -0.255
REMARK UNBOUND:                -0.349
REMARK SMILES Oc1cc(O)c2cc(O)c(-c3ccc(O)c(O)c3)[o+]c2c1.[Cl-]
REMARK SMILES IDX 10 1 19 2 20 3 21 4 2 5 3 6 4 7 6 8 7 9 8 10 11 11 12 12
REMARK SMILES IDX 13 13 14 14 18 15 16 16 15 17 17 19 9 21 1 23 5 25
REMARK H PARENT 15 18 17 20 9 22 1 24 5 26
REMARK Flexibility Score: inf
ROOT
ATOM      1  C   UNL     1      -6.895  33.412   1.105  1.00  0.00     0.402 A 
ATOM      2  O   UNL     1      -7.819  34.162   0.513  1.00  0.00    -0.202 OA
ATOM      3  C   UNL     1      -7.599  35.410   0.111  1.00  0.00     0.368 A 
ATOM      4  C   UNL     1      -8.635  36.121  -0.500  1.00  0.00     0.162 A 
ATOM      5  C   UNL     1      -8.434  37.432  -0.929  1.00  0.00     0.128 A 
ATOM      6  C   UNL     1      -7.188  38.042  -0.747  1.00  0.00     0.093 A 
ATOM      7  C   UNL     1      -6.133  37.350  -0.138  1.00  0.00     0.136 A 
ATOM      8  C   UNL     1      -6.333  36.015   0.298  1.00  0.00     0.125 A 
ATOM      9  C   UNL     1      -5.330  35.242   0.905  1.00  0.00     0.078 A 
ATOM     10  C   UNL     1      -5.601  33.929   1.305  1.00  0.00     0.223 A 
ENDROOT
BRANCH   1  11
ATOM     11  C   UNL     1      -7.265  32.038   1.517  1.00  0.00     0.087 A 
ATOM     12  C   UNL     1      -7.343  31.675   2.872  1.00  0.00     0.022 A 
ATOM     13  C   UNL     1      -7.718  30.380   3.236  1.00  0.00     0.051 A 
ATOM     14  C   UNL     1      -8.034  29.432   2.254  1.00  0.00     0.157 A 
ATOM     15  C   UNL     1      -7.604  31.091   0.536  1.00  0.00     0.068 A 
ATOM     16  C   UNL     1      -7.980  29.792   0.897  1.00  0.00     0.158 A 
BRANCH  14  17
ATOM     17  O   UNL     1      -8.407  28.140   2.621  1.00  0.00    -0.504 OA
ATOM     18  H   UNL     1      -7.719  27.408   2.755  1.00  0.00     0.293 HD
ENDBRANCH  14  17
BRANCH  16  19
ATOM     19  O   UNL     1      -8.296  28.875  -0.104  1.00  0.00    -0.504 OA
ATOM     20  H   UNL     1      -9.235  28.516  -0.229  1.00  0.00     0.293 HD
ENDBRANCH  16  19
ENDBRANCH   1  11
BRANCH  10  21
ATOM     21  O   UNL     1      -4.592  33.145   1.863  1.00  0.00    -0.500 OA
ATOM     22  H   UNL     1      -4.800  32.380   2.493  1.00  0.00     0.294 HD
ENDBRANCH  10  21
BRANCH   5  23
ATOM     23  O   UNL     1      -9.480  38.125  -1.536  1.00  0.00    -0.507 OA
ATOM     24  H   UNL     1     -10.097  37.675  -2.203  1.00  0.00     0.293 HD
ENDBRANCH   5  23
BRANCH   7  25
ATOM     25  O   UNL     1      -4.919  38.029   0.011  1.00  0.00    -0.507 OA
ATOM     26  H   UNL     1      -4.477  38.574  -0.715  1.00  0.00     0.293 HD
ENDBRANCH   7  25
TORSDOF 6
ENDMDL
MODEL 5
REMARK VINA RESULT:     8.376      1.781      3.454
REMARK INTER + INTRA:           9.740
REMARK INTER:                  10.010
REMARK INTRA:                  -0.270
REMARK UNBOUND:                -0.349
REMARK SMILES Oc1cc(O)c2cc(O)c(-c3ccc(O)c(O)c3)[o+]c2c1.[Cl-]
REMARK SMILES IDX 10 1 19 2 20 3 21 4 2 5 3 6 4 7 6 8 7 9 8 10 11 11 12 12
REMARK SMILES IDX 13 13 14 14 18 15 16 16 15 17 17 19 9 21 1 23 5 25
REMARK H PARENT 15 18 17 20 9 22 1 24 5 26
REMARK Flexibility Score: inf
ROOT
ATOM      1  C   UNL     1     -19.028  34.017  -9.205  1.00  0.00     0.402 A 
ATOM      2  O   UNL     1     -18.998  33.909 -10.530  1.00  0.00    -0.202 OA
ATOM      3  C   UNL     1     -17.872  33.788 -11.227  1.00  0.00     0.368 A 
ATOM      4  C   UNL     1     -17.942  33.685 -12.619  1.00  0.00     0.162 A 
ATOM      5  C   UNL     1     -16.777  33.560 -13.376  1.00  0.00     0.128 A 
ATOM      6  C   UNL     1     -15.531  33.539 -12.740  1.00  0.00     0.093 A 
ATOM      7  C   UNL     1     -15.435  33.641 -11.346  1.00  0.00     0.136 A 
ATOM      8  C   UNL     1     -16.618  33.765 -10.572  1.00  0.00     0.125 A 
ATOM      9  C   UNL     1     -16.618  33.859  -9.171  1.00  0.00     0.078 A 
ATOM     10  C   UNL     1     -17.825  33.976  -8.475  1.00  0.00     0.223 A 
ENDROOT
BRANCH   1  11
ATOM     11  C   UNL     1     -20.346  34.156  -8.543  1.00  0.00     0.087 A 
ATOM     12  C   UNL     1     -21.085  35.348  -8.628  1.00  0.00     0.022 A 
ATOM     13  C   UNL     1     -22.337  35.448  -8.015  1.00  0.00     0.051 A 
ATOM     14  C   UNL     1     -22.875  34.356  -7.322  1.00  0.00     0.157 A 
ATOM     15  C   UNL     1     -20.898  33.056  -7.866  1.00  0.00     0.068 A 
ATOM     16  C   UNL     1     -22.152  33.153  -7.251  1.00  0.00     0.158 A 
BRANCH  14  17
ATOM     17  O   UNL     1     -24.124  34.458  -6.711  1.00  0.00    -0.504 OA
ATOM     18  H   UNL     1     -24.268  34.173  -5.749  1.00  0.00     0.293 HD
ENDBRANCH  14  17
BRANCH  16  19
ATOM     19  O   UNL     1     -22.662  32.045  -6.575  1.00  0.00    -0.504 OA
ATOM     20  H   UNL     1     -22.247  31.125  -6.658  1.00  0.00     0.293 HD
ENDBRANCH  16  19
ENDBRANCH   1  11
BRANCH  10  21
ATOM     21  O   UNL     1     -17.829  34.019  -7.082  1.00  0.00    -0.500 OA
ATOM     22  H   UNL     1     -18.544  33.553  -6.536  1.00  0.00     0.294 HD
ENDBRANCH  10  21
BRANCH   5  23
ATOM     23  O   UNL     1     -16.867  33.458 -14.763  1.00  0.00    -0.507 OA
ATOM     24  H   UNL     1     -16.040  33.368 -15.342  1.00  0.00     0.293 HD
ENDBRANCH   5  23
BRANCH   7  25
ATOM     25  O   UNL     1     -14.154  33.615 -10.785  1.00  0.00    -0.507 OA
ATOM     26  H   UNL     1     -13.824  32.904 -10.149  1.00  0.00     0.293 HD
ENDBRANCH   7  25
TORSDOF 6
ENDMDL
MODEL 6
REMARK VINA RESULT:     8.397      1.675      7.237
REMARK INTER + INTRA:           9.766
REMARK INTER:                  10.114
REMARK INTRA:                  -0.347
REMARK UNBOUND:                -0.349
REMARK SMILES Oc1cc(O)c2cc(O)c(-c3ccc(O)c(O)c3)[o+]c2c1.[Cl-]
REMARK SMILES IDX 10 1 19 2 20 3 21 4 2 5 3 6 4 7 6 8 7 9 8 10 11 11 12 12
REMARK SMILES IDX 13 13 14 14 18 15 16 16 15 17 17 19 9 21 1 23 5 25
REMARK H PARENT 15 18 17 20 9 22 1 24 5 26
REMARK Flexibility Score: inf
ROOT
ATOM      1  C   UNL     1     -19.351  34.099  -8.996  1.00  0.00     0.402 A 
ATOM      2  O   UNL     1     -20.015  35.244  -9.126  1.00  0.00    -0.202 OA
ATOM      3  C   UNL     1     -21.254  35.424  -8.683  1.00  0.00     0.368 A 
ATOM      4  C   UNL     1     -21.871  36.664  -8.869  1.00  0.00     0.162 A 
ATOM      5  C   UNL     1     -23.172  36.880  -8.418  1.00  0.00     0.128 A 
ATOM      6  C   UNL     1     -23.867  35.850  -7.775  1.00  0.00     0.093 A 
ATOM      7  C   UNL     1     -23.272  34.598  -7.576  1.00  0.00     0.136 A 
ATOM      8  C   UNL     1     -21.946  34.375  -8.032  1.00  0.00     0.125 A 
ATOM      9  C   UNL     1     -21.266  33.158  -7.864  1.00  0.00     0.078 A 
ATOM     10  C   UNL     1     -19.958  33.014  -8.336  1.00  0.00     0.223 A 
ENDROOT
BRANCH   1  11
ATOM     11  C   UNL     1     -17.976  34.020  -9.541  1.00  0.00     0.087 A 
ATOM     12  C   UNL     1     -17.738  33.670 -10.881  1.00  0.00     0.022 A 
ATOM     13  C   UNL     1     -16.433  33.626 -11.378  1.00  0.00     0.051 A 
ATOM     14  C   UNL     1     -15.349  33.942 -10.550  1.00  0.00     0.157 A 
ATOM     15  C   UNL     1     -16.888  34.357  -8.719  1.00  0.00     0.068 A 
ATOM     16  C   UNL     1     -15.579  34.313  -9.214  1.00  0.00     0.158 A 
BRANCH  14  17
ATOM     17  O   UNL     1     -14.048  33.895 -11.048  1.00  0.00    -0.504 OA
ATOM     18  H   UNL     1     -13.245  34.048 -10.448  1.00  0.00     0.293 HD
ENDBRANCH  14  17
BRANCH  16  19
ATOM     19  O   UNL     1     -14.522  34.640  -8.365  1.00  0.00    -0.504 OA
ATOM     20  H   UNL     1     -13.592  34.261  -8.492  1.00  0.00     0.293 HD
ENDBRANCH  16  19
ENDBRANCH   1  11
BRANCH  10  21
ATOM     21  O   UNL     1     -19.266  31.822  -8.126  1.00  0.00    -0.500 OA
ATOM     22  H   UNL     1     -19.507  31.192  -7.370  1.00  0.00     0.294 HD
ENDBRANCH  10  21
BRANCH   5  23
ATOM     23  O   UNL     1     -23.769  38.125  -8.613  1.00  0.00    -0.507 OA
ATOM     24  H   UNL     1     -24.458  38.273  -9.341  1.00  0.00     0.293 HD
ENDBRANCH   5  23
BRANCH   7  25
ATOM     25  O   UNL     1     -24.032  33.619  -6.928  1.00  0.00    -0.507 OA
ATOM     26  H   UNL     1     -23.853  32.628  -6.985  1.00  0.00     0.293 HD
ENDBRANCH   7  25
TORSDOF 6
ENDMDL
MODEL 7
REMARK VINA RESULT:     8.975     11.185     15.212
REMARK INTER + INTRA:          10.462
REMARK INTER:                  10.146
REMARK INTRA:                   0.317
REMARK UNBOUND:                -0.349
REMARK SMILES Oc1cc(O)c2cc(O)c(-c3ccc(O)c(O)c3)[o+]c2c1.[Cl-]
REMARK SMILES IDX 10 1 19 2 20 3 21 4 2 5 3 6 4 7 6 8 7 9 8 10 11 11 12 12
REMARK SMILES IDX 13 13 14 14 18 15 16 16 15 17 17 19 9 21 1 23 5 25
REMARK H PARENT 15 18 17 20 9 22 1 24 5 26
REMARK Flexibility Score: inf
ROOT
ATOM      1  C   UNL     1      -7.041  37.458  -0.089  1.00  0.00     0.402 A 
ATOM      2  O   UNL     1      -8.311  37.082   0.030  1.00  0.00    -0.202 OA
ATOM      3  C   UNL     1      -9.152  37.018  -0.997  1.00  0.00     0.368 A 
ATOM      4  C   UNL     1     -10.471  36.615  -0.772  1.00  0.00     0.162 A 
ATOM      5  C   UNL     1     -11.377  36.541  -1.830  1.00  0.00     0.128 A 
ATOM      6  C   UNL     1     -10.964  36.874  -3.125  1.00  0.00     0.093 A 
ATOM      7  C   UNL     1      -9.648  37.282  -3.377  1.00  0.00     0.136 A 
ATOM      8  C   UNL     1      -8.723  37.355  -2.303  1.00  0.00     0.125 A 
ATOM      9  C   UNL     1      -7.382  37.740  -2.464  1.00  0.00     0.078 A 
ATOM     10  C   UNL     1      -6.527  37.784  -1.358  1.00  0.00     0.223 A 
ENDROOT
BRANCH   1  11
ATOM     11  C   UNL     1      -6.205  37.498   1.133  1.00  0.00     0.087 A 
ATOM     12  C   UNL     1      -4.803  37.417   1.064  1.00  0.00     0.022 A 
ATOM     13  C   UNL     1      -4.034  37.482   2.229  1.00  0.00     0.051 A 
ATOM     14  C   UNL     1      -4.651  37.641   3.476  1.00  0.00     0.157 A 
ATOM     15  C   UNL     1      -6.818  37.679   2.383  1.00  0.00     0.068 A 
ATOM     16  C   UNL     1      -6.051  37.744   3.552  1.00  0.00     0.158 A 
BRANCH  14  17
ATOM     17  O   UNL     1      -3.881  37.703   4.637  1.00  0.00    -0.504 OA
ATOM     18  H   UNL     1      -2.921  37.379   4.654  1.00  0.00     0.293 HD
ENDBRANCH  14  17
BRANCH  16  19
ATOM     19  O   UNL     1      -6.695  37.910   4.778  1.00  0.00    -0.504 OA
ATOM     20  H   UNL     1      -6.280  38.438   5.537  1.00  0.00     0.293 HD
ENDBRANCH  16  19
ENDBRANCH   1  11
BRANCH  10  21
ATOM     21  O   UNL     1      -5.184  38.118  -1.525  1.00  0.00    -0.500 OA
ATOM     22  H   UNL     1      -4.598  37.646  -2.204  1.00  0.00     0.294 HD
ENDBRANCH  10  21
BRANCH   5  23
ATOM     23  O   UNL     1     -12.688  36.136  -1.586  1.00  0.00    -0.507 OA
ATOM     24  H   UNL     1     -13.338  36.724  -1.076  1.00  0.00     0.293 HD
ENDBRANCH   5  23
BRANCH   7  25
ATOM     25  O   UNL     1      -9.314  37.601  -4.697  1.00  0.00    -0.507 OA
ATOM     26  H   UNL     1      -8.412  37.945  -4.989  1.00  0.00     0.293 HD
ENDBRANCH   7  25
TORSDOF 6
ENDMDL
