MODEL 1
REMARK VINA RESULT:    -3.232      0.000      0.000
REMARK INTER + INTRA:         -14.328
REMARK INTER:                  -8.522
REMARK INTRA:                  -5.805
REMARK UNBOUND:                -5.805
REMARK SMILES CCCCCCCCCCCCCCCCCCCCCCCCCCCCCC(=O)[O-]
REMARK SMILES IDX 16 1 17 2 18 3 19 4 20 5 21 6 22 7 23 8 24 9 25 10 26 11
REMARK SMILES IDX 27 12 28 13 29 14 30 15 31 16 32 17 15 18 14 19 13 20 12 21
REMARK SMILES IDX 11 22 10 23 9 24 8 25 7 26 6 27 5 28 4 29 3 30 2 31 1 32
REMARK H PARENT
REMARK Flexibility Score: inf
ROOT
ATOM      1  C   UNL     1     130.510 139.425 138.508  1.00  0.00     0.000 C 
ENDROOT
BRANCH   1   2
ATOM      2  C   UNL     1     131.193 140.784 138.261  1.00  0.00     0.000 C 
BRANCH   2   3
ATOM      3  C   UNL     1     130.226 141.987 138.301  1.00  0.00     0.000 C 
BRANCH   3   4
ATOM      4  C   UNL     1     130.929 143.326 138.017  1.00  0.00     0.000 C 
BRANCH   4   5
ATOM      5  C   UNL     1     131.412 144.027 139.297  1.00  0.00     0.000 C 
BRANCH   5   6
ATOM      6  C   UNL     1     132.792 144.687 139.125  1.00  0.00     0.000 C 
BRANCH   6   7
ATOM      7  C   UNL     1     133.593 144.713 140.438  1.00  0.00     0.000 C 
BRANCH   7   8
ATOM      8  C   UNL     1     134.977 144.058 140.290  1.00  0.00     0.000 C 
BRANCH   8   9
ATOM      9  C   UNL     1     134.961 142.825 139.369  1.00  0.00     0.000 C 
BRANCH   9  10
ATOM     10  C   UNL     1     136.115 142.758 138.351  1.00  0.00     0.000 C 
BRANCH  10  11
ATOM     11  C   UNL     1     135.642 142.894 136.897  1.00  0.00     0.000 C 
BRANCH  11  12
ATOM     12  C   UNL     1     134.262 142.248 136.708  1.00  0.00     0.000 C 
BRANCH  12  13
ATOM     13  C   UNL     1     133.566 142.695 135.408  1.00  0.00     0.006 C 
BRANCH  13  14
ATOM     14  C   UNL     1     133.185 144.184 135.375  1.00  0.00     0.053 C 
BRANCH  14  15
ATOM     15  C   UNL     1     132.198 144.487 134.289  1.00  0.00     0.041 C 
ATOM     16  O   UNL     1     132.598 144.832 133.147  1.00  0.00    -0.550 OA
ATOM     17  O   UNL     1     130.835 144.421 134.550  1.00  0.00    -0.550 OA
ENDBRANCH  14  15
ENDBRANCH  13  14
ENDBRANCH  12  13
ENDBRANCH  11  12
ENDBRANCH  10  11
ENDBRANCH   9  10
ENDBRANCH   8   9
ENDBRANCH   7   8
ENDBRANCH   6   7
ENDBRANCH   5   6
ENDBRANCH   4   5
ENDBRANCH   3   4
ENDBRANCH   2   3
ENDBRANCH   1   2
BRANCH   1  18
ATOM     18  C   UNL     1     129.243 139.480 139.381  1.00  0.00     0.000 C 
BRANCH  18  19
ATOM     19  C   UNL     1     129.005 138.244 140.273  1.00  0.00     0.000 C 
BRANCH  19  20
ATOM     20  C   UNL     1     129.711 138.279 141.640  1.00  0.00     0.000 C 
BRANCH  20  21
ATOM     21  C   UNL     1     130.544 137.020 141.918  1.00  0.00     0.000 C 
BRANCH  21  22
ATOM     22  C   UNL     1     132.039 137.301 141.736  1.00  0.00     0.000 C 
BRANCH  22  23
ATOM     23  C   UNL     1     132.686 137.737 143.060  1.00  0.00     0.000 C 
BRANCH  23  24
ATOM     24  C   UNL     1     133.177 139.195 143.033  1.00  0.00    -0.000 C 
BRANCH  24  25
ATOM     25  C   UNL     1     133.135 139.871 141.649  1.00  0.00    -0.000 C 
BRANCH  25  26
ATOM     26  C   UNL     1     132.682 141.345 141.651  1.00  0.00    -0.000 C 
BRANCH  26  27
ATOM     27  C   UNL     1     131.186 141.565 141.939  1.00  0.00    -0.000 C 
BRANCH  27  28
ATOM     28  C   UNL     1     130.883 142.506 143.120  1.00  0.00    -0.000 C 
BRANCH  28  29
ATOM     29  C   UNL     1     131.505 142.046 144.457  1.00  0.00    -0.000 C 
BRANCH  29  30
ATOM     30  C   UNL     1     130.469 141.399 145.393  1.00  0.00    -0.000 C 
BRANCH  30  31
ATOM     31  C   UNL     1     130.054 139.994 144.935  1.00  0.00    -0.003 C 
ATOM     32  C   UNL     1     130.529 138.896 145.886  1.00  0.00     0.004 C 
ENDBRANCH  30  31
ENDBRANCH  29  30
ENDBRANCH  28  29
ENDBRANCH  27  28
ENDBRANCH  26  27
ENDBRANCH  25  26
ENDBRANCH  24  25
ENDBRANCH  23  24
ENDBRANCH  22  23
ENDBRANCH  21  22
ENDBRANCH  20  21
ENDBRANCH  19  20
ENDBRANCH  18  19
ENDBRANCH   1  18
TORSDOF 28
ENDMDL
MODEL 2
REMARK VINA RESULT:    -3.116      6.966     11.306
REMARK INTER + INTRA:         -14.022
REMARK INTER:                  -7.399
REMARK INTRA:                  -6.623
REMARK UNBOUND:                -5.805
REMARK SMILES CCCCCCCCCCCCCCCCCCCCCCCCCCCCCC(=O)[O-]
REMARK SMILES IDX 16 1 17 2 18 3 19 4 20 5 21 6 22 7 23 8 24 9 25 10 26 11
REMARK SMILES IDX 27 12 28 13 29 14 30 15 31 16 32 17 15 18 14 19 13 20 12 21
REMARK SMILES IDX 11 22 10 23 9 24 8 25 7 26 6 27 5 28 4 29 3 30 2 31 1 32
REMARK H PARENT
REMARK Flexibility Score: inf
ROOT
ATOM      1  C   UNL     1     133.272 139.849 130.713  1.00  0.00     0.000 C 
ENDROOT
BRANCH   1   2
ATOM      2  C   UNL     1     131.837 140.021 131.250  1.00  0.00     0.000 C 
BRANCH   2   3
ATOM      3  C   UNL     1     131.187 141.370 130.877  1.00  0.00     0.000 C 
BRANCH   3   4
ATOM      4  C   UNL     1     131.935 142.576 131.472  1.00  0.00     0.000 C 
BRANCH   4   5
ATOM      5  C   UNL     1     132.579 143.465 130.396  1.00  0.00     0.000 C 
BRANCH   5   6
ATOM      6  C   UNL     1     133.886 144.122 130.876  1.00  0.00     0.000 C 
BRANCH   6   7
ATOM      7  C   UNL     1     133.650 145.125 132.017  1.00  0.00     0.000 C 
BRANCH   7   8
ATOM      8  C   UNL     1     134.529 144.830 133.244  1.00  0.00     0.000 C 
BRANCH   8   9
ATOM      9  C   UNL     1     133.723 144.739 134.552  1.00  0.00     0.000 C 
BRANCH   9  10
ATOM     10  C   UNL     1     133.429 143.307 135.037  1.00  0.00     0.000 C 
BRANCH  10  11
ATOM     11  C   UNL     1     134.594 142.339 134.792  1.00  0.00     0.000 C 
BRANCH  11  12
ATOM     12  C   UNL     1     134.127 141.109 134.000  1.00  0.00     0.000 C 
BRANCH  12  13
ATOM     13  C   UNL     1     134.598 139.782 134.623  1.00  0.00     0.006 C 
BRANCH  13  14
ATOM     14  C   UNL     1     134.978 138.702 133.597  1.00  0.00     0.053 C 
BRANCH  14  15
ATOM     15  C   UNL     1     134.130 137.474 133.732  1.00  0.00     0.041 C 
ATOM     16  O   UNL     1     134.111 136.613 132.815  1.00  0.00    -0.550 OA
ATOM     17  O   UNL     1     133.334 137.300 134.857  1.00  0.00    -0.550 OA
ENDBRANCH  14  15
ENDBRANCH  13  14
ENDBRANCH  12  13
ENDBRANCH  11  12
ENDBRANCH  10  11
ENDBRANCH   9  10
ENDBRANCH   8   9
ENDBRANCH   7   8
ENDBRANCH   6   7
ENDBRANCH   5   6
ENDBRANCH   4   5
ENDBRANCH   3   4
ENDBRANCH   2   3
ENDBRANCH   1   2
BRANCH   1  18
ATOM     18  C   UNL     1     133.375 139.573 129.202  1.00  0.00     0.000 C 
BRANCH  18  19
ATOM     19  C   UNL     1     134.067 140.679 128.377  1.00  0.00     0.000 C 
BRANCH  19  20
ATOM     20  C   UNL     1     135.342 141.265 129.010  1.00  0.00     0.000 C 
BRANCH  20  21
ATOM     21  C   UNL     1     136.429 140.210 129.255  1.00  0.00     0.000 C 
BRANCH  21  22
ATOM     22  C   UNL     1     137.043 140.369 130.650  1.00  0.00     0.000 C 
BRANCH  22  23
ATOM     23  C   UNL     1     136.513 141.632 131.347  1.00  0.00     0.000 C 
BRANCH  23  24
ATOM     24  C   UNL     1     137.593 142.356 132.169  1.00  0.00    -0.000 C 
BRANCH  24  25
ATOM     25  C   UNL     1     137.803 143.839 131.805  1.00  0.00    -0.000 C 
BRANCH  25  26
ATOM     26  C   UNL     1     137.462 144.213 130.348  1.00  0.00    -0.000 C 
BRANCH  26  27
ATOM     27  C   UNL     1     138.655 144.188 129.375  1.00  0.00    -0.000 C 
BRANCH  27  28
ATOM     28  C   UNL     1     138.625 143.047 128.341  1.00  0.00    -0.000 C 
BRANCH  28  29
ATOM     29  C   UNL     1     139.725 141.985 128.553  1.00  0.00    -0.000 C 
BRANCH  29  30
ATOM     30  C   UNL     1     140.883 142.506 129.421  1.00  0.00    -0.000 C 
BRANCH  30  31
ATOM     31  C   UNL     1     141.014 141.748 130.750  1.00  0.00    -0.003 C 
ATOM     32  C   UNL     1     140.672 140.264 130.622  1.00  0.00     0.004 C 
ENDBRANCH  30  31
ENDBRANCH  29  30
ENDBRANCH  28  29
ENDBRANCH  27  28
ENDBRANCH  26  27
ENDBRANCH  25  26
ENDBRANCH  24  25
ENDBRANCH  23  24
ENDBRANCH  22  23
ENDBRANCH  21  22
ENDBRANCH  20  21
ENDBRANCH  19  20
ENDBRANCH  18  19
ENDBRANCH   1  18
TORSDOF 28
ENDMDL
MODEL 3
REMARK VINA RESULT:    -3.112      5.600     11.377
REMARK INTER + INTRA:         -14.012
REMARK INTER:                  -8.129
REMARK INTRA:                  -5.882
REMARK UNBOUND:                -5.805
REMARK SMILES CCCCCCCCCCCCCCCCCCCCCCCCCCCCCC(=O)[O-]
REMARK SMILES IDX 16 1 17 2 18 3 19 4 20 5 21 6 22 7 23 8 24 9 25 10 26 11
REMARK SMILES IDX 27 12 28 13 29 14 30 15 31 16 32 17 15 18 14 19 13 20 12 21
REMARK SMILES IDX 11 22 10 23 9 24 8 25 7 26 6 27 5 28 4 29 3 30 2 31 1 32
REMARK H PARENT
REMARK Flexibility Score: inf
ROOT
ATOM      1  C   UNL     1     133.469 141.931 130.014  1.00  0.00     0.000 C 
ENDROOT
BRANCH   1   2
ATOM      2  C   UNL     1     132.030 141.744 130.532  1.00  0.00     0.000 C 
BRANCH   2   3
ATOM      3  C   UNL     1     131.767 140.362 131.166  1.00  0.00     0.000 C 
BRANCH   3   4
ATOM      4  C   UNL     1     132.659 139.256 130.573  1.00  0.00     0.000 C 
BRANCH   4   5
ATOM      5  C   UNL     1     133.575 138.606 131.622  1.00  0.00     0.000 C 
BRANCH   5   6
ATOM      6  C   UNL     1     133.747 139.477 132.880  1.00  0.00     0.000 C 
BRANCH   6   7
ATOM      7  C   UNL     1     135.148 140.104 132.967  1.00  0.00     0.000 C 
BRANCH   7   8
ATOM      8  C   UNL     1     135.126 141.490 133.635  1.00  0.00     0.000 C 
BRANCH   8   9
ATOM      9  C   UNL     1     133.707 142.073 133.760  1.00  0.00     0.000 C 
BRANCH   9  10
ATOM     10  C   UNL     1     133.647 143.584 134.050  1.00  0.00     0.000 C 
BRANCH  10  11
ATOM     11  C   UNL     1     132.327 144.229 133.605  1.00  0.00     0.000 C 
BRANCH  11  12
ATOM     12  C   UNL     1     131.212 143.953 134.624  1.00  0.00     0.000 C 
BRANCH  12  13
ATOM     13  C   UNL     1     131.749 143.719 136.049  1.00  0.00     0.006 C 
BRANCH  13  14
ATOM     14  C   UNL     1     130.692 143.222 137.049  1.00  0.00     0.053 C 
BRANCH  14  15
ATOM     15  C   UNL     1     131.181 142.052 137.848  1.00  0.00     0.041 C 
ATOM     16  O   UNL     1     132.348 142.049 138.319  1.00  0.00    -0.550 OA
ATOM     17  O   UNL     1     130.357 140.951 138.042  1.00  0.00    -0.550 OA
ENDBRANCH  14  15
ENDBRANCH  13  14
ENDBRANCH  12  13
ENDBRANCH  11  12
ENDBRANCH  10  11
ENDBRANCH   9  10
ENDBRANCH   8   9
ENDBRANCH   7   8
ENDBRANCH   6   7
ENDBRANCH   5   6
ENDBRANCH   4   5
ENDBRANCH   3   4
ENDBRANCH   2   3
ENDBRANCH   1   2
BRANCH   1  18
ATOM     18  C   UNL     1     134.008 143.371 130.089  1.00  0.00     0.000 C 
BRANCH  18  19
ATOM     19  C   UNL     1     135.477 143.501 130.545  1.00  0.00     0.000 C 
BRANCH  19  20
ATOM     20  C   UNL     1     135.839 144.844 131.206  1.00  0.00     0.000 C 
BRANCH  20  21
ATOM     21  C   UNL     1     136.703 144.679 132.464  1.00  0.00     0.000 C 
BRANCH  21  22
ATOM     22  C   UNL     1     137.846 143.688 132.217  1.00  0.00     0.000 C 
BRANCH  22  23
ATOM     23  C   UNL     1     139.163 144.423 131.923  1.00  0.00     0.000 C 
BRANCH  23  24
ATOM     24  C   UNL     1     139.811 143.981 130.600  1.00  0.00    -0.000 C 
BRANCH  24  25
ATOM     25  C   UNL     1     139.043 144.392 129.329  1.00  0.00    -0.000 C 
BRANCH  25  26
ATOM     26  C   UNL     1     138.658 143.232 128.388  1.00  0.00    -0.000 C 
BRANCH  26  27
ATOM     27  C   UNL     1     139.720 142.125 128.255  1.00  0.00    -0.000 C 
BRANCH  27  28
ATOM     28  C   UNL     1     139.207 140.698 128.528  1.00  0.00    -0.000 C 
BRANCH  28  29
ATOM     29  C   UNL     1     139.167 140.326 130.026  1.00  0.00    -0.000 C 
BRANCH  29  30
ATOM     30  C   UNL     1     137.791 139.790 130.460  1.00  0.00    -0.000 C 
BRANCH  30  31
ATOM     31  C   UNL     1     136.661 140.232 129.519  1.00  0.00    -0.003 C 
ATOM     32  C   UNL     1     135.962 139.055 128.839  1.00  0.00     0.004 C 
ENDBRANCH  30  31
ENDBRANCH  29  30
ENDBRANCH  28  29
ENDBRANCH  27  28
ENDBRANCH  26  27
ENDBRANCH  25  26
ENDBRANCH  24  25
ENDBRANCH  23  24
ENDBRANCH  22  23
ENDBRANCH  21  22
ENDBRANCH  20  21
ENDBRANCH  19  20
ENDBRANCH  18  19
ENDBRANCH   1  18
TORSDOF 28
ENDMDL
MODEL 4
REMARK VINA RESULT:    -3.084      3.592      7.717
REMARK INTER + INTRA:         -13.937
REMARK INTER:                  -8.915
REMARK INTRA:                  -5.023
REMARK UNBOUND:                -5.805
REMARK SMILES CCCCCCCCCCCCCCCCCCCCCCCCCCCCCC(=O)[O-]
REMARK SMILES IDX 16 1 17 2 18 3 19 4 20 5 21 6 22 7 23 8 24 9 25 10 26 11
REMARK SMILES IDX 27 12 28 13 29 14 30 15 31 16 32 17 15 18 14 19 13 20 12 21
REMARK SMILES IDX 11 22 10 23 9 24 8 25 7 26 6 27 5 28 4 29 3 30 2 31 1 32
REMARK H PARENT
REMARK Flexibility Score: inf
ROOT
ATOM      1  C   UNL     1     130.277 137.635 142.504  1.00  0.00     0.000 C 
ENDROOT
BRANCH   1   2
ATOM      2  C   UNL     1     130.374 138.649 143.661  1.00  0.00     0.000 C 
BRANCH   2   3
ATOM      3  C   UNL     1     130.769 138.020 145.013  1.00  0.00     0.000 C 
BRANCH   3   4
ATOM      4  C   UNL     1     130.273 138.838 146.219  1.00  0.00     0.000 C 
BRANCH   4   5
ATOM      5  C   UNL     1     128.999 139.640 145.908  1.00  0.00     0.000 C 
BRANCH   5   6
ATOM      6  C   UNL     1     129.225 141.161 145.981  1.00  0.00     0.000 C 
BRANCH   6   7
ATOM      7  C   UNL     1     130.710 141.522 146.155  1.00  0.00     0.000 C 
BRANCH   7   8
ATOM      8  C   UNL     1     131.324 142.099 144.868  1.00  0.00     0.000 C 
BRANCH   8   9
ATOM      9  C   UNL     1     132.854 141.944 144.811  1.00  0.00     0.000 C 
BRANCH   9  10
ATOM     10  C   UNL     1     133.356 140.499 144.633  1.00  0.00     0.000 C 
BRANCH  10  11
ATOM     11  C   UNL     1     134.342 140.346 143.467  1.00  0.00     0.000 C 
BRANCH  11  12
ATOM     12  C   UNL     1     133.670 139.660 142.269  1.00  0.00     0.000 C 
BRANCH  12  13
ATOM     13  C   UNL     1     134.164 138.217 142.050  1.00  0.00     0.006 C 
BRANCH  13  14
ATOM     14  C   UNL     1     133.927 137.280 143.246  1.00  0.00     0.053 C 
BRANCH  14  15
ATOM     15  C   UNL     1     135.191 136.612 143.695  1.00  0.00     0.041 C 
ATOM     16  O   UNL     1     135.690 136.889 144.817  1.00  0.00    -0.550 OA
ATOM     17  O   UNL     1     135.835 135.710 142.859  1.00  0.00    -0.550 OA
ENDBRANCH  14  15
ENDBRANCH  13  14
ENDBRANCH  12  13
ENDBRANCH  11  12
ENDBRANCH  10  11
ENDBRANCH   9  10
ENDBRANCH   8   9
ENDBRANCH   7   8
ENDBRANCH   6   7
ENDBRANCH   5   6
ENDBRANCH   4   5
ENDBRANCH   3   4
ENDBRANCH   2   3
ENDBRANCH   1   2
BRANCH   1  18
ATOM     18  C   UNL     1     130.472 138.229 141.097  1.00  0.00     0.000 C 
BRANCH  18  19
ATOM     19  C   UNL     1     129.184 138.369 140.259  1.00  0.00     0.000 C 
BRANCH  19  20
ATOM     20  C   UNL     1     129.185 139.532 139.249  1.00  0.00     0.000 C 
BRANCH  20  21
ATOM     21  C   UNL     1     130.526 139.690 138.519  1.00  0.00     0.000 C 
BRANCH  21  22
ATOM     22  C   UNL     1     131.153 141.057 138.817  1.00  0.00     0.000 C 
BRANCH  22  23
ATOM     23  C   UNL     1     130.363 141.804 139.903  1.00  0.00     0.000 C 
BRANCH  23  24
ATOM     24  C   UNL     1     131.182 142.034 141.184  1.00  0.00    -0.000 C 
BRANCH  24  25
ATOM     25  C   UNL     1     132.377 142.995 141.030  1.00  0.00    -0.000 C 
BRANCH  25  26
ATOM     26  C   UNL     1     132.026 144.401 140.501  1.00  0.00    -0.000 C 
BRANCH  26  27
ATOM     27  C   UNL     1     132.693 144.776 139.164  1.00  0.00    -0.000 C 
BRANCH  27  28
ATOM     28  C   UNL     1     133.919 143.924 138.789  1.00  0.00    -0.000 C 
BRANCH  28  29
ATOM     29  C   UNL     1     133.787 143.208 137.427  1.00  0.00    -0.000 C 
BRANCH  29  30
ATOM     30  C   UNL     1     133.147 144.105 136.353  1.00  0.00    -0.000 C 
BRANCH  30  31
ATOM     31  C   UNL     1     131.855 143.507 135.776  1.00  0.00    -0.003 C 
ATOM     32  C   UNL     1     131.271 144.344 134.638  1.00  0.00     0.004 C 
ENDBRANCH  30  31
ENDBRANCH  29  30
ENDBRANCH  28  29
ENDBRANCH  27  28
ENDBRANCH  26  27
ENDBRANCH  25  26
ENDBRANCH  24  25
ENDBRANCH  23  24
ENDBRANCH  22  23
ENDBRANCH  21  22
ENDBRANCH  20  21
ENDBRANCH  19  20
ENDBRANCH  18  19
ENDBRANCH   1  18
TORSDOF 28
ENDMDL
MODEL 5
REMARK VINA RESULT:    -3.082     12.433     15.657
REMARK INTER + INTRA:         -13.932
REMARK INTER:                  -8.344
REMARK INTRA:                  -5.588
REMARK UNBOUND:                -5.805
REMARK SMILES CCCCCCCCCCCCCCCCCCCCCCCCCCCCCC(=O)[O-]
REMARK SMILES IDX 16 1 17 2 18 3 19 4 20 5 21 6 22 7 23 8 24 9 25 10 26 11
REMARK SMILES IDX 27 12 28 13 29 14 30 15 31 16 32 17 15 18 14 19 13 20 12 21
REMARK SMILES IDX 11 22 10 23 9 24 8 25 7 26 6 27 5 28 4 29 3 30 2 31 1 32
REMARK H PARENT
REMARK Flexibility Score: inf
ROOT
ATOM      1  C   UNL     1     136.762 126.828 137.618  1.00  0.00     0.000 C 
ENDROOT
BRANCH   1   2
ATOM      2  C   UNL     1     135.711 125.731 137.359  1.00  0.00     0.000 C 
BRANCH   2   3
ATOM      3  C   UNL     1     135.243 125.648 135.891  1.00  0.00     0.000 C 
BRANCH   3   4
ATOM      4  C   UNL     1     134.805 127.012 135.327  1.00  0.00     0.000 C 
BRANCH   4   5
ATOM      5  C   UNL     1     134.209 126.906 133.914  1.00  0.00     0.000 C 
BRANCH   5   6
ATOM      6  C   UNL     1     133.705 128.260 133.382  1.00  0.00     0.000 C 
BRANCH   6   7
ATOM      7  C   UNL     1     134.381 129.451 134.083  1.00  0.00     0.000 C 
BRANCH   7   8
ATOM      8  C   UNL     1     133.378 130.559 134.446  1.00  0.00     0.000 C 
BRANCH   8   9
ATOM      9  C   UNL     1     133.890 131.490 135.559  1.00  0.00     0.000 C 
BRANCH   9  10
ATOM     10  C   UNL     1     133.916 130.868 136.968  1.00  0.00     0.000 C 
BRANCH  10  11
ATOM     11  C   UNL     1     135.323 130.441 137.409  1.00  0.00     0.000 C 
BRANCH  11  12
ATOM     12  C   UNL     1     135.665 131.026 138.788  1.00  0.00     0.000 C 
BRANCH  12  13
ATOM     13  C   UNL     1     134.457 131.693 139.471  1.00  0.00     0.006 C 
BRANCH  13  14
ATOM     14  C   UNL     1     134.772 132.324 140.837  1.00  0.00     0.053 C 
BRANCH  14  15
ATOM     15  C   UNL     1     134.051 131.636 141.955  1.00  0.00     0.041 C 
ATOM     16  O   UNL     1     134.360 131.874 143.151  1.00  0.00    -0.550 OA
ATOM     17  O   UNL     1     133.060 130.704 141.673  1.00  0.00    -0.550 OA
ENDBRANCH  14  15
ENDBRANCH  13  14
ENDBRANCH  12  13
ENDBRANCH  11  12
ENDBRANCH  10  11
ENDBRANCH   9  10
ENDBRANCH   8   9
ENDBRANCH   7   8
ENDBRANCH   6   7
ENDBRANCH   5   6
ENDBRANCH   4   5
ENDBRANCH   3   4
ENDBRANCH   2   3
ENDBRANCH   1   2
BRANCH   1  18
ATOM     18  C   UNL     1     138.176 126.314 137.943  1.00  0.00     0.000 C 
BRANCH  18  19
ATOM     19  C   UNL     1     138.745 125.280 136.949  1.00  0.00     0.000 C 
BRANCH  19  20
ATOM     20  C   UNL     1     140.109 125.645 136.335  1.00  0.00     0.000 C 
BRANCH  20  21
ATOM     21  C   UNL     1     139.996 126.190 134.905  1.00  0.00     0.000 C 
BRANCH  21  22
ATOM     22  C   UNL     1     138.658 125.793 134.272  1.00  0.00     0.000 C 
BRANCH  22  23
ATOM     23  C   UNL     1     137.974 127.004 133.618  1.00  0.00     0.000 C 
BRANCH  23  24
ATOM     24  C   UNL     1     138.629 128.340 134.005  1.00  0.00    -0.000 C 
BRANCH  24  25
ATOM     25  C   UNL     1     137.889 129.137 135.097  1.00  0.00    -0.000 C 
BRANCH  25  26
ATOM     26  C   UNL     1     138.766 130.117 135.903  1.00  0.00    -0.000 C 
BRANCH  26  27
ATOM     27  C   UNL     1     139.646 129.463 136.984  1.00  0.00    -0.000 C 
BRANCH  27  28
ATOM     28  C   UNL     1     141.125 129.282 136.593  1.00  0.00    -0.000 C 
BRANCH  28  29
ATOM     29  C   UNL     1     141.968 128.559 137.666  1.00  0.00    -0.000 C 
BRANCH  29  30
ATOM     30  C   UNL     1     141.140 128.181 138.906  1.00  0.00    -0.000 C 
BRANCH  30  31
ATOM     31  C   UNL     1     141.896 127.246 139.861  1.00  0.00    -0.003 C 
ATOM     32  C   UNL     1     141.744 125.771 139.491  1.00  0.00     0.004 C 
ENDBRANCH  30  31
ENDBRANCH  29  30
ENDBRANCH  28  29
ENDBRANCH  27  28
ENDBRANCH  26  27
ENDBRANCH  25  26
ENDBRANCH  24  25
ENDBRANCH  23  24
ENDBRANCH  22  23
ENDBRANCH  21  22
ENDBRANCH  20  21
ENDBRANCH  19  20
ENDBRANCH  18  19
ENDBRANCH   1  18
TORSDOF 28
ENDMDL
MODEL 6
REMARK VINA RESULT:    -3.017      5.183      9.257
REMARK INTER + INTRA:         -13.761
REMARK INTER:                  -7.818
REMARK INTRA:                  -5.943
REMARK UNBOUND:                -5.805
REMARK SMILES CCCCCCCCCCCCCCCCCCCCCCCCCCCCCC(=O)[O-]
REMARK SMILES IDX 16 1 17 2 18 3 19 4 20 5 21 6 22 7 23 8 24 9 25 10 26 11
REMARK SMILES IDX 27 12 28 13 29 14 30 15 31 16 32 17 15 18 14 19 13 20 12 21
REMARK SMILES IDX 11 22 10 23 9 24 8 25 7 26 6 27 5 28 4 29 3 30 2 31 1 32
REMARK H PARENT
REMARK Flexibility Score: inf
ROOT
ATOM      1  C   UNL     1     135.206 140.700 130.940  1.00  0.00     0.000 C 
ENDROOT
BRANCH   1   2
ATOM      2  C   UNL     1     136.601 140.842 130.301  1.00  0.00     0.000 C 
BRANCH   2   3
ATOM      3  C   UNL     1     136.798 142.155 129.513  1.00  0.00     0.000 C 
BRANCH   3   4
ATOM      4  C   UNL     1     137.620 143.199 130.291  1.00  0.00     0.000 C 
BRANCH   4   5
ATOM      5  C   UNL     1     138.522 142.566 131.362  1.00  0.00     0.000 C 
BRANCH   5   6
ATOM      6  C   UNL     1     138.509 143.351 132.686  1.00  0.00     0.000 C 
BRANCH   6   7
ATOM      7  C   UNL     1     137.357 144.369 132.749  1.00  0.00     0.000 C 
BRANCH   7   8
ATOM      8  C   UNL     1     136.725 144.449 134.149  1.00  0.00     0.000 C 
BRANCH   8   9
ATOM      9  C   UNL     1     137.231 143.350 135.100  1.00  0.00     0.000 C 
BRANCH   9  10
ATOM     10  C   UNL     1     136.183 142.291 135.488  1.00  0.00     0.000 C 
BRANCH  10  11
ATOM     11  C   UNL     1     135.711 141.448 134.295  1.00  0.00     0.000 C 
BRANCH  11  12
ATOM     12  C   UNL     1     134.490 140.597 134.675  1.00  0.00     0.000 C 
BRANCH  12  13
ATOM     13  C   UNL     1     134.626 139.127 134.235  1.00  0.00     0.006 C 
BRANCH  13  14
ATOM     14  C   UNL     1     133.286 138.400 134.037  1.00  0.00     0.053 C 
BRANCH  14  15
ATOM     15  C   UNL     1     132.855 137.671 135.273  1.00  0.00     0.041 C 
ATOM     16  O   UNL     1     133.502 136.670 135.677  1.00  0.00    -0.550 OA
ATOM     17  O   UNL     1     131.717 138.078 135.959  1.00  0.00    -0.550 OA
ENDBRANCH  14  15
ENDBRANCH  13  14
ENDBRANCH  12  13
ENDBRANCH  11  12
ENDBRANCH  10  11
ENDBRANCH   9  10
ENDBRANCH   8   9
ENDBRANCH   7   8
ENDBRANCH   6   7
ENDBRANCH   5   6
ENDBRANCH   4   5
ENDBRANCH   3   4
ENDBRANCH   2   3
ENDBRANCH   1   2
BRANCH   1  18
ATOM     18  C   UNL     1     134.369 139.516 130.423  1.00  0.00     0.000 C 
BRANCH  18  19
ATOM     19  C   UNL     1     132.951 139.877 129.932  1.00  0.00     0.000 C 
BRANCH  19  20
ATOM     20  C   UNL     1     131.905 140.073 131.044  1.00  0.00     0.000 C 
BRANCH  20  21
ATOM     21  C   UNL     1     131.176 141.421 130.951  1.00  0.00     0.000 C 
BRANCH  21  22
ATOM     22  C   UNL     1     131.400 142.070 129.580  1.00  0.00     0.000 C 
BRANCH  22  23
ATOM     23  C   UNL     1     131.914 143.510 129.727  1.00  0.00     0.000 C 
BRANCH  23  24
ATOM     24  C   UNL     1     133.449 143.593 129.785  1.00  0.00    -0.000 C 
BRANCH  24  25
ATOM     25  C   UNL     1     134.018 144.253 131.056  1.00  0.00    -0.000 C 
BRANCH  25  26
ATOM     26  C   UNL     1     133.534 143.642 132.387  1.00  0.00    -0.000 C 
BRANCH  26  27
ATOM     27  C   UNL     1     133.161 144.667 133.474  1.00  0.00    -0.000 C 
BRANCH  27  28
ATOM     28  C   UNL     1     132.706 144.056 134.812  1.00  0.00    -0.000 C 
BRANCH  28  29
ATOM     29  C   UNL     1     133.515 144.552 136.031  1.00  0.00    -0.000 C 
BRANCH  29  30
ATOM     30  C   UNL     1     132.998 143.966 137.356  1.00  0.00    -0.000 C 
BRANCH  30  31
ATOM     31  C   UNL     1     132.179 142.683 137.155  1.00  0.00    -0.003 C 
ATOM     32  C   UNL     1     130.675 142.910 137.305  1.00  0.00     0.004 C 
ENDBRANCH  30  31
ENDBRANCH  29  30
ENDBRANCH  28  29
ENDBRANCH  27  28
ENDBRANCH  26  27
ENDBRANCH  25  26
ENDBRANCH  24  25
ENDBRANCH  23  24
ENDBRANCH  22  23
ENDBRANCH  21  22
ENDBRANCH  20  21
ENDBRANCH  19  20
ENDBRANCH  18  19
ENDBRANCH   1  18
TORSDOF 28
ENDMDL
MODEL 7
REMARK VINA RESULT:    -3.012      1.472      4.580
REMARK INTER + INTRA:         -13.747
REMARK INTER:                  -8.479
REMARK INTRA:                  -5.268
REMARK UNBOUND:                -5.805
REMARK SMILES CCCCCCCCCCCCCCCCCCCCCCCCCCCCCC(=O)[O-]
REMARK SMILES IDX 16 1 17 2 18 3 19 4 20 5 21 6 22 7 23 8 24 9 25 10 26 11
REMARK SMILES IDX 27 12 28 13 29 14 30 15 31 16 32 17 15 18 14 19 13 20 12 21
REMARK SMILES IDX 11 22 10 23 9 24 8 25 7 26 6 27 5 28 4 29 3 30 2 31 1 32
REMARK H PARENT
REMARK Flexibility Score: inf
ROOT
ATOM      1  C   UNL     1     132.362 144.404 141.377  1.00  0.00     0.000 C 
ENDROOT
BRANCH   1   2
ATOM      2  C   UNL     1     133.008 144.629 139.996  1.00  0.00     0.000 C 
BRANCH   2   3
ATOM      3  C   UNL     1     134.410 144.001 139.851  1.00  0.00     0.000 C 
BRANCH   3   4
ATOM      4  C   UNL     1     134.463 142.904 138.772  1.00  0.00     0.000 C 
BRANCH   4   5
ATOM      5  C   UNL     1     133.800 141.593 139.225  1.00  0.00     0.000 C 
BRANCH   5   6
ATOM      6  C   UNL     1     133.706 140.555 138.093  1.00  0.00     0.000 C 
BRANCH   6   7
ATOM      7  C   UNL     1     132.253 140.155 137.787  1.00  0.00     0.000 C 
BRANCH   7   8
ATOM      8  C   UNL     1     131.250 140.833 138.735  1.00  0.00     0.000 C 
BRANCH   8   9
ATOM      9  C   UNL     1     130.241 141.732 137.998  1.00  0.00     0.000 C 
BRANCH   9  10
ATOM     10  C   UNL     1     130.717 143.174 137.743  1.00  0.00     0.000 C 
BRANCH  10  11
ATOM     11  C   UNL     1     131.012 143.456 136.263  1.00  0.00     0.000 C 
BRANCH  11  12
ATOM     12  C   UNL     1     132.520 143.375 135.981  1.00  0.00     0.000 C 
BRANCH  12  13
ATOM     13  C   UNL     1     133.038 144.568 135.156  1.00  0.00     0.006 C 
BRANCH  13  14
ATOM     14  C   UNL     1     132.249 144.833 133.863  1.00  0.00     0.053 C 
BRANCH  14  15
ATOM     15  C   UNL     1     132.938 144.268 132.658  1.00  0.00     0.041 C 
ATOM     16  O   UNL     1     133.955 144.839 132.185  1.00  0.00    -0.550 OA
ATOM     17  O   UNL     1     132.436 143.131 132.039  1.00  0.00    -0.550 OA
ENDBRANCH  14  15
ENDBRANCH  13  14
ENDBRANCH  12  13
ENDBRANCH  11  12
ENDBRANCH  10  11
ENDBRANCH   9  10
ENDBRANCH   8   9
ENDBRANCH   7   8
ENDBRANCH   6   7
ENDBRANCH   5   6
ENDBRANCH   4   5
ENDBRANCH   3   4
ENDBRANCH   2   3
ENDBRANCH   1   2
BRANCH   1  18
ATOM     18  C   UNL     1     131.297 143.293 141.427  1.00  0.00     0.000 C 
BRANCH  18  19
ATOM     19  C   UNL     1     131.610 142.125 142.385  1.00  0.00     0.000 C 
BRANCH  19  20
ATOM     20  C   UNL     1     133.099 141.946 142.734  1.00  0.00     0.000 C 
BRANCH  20  21
ATOM     21  C   UNL     1     133.408 142.240 144.208  1.00  0.00     0.000 C 
BRANCH  21  22
ATOM     22  C   UNL     1     132.722 141.222 145.125  1.00  0.00     0.000 C 
BRANCH  22  23
ATOM     23  C   UNL     1     132.283 141.873 146.446  1.00  0.00     0.000 C 
BRANCH  23  24
ATOM     24  C   UNL     1     130.754 141.947 146.595  1.00  0.00    -0.000 C 
BRANCH  24  25
ATOM     25  C   UNL     1     129.955 141.241 145.483  1.00  0.00    -0.000 C 
BRANCH  25  26
ATOM     26  C   UNL     1     129.188 139.977 145.925  1.00  0.00    -0.000 C 
BRANCH  26  27
ATOM     27  C   UNL     1     130.056 138.717 146.095  1.00  0.00    -0.000 C 
BRANCH  27  28
ATOM     28  C   UNL     1     130.856 138.307 144.845  1.00  0.00    -0.000 C 
BRANCH  28  29
ATOM     29  C   UNL     1     130.080 138.486 143.522  1.00  0.00    -0.000 C 
BRANCH  29  30
ATOM     30  C   UNL     1     130.934 138.141 142.290  1.00  0.00    -0.000 C 
BRANCH  30  31
ATOM     31  C   UNL     1     132.439 138.292 142.552  1.00  0.00    -0.003 C 
ATOM     32  C   UNL     1     133.245 138.517 141.273  1.00  0.00     0.004 C 
ENDBRANCH  30  31
ENDBRANCH  29  30
ENDBRANCH  28  29
ENDBRANCH  27  28
ENDBRANCH  26  27
ENDBRANCH  25  26
ENDBRANCH  24  25
ENDBRANCH  23  24
ENDBRANCH  22  23
ENDBRANCH  21  22
ENDBRANCH  20  21
ENDBRANCH  19  20
ENDBRANCH  18  19
ENDBRANCH   1  18
TORSDOF 28
ENDMDL
MODEL 8
REMARK VINA RESULT:    -3.011      2.444      5.599
REMARK INTER + INTRA:         -13.744
REMARK INTER:                  -7.974
REMARK INTRA:                  -5.769
REMARK UNBOUND:                -5.805
REMARK SMILES CCCCCCCCCCCCCCCCCCCCCCCCCCCCCC(=O)[O-]
REMARK SMILES IDX 16 1 17 2 18 3 19 4 20 5 21 6 22 7 23 8 24 9 25 10 26 11
REMARK SMILES IDX 27 12 28 13 29 14 30 15 31 16 32 17 15 18 14 19 13 20 12 21
REMARK SMILES IDX 11 22 10 23 9 24 8 25 7 26 6 27 5 28 4 29 3 30 2 31 1 32
REMARK H PARENT
REMARK Flexibility Score: inf
ROOT
ATOM      1  C   UNL     1     130.248 141.870 138.274  1.00  0.00     0.000 C 
ENDROOT
BRANCH   1   2
ATOM      2  C   UNL     1     129.279 141.022 139.122  1.00  0.00     0.000 C 
BRANCH   2   3
ATOM      3  C   UNL     1     129.666 139.531 139.208  1.00  0.00     0.000 C 
BRANCH   3   4
ATOM      4  C   UNL     1     128.609 138.683 139.939  1.00  0.00     0.000 C 
BRANCH   4   5
ATOM      5  C   UNL     1     129.229 137.540 140.760  1.00  0.00     0.000 C 
BRANCH   5   6
ATOM      6  C   UNL     1     129.911 138.038 142.047  1.00  0.00     0.000 C 
BRANCH   6   7
ATOM      7  C   UNL     1     131.157 137.209 142.404  1.00  0.00     0.000 C 
BRANCH   7   8
ATOM      8  C   UNL     1     132.442 137.795 141.797  1.00  0.00     0.000 C 
BRANCH   8   9
ATOM      9  C   UNL     1     133.559 137.998 142.836  1.00  0.00     0.000 C 
BRANCH   9  10
ATOM     10  C   UNL     1     134.947 138.310 142.248  1.00  0.00     0.000 C 
BRANCH  10  11
ATOM     11  C   UNL     1     135.419 139.739 142.547  1.00  0.00     0.000 C 
BRANCH  11  12
ATOM     12  C   UNL     1     136.027 140.388 141.295  1.00  0.00     0.000 C 
BRANCH  12  13
ATOM     13  C   UNL     1     135.901 139.503 140.041  1.00  0.00     0.006 C 
BRANCH  13  14
ATOM     14  C   UNL     1     134.988 140.082 138.947  1.00  0.00     0.053 C 
BRANCH  14  15
ATOM     15  C   UNL     1     134.876 139.167 137.766  1.00  0.00     0.041 C 
ATOM     16  O   UNL     1     135.118 139.595 136.608  1.00  0.00    -0.550 OA
ATOM     17  O   UNL     1     134.470 137.850 137.943  1.00  0.00    -0.550 OA
ENDBRANCH  14  15
ENDBRANCH  13  14
ENDBRANCH  12  13
ENDBRANCH  11  12
ENDBRANCH  10  11
ENDBRANCH   9  10
ENDBRANCH   8   9
ENDBRANCH   7   8
ENDBRANCH   6   7
ENDBRANCH   5   6
ENDBRANCH   4   5
ENDBRANCH   3   4
ENDBRANCH   2   3
ENDBRANCH   1   2
BRANCH   1  18
ATOM     18  C   UNL     1     131.533 141.146 137.831  1.00  0.00     0.000 C 
BRANCH  18  19
ATOM     19  C   UNL     1     132.500 141.990 136.975  1.00  0.00     0.000 C 
BRANCH  19  20
ATOM     20  C   UNL     1     132.206 143.501 136.954  1.00  0.00     0.000 C 
BRANCH  20  21
ATOM     21  C   UNL     1     133.433 144.355 137.302  1.00  0.00     0.000 C 
BRANCH  21  22
ATOM     22  C   UNL     1     133.660 144.394 138.817  1.00  0.00     0.000 C 
BRANCH  22  23
ATOM     23  C   UNL     1     132.370 144.772 139.562  1.00  0.00     0.000 C 
BRANCH  23  24
ATOM     24  C   UNL     1     132.116 143.892 140.798  1.00  0.00    -0.000 C 
BRANCH  24  25
ATOM     25  C   UNL     1     133.065 142.688 140.947  1.00  0.00    -0.000 C 
BRANCH  25  26
ATOM     26  C   UNL     1     132.383 141.355 141.320  1.00  0.00    -0.000 C 
BRANCH  26  27
ATOM     27  C   UNL     1     131.193 141.484 142.289  1.00  0.00    -0.000 C 
BRANCH  27  28
ATOM     28  C   UNL     1     131.442 140.919 143.700  1.00  0.00    -0.000 C 
BRANCH  28  29
ATOM     29  C   UNL     1     130.686 141.675 144.815  1.00  0.00    -0.000 C 
BRANCH  29  30
ATOM     30  C   UNL     1     130.893 141.036 146.199  1.00  0.00    -0.000 C 
BRANCH  30  31
ATOM     31  C   UNL     1     130.537 139.543 146.222  1.00  0.00    -0.003 C 
ATOM     32  C   UNL     1     129.031 139.292 146.141  1.00  0.00     0.004 C 
ENDBRANCH  30  31
ENDBRANCH  29  30
ENDBRANCH  28  29
ENDBRANCH  27  28
ENDBRANCH  26  27
ENDBRANCH  25  26
ENDBRANCH  24  25
ENDBRANCH  23  24
ENDBRANCH  22  23
ENDBRANCH  21  22
ENDBRANCH  20  21
ENDBRANCH  19  20
ENDBRANCH  18  19
ENDBRANCH   1  18
TORSDOF 28
ENDMDL
MODEL 9
REMARK VINA RESULT:    -2.991      2.026      4.480
REMARK INTER + INTRA:         -13.693
REMARK INTER:                  -8.275
REMARK INTRA:                  -5.418
REMARK UNBOUND:                -5.805
REMARK SMILES CCCCCCCCCCCCCCCCCCCCCCCCCCCCCC(=O)[O-]
REMARK SMILES IDX 16 1 17 2 18 3 19 4 20 5 21 6 22 7 23 8 24 9 25 10 26 11
REMARK SMILES IDX 27 12 28 13 29 14 30 15 31 16 32 17 15 18 14 19 13 20 12 21
REMARK SMILES IDX 11 22 10 23 9 24 8 25 7 26 6 27 5 28 4 29 3 30 2 31 1 32
REMARK H PARENT
REMARK Flexibility Score: inf
ROOT
ATOM      1  C   UNL     1     130.707 137.987 141.818  1.00  0.00     0.000 C 
ENDROOT
BRANCH   1   2
ATOM      2  C   UNL     1     129.587 137.277 141.032  1.00  0.00     0.000 C 
BRANCH   2   3
ATOM      3  C   UNL     1     128.622 138.240 140.309  1.00  0.00     0.000 C 
BRANCH   3   4
ATOM      4  C   UNL     1     129.302 139.019 139.168  1.00  0.00     0.000 C 
BRANCH   4   5
ATOM      5  C   UNL     1     129.112 140.539 139.292  1.00  0.00     0.000 C 
BRANCH   5   6
ATOM      6  C   UNL     1     130.424 141.318 139.084  1.00  0.00     0.000 C 
BRANCH   6   7
ATOM      7  C   UNL     1     130.425 142.117 137.770  1.00  0.00     0.000 C 
BRANCH   7   8
ATOM      8  C   UNL     1     130.800 143.593 137.985  1.00  0.00     0.000 C 
BRANCH   8   9
ATOM      9  C   UNL     1     131.487 143.847 139.339  1.00  0.00     0.000 C 
BRANCH   9  10
ATOM     10  C   UNL     1     132.744 144.734 139.275  1.00  0.00     0.000 C 
BRANCH  10  11
ATOM     11  C   UNL     1     134.043 143.953 139.517  1.00  0.00     0.000 C 
BRANCH  11  12
ATOM     12  C   UNL     1     134.123 142.726 138.597  1.00  0.00     0.000 C 
BRANCH  12  13
ATOM     13  C   UNL     1     134.283 141.406 139.374  1.00  0.00     0.006 C 
BRANCH  13  14
ATOM     14  C   UNL     1     133.828 140.157 138.600  1.00  0.00     0.053 C 
BRANCH  14  15
ATOM     15  C   UNL     1     134.301 140.175 137.178  1.00  0.00     0.041 C 
ATOM     16  O   UNL     1     135.518 139.994 136.914  1.00  0.00    -0.550 OA
ATOM     17  O   UNL     1     133.402 140.424 136.149  1.00  0.00    -0.550 OA
ENDBRANCH  14  15
ENDBRANCH  13  14
ENDBRANCH  12  13
ENDBRANCH  11  12
ENDBRANCH  10  11
ENDBRANCH   9  10
ENDBRANCH   8   9
ENDBRANCH   7   8
ENDBRANCH   6   7
ENDBRANCH   5   6
ENDBRANCH   4   5
ENDBRANCH   3   4
ENDBRANCH   2   3
ENDBRANCH   1   2
BRANCH   1  18
ATOM     18  C   UNL     1     130.260 138.656 143.130  1.00  0.00     0.000 C 
BRANCH  18  19
ATOM     19  C   UNL     1     130.747 137.964 144.421  1.00  0.00     0.000 C 
BRANCH  19  20
ATOM     20  C   UNL     1     130.560 138.783 145.711  1.00  0.00     0.000 C 
BRANCH  20  21
ATOM     21  C   UNL     1     129.213 139.517 145.765  1.00  0.00     0.000 C 
BRANCH  21  22
ATOM     22  C   UNL     1     129.420 141.032 145.877  1.00  0.00     0.000 C 
BRANCH  22  23
ATOM     23  C   UNL     1     130.889 141.370 146.177  1.00  0.00     0.000 C 
BRANCH  23  24
ATOM     24  C   UNL     1     131.530 142.255 145.094  1.00  0.00    -0.000 C 
BRANCH  24  25
ATOM     25  C   UNL     1     130.903 142.127 143.693  1.00  0.00    -0.000 C 
BRANCH  25  26
ATOM     26  C   UNL     1     131.909 142.012 142.530  1.00  0.00    -0.000 C 
BRANCH  26  27
ATOM     27  C   UNL     1     133.341 142.470 142.862  1.00  0.00    -0.000 C 
BRANCH  27  28
ATOM     28  C   UNL     1     134.375 141.334 142.982  1.00  0.00    -0.000 C 
BRANCH  28  29
ATOM     29  C   UNL     1     133.768 139.922 142.832  1.00  0.00    -0.000 C 
BRANCH  29  30
ATOM     30  C   UNL     1     134.264 138.953 143.920  1.00  0.00    -0.000 C 
BRANCH  30  31
ATOM     31  C   UNL     1     134.206 137.485 143.475  1.00  0.00    -0.003 C 
ATOM     32  C   UNL     1     135.527 136.993 142.883  1.00  0.00     0.004 C 
ENDBRANCH  30  31
ENDBRANCH  29  30
ENDBRANCH  28  29
ENDBRANCH  27  28
ENDBRANCH  26  27
ENDBRANCH  25  26
ENDBRANCH  24  25
ENDBRANCH  23  24
ENDBRANCH  22  23
ENDBRANCH  21  22
ENDBRANCH  20  21
ENDBRANCH  19  20
ENDBRANCH  18  19
ENDBRANCH   1  18
TORSDOF 28
ENDMDL
