MODEL 1
REMARK VINA RESULT:    45.289      0.000      0.000
REMARK INTER + INTRA:          58.823
REMARK INTER:                  59.851
REMARK INTRA:                  -1.028
REMARK UNBOUND:                -1.028
REMARK SMILES CC[C@H](C=C[C@@H](C)[C@@H]1CC[C@H]2[C@@H]3CC=C4C[C@@H](O)CC[C@]4(C)[C@@H]3CC[C@@]21C)C(C)C
REMARK SMILES IDX 6 1 7 2 5 3 4 4 3 5 2 6 1 7 28 8 29 9 30 10 8 11 9 12 26 13
REMARK SMILES IDX 10 14 11 15 25 16 27 17 12 18 24 19 23 20 13 21 21 22 14 23
REMARK SMILES IDX 15 24 20 25 22 26 16 27 19 28 17 29 18 30
REMARK H PARENT 18 31
REMARK Flexibility Score: inf
ROOT
ATOM      1  C   UNL     1     -38.004  20.745   6.107  1.00  0.00     0.012 C 
ATOM      2  C   UNL     1     -38.080  20.159   4.684  1.00  0.00     0.012 C 
ENDROOT
BRANCH   1   3
ATOM      3  C   UNL     1     -37.998  22.258   6.019  1.00  0.00    -0.028 C 
ATOM      4  C   UNL     1     -38.079  22.890   4.835  1.00  0.00    -0.027 C 
BRANCH   4   5
ATOM      5  C   UNL     1     -38.123  24.401   4.669  1.00  0.00     0.014 C 
BRANCH   5   6
ATOM      6  C   UNL     1     -38.101  25.179   6.014  1.00  0.00     0.004 C 
ATOM      7  C   UNL     1     -38.125  26.705   5.935  1.00  0.00     0.004 C 
ENDBRANCH   5   6
BRANCH   5   8
ATOM      8  C   UNL     1     -37.203  24.970   3.537  1.00  0.00    -0.011 C 
ATOM      9  C   UNL     1     -36.596  23.911   2.598  1.00  0.00     0.008 C 
ATOM     10  C   UNL     1     -37.959  26.009   2.693  1.00  0.00     0.008 C 
ENDBRANCH   5   8
ENDBRANCH   4   5
ENDBRANCH   1   3
BRANCH   1  11
ATOM     11  C   UNL     1     -36.787  20.257   6.974  1.00  0.00     0.002 C 
ATOM     12  C   UNL     1     -36.976  20.532   8.495  1.00  0.00     0.005 C 
ATOM     13  C   UNL     1     -35.348  20.803   6.657  1.00  0.00    -0.026 C 
ATOM     14  C   UNL     1     -35.845  21.475   8.940  1.00  0.00     0.005 C 
ATOM     15  C   UNL     1     -35.234  21.970   7.640  1.00  0.00    -0.001 C 
ATOM     16  C   UNL     1     -35.056  21.331   5.206  1.00  0.00     0.007 C 
ATOM     17  C   UNL     1     -34.352  19.644   7.013  1.00  0.00     0.012 C 
ATOM     18  C   UNL     1     -33.832  22.659   7.706  1.00  0.00     0.000 C 
ATOM     19  C   UNL     1     -34.179  22.623   5.159  1.00  0.00     0.005 C 
ATOM     20  C   UNL     1     -33.124  22.648   6.303  1.00  0.00     0.003 C 
ATOM     21  C   UNL     1     -34.041  24.089   8.251  1.00  0.00     0.031 C 
ATOM     22  C   UNL     1     -31.896  23.654   6.192  1.00  0.00    -0.008 C 
ATOM     23  C   UNL     1     -32.904  25.028   8.034  1.00  0.00    -0.027 C 
ATOM     24  C   UNL     1     -32.084  24.955   6.975  1.00  0.00    -0.065 C 
ATOM     25  C   UNL     1     -31.584  24.014   4.706  1.00  0.00     0.014 C 
ATOM     26  C   UNL     1     -30.657  22.938   6.808  1.00  0.00     0.016 C 
ATOM     27  C   UNL     1     -31.092  26.089   6.766  1.00  0.00     0.063 C 
ATOM     28  C   UNL     1     -30.475  25.062   4.540  1.00  0.00     0.033 C 
ATOM     29  C   UNL     1     -30.843  26.356   5.274  1.00  0.00     0.118 C 
BRANCH  29  30
ATOM     30  O   UNL     1     -29.799  27.282   5.122  1.00  0.00    -0.393 OA
ATOM     31  H   UNL     1     -29.240  26.961   4.366  1.00  0.00     0.210 HD
ENDBRANCH  29  30
ENDBRANCH   1  11
TORSDOF 6
ENDMDL
