MODEL 1
REMARK VINA RESULT:    -2.820      0.000      0.000
REMARK INTER + INTRA:         -12.118
REMARK INTER:                  -7.107
REMARK INTRA:                  -5.012
REMARK UNBOUND:                -5.012
REMARK SMILES CCCCCCCCCCCCCCCCCCCCCCCCCCCC(=O)[O-]
REMARK SMILES IDX 15 1 16 2 17 3 18 4 19 5 20 6 21 7 22 8 23 9 24 10 25 11
REMARK SMILES IDX 26 12 27 13 28 14 29 15 30 16 14 17 13 18 12 19 11 20 10 21
REMARK SMILES IDX 9 22 8 23 7 24 6 25 5 26 4 27 3 28 2 29 1 30
REMARK H PARENT
REMARK Flexibility Score: inf
ROOT
ATOM      1  C   UNL     1       1.917  19.739   6.506  1.00  0.00     0.000 C 
ENDROOT
BRANCH   1   2
ATOM      2  C   UNL     1       1.827  20.497   7.847  1.00  0.00     0.000 C 
BRANCH   2   3
ATOM      3  C   UNL     1       2.638  19.881   9.001  1.00  0.00     0.000 C 
BRANCH   3   4
ATOM      4  C   UNL     1       1.914  19.855  10.356  1.00  0.00     0.000 C 
BRANCH   4   5
ATOM      5  C   UNL     1       2.469  18.822  11.356  1.00  0.00     0.000 C 
BRANCH   5   6
ATOM      6  C   UNL     1       3.642  18.012  10.774  1.00  0.00     0.000 C 
BRANCH   6   7
ATOM      7  C   UNL     1       4.301  17.078  11.808  1.00  0.00     0.000 C 
BRANCH   7   8
ATOM      8  C   UNL     1       4.608  15.691  11.227  1.00  0.00     0.000 C 
BRANCH   8   9
ATOM      9  C   UNL     1       6.093  15.504  10.862  1.00  0.00     0.000 C 
BRANCH   9  10
ATOM     10  C   UNL     1       6.453  14.147  10.221  1.00  0.00     0.000 C 
BRANCH  10  11
ATOM     11  C   UNL     1       5.520  12.978  10.593  1.00  0.00     0.000 C 
BRANCH  11  12
ATOM     12  C   UNL     1       6.041  11.613  10.112  1.00  0.00     0.006 C 
BRANCH  12  13
ATOM     13  C   UNL     1       5.114  10.960   9.078  1.00  0.00     0.053 C 
BRANCH  13  14
ATOM     14  C   UNL     1       5.755  10.832   7.731  1.00  0.00     0.041 C 
ATOM     15  O   UNL     1       6.894  11.334   7.520  1.00  0.00    -0.550 OA
ATOM     16  O   UNL     1       5.081  10.194   6.696  1.00  0.00    -0.550 OA
ENDBRANCH  13  14
ENDBRANCH  12  13
ENDBRANCH  11  12
ENDBRANCH  10  11
ENDBRANCH   9  10
ENDBRANCH   8   9
ENDBRANCH   7   8
ENDBRANCH   6   7
ENDBRANCH   5   6
ENDBRANCH   4   5
ENDBRANCH   3   4
ENDBRANCH   2   3
ENDBRANCH   1   2
BRANCH   1  17
ATOM     17  C   UNL     1       2.651  20.518   5.388  1.00  0.00     0.000 C 
BRANCH  17  18
ATOM     18  C   UNL     1       4.039  19.931   5.084  1.00  0.00     0.000 C 
BRANCH  18  19
ATOM     19  C   UNL     1       4.263  18.537   5.697  1.00  0.00     0.000 C 
BRANCH  19  20
ATOM     20  C   UNL     1       5.364  18.438   6.775  1.00  0.00     0.000 C 
BRANCH  20  21
ATOM     21  C   UNL     1       5.314  17.143   7.605  1.00  0.00     0.000 C 
BRANCH  21  22
ATOM     22  C   UNL     1       3.902  16.527   7.580  1.00  0.00    -0.000 C 
BRANCH  22  23
ATOM     23  C   UNL     1       3.918  14.991   7.656  1.00  0.00    -0.000 C 
BRANCH  23  24
ATOM     24  C   UNL     1       5.037  14.363   6.807  1.00  0.00    -0.000 C 
BRANCH  24  25
ATOM     25  C   UNL     1       4.503  13.597   5.584  1.00  0.00    -0.000 C 
BRANCH  25  26
ATOM     26  C   UNL     1       5.208  13.994   4.272  1.00  0.00    -0.000 C 
BRANCH  26  27
ATOM     27  C   UNL     1       5.075  15.496   3.948  1.00  0.00    -0.000 C 
BRANCH  27  28
ATOM     28  C   UNL     1       6.182  16.078   3.047  1.00  0.00    -0.000 C 
BRANCH  28  29
ATOM     29  C   UNL     1       7.057  17.116   3.766  1.00  0.00    -0.003 C 
ATOM     30  C   UNL     1       7.907  16.464   4.860  1.00  0.00     0.004 C 
ENDBRANCH  28  29
ENDBRANCH  27  28
ENDBRANCH  26  27
ENDBRANCH  25  26
ENDBRANCH  24  25
ENDBRANCH  23  24
ENDBRANCH  22  23
ENDBRANCH  21  22
ENDBRANCH  20  21
ENDBRANCH  19  20
ENDBRANCH  18  19
ENDBRANCH  17  18
ENDBRANCH   1  17
TORSDOF 26
ENDMDL
MODEL 2
REMARK VINA RESULT:    -2.806      3.076      5.783
REMARK INTER + INTRA:         -12.083
REMARK INTER:                  -6.250
REMARK INTRA:                  -5.833
REMARK UNBOUND:                -5.012
REMARK SMILES CCCCCCCCCCCCCCCCCCCCCCCCCCCC(=O)[O-]
REMARK SMILES IDX 15 1 16 2 17 3 18 4 19 5 20 6 21 7 22 8 23 9 24 10 25 11
REMARK SMILES IDX 26 12 27 13 28 14 29 15 30 16 14 17 13 18 12 19 11 20 10 21
REMARK SMILES IDX 9 22 8 23 7 24 6 25 5 26 4 27 3 28 2 29 1 30
REMARK H PARENT
REMARK Flexibility Score: inf
ROOT
ATOM      1  C   UNL     1       3.171  19.084   6.504  1.00  0.00     0.000 C 
ENDROOT
BRANCH   1   2
ATOM      2  C   UNL     1       3.575  18.522   7.884  1.00  0.00     0.000 C 
BRANCH   2   3
ATOM      3  C   UNL     1       5.040  18.774   8.287  1.00  0.00     0.000 C 
BRANCH   3   4
ATOM      4  C   UNL     1       5.550  20.195   8.000  1.00  0.00     0.000 C 
BRANCH   4   5
ATOM      5  C   UNL     1       5.950  20.994   9.256  1.00  0.00     0.000 C 
BRANCH   5   6
ATOM      6  C   UNL     1       4.935  22.099   9.599  1.00  0.00     0.000 C 
BRANCH   6   7
ATOM      7  C   UNL     1       3.978  22.421   8.434  1.00  0.00     0.000 C 
BRANCH   7   8
ATOM      8  C   UNL     1       2.504  22.333   8.851  1.00  0.00     0.000 C 
BRANCH   8   9
ATOM      9  C   UNL     1       2.304  21.694  10.239  1.00  0.00     0.000 C 
BRANCH   9  10
ATOM     10  C   UNL     1       1.469  20.397  10.259  1.00  0.00     0.000 C 
BRANCH  10  11
ATOM     11  C   UNL     1       1.725  19.472  11.466  1.00  0.00     0.000 C 
BRANCH  11  12
ATOM     12  C   UNL     1       2.880  18.483  11.234  1.00  0.00     0.006 C 
BRANCH  12  13
ATOM     13  C   UNL     1       4.171  18.907  11.948  1.00  0.00     0.053 C 
BRANCH  13  14
ATOM     14  C   UNL     1       4.657  17.874  12.917  1.00  0.00     0.041 C 
ATOM     15  O   UNL     1       5.891  17.632  13.022  1.00  0.00    -0.550 OA
ATOM     16  O   UNL     1       3.746  17.149  13.677  1.00  0.00    -0.550 OA
ENDBRANCH  13  14
ENDBRANCH  12  13
ENDBRANCH  11  12
ENDBRANCH  10  11
ENDBRANCH   9  10
ENDBRANCH   8   9
ENDBRANCH   7   8
ENDBRANCH   6   7
ENDBRANCH   5   6
ENDBRANCH   4   5
ENDBRANCH   3   4
ENDBRANCH   2   3
ENDBRANCH   1   2
BRANCH   1  17
ATOM     17  C   UNL     1       1.781  19.762   6.481  1.00  0.00     0.000 C 
BRANCH  17  18
ATOM     18  C   UNL     1       1.702  20.894   5.444  1.00  0.00     0.000 C 
BRANCH  18  19
ATOM     19  C   UNL     1       3.080  21.395   4.978  1.00  0.00     0.000 C 
BRANCH  19  20
ATOM     20  C   UNL     1       3.364  21.291   3.463  1.00  0.00     0.000 C 
BRANCH  20  21
ATOM     21  C   UNL     1       4.818  20.915   3.123  1.00  0.00     0.000 C 
BRANCH  21  22
ATOM     22  C   UNL     1       5.159  19.508   3.647  1.00  0.00    -0.000 C 
BRANCH  22  23
ATOM     23  C   UNL     1       6.492  19.462   4.415  1.00  0.00    -0.000 C 
BRANCH  23  24
ATOM     24  C   UNL     1       6.843  18.051   4.917  1.00  0.00    -0.000 C 
BRANCH  24  25
ATOM     25  C   UNL     1       5.612  17.138   5.047  1.00  0.00    -0.000 C 
BRANCH  25  26
ATOM     26  C   UNL     1       5.889  15.873   5.884  1.00  0.00    -0.000 C 
BRANCH  26  27
ATOM     27  C   UNL     1       4.646  14.975   6.045  1.00  0.00    -0.000 C 
BRANCH  27  28
ATOM     28  C   UNL     1       4.073  14.889   7.474  1.00  0.00    -0.000 C 
BRANCH  28  29
ATOM     29  C   UNL     1       5.142  15.081   8.561  1.00  0.00    -0.003 C 
ATOM     30  C   UNL     1       4.506  15.404   9.915  1.00  0.00     0.004 C 
ENDBRANCH  28  29
ENDBRANCH  27  28
ENDBRANCH  26  27
ENDBRANCH  25  26
ENDBRANCH  24  25
ENDBRANCH  23  24
ENDBRANCH  22  23
ENDBRANCH  21  22
ENDBRANCH  20  21
ENDBRANCH  19  20
ENDBRANCH  18  19
ENDBRANCH  17  18
ENDBRANCH   1  17
TORSDOF 26
ENDMDL
MODEL 3
REMARK VINA RESULT:    -2.651      1.717      6.440
REMARK INTER + INTRA:         -11.691
REMARK INTER:                  -7.166
REMARK INTRA:                  -4.525
REMARK UNBOUND:                -5.012
REMARK SMILES CCCCCCCCCCCCCCCCCCCCCCCCCCCC(=O)[O-]
REMARK SMILES IDX 15 1 16 2 17 3 18 4 19 5 20 6 21 7 22 8 23 9 24 10 25 11
REMARK SMILES IDX 26 12 27 13 28 14 29 15 30 16 14 17 13 18 12 19 11 20 10 21
REMARK SMILES IDX 9 22 8 23 7 24 6 25 5 26 4 27 3 28 2 29 1 30
REMARK H PARENT
REMARK Flexibility Score: inf
ROOT
ATOM      1  C   UNL     1       4.755  15.125  10.385  1.00  0.00     0.000 C 
ENDROOT
BRANCH   1   2
ATOM      2  C   UNL     1       4.331  15.892   9.114  1.00  0.00     0.000 C 
BRANCH   2   3
ATOM      3  C   UNL     1       5.447  16.096   8.074  1.00  0.00     0.000 C 
BRANCH   3   4
ATOM      4  C   UNL     1       6.718  16.766   8.618  1.00  0.00     0.000 C 
BRANCH   4   5
ATOM      5  C   UNL     1       7.499  17.592   7.576  1.00  0.00     0.000 C 
BRANCH   5   6
ATOM      6  C   UNL     1       7.997  16.734   6.399  1.00  0.00     0.000 C 
BRANCH   6   7
ATOM      7  C   UNL     1       7.797  17.413   5.031  1.00  0.00     0.000 C 
BRANCH   7   8
ATOM      8  C   UNL     1       6.406  18.049   4.895  1.00  0.00     0.000 C 
BRANCH   8   9
ATOM      9  C   UNL     1       5.314  17.036   4.505  1.00  0.00     0.000 C 
BRANCH   9  10
ATOM     10  C   UNL     1       5.671  16.088   3.341  1.00  0.00     0.000 C 
BRANCH  10  11
ATOM     11  C   UNL     1       5.253  14.618   3.542  1.00  0.00     0.000 C 
BRANCH  11  12
ATOM     12  C   UNL     1       5.646  14.062   4.921  1.00  0.00     0.006 C 
BRANCH  12  13
ATOM     13  C   UNL     1       4.437  13.558   5.720  1.00  0.00     0.053 C 
BRANCH  13  14
ATOM     14  C   UNL     1       4.200  12.091   5.539  1.00  0.00     0.041 C 
ATOM     15  O   UNL     1       5.160  11.276   5.622  1.00  0.00    -0.550 OA
ATOM     16  O   UNL     1       2.925  11.623   5.238  1.00  0.00    -0.550 OA
ENDBRANCH  13  14
ENDBRANCH  12  13
ENDBRANCH  11  12
ENDBRANCH  10  11
ENDBRANCH   9  10
ENDBRANCH   8   9
ENDBRANCH   7   8
ENDBRANCH   6   7
ENDBRANCH   5   6
ENDBRANCH   4   5
ENDBRANCH   3   4
ENDBRANCH   2   3
ENDBRANCH   1   2
BRANCH   1  17
ATOM     17  C   UNL     1       4.494  15.894  11.703  1.00  0.00     0.000 C 
BRANCH  17  18
ATOM     18  C   UNL     1       4.457  17.417  11.491  1.00  0.00     0.000 C 
BRANCH  18  19
ATOM     19  C   UNL     1       3.123  18.061  11.908  1.00  0.00     0.000 C 
BRANCH  19  20
ATOM     20  C   UNL     1       2.730  19.354  11.161  1.00  0.00     0.000 C 
BRANCH  20  21
ATOM     21  C   UNL     1       2.831  19.248   9.629  1.00  0.00     0.000 C 
BRANCH  21  22
ATOM     22  C   UNL     1       3.963  20.141   9.088  1.00  0.00    -0.000 C 
BRANCH  22  23
ATOM     23  C   UNL     1       4.475  19.689   7.710  1.00  0.00    -0.000 C 
BRANCH  23  24
ATOM     24  C   UNL     1       3.354  19.148   6.805  1.00  0.00    -0.000 C 
BRANCH  24  25
ATOM     25  C   UNL     1       3.158  19.983   5.529  1.00  0.00    -0.000 C 
BRANCH  25  26
ATOM     26  C   UNL     1       1.787  20.686   5.476  1.00  0.00    -0.000 C 
BRANCH  26  27
ATOM     27  C   UNL     1       0.826  20.213   6.585  1.00  0.00    -0.000 C 
BRANCH  27  28
ATOM     28  C   UNL     1       0.015  21.327   7.277  1.00  0.00    -0.000 C 
BRANCH  28  29
ATOM     29  C   UNL     1      -1.503  21.095   7.209  1.00  0.00    -0.003 C 
ATOM     30  C   UNL     1      -1.876  20.206   6.019  1.00  0.00     0.004 C 
ENDBRANCH  28  29
ENDBRANCH  27  28
ENDBRANCH  26  27
ENDBRANCH  25  26
ENDBRANCH  24  25
ENDBRANCH  23  24
ENDBRANCH  22  23
ENDBRANCH  21  22
ENDBRANCH  20  21
ENDBRANCH  19  20
ENDBRANCH  18  19
ENDBRANCH  17  18
ENDBRANCH   1  17
TORSDOF 26
ENDMDL
MODEL 4
REMARK VINA RESULT:    -2.603      2.748      6.327
REMARK INTER + INTRA:         -11.572
REMARK INTER:                  -7.282
REMARK INTRA:                  -4.289
REMARK UNBOUND:                -5.012
REMARK SMILES CCCCCCCCCCCCCCCCCCCCCCCCCCCC(=O)[O-]
REMARK SMILES IDX 15 1 16 2 17 3 18 4 19 5 20 6 21 7 22 8 23 9 24 10 25 11
REMARK SMILES IDX 26 12 27 13 28 14 29 15 30 16 14 17 13 18 12 19 11 20 10 21
REMARK SMILES IDX 9 22 8 23 7 24 6 25 5 26 4 27 3 28 2 29 1 30
REMARK H PARENT
REMARK Flexibility Score: inf
ROOT
ATOM      1  C   UNL     1       2.466  19.374  10.018  1.00  0.00     0.000 C 
ENDROOT
BRANCH   1   2
ATOM      2  C   UNL     1       1.796  19.779  11.348  1.00  0.00     0.000 C 
BRANCH   2   3
ATOM      3  C   UNL     1       1.887  18.729  12.470  1.00  0.00     0.000 C 
BRANCH   3   4
ATOM      4  C   UNL     1       3.288  18.556  13.077  1.00  0.00     0.000 C 
BRANCH   4   5
ATOM      5  C   UNL     1       4.042  17.302  12.592  1.00  0.00     0.000 C 
BRANCH   5   6
ATOM      6  C   UNL     1       5.395  17.644  11.943  1.00  0.00     0.000 C 
BRANCH   6   7
ATOM      7  C   UNL     1       5.610  16.939  10.590  1.00  0.00     0.000 C 
BRANCH   7   8
ATOM      8  C   UNL     1       4.324  16.290  10.061  1.00  0.00     0.000 C 
BRANCH   8   9
ATOM      9  C   UNL     1       4.581  15.256   8.949  1.00  0.00     0.000 C 
BRANCH   9  10
ATOM     10  C   UNL     1       5.974  15.323   8.288  1.00  0.00     0.000 C 
BRANCH  10  11
ATOM     11  C   UNL     1       6.052  16.183   7.010  1.00  0.00     0.000 C 
BRANCH  11  12
ATOM     12  C   UNL     1       5.000  15.796   5.958  1.00  0.00     0.006 C 
BRANCH  12  13
ATOM     13  C   UNL     1       5.468  14.652   5.049  1.00  0.00     0.053 C 
BRANCH  13  14
ATOM     14  C   UNL     1       4.712  13.382   5.287  1.00  0.00     0.041 C 
ATOM     15  O   UNL     1       5.022  12.331   4.662  1.00  0.00    -0.550 OA
ATOM     16  O   UNL     1       3.638  13.366   6.171  1.00  0.00    -0.550 OA
ENDBRANCH  13  14
ENDBRANCH  12  13
ENDBRANCH  11  12
ENDBRANCH  10  11
ENDBRANCH   9  10
ENDBRANCH   8   9
ENDBRANCH   7   8
ENDBRANCH   6   7
ENDBRANCH   5   6
ENDBRANCH   4   5
ENDBRANCH   3   4
ENDBRANCH   2   3
ENDBRANCH   1   2
BRANCH   1  17
ATOM     17  C   UNL     1       3.661  20.269   9.614  1.00  0.00     0.000 C 
BRANCH  17  18
ATOM     18  C   UNL     1       4.380  19.750   8.358  1.00  0.00     0.000 C 
BRANCH  18  19
ATOM     19  C   UNL     1       3.504  18.833   7.486  1.00  0.00     0.000 C 
BRANCH  19  20
ATOM     20  C   UNL     1       3.476  19.156   5.976  1.00  0.00     0.000 C 
BRANCH  20  21
ATOM     21  C   UNL     1       2.517  20.300   5.598  1.00  0.00     0.000 C 
BRANCH  21  22
ATOM     22  C   UNL     1       1.211  20.215   6.409  1.00  0.00    -0.000 C 
BRANCH  22  23
ATOM     23  C   UNL     1       0.880  21.521   7.151  1.00  0.00    -0.000 C 
BRANCH  23  24
ATOM     24  C   UNL     1      -0.036  21.301   8.367  1.00  0.00    -0.000 C 
BRANCH  24  25
ATOM     25  C   UNL     1      -1.486  21.750   8.114  1.00  0.00    -0.000 C 
BRANCH  25  26
ATOM     26  C   UNL     1      -2.449  21.330   9.242  1.00  0.00    -0.000 C 
BRANCH  26  27
ATOM     27  C   UNL     1      -3.866  20.998   8.730  1.00  0.00    -0.000 C 
BRANCH  27  28
ATOM     28  C   UNL     1      -4.043  19.582   8.148  1.00  0.00    -0.000 C 
BRANCH  28  29
ATOM     29  C   UNL     1      -4.129  19.571   6.613  1.00  0.00    -0.003 C 
ATOM     30  C   UNL     1      -2.837  19.039   5.989  1.00  0.00     0.004 C 
ENDBRANCH  28  29
ENDBRANCH  27  28
ENDBRANCH  26  27
ENDBRANCH  25  26
ENDBRANCH  24  25
ENDBRANCH  23  24
ENDBRANCH  22  23
ENDBRANCH  21  22
ENDBRANCH  20  21
ENDBRANCH  19  20
ENDBRANCH  18  19
ENDBRANCH  17  18
ENDBRANCH   1  17
TORSDOF 26
ENDMDL
MODEL 5
REMARK VINA RESULT:    -2.595      2.031      3.528
REMARK INTER + INTRA:         -11.552
REMARK INTER:                  -6.836
REMARK INTRA:                  -4.716
REMARK UNBOUND:                -5.012
REMARK SMILES CCCCCCCCCCCCCCCCCCCCCCCCCCCC(=O)[O-]
REMARK SMILES IDX 15 1 16 2 17 3 18 4 19 5 20 6 21 7 22 8 23 9 24 10 25 11
REMARK SMILES IDX 26 12 27 13 28 14 29 15 30 16 14 17 13 18 12 19 11 20 10 21
REMARK SMILES IDX 9 22 8 23 7 24 6 25 5 26 4 27 3 28 2 29 1 30
REMARK H PARENT
REMARK Flexibility Score: inf
ROOT
ATOM      1  C   UNL     1       1.338  20.052   6.242  1.00  0.00     0.000 C 
ENDROOT
BRANCH   1   2
ATOM      2  C   UNL     1       1.706  20.360   7.709  1.00  0.00     0.000 C 
BRANCH   2   3
ATOM      3  C   UNL     1       1.535  21.831   8.128  1.00  0.00     0.000 C 
BRANCH   3   4
ATOM      4  C   UNL     1       1.277  22.048   9.628  1.00  0.00     0.000 C 
BRANCH   4   5
ATOM      5  C   UNL     1       0.229  21.096  10.237  1.00  0.00     0.000 C 
BRANCH   5   6
ATOM      6  C   UNL     1       0.753  20.366  11.487  1.00  0.00     0.000 C 
BRANCH   6   7
ATOM      7  C   UNL     1       2.277  20.138  11.457  1.00  0.00     0.000 C 
BRANCH   7   8
ATOM      8  C   UNL     1       2.645  18.730  10.969  1.00  0.00     0.000 C 
BRANCH   8   9
ATOM      9  C   UNL     1       3.903  18.708  10.081  1.00  0.00     0.000 C 
BRANCH   9  10
ATOM     10  C   UNL     1       4.913  17.582  10.388  1.00  0.00     0.000 C 
BRANCH  10  11
ATOM     11  C   UNL     1       4.443  16.161  10.014  1.00  0.00     0.000 C 
BRANCH  11  12
ATOM     12  C   UNL     1       4.932  15.709   8.628  1.00  0.00     0.006 C 
BRANCH  12  13
ATOM     13  C   UNL     1       3.835  15.011   7.814  1.00  0.00     0.053 C 
BRANCH  13  14
ATOM     14  C   UNL     1       4.346  13.821   7.064  1.00  0.00     0.041 C 
ATOM     15  O   UNL     1       5.122  13.000   7.627  1.00  0.00    -0.550 OA
ATOM     16  O   UNL     1       3.997  13.635   5.730  1.00  0.00    -0.550 OA
ENDBRANCH  13  14
ENDBRANCH  12  13
ENDBRANCH  11  12
ENDBRANCH  10  11
ENDBRANCH   9  10
ENDBRANCH   8   9
ENDBRANCH   7   8
ENDBRANCH   6   7
ENDBRANCH   5   6
ENDBRANCH   4   5
ENDBRANCH   3   4
ENDBRANCH   2   3
ENDBRANCH   1   2
BRANCH   1  17
ATOM     17  C   UNL     1       0.703  21.243   5.486  1.00  0.00     0.000 C 
BRANCH  17  18
ATOM     18  C   UNL     1       1.608  21.767   4.358  1.00  0.00     0.000 C 
BRANCH  18  19
ATOM     19  C   UNL     1       2.971  21.058   4.288  1.00  0.00     0.000 C 
BRANCH  19  20
ATOM     20  C   UNL     1       4.192  21.886   4.744  1.00  0.00     0.000 C 
BRANCH  20  21
ATOM     21  C   UNL     1       5.384  21.036   5.220  1.00  0.00     0.000 C 
BRANCH  21  22
ATOM     22  C   UNL     1       5.142  20.496   6.642  1.00  0.00    -0.000 C 
BRANCH  22  23
ATOM     23  C   UNL     1       5.455  18.995   6.773  1.00  0.00    -0.000 C 
BRANCH  23  24
ATOM     24  C   UNL     1       4.481  18.111   5.976  1.00  0.00    -0.000 C 
BRANCH  24  25
ATOM     25  C   UNL     1       5.195  17.174   4.986  1.00  0.00    -0.000 C 
BRANCH  25  26
ATOM     26  C   UNL     1       6.694  17.496   4.830  1.00  0.00    -0.000 C 
BRANCH  26  27
ATOM     27  C   UNL     1       7.052  18.028   3.427  1.00  0.00    -0.000 C 
BRANCH  27  28
ATOM     28  C   UNL     1       5.865  18.554   2.597  1.00  0.00    -0.000 C 
BRANCH  28  29
ATOM     29  C   UNL     1       6.000  18.249   1.097  1.00  0.00    -0.003 C 
ATOM     30  C   UNL     1       5.019  17.157   0.661  1.00  0.00     0.004 C 
ENDBRANCH  28  29
ENDBRANCH  27  28
ENDBRANCH  26  27
ENDBRANCH  25  26
ENDBRANCH  24  25
ENDBRANCH  23  24
ENDBRANCH  22  23
ENDBRANCH  21  22
ENDBRANCH  20  21
ENDBRANCH  19  20
ENDBRANCH  18  19
ENDBRANCH  17  18
ENDBRANCH   1  17
TORSDOF 26
ENDMDL
MODEL 6
REMARK VINA RESULT:    -2.580      2.109      6.257
REMARK INTER + INTRA:         -11.514
REMARK INTER:                  -5.742
REMARK INTRA:                  -5.772
REMARK UNBOUND:                -5.012
REMARK SMILES CCCCCCCCCCCCCCCCCCCCCCCCCCCC(=O)[O-]
REMARK SMILES IDX 15 1 16 2 17 3 18 4 19 5 20 6 21 7 22 8 23 9 24 10 25 11
REMARK SMILES IDX 26 12 27 13 28 14 29 15 30 16 14 17 13 18 12 19 11 20 10 21
REMARK SMILES IDX 9 22 8 23 7 24 6 25 5 26 4 27 3 28 2 29 1 30
REMARK H PARENT
REMARK Flexibility Score: inf
ROOT
ATOM      1  C   UNL     1       5.821  19.690   8.913  1.00  0.00     0.000 C 
ENDROOT
BRANCH   1   2
ATOM      2  C   UNL     1       5.162  18.298   9.027  1.00  0.00     0.000 C 
BRANCH   2   3
ATOM      3  C   UNL     1       3.688  18.237   8.588  1.00  0.00     0.000 C 
BRANCH   3   4
ATOM      4  C   UNL     1       3.468  18.266   7.067  1.00  0.00     0.000 C 
BRANCH   4   5
ATOM      5  C   UNL     1       2.538  19.395   6.579  1.00  0.00     0.000 C 
BRANCH   5   6
ATOM      6  C   UNL     1       3.151  20.203   5.421  1.00  0.00     0.000 C 
BRANCH   6   7
ATOM      7  C   UNL     1       4.435  19.566   4.855  1.00  0.00     0.000 C 
BRANCH   7   8
ATOM      8  C   UNL     1       5.691  20.370   5.215  1.00  0.00     0.000 C 
BRANCH   8   9
ATOM      9  C   UNL     1       6.920  19.482   5.489  1.00  0.00     0.000 C 
BRANCH   9  10
ATOM     10  C   UNL     1       6.783  18.007   5.057  1.00  0.00     0.000 C 
BRANCH  10  11
ATOM     11  C   UNL     1       7.018  16.973   6.176  1.00  0.00     0.000 C 
BRANCH  11  12
ATOM     12  C   UNL     1       6.536  15.561   5.803  1.00  0.00     0.006 C 
BRANCH  12  13
ATOM     13  C   UNL     1       5.015  15.487   5.611  1.00  0.00     0.053 C 
BRANCH  13  14
ATOM     14  C   UNL     1       4.368  14.501   6.532  1.00  0.00     0.041 C 
ATOM     15  O   UNL     1       3.908  13.416   6.079  1.00  0.00    -0.550 OA
ATOM     16  O   UNL     1       4.235  14.793   7.885  1.00  0.00    -0.550 OA
ENDBRANCH  13  14
ENDBRANCH  12  13
ENDBRANCH  11  12
ENDBRANCH  10  11
ENDBRANCH   9  10
ENDBRANCH   8   9
ENDBRANCH   7   8
ENDBRANCH   6   7
ENDBRANCH   5   6
ENDBRANCH   4   5
ENDBRANCH   3   4
ENDBRANCH   2   3
ENDBRANCH   1   2
BRANCH   1  17
ATOM     17  C   UNL     1       5.125  20.788   9.752  1.00  0.00     0.000 C 
BRANCH  17  18
ATOM     18  C   UNL     1       4.372  21.802   8.875  1.00  0.00     0.000 C 
BRANCH  18  19
ATOM     19  C   UNL     1       2.868  21.888   9.191  1.00  0.00     0.000 C 
BRANCH  19  20
ATOM     20  C   UNL     1       2.441  21.407  10.594  1.00  0.00     0.000 C 
BRANCH  20  21
ATOM     21  C   UNL     1       1.448  20.230  10.577  1.00  0.00     0.000 C 
BRANCH  21  22
ATOM     22  C   UNL     1       1.515  19.434  11.894  1.00  0.00    -0.000 C 
BRANCH  22  23
ATOM     23  C   UNL     1       2.708  18.464  11.947  1.00  0.00    -0.000 C 
BRANCH  23  24
ATOM     24  C   UNL     1       3.678  18.774  13.101  1.00  0.00    -0.000 C 
BRANCH  24  25
ATOM     25  C   UNL     1       5.155  18.642  12.694  1.00  0.00    -0.000 C 
BRANCH  25  26
ATOM     26  C   UNL     1       5.755  17.268  13.049  1.00  0.00    -0.000 C 
BRANCH  26  27
ATOM     27  C   UNL     1       6.709  16.729  11.964  1.00  0.00    -0.000 C 
BRANCH  27  28
ATOM     28  C   UNL     1       6.232  15.456  11.237  1.00  0.00    -0.000 C 
BRANCH  28  29
ATOM     29  C   UNL     1       4.728  15.194  11.413  1.00  0.00    -0.003 C 
ATOM     30  C   UNL     1       4.475  13.862  12.124  1.00  0.00     0.004 C 
ENDBRANCH  28  29
ENDBRANCH  27  28
ENDBRANCH  26  27
ENDBRANCH  25  26
ENDBRANCH  24  25
ENDBRANCH  23  24
ENDBRANCH  22  23
ENDBRANCH  21  22
ENDBRANCH  20  21
ENDBRANCH  19  20
ENDBRANCH  18  19
ENDBRANCH  17  18
ENDBRANCH   1  17
TORSDOF 26
ENDMDL
MODEL 7
REMARK VINA RESULT:    -2.559      2.213      5.968
REMARK INTER + INTRA:         -11.462
REMARK INTER:                  -6.212
REMARK INTRA:                  -5.250
REMARK UNBOUND:                -5.012
REMARK SMILES CCCCCCCCCCCCCCCCCCCCCCCCCCCC(=O)[O-]
REMARK SMILES IDX 15 1 16 2 17 3 18 4 19 5 20 6 21 7 22 8 23 9 24 10 25 11
REMARK SMILES IDX 26 12 27 13 28 14 29 15 30 16 14 17 13 18 12 19 11 20 10 21
REMARK SMILES IDX 9 22 8 23 7 24 6 25 5 26 4 27 3 28 2 29 1 30
REMARK H PARENT
REMARK Flexibility Score: inf
ROOT
ATOM      1  C   UNL     1       2.483  19.767   9.210  1.00  0.00     0.000 C 
ENDROOT
BRANCH   1   2
ATOM      2  C   UNL     1       1.828  21.052   8.660  1.00  0.00     0.000 C 
BRANCH   2   3
ATOM      3  C   UNL     1       0.901  20.844   7.448  1.00  0.00     0.000 C 
BRANCH   3   4
ATOM      4  C   UNL     1       1.494  19.976   6.327  1.00  0.00     0.000 C 
BRANCH   4   5
ATOM      5  C   UNL     1       2.066  20.774   5.139  1.00  0.00     0.000 C 
BRANCH   5   6
ATOM      6  C   UNL     1       3.575  21.043   5.283  1.00  0.00     0.000 C 
BRANCH   6   7
ATOM      7  C   UNL     1       4.441  20.088   4.439  1.00  0.00     0.000 C 
BRANCH   7   8
ATOM      8  C   UNL     1       5.567  19.445   5.260  1.00  0.00     0.000 C 
BRANCH   8   9
ATOM      9  C   UNL     1       5.102  18.953   6.643  1.00  0.00     0.000 C 
BRANCH   9  10
ATOM     10  C   UNL     1       4.399  17.579   6.658  1.00  0.00     0.000 C 
BRANCH  10  11
ATOM     11  C   UNL     1       4.912  16.569   5.611  1.00  0.00     0.000 C 
BRANCH  11  12
ATOM     12  C   UNL     1       5.504  15.297   6.240  1.00  0.00     0.006 C 
BRANCH  12  13
ATOM     13  C   UNL     1       4.425  14.281   6.639  1.00  0.00     0.053 C 
BRANCH  13  14
ATOM     14  C   UNL     1       4.353  13.120   5.697  1.00  0.00     0.041 C 
ATOM     15  O   UNL     1       3.421  12.275   5.800  1.00  0.00    -0.550 OA
ATOM     16  O   UNL     1       5.334  12.947   4.727  1.00  0.00    -0.550 OA
ENDBRANCH  13  14
ENDBRANCH  12  13
ENDBRANCH  11  12
ENDBRANCH  10  11
ENDBRANCH   9  10
ENDBRANCH   8   9
ENDBRANCH   7   8
ENDBRANCH   6   7
ENDBRANCH   5   6
ENDBRANCH   4   5
ENDBRANCH   3   4
ENDBRANCH   2   3
ENDBRANCH   1   2
BRANCH   1  17
ATOM     17  C   UNL     1       2.124  19.455  10.682  1.00  0.00     0.000 C 
BRANCH  17  18
ATOM     18  C   UNL     1       3.063  18.407  11.301  1.00  0.00     0.000 C 
BRANCH  18  19
ATOM     19  C   UNL     1       3.818  17.567  10.256  1.00  0.00     0.000 C 
BRANCH  19  20
ATOM     20  C   UNL     1       4.535  16.306  10.787  1.00  0.00     0.000 C 
BRANCH  20  21
ATOM     21  C   UNL     1       5.633  15.769   9.851  1.00  0.00     0.000 C 
BRANCH  21  22
ATOM     22  C   UNL     1       6.761  16.803   9.675  1.00  0.00    -0.000 C 
BRANCH  22  23
ATOM     23  C   UNL     1       7.431  17.189  11.005  1.00  0.00    -0.000 C 
BRANCH  23  24
ATOM     24  C   UNL     1       7.372  18.701  11.286  1.00  0.00    -0.000 C 
BRANCH  24  25
ATOM     25  C   UNL     1       8.236  19.524  10.315  1.00  0.00    -0.000 C 
BRANCH  25  26
ATOM     26  C   UNL     1       7.400  20.300   9.278  1.00  0.00    -0.000 C 
BRANCH  26  27
ATOM     27  C   UNL     1       5.955  20.565   9.747  1.00  0.00    -0.000 C 
BRANCH  27  28
ATOM     28  C   UNL     1       5.470  22.021   9.604  1.00  0.00    -0.000 C 
BRANCH  28  29
ATOM     29  C   UNL     1       4.750  22.539  10.859  1.00  0.00    -0.003 C 
ATOM     30  C   UNL     1       4.901  21.564  12.029  1.00  0.00     0.004 C 
ENDBRANCH  28  29
ENDBRANCH  27  28
ENDBRANCH  26  27
ENDBRANCH  25  26
ENDBRANCH  24  25
ENDBRANCH  23  24
ENDBRANCH  22  23
ENDBRANCH  21  22
ENDBRANCH  20  21
ENDBRANCH  19  20
ENDBRANCH  18  19
ENDBRANCH  17  18
ENDBRANCH   1  17
TORSDOF 26
ENDMDL
MODEL 8
REMARK VINA RESULT:    -2.546      2.766      6.477
REMARK INTER + INTRA:         -11.428
REMARK INTER:                  -5.474
REMARK INTRA:                  -5.955
REMARK UNBOUND:                -5.012
REMARK SMILES CCCCCCCCCCCCCCCCCCCCCCCCCCCC(=O)[O-]
REMARK SMILES IDX 15 1 16 2 17 3 18 4 19 5 20 6 21 7 22 8 23 9 24 10 25 11
REMARK SMILES IDX 26 12 27 13 28 14 29 15 30 16 14 17 13 18 12 19 11 20 10 21
REMARK SMILES IDX 9 22 8 23 7 24 6 25 5 26 4 27 3 28 2 29 1 30
REMARK H PARENT
REMARK Flexibility Score: inf
ROOT
ATOM      1  C   UNL     1       5.339  18.725   8.979  1.00  0.00     0.000 C 
ENDROOT
BRANCH   1   2
ATOM      2  C   UNL     1       3.819  18.591   9.208  1.00  0.00     0.000 C 
BRANCH   2   3
ATOM      3  C   UNL     1       3.412  18.124  10.618  1.00  0.00     0.000 C 
BRANCH   3   4
ATOM      4  C   UNL     1       4.568  17.592  11.478  1.00  0.00     0.000 C 
BRANCH   4   5
ATOM      5  C   UNL     1       4.746  16.061  11.430  1.00  0.00     0.000 C 
BRANCH   5   6
ATOM      6  C   UNL     1       6.071  15.643  10.767  1.00  0.00     0.000 C 
BRANCH   6   7
ATOM      7  C   UNL     1       5.887  15.124   9.328  1.00  0.00     0.000 C 
BRANCH   7   8
ATOM      8  C   UNL     1       4.409  14.943   8.959  1.00  0.00     0.000 C 
BRANCH   8   9
ATOM      9  C   UNL     1       4.107  15.284   7.488  1.00  0.00     0.000 C 
BRANCH   9  10
ATOM     10  C   UNL     1       5.289  15.866   6.684  1.00  0.00     0.000 C 
BRANCH  10  11
ATOM     11  C   UNL     1       4.913  16.961   5.666  1.00  0.00     0.000 C 
BRANCH  11  12
ATOM     12  C   UNL     1       6.128  17.528   4.913  1.00  0.00     0.006 C 
BRANCH  12  13
ATOM     13  C   UNL     1       5.745  18.172   3.574  1.00  0.00     0.053 C 
BRANCH  13  14
ATOM     14  C   UNL     1       6.062  17.295   2.403  1.00  0.00     0.041 C 
ATOM     15  O   UNL     1       5.363  16.270   2.169  1.00  0.00    -0.550 OA
ATOM     16  O   UNL     1       7.153  17.585   1.590  1.00  0.00    -0.550 OA
ENDBRANCH  13  14
ENDBRANCH  12  13
ENDBRANCH  11  12
ENDBRANCH  10  11
ENDBRANCH   9  10
ENDBRANCH   8   9
ENDBRANCH   7   8
ENDBRANCH   6   7
ENDBRANCH   5   6
ENDBRANCH   4   5
ENDBRANCH   3   4
ENDBRANCH   2   3
ENDBRANCH   1   2
BRANCH   1  17
ATOM     17  C   UNL     1       5.725  19.754   7.889  1.00  0.00     0.000 C 
BRANCH  17  18
ATOM     18  C   UNL     1       4.530  20.620   7.457  1.00  0.00     0.000 C 
BRANCH  18  19
ATOM     19  C   UNL     1       4.374  20.731   5.930  1.00  0.00     0.000 C 
BRANCH  19  20
ATOM     20  C   UNL     1       3.050  20.196   5.342  1.00  0.00     0.000 C 
BRANCH  20  21
ATOM     21  C   UNL     1       2.020  19.768   6.404  1.00  0.00     0.000 C 
BRANCH  21  22
ATOM     22  C   UNL     1       0.696  20.534   6.227  1.00  0.00    -0.000 C 
BRANCH  22  23
ATOM     23  C   UNL     1       0.186  21.157   7.537  1.00  0.00    -0.000 C 
BRANCH  23  24
ATOM     24  C   UNL     1       1.293  21.314   8.594  1.00  0.00    -0.000 C 
BRANCH  24  25
ATOM     25  C   UNL     1       0.865  20.825   9.988  1.00  0.00    -0.000 C 
BRANCH  25  26
ATOM     26  C   UNL     1       1.726  21.415  11.122  1.00  0.00    -0.000 C 
BRANCH  26  27
ATOM     27  C   UNL     1       3.097  21.924  10.634  1.00  0.00    -0.000 C 
BRANCH  27  28
ATOM     28  C   UNL     1       4.292  21.581  11.545  1.00  0.00    -0.000 C 
BRANCH  28  29
ATOM     29  C   UNL     1       5.642  22.020  10.955  1.00  0.00    -0.003 C 
ATOM     30  C   UNL     1       6.761  21.052  11.346  1.00  0.00     0.004 C 
ENDBRANCH  28  29
ENDBRANCH  27  28
ENDBRANCH  26  27
ENDBRANCH  25  26
ENDBRANCH  24  25
ENDBRANCH  23  24
ENDBRANCH  22  23
ENDBRANCH  21  22
ENDBRANCH  20  21
ENDBRANCH  19  20
ENDBRANCH  18  19
ENDBRANCH  17  18
ENDBRANCH   1  17
TORSDOF 26
ENDMDL
MODEL 9
REMARK VINA RESULT:    -2.526      2.814      6.284
REMARK INTER + INTRA:         -11.377
REMARK INTER:                  -6.199
REMARK INTRA:                  -5.178
REMARK UNBOUND:                -5.012
REMARK SMILES CCCCCCCCCCCCCCCCCCCCCCCCCCCC(=O)[O-]
REMARK SMILES IDX 15 1 16 2 17 3 18 4 19 5 20 6 21 7 22 8 23 9 24 10 25 11
REMARK SMILES IDX 26 12 27 13 28 14 29 15 30 16 14 17 13 18 12 19 11 20 10 21
REMARK SMILES IDX 9 22 8 23 7 24 6 25 5 26 4 27 3 28 2 29 1 30
REMARK H PARENT
REMARK Flexibility Score: inf
ROOT
ATOM      1  C   UNL     1       5.501  16.205   9.802  1.00  0.00     0.000 C 
ENDROOT
BRANCH   1   2
ATOM      2  C   UNL     1       4.341  15.532   9.037  1.00  0.00     0.000 C 
BRANCH   2   3
ATOM      3  C   UNL     1       3.909  16.250   7.746  1.00  0.00     0.000 C 
BRANCH   3   4
ATOM      4  C   UNL     1       4.940  17.241   7.185  1.00  0.00     0.000 C 
BRANCH   4   5
ATOM      5  C   UNL     1       4.656  17.708   5.743  1.00  0.00     0.000 C 
BRANCH   5   6
ATOM      6  C   UNL     1       4.272  19.197   5.671  1.00  0.00     0.000 C 
BRANCH   6   7
ATOM      7  C   UNL     1       2.903  19.498   6.311  1.00  0.00     0.000 C 
BRANCH   7   8
ATOM      8  C   UNL     1       3.005  20.523   7.448  1.00  0.00     0.000 C 
BRANCH   8   9
ATOM      9  C   UNL     1       2.253  20.091   8.722  1.00  0.00     0.000 C 
BRANCH   9  10
ATOM     10  C   UNL     1       3.045  19.182   9.684  1.00  0.00     0.000 C 
BRANCH  10  11
ATOM     11  C   UNL     1       2.439  19.037  11.095  1.00  0.00     0.000 C 
BRANCH  11  12
ATOM     12  C   UNL     1       3.263  18.119  12.014  1.00  0.00     0.006 C 
BRANCH  12  13
ATOM     13  C   UNL     1       2.483  17.677  13.259  1.00  0.00     0.053 C 
BRANCH  13  14
ATOM     14  C   UNL     1       3.217  16.647  14.060  1.00  0.00     0.041 C 
ATOM     15  O   UNL     1       4.439  16.806  14.333  1.00  0.00    -0.550 OA
ATOM     16  O   UNL     1       2.564  15.491  14.475  1.00  0.00    -0.550 OA
ENDBRANCH  13  14
ENDBRANCH  12  13
ENDBRANCH  11  12
ENDBRANCH  10  11
ENDBRANCH   9  10
ENDBRANCH   8   9
ENDBRANCH   7   8
ENDBRANCH   6   7
ENDBRANCH   5   6
ENDBRANCH   4   5
ENDBRANCH   3   4
ENDBRANCH   2   3
ENDBRANCH   1   2
BRANCH   1  17
ATOM     17  C   UNL     1       5.867  15.509  11.134  1.00  0.00     0.000 C 
BRANCH  17  18
ATOM     18  C   UNL     1       4.827  14.454  11.546  1.00  0.00     0.000 C 
BRANCH  18  19
ATOM     19  C   UNL     1       5.384  13.020  11.570  1.00  0.00     0.000 C 
BRANCH  19  20
ATOM     20  C   UNL     1       6.629  12.761  10.696  1.00  0.00     0.000 C 
BRANCH  20  21
ATOM     21  C   UNL     1       6.460  11.606   9.691  1.00  0.00     0.000 C 
BRANCH  21  22
ATOM     22  C   UNL     1       5.072  11.653   9.027  1.00  0.00    -0.000 C 
BRANCH  22  23
ATOM     23  C   UNL     1       4.913  10.619   7.899  1.00  0.00    -0.000 C 
BRANCH  23  24
ATOM     24  C   UNL     1       4.323  11.224   6.613  1.00  0.00    -0.000 C 
BRANCH  24  25
ATOM     25  C   UNL     1       4.250  12.760   6.653  1.00  0.00    -0.000 C 
BRANCH  25  26
ATOM     26  C   UNL     1       4.703  13.416   5.334  1.00  0.00    -0.000 C 
BRANCH  26  27
ATOM     27  C   UNL     1       6.059  14.141   5.457  1.00  0.00    -0.000 C 
BRANCH  27  28
ATOM     28  C   UNL     1       6.773  13.981   6.814  1.00  0.00    -0.000 C 
BRANCH  28  29
ATOM     29  C   UNL     1       8.149  13.307   6.692  1.00  0.00    -0.003 C 
ATOM     30  C   UNL     1       8.017  11.858   6.216  1.00  0.00     0.004 C 
ENDBRANCH  28  29
ENDBRANCH  27  28
ENDBRANCH  26  27
ENDBRANCH  25  26
ENDBRANCH  24  25
ENDBRANCH  23  24
ENDBRANCH  22  23
ENDBRANCH  21  22
ENDBRANCH  20  21
ENDBRANCH  19  20
ENDBRANCH  18  19
ENDBRANCH  17  18
ENDBRANCH   1  17
TORSDOF 26
ENDMDL
