MODEL 1
REMARK VINA RESULT:    -5.354      0.000      0.000
REMARK INTER + INTRA:          -6.413
REMARK INTER:                  -6.293
REMARK INTRA:                  -0.120
REMARK UNBOUND:                -0.120
REMARK SMILES O=C([O-])C=Cc1ccc(O)c(O)c1
REMARK SMILES IDX 6 1 13 2 7 3 11 4 8 5 9 6 5 7 4 8 2 9 1 10 3 11 12 12 10 14
REMARK H PARENT 12 13 10 15
REMARK Flexibility Score: inf
ROOT
ATOM      1  C   UNL     1       0.924 -13.252 -39.176  1.00  0.00    -0.022 A 
ATOM      2  C   UNL     1       0.880 -12.578 -37.938  1.00  0.00     0.058 A 
ATOM      3  C   UNL     1      -0.265 -13.785 -39.699  1.00  0.00     0.012 A 
ATOM      4  C   UNL     1      -0.336 -12.421 -37.255  1.00  0.00     0.157 A 
ATOM      5  C   UNL     1      -1.475 -13.627 -39.019  1.00  0.00     0.051 A 
ATOM      6  C   UNL     1      -1.518 -12.945 -37.800  1.00  0.00     0.157 A 
ENDROOT
BRANCH   1   7
ATOM      7  C   UNL     1       2.185 -13.454 -39.931  1.00  0.00     0.010 C 
ATOM      8  C   UNL     1       3.131 -12.513 -40.064  1.00  0.00     0.025 C 
BRANCH   8   9
ATOM      9  C   UNL     1       4.367 -12.745 -40.832  1.00  0.00     0.064 C 
ATOM     10  O   UNL     1       5.404 -13.198 -40.278  1.00  0.00    -0.545 OA
ATOM     11  O   UNL     1       4.390 -12.459 -42.190  1.00  0.00    -0.545 OA
ENDBRANCH   8   9
ENDBRANCH   1   7
BRANCH   4  12
ATOM     12  O   UNL     1      -0.369 -11.749 -36.033  1.00  0.00    -0.504 OA
ATOM     13  H   UNL     1       0.125 -12.097 -35.221  1.00  0.00     0.293 HD
ENDBRANCH   4  12
BRANCH   6  14
ATOM     14  O   UNL     1      -2.741 -12.802 -37.147  1.00  0.00    -0.504 OA
ATOM     15  H   UNL     1      -3.269 -13.600 -36.811  1.00  0.00     0.293 HD
ENDBRANCH   6  14
TORSDOF 4
ENDMDL
MODEL 2
REMARK VINA RESULT:    -5.275      3.516      5.176
REMARK INTER + INTRA:          -6.321
REMARK INTER:                  -6.199
REMARK INTRA:                  -0.122
REMARK UNBOUND:                -0.120
REMARK SMILES O=C([O-])C=Cc1ccc(O)c(O)c1
REMARK SMILES IDX 6 1 13 2 7 3 11 4 8 5 9 6 5 7 4 8 2 9 1 10 3 11 12 12 10 14
REMARK H PARENT 12 13 10 15
REMARK Flexibility Score: inf
ROOT
ATOM      1  C   UNL     1      -0.843 -12.631 -40.022  1.00  0.00    -0.022 A 
ATOM      2  C   UNL     1       0.534 -12.331 -40.085  1.00  0.00     0.058 A 
ATOM      3  C   UNL     1      -1.254 -13.779 -39.326  1.00  0.00     0.012 A 
ATOM      4  C   UNL     1       1.472 -13.151 -39.442  1.00  0.00     0.157 A 
ATOM      5  C   UNL     1      -0.318 -14.595 -38.685  1.00  0.00     0.051 A 
ATOM      6  C   UNL     1       1.044 -14.286 -38.736  1.00  0.00     0.157 A 
ENDROOT
BRANCH   1   7
ATOM      7  C   UNL     1      -1.873 -11.802 -40.694  1.00  0.00     0.010 C 
ATOM      8  C   UNL     1      -1.704 -11.236 -41.898  1.00  0.00     0.025 C 
BRANCH   8   9
ATOM      9  C   UNL     1      -2.746 -10.409 -42.530  1.00  0.00     0.064 C 
ATOM     10  O   UNL     1      -2.460  -9.322 -43.100  1.00  0.00    -0.545 OA
ATOM     11  O   UNL     1      -4.067 -10.834 -42.497  1.00  0.00    -0.545 OA
ENDBRANCH   8   9
ENDBRANCH   1   7
BRANCH   4  12
ATOM     12  O   UNL     1       2.831 -12.843 -39.507  1.00  0.00    -0.504 OA
ATOM     13  H   UNL     1       3.220 -12.313 -40.278  1.00  0.00     0.293 HD
ENDBRANCH   4  12
BRANCH   6  14
ATOM     14  O   UNL     1       1.952 -15.118 -38.084  1.00  0.00    -0.504 OA
ATOM     15  H   UNL     1       2.929 -15.165 -38.354  1.00  0.00     0.293 HD
ENDBRANCH   6  14
TORSDOF 4
ENDMDL
MODEL 3
REMARK VINA RESULT:    -5.223      1.450      2.057
REMARK INTER + INTRA:          -6.259
REMARK INTER:                  -6.125
REMARK INTRA:                  -0.133
REMARK UNBOUND:                -0.120
REMARK SMILES O=C([O-])C=Cc1ccc(O)c(O)c1
REMARK SMILES IDX 6 1 13 2 7 3 11 4 8 5 9 6 5 7 4 8 2 9 1 10 3 11 12 12 10 14
REMARK H PARENT 12 13 10 15
REMARK Flexibility Score: inf
ROOT
ATOM      1  C   UNL     1       1.934 -12.587 -39.475  1.00  0.00    -0.022 A 
ATOM      2  C   UNL     1       1.429 -13.697 -38.766  1.00  0.00     0.058 A 
ATOM      3  C   UNL     1       1.532 -11.298 -39.089  1.00  0.00     0.012 A 
ATOM      4  C   UNL     1       0.561 -13.514 -37.680  1.00  0.00     0.157 A 
ATOM      5  C   UNL     1       0.668 -11.117 -38.007  1.00  0.00     0.051 A 
ATOM      6  C   UNL     1       0.182 -12.218 -37.297  1.00  0.00     0.157 A 
ENDROOT
BRANCH   1   7
ATOM      7  C   UNL     1       2.846 -12.728 -40.636  1.00  0.00     0.010 C 
ATOM      8  C   UNL     1       4.079 -12.203 -40.683  1.00  0.00     0.025 C 
BRANCH   8   9
ATOM      9  C   UNL     1       4.953 -12.354 -41.859  1.00  0.00     0.064 C 
ATOM     10  O   UNL     1       5.947 -13.128 -41.838  1.00  0.00    -0.545 OA
ATOM     11  O   UNL     1       4.677 -11.630 -43.011  1.00  0.00    -0.545 OA
ENDBRANCH   8   9
ENDBRANCH   1   7
BRANCH   4  12
ATOM     12  O   UNL     1       0.070 -14.618 -36.983  1.00  0.00    -0.504 OA
ATOM     13  H   UNL     1      -0.675 -14.530 -36.304  1.00  0.00     0.293 HD
ENDBRANCH   4  12
BRANCH   6  14
ATOM     14  O   UNL     1      -0.677 -12.004 -36.220  1.00  0.00    -0.504 OA
ATOM     15  H   UNL     1      -0.471 -12.353 -35.290  1.00  0.00     0.293 HD
ENDBRANCH   6  14
TORSDOF 4
ENDMDL
MODEL 4
REMARK VINA RESULT:    -5.094      7.662      8.321
REMARK INTER + INTRA:          -6.108
REMARK INTER:                  -5.985
REMARK INTRA:                  -0.123
REMARK UNBOUND:                -0.120
REMARK SMILES O=C([O-])C=Cc1ccc(O)c(O)c1
REMARK SMILES IDX 6 1 13 2 7 3 11 4 8 5 9 6 5 7 4 8 2 9 1 10 3 11 12 12 10 14
REMARK H PARENT 12 13 10 15
REMARK Flexibility Score: inf
ROOT
ATOM      1  C   UNL     1       3.032  -6.964 -43.521  1.00  0.00    -0.022 A 
ATOM      2  C   UNL     1       4.066  -6.130 -43.049  1.00  0.00     0.058 A 
ATOM      3  C   UNL     1       1.803  -6.971 -42.841  1.00  0.00     0.012 A 
ATOM      4  C   UNL     1       3.862  -5.304 -41.933  1.00  0.00     0.157 A 
ATOM      5  C   UNL     1       1.601  -6.147 -41.731  1.00  0.00     0.051 A 
ATOM      6  C   UNL     1       2.623  -5.311 -41.274  1.00  0.00     0.157 A 
ENDROOT
BRANCH   1   7
ATOM      7  C   UNL     1       3.201  -7.863 -44.689  1.00  0.00     0.010 C 
ATOM      8  C   UNL     1       4.394  -8.250 -45.164  1.00  0.00     0.025 C 
BRANCH   8   9
ATOM      9  C   UNL     1       4.524  -9.136 -46.334  1.00  0.00     0.064 C 
ATOM     10  O   UNL     1       5.476  -9.004 -47.148  1.00  0.00    -0.545 OA
ATOM     11  O   UNL     1       3.580 -10.133 -46.542  1.00  0.00    -0.545 OA
ENDBRANCH   8   9
ENDBRANCH   1   7
BRANCH   4  12
ATOM     12  O   UNL     1       4.891  -4.480 -41.476  1.00  0.00    -0.504 OA
ATOM     13  H   UNL     1       4.966  -3.513 -41.765  1.00  0.00     0.293 HD
ENDBRANCH   4  12
BRANCH   6  14
ATOM     14  O   UNL     1       2.389  -4.499 -40.166  1.00  0.00    -0.504 OA
ATOM     15  H   UNL     1       1.458  -4.190 -39.911  1.00  0.00     0.293 HD
ENDBRANCH   6  14
TORSDOF 4
ENDMDL
MODEL 5
REMARK VINA RESULT:    -5.005      5.236      7.178
REMARK INTER + INTRA:          -6.004
REMARK INTER:                  -5.880
REMARK INTRA:                  -0.124
REMARK UNBOUND:                -0.120
REMARK SMILES O=C([O-])C=Cc1ccc(O)c(O)c1
REMARK SMILES IDX 6 1 13 2 7 3 11 4 8 5 9 6 5 7 4 8 2 9 1 10 3 11 12 12 10 14
REMARK H PARENT 12 13 10 15
REMARK Flexibility Score: inf
ROOT
ATOM      1  C   UNL     1       5.926 -11.571 -42.954  1.00  0.00    -0.022 A 
ATOM      2  C   UNL     1       4.925 -12.242 -42.222  1.00  0.00     0.058 A 
ATOM      3  C   UNL     1       7.217 -11.478 -42.408  1.00  0.00     0.012 A 
ATOM      4  C   UNL     1       5.221 -12.829 -40.983  1.00  0.00     0.157 A 
ATOM      5  C   UNL     1       7.511 -12.064 -41.174  1.00  0.00     0.051 A 
ATOM      6  C   UNL     1       6.520 -12.741 -40.459  1.00  0.00     0.157 A 
ENDROOT
BRANCH   1   7
ATOM      7  C   UNL     1       5.662 -10.926 -44.263  1.00  0.00     0.010 C 
ATOM      8  C   UNL     1       4.435 -10.768 -44.781  1.00  0.00     0.025 C 
BRANCH   8   9
ATOM      9  C   UNL     1       4.211 -10.131 -46.091  1.00  0.00     0.064 C 
ATOM     10  O   UNL     1       4.712  -9.008 -46.364  1.00  0.00    -0.545 OA
ATOM     11  O   UNL     1       3.434 -10.781 -47.040  1.00  0.00    -0.545 OA
ENDBRANCH   8   9
ENDBRANCH   1   7
BRANCH   4  12
ATOM     12  O   UNL     1       4.224 -13.493 -40.268  1.00  0.00    -0.504 OA
ATOM     13  H   UNL     1       3.750 -13.058 -39.486  1.00  0.00     0.293 HD
ENDBRANCH   4  12
BRANCH   6  14
ATOM     14  O   UNL     1       6.845 -13.317 -39.231  1.00  0.00    -0.504 OA
ATOM     15  H   UNL     1       6.424 -14.183 -38.915  1.00  0.00     0.293 HD
ENDBRANCH   6  14
TORSDOF 4
ENDMDL
MODEL 6
REMARK VINA RESULT:    -4.981      3.955      5.129
REMARK INTER + INTRA:          -5.975
REMARK INTER:                  -5.833
REMARK INTRA:                  -0.141
REMARK UNBOUND:                -0.120
REMARK SMILES O=C([O-])C=Cc1ccc(O)c(O)c1
REMARK SMILES IDX 6 1 13 2 7 3 11 4 8 5 9 6 5 7 4 8 2 9 1 10 3 11 12 12 10 14
REMARK H PARENT 12 13 10 15
REMARK Flexibility Score: inf
ROOT
ATOM      1  C   UNL     1      -0.560 -11.949 -40.432  1.00  0.00    -0.022 A 
ATOM      2  C   UNL     1      -1.017 -13.251 -40.140  1.00  0.00     0.058 A 
ATOM      3  C   UNL     1       0.719 -11.566 -39.996  1.00  0.00     0.012 A 
ATOM      4  C   UNL     1      -0.197 -14.155 -39.449  1.00  0.00     0.157 A 
ATOM      5  C   UNL     1       1.535 -12.468 -39.309  1.00  0.00     0.051 A 
ATOM      6  C   UNL     1       1.085 -13.763 -39.034  1.00  0.00     0.157 A 
ENDROOT
BRANCH   1   7
ATOM      7  C   UNL     1      -1.392 -10.953 -41.150  1.00  0.00     0.010 C 
ATOM      8  C   UNL     1      -0.941 -10.198 -42.163  1.00  0.00     0.025 C 
BRANCH   8   9
ATOM      9  C   UNL     1      -1.793  -9.209 -42.846  1.00  0.00     0.064 C 
ATOM     10  O   UNL     1      -2.675  -8.565 -42.219  1.00  0.00    -0.545 OA
ATOM     11  O   UNL     1      -1.621  -8.985 -44.205  1.00  0.00    -0.545 OA
ENDBRANCH   8   9
ENDBRANCH   1   7
BRANCH   4  12
ATOM     12  O   UNL     1      -0.657 -15.442 -39.168  1.00  0.00    -0.504 OA
ATOM     13  H   UNL     1      -0.192 -16.037 -38.494  1.00  0.00     0.293 HD
ENDBRANCH   4  12
BRANCH   6  14
ATOM     14  O   UNL     1       1.923 -14.640 -38.349  1.00  0.00    -0.504 OA
ATOM     15  H   UNL     1       1.561 -15.370 -37.745  1.00  0.00     0.293 HD
ENDBRANCH   6  14
TORSDOF 4
ENDMDL
MODEL 7
REMARK VINA RESULT:    -4.977      7.765      8.207
REMARK INTER + INTRA:          -5.970
REMARK INTER:                  -5.817
REMARK INTRA:                  -0.152
REMARK UNBOUND:                -0.120
REMARK SMILES O=C([O-])C=Cc1ccc(O)c(O)c1
REMARK SMILES IDX 6 1 13 2 7 3 11 4 8 5 9 6 5 7 4 8 2 9 1 10 3 11 12 12 10 14
REMARK H PARENT 12 13 10 15
REMARK Flexibility Score: inf
ROOT
ATOM      1  C   UNL     1       2.869  -6.908 -43.461  1.00  0.00    -0.022 A 
ATOM      2  C   UNL     1       1.573  -6.525 -43.059  1.00  0.00     0.058 A 
ATOM      3  C   UNL     1       3.972  -6.433 -42.733  1.00  0.00     0.012 A 
ATOM      4  C   UNL     1       1.388  -5.703 -41.937  1.00  0.00     0.157 A 
ATOM      5  C   UNL     1       3.786  -5.616 -41.615  1.00  0.00     0.051 A 
ATOM      6  C   UNL     1       2.500  -5.250 -41.211  1.00  0.00     0.157 A 
ENDROOT
BRANCH   1   7
ATOM      7  C   UNL     1       3.118  -7.766 -44.645  1.00  0.00     0.010 C 
ATOM      8  C   UNL     1       4.342  -8.118 -45.065  1.00  0.00     0.025 C 
BRANCH   8   9
ATOM      9  C   UNL     1       4.552  -8.963 -46.254  1.00  0.00     0.064 C 
ATOM     10  O   UNL     1       3.852  -9.991 -46.455  1.00  0.00    -0.545 OA
ATOM     11  O   UNL     1       5.539  -8.620 -47.168  1.00  0.00    -0.545 OA
ENDBRANCH   8   9
ENDBRANCH   1   7
BRANCH   4  12
ATOM     12  O   UNL     1       0.101  -5.332 -41.546  1.00  0.00    -0.504 OA
ATOM     13  H   UNL     1      -0.109  -5.071 -40.591  1.00  0.00     0.293 HD
ENDBRANCH   4  12
BRANCH   6  14
ATOM     14  O   UNL     1       2.348  -4.436 -40.090  1.00  0.00    -0.504 OA
ATOM     15  H   UNL     1       2.073  -3.462 -40.164  1.00  0.00     0.293 HD
ENDBRANCH   6  14
TORSDOF 4
ENDMDL
MODEL 8
REMARK VINA RESULT:    -4.949      7.931      9.733
REMARK INTER + INTRA:          -5.937
REMARK INTER:                  -5.814
REMARK INTRA:                  -0.123
REMARK UNBOUND:                -0.120
REMARK SMILES O=C([O-])C=Cc1ccc(O)c(O)c1
REMARK SMILES IDX 6 1 13 2 7 3 11 4 8 5 9 6 5 7 4 8 2 9 1 10 3 11 12 12 10 14
REMARK H PARENT 12 13 10 15
REMARK Flexibility Score: inf
ROOT
ATOM      1  C   UNL     1       3.462  -7.735 -44.465  1.00  0.00    -0.022 A 
ATOM      2  C   UNL     1       4.790  -7.472 -44.073  1.00  0.00     0.058 A 
ATOM      3  C   UNL     1       3.232  -8.639 -45.515  1.00  0.00     0.012 A 
ATOM      4  C   UNL     1       5.861  -8.121 -44.704  1.00  0.00     0.157 A 
ATOM      5  C   UNL     1       4.299  -9.286 -46.142  1.00  0.00     0.051 A 
ATOM      6  C   UNL     1       5.614  -9.035 -45.741  1.00  0.00     0.157 A 
ENDROOT
BRANCH   1   7
ATOM      7  C   UNL     1       2.296  -7.067 -43.838  1.00  0.00     0.010 C 
ATOM      8  C   UNL     1       2.382  -5.932 -43.128  1.00  0.00     0.025 C 
BRANCH   8   9
ATOM      9  C   UNL     1       1.203  -5.302 -42.508  1.00  0.00     0.064 C 
ATOM     10  O   UNL     1       0.243  -4.883 -43.209  1.00  0.00    -0.545 OA
ATOM     11  O   UNL     1       1.149  -5.165 -41.128  1.00  0.00    -0.545 OA
ENDBRANCH   8   9
ENDBRANCH   1   7
BRANCH   4  12
ATOM     12  O   UNL     1       7.172  -7.856 -44.306  1.00  0.00    -0.504 OA
ATOM     13  H   UNL     1       7.780  -8.588 -43.960  1.00  0.00     0.293 HD
ENDBRANCH   4  12
BRANCH   6  14
ATOM     14  O   UNL     1       6.658  -9.698 -46.384  1.00  0.00    -0.504 OA
ATOM     15  H   UNL     1       7.630  -9.484 -46.194  1.00  0.00     0.293 HD
ENDBRANCH   6  14
TORSDOF 4
ENDMDL
MODEL 9
REMARK VINA RESULT:    -4.892      6.400      7.560
REMARK INTER + INTRA:          -5.870
REMARK INTER:                  -5.747
REMARK INTRA:                  -0.123
REMARK UNBOUND:                -0.120
REMARK SMILES O=C([O-])C=Cc1ccc(O)c(O)c1
REMARK SMILES IDX 6 1 13 2 7 3 11 4 8 5 9 6 5 7 4 8 2 9 1 10 3 11 12 12 10 14
REMARK H PARENT 12 13 10 15
REMARK Flexibility Score: inf
ROOT
ATOM      1  C   UNL     1       5.677 -10.900 -44.133  1.00  0.00    -0.022 A 
ATOM      2  C   UNL     1       4.368 -11.082 -43.642  1.00  0.00     0.058 A 
ATOM      3  C   UNL     1       5.851 -10.293 -45.388  1.00  0.00     0.012 A 
ATOM      4  C   UNL     1       3.261 -10.641 -44.383  1.00  0.00     0.157 A 
ATOM      5  C   UNL     1       4.749  -9.854 -46.124  1.00  0.00     0.051 A 
ATOM      6  C   UNL     1       3.453 -10.022 -45.628  1.00  0.00     0.157 A 
ENDROOT
BRANCH   1   7
ATOM      7  C   UNL     1       6.878 -11.357 -43.393  1.00  0.00     0.010 C 
ATOM      8  C   UNL     1       6.842 -12.249 -42.392  1.00  0.00     0.025 C 
BRANCH   8   9
ATOM      9  C   UNL     1       8.055 -12.672 -41.672  1.00  0.00     0.064 C 
ATOM     10  O   UNL     1       9.000 -13.252 -42.271  1.00  0.00    -0.545 OA
ATOM     11  O   UNL     1       8.159 -12.428 -40.309  1.00  0.00    -0.545 OA
ENDBRANCH   8   9
ENDBRANCH   1   7
BRANCH   4  12
ATOM     12  O   UNL     1       1.970 -10.823 -43.887  1.00  0.00    -0.504 OA
ATOM     13  H   UNL     1       1.506 -11.722 -43.929  1.00  0.00     0.293 HD
ENDBRANCH   4  12
BRANCH   6  14
ATOM     14  O   UNL     1       2.374  -9.571 -46.385  1.00  0.00    -0.504 OA
ATOM     15  H   UNL     1       1.612  -9.041 -45.976  1.00  0.00     0.293 HD
ENDBRANCH   6  14
TORSDOF 4
ENDMDL
