MODEL 1
REMARK VINA RESULT:    -4.122      0.000      0.000
REMARK INTER + INTRA:         -14.648
REMARK INTER:                 -10.388
REMARK INTRA:                  -4.260
REMARK UNBOUND:                -4.260
REMARK SMILES CCCCCCCCCCCCCCCCCCCCCCCCCCCC(=O)[O-]
REMARK SMILES IDX 15 1 16 2 17 3 18 4 19 5 20 6 21 7 22 8 23 9 24 10 25 11
REMARK SMILES IDX 26 12 27 13 28 14 29 15 30 16 14 17 13 18 12 19 11 20 10 21
REMARK SMILES IDX 9 22 8 23 7 24 6 25 5 26 4 27 3 28 2 29 1 30
REMARK H PARENT
REMARK Flexibility Score: inf
ROOT
ATOM      1  C   UNL     1      12.092  -1.093  43.300  1.00  0.00     0.000 C 
ENDROOT
BRANCH   1   2
ATOM      2  C   UNL     1      13.246  -0.457  42.508  1.00  0.00     0.000 C 
BRANCH   2   3
ATOM      3  C   UNL     1      12.822   0.632  41.504  1.00  0.00     0.000 C 
BRANCH   3   4
ATOM      4  C   UNL     1      12.222   0.078  40.194  1.00  0.00     0.000 C 
BRANCH   4   5
ATOM      5  C   UNL     1      12.909  -1.221  39.738  1.00  0.00     0.000 C 
BRANCH   5   6
ATOM      6  C   UNL     1      11.904  -2.336  39.408  1.00  0.00     0.000 C 
BRANCH   6   7
ATOM      7  C   UNL     1      12.527  -3.740  39.510  1.00  0.00     0.000 C 
BRANCH   7   8
ATOM      8  C   UNL     1      11.961  -4.552  40.687  1.00  0.00     0.000 C 
BRANCH   8   9
ATOM      9  C   UNL     1      10.793  -3.834  41.387  1.00  0.00     0.000 C 
BRANCH   9  10
ATOM     10  C   UNL     1       9.984  -4.767  42.301  1.00  0.00     0.000 C 
BRANCH  10  11
ATOM     11  C   UNL     1       8.594  -4.205  42.644  1.00  0.00     0.000 C 
BRANCH  11  12
ATOM     12  C   UNL     1       7.477  -5.256  42.507  1.00  0.00     0.006 C 
BRANCH  12  13
ATOM     13  C   UNL     1       7.759  -6.350  41.464  1.00  0.00     0.053 C 
BRANCH  13  14
ATOM     14  C   UNL     1       7.825  -7.712  42.084  1.00  0.00     0.041 C 
ATOM     15  O   UNL     1       7.568  -8.734  41.395  1.00  0.00    -0.550 OA
ATOM     16  O   UNL     1       8.135  -7.849  43.432  1.00  0.00    -0.550 OA
ENDBRANCH  13  14
ENDBRANCH  12  13
ENDBRANCH  11  12
ENDBRANCH  10  11
ENDBRANCH   9  10
ENDBRANCH   8   9
ENDBRANCH   7   8
ENDBRANCH   6   7
ENDBRANCH   5   6
ENDBRANCH   4   5
ENDBRANCH   3   4
ENDBRANCH   2   3
ENDBRANCH   1   2
BRANCH   1  17
ATOM     17  C   UNL     1      10.901  -0.140  43.486  1.00  0.00     0.000 C 
BRANCH  17  18
ATOM     18  C   UNL     1       9.611  -0.750  42.916  1.00  0.00     0.000 C 
BRANCH  18  19
ATOM     19  C   UNL     1       8.646   0.310  42.355  1.00  0.00     0.000 C 
BRANCH  19  20
ATOM     20  C   UNL     1       8.308   0.161  40.858  1.00  0.00     0.000 C 
BRANCH  20  21
ATOM     21  C   UNL     1       8.727  -1.178  40.223  1.00  0.00     0.000 C 
BRANCH  21  22
ATOM     22  C   UNL     1       7.571  -1.869  39.481  1.00  0.00    -0.000 C 
BRANCH  22  23
ATOM     23  C   UNL     1       7.815  -3.373  39.260  1.00  0.00    -0.000 C 
BRANCH  23  24
ATOM     24  C   UNL     1       8.463  -3.746  37.909  1.00  0.00    -0.000 C 
BRANCH  24  25
ATOM     25  C   UNL     1       7.564  -3.544  36.674  1.00  0.00    -0.000 C 
BRANCH  25  26
ATOM     26  C   UNL     1       8.067  -4.226  35.388  1.00  0.00    -0.000 C 
BRANCH  26  27
ATOM     27  C   UNL     1       9.419  -3.679  34.881  1.00  0.00    -0.000 C 
BRANCH  27  28
ATOM     28  C   UNL     1      10.534  -4.739  34.915  1.00  0.00    -0.000 C 
BRANCH  28  29
ATOM     29  C   UNL     1      10.351  -5.822  33.840  1.00  0.00    -0.003 C 
ATOM     30  C   UNL     1      10.566  -5.290  32.423  1.00  0.00     0.004 C 
ENDBRANCH  28  29
ENDBRANCH  27  28
ENDBRANCH  26  27
ENDBRANCH  25  26
ENDBRANCH  24  25
ENDBRANCH  23  24
ENDBRANCH  22  23
ENDBRANCH  21  22
ENDBRANCH  20  21
ENDBRANCH  19  20
ENDBRANCH  18  19
ENDBRANCH  17  18
ENDBRANCH   1  17
TORSDOF 26
ENDMDL
MODEL 2
REMARK VINA RESULT:    -4.020      2.951      5.859
REMARK INTER + INTRA:         -14.391
REMARK INTER:                 -11.163
REMARK INTRA:                  -3.229
REMARK UNBOUND:                -4.260
REMARK SMILES CCCCCCCCCCCCCCCCCCCCCCCCCCCC(=O)[O-]
REMARK SMILES IDX 15 1 16 2 17 3 18 4 19 5 20 6 21 7 22 8 23 9 24 10 25 11
REMARK SMILES IDX 26 12 27 13 28 14 29 15 30 16 14 17 13 18 12 19 11 20 10 21
REMARK SMILES IDX 9 22 8 23 7 24 6 25 5 26 4 27 3 28 2 29 1 30
REMARK H PARENT
REMARK Flexibility Score: inf
ROOT
ATOM      1  C   UNL     1       8.171  -2.763  41.200  1.00  0.00     0.000 C 
ENDROOT
BRANCH   1   2
ATOM      2  C   UNL     1       7.813  -4.233  40.935  1.00  0.00     0.000 C 
BRANCH   2   3
ATOM      3  C   UNL     1       7.516  -5.068  42.196  1.00  0.00     0.000 C 
BRANCH   3   4
ATOM      4  C   UNL     1       7.915  -6.554  42.072  1.00  0.00     0.000 C 
BRANCH   4   5
ATOM      5  C   UNL     1       9.293  -6.845  42.692  1.00  0.00     0.000 C 
BRANCH   5   6
ATOM      6  C   UNL     1       9.241  -7.956  43.754  1.00  0.00     0.000 C 
BRANCH   6   7
ATOM      7  C   UNL     1       7.800  -8.330  44.144  1.00  0.00     0.000 C 
BRANCH   7   8
ATOM      8  C   UNL     1       7.632  -9.836  44.401  1.00  0.00     0.000 C 
BRANCH   8   9
ATOM      9  C   UNL     1       6.978 -10.565  43.214  1.00  0.00     0.000 C 
BRANCH   9  10
ATOM     10  C   UNL     1       7.486 -10.059  41.854  1.00  0.00     0.000 C 
BRANCH  10  11
ATOM     11  C   UNL     1       6.414 -10.134  40.754  1.00  0.00     0.000 C 
BRANCH  11  12
ATOM     12  C   UNL     1       6.490 -11.438  39.938  1.00  0.00     0.006 C 
BRANCH  12  13
ATOM     13  C   UNL     1       7.893 -12.061  39.865  1.00  0.00     0.053 C 
BRANCH  13  14
ATOM     14  C   UNL     1       7.864 -13.442  39.286  1.00  0.00     0.041 C 
ATOM     15  O   UNL     1       7.119 -13.701  38.305  1.00  0.00    -0.550 OA
ATOM     16  O   UNL     1       8.634 -14.451  39.854  1.00  0.00    -0.550 OA
ENDBRANCH  13  14
ENDBRANCH  12  13
ENDBRANCH  11  12
ENDBRANCH  10  11
ENDBRANCH   9  10
ENDBRANCH   8   9
ENDBRANCH   7   8
ENDBRANCH   6   7
ENDBRANCH   5   6
ENDBRANCH   4   5
ENDBRANCH   3   4
ENDBRANCH   2   3
ENDBRANCH   1   2
BRANCH   1  17
ATOM     17  C   UNL     1       8.676  -2.521  42.632  1.00  0.00     0.000 C 
BRANCH  17  18
ATOM     18  C   UNL     1      10.189  -2.256  42.648  1.00  0.00     0.000 C 
BRANCH  18  19
ATOM     19  C   UNL     1      10.747  -1.895  41.260  1.00  0.00     0.000 C 
BRANCH  19  20
ATOM     20  C   UNL     1      11.874  -2.816  40.749  1.00  0.00     0.000 C 
BRANCH  20  21
ATOM     21  C   UNL     1      11.618  -4.324  40.925  1.00  0.00     0.000 C 
BRANCH  21  22
ATOM     22  C   UNL     1      11.008  -4.972  39.672  1.00  0.00    -0.000 C 
BRANCH  22  23
ATOM     23  C   UNL     1      11.275  -4.165  38.388  1.00  0.00    -0.000 C 
BRANCH  23  24
ATOM     24  C   UNL     1      10.092  -4.087  37.399  1.00  0.00    -0.000 C 
BRANCH  24  25
ATOM     25  C   UNL     1       8.937  -3.164  37.831  1.00  0.00    -0.000 C 
BRANCH  25  26
ATOM     26  C   UNL     1       7.597  -3.426  37.118  1.00  0.00    -0.000 C 
BRANCH  26  27
ATOM     27  C   UNL     1       6.388  -2.746  37.796  1.00  0.00    -0.000 C 
BRANCH  27  28
ATOM     28  C   UNL     1       5.857  -1.547  36.991  1.00  0.00    -0.000 C 
BRANCH  28  29
ATOM     29  C   UNL     1       6.616  -1.342  35.671  1.00  0.00    -0.003 C 
ATOM     30  C   UNL     1       5.733  -1.559  34.442  1.00  0.00     0.004 C 
ENDBRANCH  28  29
ENDBRANCH  27  28
ENDBRANCH  26  27
ENDBRANCH  25  26
ENDBRANCH  24  25
ENDBRANCH  23  24
ENDBRANCH  22  23
ENDBRANCH  21  22
ENDBRANCH  20  21
ENDBRANCH  19  20
ENDBRANCH  18  19
ENDBRANCH  17  18
ENDBRANCH   1  17
TORSDOF 26
ENDMDL
MODEL 3
REMARK VINA RESULT:    -3.910      2.820      5.674
REMARK INTER + INTRA:         -14.113
REMARK INTER:                  -9.815
REMARK INTRA:                  -4.298
REMARK UNBOUND:                -4.260
REMARK SMILES CCCCCCCCCCCCCCCCCCCCCCCCCCCC(=O)[O-]
REMARK SMILES IDX 15 1 16 2 17 3 18 4 19 5 20 6 21 7 22 8 23 9 24 10 25 11
REMARK SMILES IDX 26 12 27 13 28 14 29 15 30 16 14 17 13 18 12 19 11 20 10 21
REMARK SMILES IDX 9 22 8 23 7 24 6 25 5 26 4 27 3 28 2 29 1 30
REMARK H PARENT
REMARK Flexibility Score: inf
ROOT
ATOM      1  C   UNL     1      10.054  -0.344  46.352  1.00  0.00     0.000 C 
ENDROOT
BRANCH   1   2
ATOM      2  C   UNL     1      10.975   0.869  46.555  1.00  0.00     0.000 C 
BRANCH   2   3
ATOM      3  C   UNL     1      12.357   0.757  45.881  1.00  0.00     0.000 C 
BRANCH   3   4
ATOM      4  C   UNL     1      12.367  -0.129  44.618  1.00  0.00     0.000 C 
BRANCH   4   5
ATOM      5  C   UNL     1      12.688   0.672  43.343  1.00  0.00     0.000 C 
BRANCH   5   6
ATOM      6  C   UNL     1      12.900  -0.230  42.116  1.00  0.00     0.000 C 
BRANCH   6   7
ATOM      7  C   UNL     1      12.552  -1.702  42.401  1.00  0.00     0.000 C 
BRANCH   7   8
ATOM      8  C   UNL     1      12.380  -2.526  41.114  1.00  0.00     0.000 C 
BRANCH   8   9
ATOM      9  C   UNL     1      12.435  -1.654  39.848  1.00  0.00     0.000 C 
BRANCH   9  10
ATOM     10  C   UNL     1      13.179  -2.335  38.688  1.00  0.00     0.000 C 
BRANCH  10  11
ATOM     11  C   UNL     1      12.904  -3.846  38.611  1.00  0.00     0.000 C 
BRANCH  11  12
ATOM     12  C   UNL     1      11.660  -4.182  37.769  1.00  0.00     0.006 C 
BRANCH  12  13
ATOM     13  C   UNL     1      11.972  -4.746  36.373  1.00  0.00     0.053 C 
BRANCH  13  14
ATOM     14  C   UNL     1      11.112  -4.126  35.314  1.00  0.00     0.041 C 
ATOM     15  O   UNL     1       9.860  -4.104  35.447  1.00  0.00    -0.550 OA
ATOM     16  O   UNL     1      11.693  -3.605  34.163  1.00  0.00    -0.550 OA
ENDBRANCH  13  14
ENDBRANCH  12  13
ENDBRANCH  11  12
ENDBRANCH  10  11
ENDBRANCH   9  10
ENDBRANCH   8   9
ENDBRANCH   7   8
ENDBRANCH   6   7
ENDBRANCH   5   6
ENDBRANCH   4   5
ENDBRANCH   3   4
ENDBRANCH   2   3
ENDBRANCH   1   2
BRANCH   1  17
ATOM     17  C   UNL     1       8.881  -0.048  45.404  1.00  0.00     0.000 C 
BRANCH  17  18
ATOM     18  C   UNL     1       8.430  -1.319  44.668  1.00  0.00     0.000 C 
BRANCH  18  19
ATOM     19  C   UNL     1       9.076  -1.466  43.278  1.00  0.00     0.000 C 
BRANCH  19  20
ATOM     20  C   UNL     1       9.154  -0.165  42.453  1.00  0.00     0.000 C 
BRANCH  20  21
ATOM     21  C   UNL     1       9.055  -0.350  40.928  1.00  0.00     0.000 C 
BRANCH  21  22
ATOM     22  C   UNL     1       8.210  -1.571  40.532  1.00  0.00    -0.000 C 
BRANCH  22  23
ATOM     23  C   UNL     1       9.012  -2.631  39.756  1.00  0.00    -0.000 C 
BRANCH  23  24
ATOM     24  C   UNL     1       9.025  -4.041  40.385  1.00  0.00    -0.000 C 
BRANCH  24  25
ATOM     25  C   UNL     1       7.808  -4.376  41.267  1.00  0.00    -0.000 C 
BRANCH  25  26
ATOM     26  C   UNL     1       8.152  -4.947  42.656  1.00  0.00    -0.000 C 
BRANCH  26  27
ATOM     27  C   UNL     1       9.374  -5.891  42.656  1.00  0.00    -0.000 C 
BRANCH  27  28
ATOM     28  C   UNL     1       9.004  -7.335  43.035  1.00  0.00    -0.000 C 
BRANCH  28  29
ATOM     29  C   UNL     1       7.875  -7.903  42.161  1.00  0.00    -0.003 C 
ATOM     30  C   UNL     1       8.188  -9.301  41.627  1.00  0.00     0.004 C 
ENDBRANCH  28  29
ENDBRANCH  27  28
ENDBRANCH  26  27
ENDBRANCH  25  26
ENDBRANCH  24  25
ENDBRANCH  23  24
ENDBRANCH  22  23
ENDBRANCH  21  22
ENDBRANCH  20  21
ENDBRANCH  19  20
ENDBRANCH  18  19
ENDBRANCH  17  18
ENDBRANCH   1  17
TORSDOF 26
ENDMDL
MODEL 4
REMARK VINA RESULT:    -3.909      5.572     10.097
REMARK INTER + INTRA:         -14.111
REMARK INTER:                 -10.645
REMARK INTRA:                  -3.467
REMARK UNBOUND:                -4.260
REMARK SMILES CCCCCCCCCCCCCCCCCCCCCCCCCCCC(=O)[O-]
REMARK SMILES IDX 15 1 16 2 17 3 18 4 19 5 20 6 21 7 22 8 23 9 24 10 25 11
REMARK SMILES IDX 26 12 27 13 28 14 29 15 30 16 14 17 13 18 12 19 11 20 10 21
REMARK SMILES IDX 9 22 8 23 7 24 6 25 5 26 4 27 3 28 2 29 1 30
REMARK H PARENT
REMARK Flexibility Score: inf
ROOT
ATOM      1  C   UNL     1       5.283 -11.336  42.866  1.00  0.00     0.000 C 
ENDROOT
BRANCH   1   2
ATOM      2  C   UNL     1       4.876 -11.382  41.386  1.00  0.00     0.000 C 
BRANCH   2   3
ATOM      3  C   UNL     1       6.030 -11.175  40.386  1.00  0.00     0.000 C 
BRANCH   3   4
ATOM      4  C   UNL     1       6.375 -12.432  39.558  1.00  0.00     0.000 C 
BRANCH   4   5
ATOM      5  C   UNL     1       5.354 -13.565  39.760  1.00  0.00     0.000 C 
BRANCH   5   6
ATOM      6  C   UNL     1       5.982 -14.821  40.387  1.00  0.00     0.000 C 
BRANCH   6   7
ATOM      7  C   UNL     1       7.168 -14.488  41.310  1.00  0.00     0.000 C 
BRANCH   7   8
ATOM      8  C   UNL     1       7.086 -15.217  42.661  1.00  0.00     0.000 C 
BRANCH   8   9
ATOM      9  C   UNL     1       7.975 -14.564  43.734  1.00  0.00     0.000 C 
BRANCH   9  10
ATOM     10  C   UNL     1       9.044 -15.522  44.284  1.00  0.00     0.000 C 
BRANCH  10  11
ATOM     11  C   UNL     1       9.065 -16.874  43.550  1.00  0.00     0.000 C 
BRANCH  11  12
ATOM     12  C   UNL     1      10.471 -17.259  43.054  1.00  0.00     0.006 C 
BRANCH  12  13
ATOM     13  C   UNL     1      11.374 -16.062  42.714  1.00  0.00     0.053 C 
BRANCH  13  14
ATOM     14  C   UNL     1      11.262 -15.668  41.273  1.00  0.00     0.041 C 
ATOM     15  O   UNL     1      10.660 -14.610  40.951  1.00  0.00    -0.550 OA
ATOM     16  O   UNL     1      11.790 -16.489  40.283  1.00  0.00    -0.550 OA
ENDBRANCH  13  14
ENDBRANCH  12  13
ENDBRANCH  11  12
ENDBRANCH  10  11
ENDBRANCH   9  10
ENDBRANCH   8   9
ENDBRANCH   7   8
ENDBRANCH   6   7
ENDBRANCH   5   6
ENDBRANCH   4   5
ENDBRANCH   3   4
ENDBRANCH   2   3
ENDBRANCH   1   2
BRANCH   1  17
ATOM     17  C   UNL     1       6.803 -11.216  43.062  1.00  0.00     0.000 C 
BRANCH  17  18
ATOM     18  C   UNL     1       7.138 -10.277  44.231  1.00  0.00     0.000 C 
BRANCH  18  19
ATOM     19  C   UNL     1       7.851  -8.990  43.779  1.00  0.00     0.000 C 
BRANCH  19  20
ATOM     20  C   UNL     1       8.121  -8.890  42.264  1.00  0.00     0.000 C 
BRANCH  20  21
ATOM     21  C   UNL     1       7.927  -7.489  41.655  1.00  0.00     0.000 C 
BRANCH  21  22
ATOM     22  C   UNL     1       8.159  -6.362  42.674  1.00  0.00    -0.000 C 
BRANCH  22  23
ATOM     23  C   UNL     1       7.378  -5.078  42.338  1.00  0.00    -0.000 C 
BRANCH  23  24
ATOM     24  C   UNL     1       7.786  -3.826  43.145  1.00  0.00    -0.000 C 
BRANCH  24  25
ATOM     25  C   UNL     1       8.555  -2.756  42.348  1.00  0.00    -0.000 C 
BRANCH  25  26
ATOM     26  C   UNL     1       8.184  -2.668  40.855  1.00  0.00    -0.000 C 
BRANCH  26  27
ATOM     27  C   UNL     1       9.221  -3.323  39.917  1.00  0.00    -0.000 C 
BRANCH  27  28
ATOM     28  C   UNL     1      10.670  -3.032  40.346  1.00  0.00    -0.000 C 
BRANCH  28  29
ATOM     29  C   UNL     1      11.509  -4.311  40.494  1.00  0.00    -0.003 C 
ATOM     30  C   UNL     1      10.717  -5.578  40.169  1.00  0.00     0.004 C 
ENDBRANCH  28  29
ENDBRANCH  27  28
ENDBRANCH  26  27
ENDBRANCH  25  26
ENDBRANCH  24  25
ENDBRANCH  23  24
ENDBRANCH  22  23
ENDBRANCH  21  22
ENDBRANCH  20  21
ENDBRANCH  19  20
ENDBRANCH  18  19
ENDBRANCH  17  18
ENDBRANCH   1  17
TORSDOF 26
ENDMDL
MODEL 5
REMARK VINA RESULT:    -3.898      2.177      6.183
REMARK INTER + INTRA:         -14.082
REMARK INTER:                 -10.469
REMARK INTRA:                  -3.614
REMARK UNBOUND:                -4.260
REMARK SMILES CCCCCCCCCCCCCCCCCCCCCCCCCCCC(=O)[O-]
REMARK SMILES IDX 15 1 16 2 17 3 18 4 19 5 20 6 21 7 22 8 23 9 24 10 25 11
REMARK SMILES IDX 26 12 27 13 28 14 29 15 30 16 14 17 13 18 12 19 11 20 10 21
REMARK SMILES IDX 9 22 8 23 7 24 6 25 5 26 4 27 3 28 2 29 1 30
REMARK H PARENT
REMARK Flexibility Score: inf
ROOT
ATOM      1  C   UNL     1      11.675  -4.540  38.054  1.00  0.00     0.000 C 
ENDROOT
BRANCH   1   2
ATOM      2  C   UNL     1      11.504  -5.020  39.504  1.00  0.00     0.000 C 
BRANCH   2   3
ATOM      3  C   UNL     1      11.822  -3.965  40.581  1.00  0.00     0.000 C 
BRANCH   3   4
ATOM      4  C   UNL     1      10.912  -4.045  41.824  1.00  0.00     0.000 C 
BRANCH   4   5
ATOM      5  C   UNL     1       9.965  -5.257  41.781  1.00  0.00     0.000 C 
BRANCH   5   6
ATOM      6  C   UNL     1       8.485  -4.854  41.884  1.00  0.00     0.000 C 
BRANCH   6   7
ATOM      7  C   UNL     1       7.534  -6.041  41.651  1.00  0.00     0.000 C 
BRANCH   7   8
ATOM      8  C   UNL     1       8.271  -7.390  41.623  1.00  0.00     0.000 C 
BRANCH   8   9
ATOM      9  C   UNL     1       7.486  -8.502  42.341  1.00  0.00     0.000 C 
BRANCH   9  10
ATOM     10  C   UNL     1       8.021  -8.789  43.753  1.00  0.00     0.000 C 
BRANCH  10  11
ATOM     11  C   UNL     1       7.396 -10.046  44.381  1.00  0.00     0.000 C 
BRANCH  11  12
ATOM     12  C   UNL     1       6.466 -10.797  43.409  1.00  0.00     0.006 C 
BRANCH  12  13
ATOM     13  C   UNL     1       6.873 -12.255  43.140  1.00  0.00     0.053 C 
BRANCH  13  14
ATOM     14  C   UNL     1       7.098 -12.513  41.682  1.00  0.00     0.041 C 
ATOM     15  O   UNL     1       7.366 -13.676  41.279  1.00  0.00    -0.550 OA
ATOM     16  O   UNL     1       7.048 -11.463  40.773  1.00  0.00    -0.550 OA
ENDBRANCH  13  14
ENDBRANCH  12  13
ENDBRANCH  11  12
ENDBRANCH  10  11
ENDBRANCH   9  10
ENDBRANCH   8   9
ENDBRANCH   7   8
ENDBRANCH   6   7
ENDBRANCH   5   6
ENDBRANCH   4   5
ENDBRANCH   3   4
ENDBRANCH   2   3
ENDBRANCH   1   2
BRANCH   1  17
ATOM     17  C   UNL     1      12.730  -5.346  37.280  1.00  0.00     0.000 C 
BRANCH  17  18
ATOM     18  C   UNL     1      12.890  -4.816  35.848  1.00  0.00     0.000 C 
BRANCH  18  19
ATOM     19  C   UNL     1      11.966  -3.623  35.544  1.00  0.00     0.000 C 
BRANCH  19  20
ATOM     20  C   UNL     1      10.918  -3.872  34.440  1.00  0.00     0.000 C 
BRANCH  20  21
ATOM     21  C   UNL     1      10.105  -5.170  34.590  1.00  0.00     0.000 C 
BRANCH  21  22
ATOM     22  C   UNL     1       8.622  -4.910  34.897  1.00  0.00    -0.000 C 
BRANCH  22  23
ATOM     23  C   UNL     1       8.364  -3.503  35.466  1.00  0.00    -0.000 C 
BRANCH  23  24
ATOM     24  C   UNL     1       7.450  -3.449  36.709  1.00  0.00    -0.000 C 
BRANCH  24  25
ATOM     25  C   UNL     1       8.122  -3.855  38.034  1.00  0.00    -0.000 C 
BRANCH  25  26
ATOM     26  C   UNL     1       8.687  -2.684  38.859  1.00  0.00    -0.000 C 
BRANCH  26  27
ATOM     27  C   UNL     1       7.621  -1.936  39.689  1.00  0.00    -0.000 C 
BRANCH  27  28
ATOM     28  C   UNL     1       8.202  -0.730  40.447  1.00  0.00    -0.000 C 
BRANCH  28  29
ATOM     29  C   UNL     1       8.783  -1.118  41.815  1.00  0.00    -0.003 C 
ATOM     30  C   UNL     1      10.154  -0.494  42.074  1.00  0.00     0.004 C 
ENDBRANCH  28  29
ENDBRANCH  27  28
ENDBRANCH  26  27
ENDBRANCH  25  26
ENDBRANCH  24  25
ENDBRANCH  23  24
ENDBRANCH  22  23
ENDBRANCH  21  22
ENDBRANCH  20  21
ENDBRANCH  19  20
ENDBRANCH  18  19
ENDBRANCH  17  18
ENDBRANCH   1  17
TORSDOF 26
ENDMDL
MODEL 6
REMARK VINA RESULT:    -3.894      2.788      5.344
REMARK INTER + INTRA:         -14.074
REMARK INTER:                  -9.851
REMARK INTRA:                  -4.223
REMARK UNBOUND:                -4.260
REMARK SMILES CCCCCCCCCCCCCCCCCCCCCCCCCCCC(=O)[O-]
REMARK SMILES IDX 15 1 16 2 17 3 18 4 19 5 20 6 21 7 22 8 23 9 24 10 25 11
REMARK SMILES IDX 26 12 27 13 28 14 29 15 30 16 14 17 13 18 12 19 11 20 10 21
REMARK SMILES IDX 9 22 8 23 7 24 6 25 5 26 4 27 3 28 2 29 1 30
REMARK H PARENT
REMARK Flexibility Score: inf
ROOT
ATOM      1  C   UNL     1      10.267  -0.224  46.134  1.00  0.00     0.000 C 
ENDROOT
BRANCH   1   2
ATOM      2  C   UNL     1      11.240   0.965  46.170  1.00  0.00     0.000 C 
BRANCH   2   3
ATOM      3  C   UNL     1      12.550   0.758  45.385  1.00  0.00     0.000 C 
BRANCH   3   4
ATOM      4  C   UNL     1      12.487  -0.388  44.353  1.00  0.00     0.000 C 
BRANCH   4   5
ATOM      5  C   UNL     1      12.864   0.078  42.936  1.00  0.00     0.000 C 
BRANCH   5   6
ATOM      6  C   UNL     1      12.888  -1.077  41.921  1.00  0.00     0.000 C 
BRANCH   6   7
ATOM      7  C   UNL     1      12.354  -2.393  42.514  1.00  0.00     0.000 C 
BRANCH   7   8
ATOM      8  C   UNL     1      11.713  -3.300  41.451  1.00  0.00     0.000 C 
BRANCH   8   9
ATOM      9  C   UNL     1      11.959  -2.792  40.020  1.00  0.00     0.000 C 
BRANCH   9  10
ATOM     10  C   UNL     1      12.354  -3.916  39.049  1.00  0.00     0.000 C 
BRANCH  10  11
ATOM     11  C   UNL     1      12.624  -5.251  39.764  1.00  0.00     0.000 C 
BRANCH  11  12
ATOM     12  C   UNL     1      12.760  -6.432  38.785  1.00  0.00     0.006 C 
BRANCH  12  13
ATOM     13  C   UNL     1      13.654  -7.576  39.291  1.00  0.00     0.053 C 
BRANCH  13  14
ATOM     14  C   UNL     1      12.855  -8.785  39.670  1.00  0.00     0.041 C 
ATOM     15  O   UNL     1      13.431  -9.889  39.863  1.00  0.00    -0.550 OA
ATOM     16  O   UNL     1      11.472  -8.701  39.775  1.00  0.00    -0.550 OA
ENDBRANCH  13  14
ENDBRANCH  12  13
ENDBRANCH  11  12
ENDBRANCH  10  11
ENDBRANCH   9  10
ENDBRANCH   8   9
ENDBRANCH   7   8
ENDBRANCH   6   7
ENDBRANCH   5   6
ENDBRANCH   4   5
ENDBRANCH   3   4
ENDBRANCH   2   3
ENDBRANCH   1   2
BRANCH   1  17
ATOM     17  C   UNL     1       8.959   0.099  45.395  1.00  0.00     0.000 C 
BRANCH  17  18
ATOM     18  C   UNL     1       8.347  -1.165  44.774  1.00  0.00     0.000 C 
BRANCH  18  19
ATOM     19  C   UNL     1       8.975  -1.529  43.416  1.00  0.00     0.000 C 
BRANCH  19  20
ATOM     20  C   UNL     1       9.254  -0.332  42.484  1.00  0.00     0.000 C 
BRANCH  20  21
ATOM     21  C   UNL     1       9.059  -0.612  40.983  1.00  0.00     0.000 C 
BRANCH  21  22
ATOM     22  C   UNL     1       7.973  -1.666  40.712  1.00  0.00    -0.000 C 
BRANCH  22  23
ATOM     23  C   UNL     1       8.360  -2.653  39.596  1.00  0.00    -0.000 C 
BRANCH  23  24
ATOM     24  C   UNL     1       8.466  -4.132  40.029  1.00  0.00    -0.000 C 
BRANCH  24  25
ATOM     25  C   UNL     1       7.811  -4.466  41.383  1.00  0.00    -0.000 C 
BRANCH  25  26
ATOM     26  C   UNL     1       8.662  -5.350  42.313  1.00  0.00    -0.000 C 
BRANCH  26  27
ATOM     27  C   UNL     1       8.122  -6.789  42.468  1.00  0.00    -0.000 C 
BRANCH  27  28
ATOM     28  C   UNL     1       8.068  -7.244  43.937  1.00  0.00    -0.000 C 
BRANCH  28  29
ATOM     29  C   UNL     1       8.438  -8.725  44.109  1.00  0.00    -0.003 C 
ATOM     30  C   UNL     1       7.456  -9.665  43.411  1.00  0.00     0.004 C 
ENDBRANCH  28  29
ENDBRANCH  27  28
ENDBRANCH  26  27
ENDBRANCH  25  26
ENDBRANCH  24  25
ENDBRANCH  23  24
ENDBRANCH  22  23
ENDBRANCH  21  22
ENDBRANCH  20  21
ENDBRANCH  19  20
ENDBRANCH  18  19
ENDBRANCH  17  18
ENDBRANCH   1  17
TORSDOF 26
ENDMDL
MODEL 7
REMARK VINA RESULT:    -3.807     13.589     16.388
REMARK INTER + INTRA:         -13.853
REMARK INTER:                  -8.390
REMARK INTRA:                  -5.463
REMARK UNBOUND:                -4.260
REMARK SMILES CCCCCCCCCCCCCCCCCCCCCCCCCCCC(=O)[O-]
REMARK SMILES IDX 15 1 16 2 17 3 18 4 19 5 20 6 21 7 22 8 23 9 24 10 25 11
REMARK SMILES IDX 26 12 27 13 28 14 29 15 30 16 14 17 13 18 12 19 11 20 10 21
REMARK SMILES IDX 9 22 8 23 7 24 6 25 5 26 4 27 3 28 2 29 1 30
REMARK H PARENT
REMARK Flexibility Score: inf
ROOT
ATOM      1  C   UNL     1      22.077 -10.498  45.689  1.00  0.00     0.000 C 
ENDROOT
BRANCH   1   2
ATOM      2  C   UNL     1      23.069 -10.333  44.527  1.00  0.00     0.000 C 
BRANCH   2   3
ATOM      3  C   UNL     1      22.764 -11.192  43.284  1.00  0.00     0.000 C 
BRANCH   3   4
ATOM      4  C   UNL     1      23.040 -12.697  43.480  1.00  0.00     0.000 C 
BRANCH   4   5
ATOM      5  C   UNL     1      21.765 -13.549  43.346  1.00  0.00     0.000 C 
BRANCH   5   6
ATOM      6  C   UNL     1      21.203 -13.988  44.708  1.00  0.00     0.000 C 
BRANCH   6   7
ATOM      7  C   UNL     1      19.882 -13.279  45.056  1.00  0.00     0.000 C 
BRANCH   7   8
ATOM      8  C   UNL     1      19.345 -12.430  43.892  1.00  0.00     0.000 C 
BRANCH   8   9
ATOM      9  C   UNL     1      18.942 -11.013  44.337  1.00  0.00     0.000 C 
BRANCH   9  10
ATOM     10  C   UNL     1      17.934 -10.354  43.383  1.00  0.00     0.000 C 
BRANCH  10  11
ATOM     11  C   UNL     1      17.740 -11.150  42.081  1.00  0.00     0.000 C 
BRANCH  11  12
ATOM     12  C   UNL     1      16.256 -11.410  41.758  1.00  0.00     0.006 C 
BRANCH  12  13
ATOM     13  C   UNL     1      15.936 -12.862  41.369  1.00  0.00     0.053 C 
BRANCH  13  14
ATOM     14  C   UNL     1      14.516 -13.021  40.919  1.00  0.00     0.041 C 
ATOM     15  O   UNL     1      13.782 -12.009  40.770  1.00  0.00    -0.550 OA
ATOM     16  O   UNL     1      13.995 -14.291  40.698  1.00  0.00    -0.550 OA
ENDBRANCH  13  14
ENDBRANCH  12  13
ENDBRANCH  11  12
ENDBRANCH  10  11
ENDBRANCH   9  10
ENDBRANCH   8   9
ENDBRANCH   7   8
ENDBRANCH   6   7
ENDBRANCH   5   6
ENDBRANCH   4   5
ENDBRANCH   3   4
ENDBRANCH   2   3
ENDBRANCH   1   2
BRANCH   1  17
ATOM     17  C   UNL     1      22.677 -11.258  46.882  1.00  0.00     0.000 C 
BRANCH  17  18
ATOM     18  C   UNL     1      24.213 -11.228  46.842  1.00  0.00     0.000 C 
BRANCH  18  19
ATOM     19  C   UNL     1      24.840 -12.633  46.885  1.00  0.00     0.000 C 
BRANCH  19  20
ATOM     20  C   UNL     1      23.838 -13.790  47.079  1.00  0.00     0.000 C 
BRANCH  20  21
ATOM     21  C   UNL     1      24.349 -15.177  46.648  1.00  0.00     0.000 C 
BRANCH  21  22
ATOM     22  C   UNL     1      25.027 -15.158  45.268  1.00  0.00    -0.000 C 
BRANCH  22  23
ATOM     23  C   UNL     1      24.590 -16.328  44.369  1.00  0.00    -0.000 C 
BRANCH  23  24
ATOM     24  C   UNL     1      23.623 -17.339  45.022  1.00  0.00    -0.000 C 
BRANCH  24  25
ATOM     25  C   UNL     1      22.297 -17.558  44.269  1.00  0.00    -0.000 C 
BRANCH  25  26
ATOM     26  C   UNL     1      22.351 -17.252  42.760  1.00  0.00    -0.000 C 
BRANCH  26  27
ATOM     27  C   UNL     1      20.979 -16.898  42.148  1.00  0.00    -0.000 C 
BRANCH  27  28
ATOM     28  C   UNL     1      19.824 -17.071  43.149  1.00  0.00    -0.000 C 
BRANCH  28  29
ATOM     29  C   UNL     1      18.640 -16.138  42.850  1.00  0.00    -0.003 C 
ATOM     30  C   UNL     1      18.862 -15.284  41.602  1.00  0.00     0.004 C 
ENDBRANCH  28  29
ENDBRANCH  27  28
ENDBRANCH  26  27
ENDBRANCH  25  26
ENDBRANCH  24  25
ENDBRANCH  23  24
ENDBRANCH  22  23
ENDBRANCH  21  22
ENDBRANCH  20  21
ENDBRANCH  19  20
ENDBRANCH  18  19
ENDBRANCH  17  18
ENDBRANCH   1  17
TORSDOF 26
ENDMDL
MODEL 8
REMARK VINA RESULT:    -3.789      3.863      7.609
REMARK INTER + INTRA:         -13.808
REMARK INTER:                 -10.126
REMARK INTRA:                  -3.682
REMARK UNBOUND:                -4.260
REMARK SMILES CCCCCCCCCCCCCCCCCCCCCCCCCCCC(=O)[O-]
REMARK SMILES IDX 15 1 16 2 17 3 18 4 19 5 20 6 21 7 22 8 23 9 24 10 25 11
REMARK SMILES IDX 26 12 27 13 28 14 29 15 30 16 14 17 13 18 12 19 11 20 10 21
REMARK SMILES IDX 9 22 8 23 7 24 6 25 5 26 4 27 3 28 2 29 1 30
REMARK H PARENT
REMARK Flexibility Score: inf
ROOT
ATOM      1  C   UNL     1       8.330  -6.235  41.511  1.00  0.00     0.000 C 
ENDROOT
BRANCH   1   2
ATOM      2  C   UNL     1       9.028  -7.572  41.808  1.00  0.00     0.000 C 
BRANCH   2   3
ATOM      3  C   UNL     1       8.501  -8.319  43.049  1.00  0.00     0.000 C 
BRANCH   3   4
ATOM      4  C   UNL     1       7.514  -9.460  42.720  1.00  0.00     0.000 C 
BRANCH   4   5
ATOM      5  C   UNL     1       7.147  -9.505  41.227  1.00  0.00     0.000 C 
BRANCH   5   6
ATOM      6  C   UNL     1       6.062 -10.549  40.917  1.00  0.00     0.000 C 
BRANCH   6   7
ATOM      7  C   UNL     1       5.944 -11.620  42.016  1.00  0.00     0.000 C 
BRANCH   7   8
ATOM      8  C   UNL     1       4.994 -12.764  41.625  1.00  0.00     0.000 C 
BRANCH   8   9
ATOM      9  C   UNL     1       5.015 -13.053  40.114  1.00  0.00     0.000 C 
BRANCH   9  10
ATOM     10  C   UNL     1       5.611 -14.430  39.780  1.00  0.00     0.000 C 
BRANCH  10  11
ATOM     11  C   UNL     1       6.159 -15.157  41.021  1.00  0.00     0.000 C 
BRANCH  11  12
ATOM     12  C   UNL     1       7.681 -15.385  40.952  1.00  0.00     0.006 C 
BRANCH  12  13
ATOM     13  C   UNL     1       8.523 -14.169  41.369  1.00  0.00     0.053 C 
BRANCH  13  14
ATOM     14  C   UNL     1       9.158 -13.497  40.190  1.00  0.00     0.041 C 
ATOM     15  O   UNL     1       8.684 -12.417  39.747  1.00  0.00    -0.550 OA
ATOM     16  O   UNL     1      10.249 -14.082  39.559  1.00  0.00    -0.550 OA
ENDBRANCH  13  14
ENDBRANCH  12  13
ENDBRANCH  11  12
ENDBRANCH  10  11
ENDBRANCH   9  10
ENDBRANCH   8   9
ENDBRANCH   7   8
ENDBRANCH   6   7
ENDBRANCH   5   6
ENDBRANCH   4   5
ENDBRANCH   3   4
ENDBRANCH   2   3
ENDBRANCH   1   2
BRANCH   1  17
ATOM     17  C   UNL     1       7.659  -5.625  42.751  1.00  0.00     0.000 C 
BRANCH  17  18
ATOM     18  C   UNL     1       7.765  -4.093  42.741  1.00  0.00     0.000 C 
BRANCH  18  19
ATOM     19  C   UNL     1       9.207  -3.595  42.529  1.00  0.00     0.000 C 
BRANCH  19  20
ATOM     20  C   UNL     1       9.349  -2.074  42.319  1.00  0.00     0.000 C 
BRANCH  20  21
ATOM     21  C   UNL     1       8.232  -1.421  41.484  1.00  0.00     0.000 C 
BRANCH  21  22
ATOM     22  C   UNL     1       8.454  -1.577  39.971  1.00  0.00    -0.000 C 
BRANCH  22  23
ATOM     23  C   UNL     1       7.505  -2.605  39.328  1.00  0.00    -0.000 C 
BRANCH  23  24
ATOM     24  C   UNL     1       8.186  -3.866  38.754  1.00  0.00    -0.000 C 
BRANCH  24  25
ATOM     25  C   UNL     1       9.678  -3.703  38.405  1.00  0.00    -0.000 C 
BRANCH  25  26
ATOM     26  C   UNL     1      10.645  -4.487  39.311  1.00  0.00    -0.000 C 
BRANCH  26  27
ATOM     27  C   UNL     1      12.114  -4.446  38.836  1.00  0.00    -0.000 C 
BRANCH  27  28
ATOM     28  C   UNL     1      12.809  -3.118  39.182  1.00  0.00    -0.000 C 
BRANCH  28  29
ATOM     29  C   UNL     1      12.458  -2.620  40.593  1.00  0.00    -0.003 C 
ATOM     30  C   UNL     1      13.130  -1.291  40.935  1.00  0.00     0.004 C 
ENDBRANCH  28  29
ENDBRANCH  27  28
ENDBRANCH  26  27
ENDBRANCH  25  26
ENDBRANCH  24  25
ENDBRANCH  23  24
ENDBRANCH  22  23
ENDBRANCH  21  22
ENDBRANCH  20  21
ENDBRANCH  19  20
ENDBRANCH  18  19
ENDBRANCH  17  18
ENDBRANCH   1  17
TORSDOF 26
ENDMDL
MODEL 9
REMARK VINA RESULT:    -3.766     13.964     16.789
REMARK INTER + INTRA:         -13.752
REMARK INTER:                  -8.181
REMARK INTRA:                  -5.570
REMARK UNBOUND:                -4.260
REMARK SMILES CCCCCCCCCCCCCCCCCCCCCCCCCCCC(=O)[O-]
REMARK SMILES IDX 15 1 16 2 17 3 18 4 19 5 20 6 21 7 22 8 23 9 24 10 25 11
REMARK SMILES IDX 26 12 27 13 28 14 29 15 30 16 14 17 13 18 12 19 11 20 10 21
REMARK SMILES IDX 9 22 8 23 7 24 6 25 5 26 4 27 3 28 2 29 1 30
REMARK H PARENT
REMARK Flexibility Score: inf
ROOT
ATOM      1  C   UNL     1      23.074 -14.820  45.597  1.00  0.00     0.000 C 
ENDROOT
BRANCH   1   2
ATOM      2  C   UNL     1      22.259 -14.201  46.743  1.00  0.00     0.000 C 
BRANCH   2   3
ATOM      3  C   UNL     1      22.795 -12.855  47.270  1.00  0.00     0.000 C 
BRANCH   3   4
ATOM      4  C   UNL     1      24.334 -12.785  47.358  1.00  0.00     0.000 C 
BRANCH   4   5
ATOM      5  C   UNL     1      24.853 -11.338  47.407  1.00  0.00     0.000 C 
BRANCH   5   6
ATOM      6  C   UNL     1      24.400 -10.506  46.196  1.00  0.00     0.000 C 
BRANCH   6   7
ATOM      7  C   UNL     1      24.930 -11.067  44.865  1.00  0.00     0.000 C 
BRANCH   7   8
ATOM      8  C   UNL     1      23.799 -11.487  43.911  1.00  0.00     0.000 C 
BRANCH   8   9
ATOM      9  C   UNL     1      22.526 -10.645  44.104  1.00  0.00     0.000 C 
BRANCH   9  10
ATOM     10  C   UNL     1      21.281 -11.505  44.375  1.00  0.00     0.000 C 
BRANCH  10  11
ATOM     11  C   UNL     1      20.043 -10.663  44.729  1.00  0.00     0.000 C 
BRANCH  11  12
ATOM     12  C   UNL     1      18.801 -11.059  43.908  1.00  0.00     0.006 C 
BRANCH  12  13
ATOM     13  C   UNL     1      18.780 -10.497  42.478  1.00  0.00     0.053 C 
BRANCH  13  14
ATOM     14  C   UNL     1      17.699  -9.476  42.293  1.00  0.00     0.041 C 
ATOM     15  O   UNL     1      17.941  -8.401  41.683  1.00  0.00    -0.550 OA
ATOM     16  O   UNL     1      16.435  -9.696  42.826  1.00  0.00    -0.550 OA
ENDBRANCH  13  14
ENDBRANCH  12  13
ENDBRANCH  11  12
ENDBRANCH  10  11
ENDBRANCH   9  10
ENDBRANCH   8   9
ENDBRANCH   7   8
ENDBRANCH   6   7
ENDBRANCH   5   6
ENDBRANCH   4   5
ENDBRANCH   3   4
ENDBRANCH   2   3
ENDBRANCH   1   2
BRANCH   1  17
ATOM     17  C   UNL     1      23.690 -16.177  45.970  1.00  0.00     0.000 C 
BRANCH  17  18
ATOM     18  C   UNL     1      23.272 -17.268  44.973  1.00  0.00     0.000 C 
BRANCH  18  19
ATOM     19  C   UNL     1      23.211 -16.760  43.522  1.00  0.00     0.000 C 
BRANCH  19  20
ATOM     20  C   UNL     1      22.269 -17.551  42.591  1.00  0.00     0.000 C 
BRANCH  20  21
ATOM     21  C   UNL     1      21.062 -18.208  43.286  1.00  0.00     0.000 C 
BRANCH  21  22
ATOM     22  C   UNL     1      19.743 -17.970  42.534  1.00  0.00    -0.000 C 
BRANCH  22  23
ATOM     23  C   UNL     1      18.797 -17.005  43.271  1.00  0.00    -0.000 C 
BRANCH  23  24
ATOM     24  C   UNL     1      19.468 -16.105  44.332  1.00  0.00    -0.000 C 
BRANCH  24  25
ATOM     25  C   UNL     1      19.860 -14.698  43.844  1.00  0.00    -0.000 C 
BRANCH  25  26
ATOM     26  C   UNL     1      19.352 -14.335  42.436  1.00  0.00    -0.000 C 
BRANCH  26  27
ATOM     27  C   UNL     1      20.434 -14.438  41.339  1.00  0.00    -0.000 C 
BRANCH  27  28
ATOM     28  C   UNL     1      21.803 -13.917  41.809  1.00  0.00    -0.000 C 
BRANCH  28  29
ATOM     29  C   UNL     1      22.484 -13.023  40.762  1.00  0.00    -0.003 C 
ATOM     30  C   UNL     1      21.784 -11.675  40.591  1.00  0.00     0.004 C 
ENDBRANCH  28  29
ENDBRANCH  27  28
ENDBRANCH  26  27
ENDBRANCH  25  26
ENDBRANCH  24  25
ENDBRANCH  23  24
ENDBRANCH  22  23
ENDBRANCH  21  22
ENDBRANCH  20  21
ENDBRANCH  19  20
ENDBRANCH  18  19
ENDBRANCH  17  18
ENDBRANCH   1  17
TORSDOF 26
ENDMDL
