MODEL 1
REMARK VINA RESULT:    -3.728      0.000      0.000
REMARK INTER + INTRA:          -7.832
REMARK INTER:                  -6.344
REMARK INTRA:                  -1.488
REMARK UNBOUND:                -1.488
REMARK SMILES CCCCCCCCCCCCCC(=O)[O-]
REMARK SMILES IDX 8 1 9 2 10 3 11 4 12 5 13 6 14 7 15 8 16 9 7 10 6 11 5 12
REMARK SMILES IDX 4 13 3 14 2 15 1 16
REMARK H PARENT
REMARK Flexibility Score: inf
ROOT
ATOM      1  C   UNL     1     129.826 143.761 120.119  1.00  0.00     0.000 C 
ENDROOT
BRANCH   1   2
ATOM      2  C   UNL     1     131.024 144.671 119.828  1.00  0.00     0.000 C 
BRANCH   2   3
ATOM      3  C   UNL     1     130.623 146.149 119.895  1.00  0.00     0.000 C 
BRANCH   3   4
ATOM      4  C   UNL     1     131.831 147.061 119.635  1.00  0.00     0.000 C 
BRANCH   4   5
ATOM      5  C   UNL     1     133.170 146.421 120.044  1.00  0.00     0.006 C 
BRANCH   5   6
ATOM      6  C   UNL     1     134.272 146.541 118.976  1.00  0.00     0.053 C 
BRANCH   6   7
ATOM      7  C   UNL     1     135.119 145.307 118.882  1.00  0.00     0.041 C 
ATOM      8  O   UNL     1     136.210 145.240 119.506  1.00  0.00    -0.550 OA
ATOM      9  O   UNL     1     134.687 144.219 118.134  1.00  0.00    -0.550 OA
ENDBRANCH   6   7
ENDBRANCH   5   6
ENDBRANCH   4   5
ENDBRANCH   3   4
ENDBRANCH   2   3
ENDBRANCH   1   2
BRANCH   1  10
ATOM     10  C   UNL     1     128.763 143.880 119.016  1.00  0.00     0.000 C 
BRANCH  10  11
ATOM     11  C   UNL     1     127.373 144.240 119.565  1.00  0.00    -0.000 C 
BRANCH  11  12
ATOM     12  C   UNL     1     126.959 145.683 119.222  1.00  0.00    -0.000 C 
BRANCH  12  13
ATOM     13  C   UNL     1     126.900 146.590 120.462  1.00  0.00    -0.000 C 
BRANCH  13  14
ATOM     14  C   UNL     1     127.130 145.817 121.772  1.00  0.00    -0.000 C 
BRANCH  14  15
ATOM     15  C   UNL     1     127.919 146.635 122.807  1.00  0.00    -0.003 C 
ATOM     16  C   UNL     1     129.194 145.933 123.272  1.00  0.00     0.004 C 
ENDBRANCH  14  15
ENDBRANCH  13  14
ENDBRANCH  12  13
ENDBRANCH  11  12
ENDBRANCH  10  11
ENDBRANCH   1  10
TORSDOF 12
ENDMDL
MODEL 2
REMARK VINA RESULT:    -3.694      1.522      3.177
REMARK INTER + INTRA:          -7.774
REMARK INTER:                  -5.792
REMARK INTRA:                  -1.982
REMARK UNBOUND:                -1.488
REMARK SMILES CCCCCCCCCCCCCC(=O)[O-]
REMARK SMILES IDX 8 1 9 2 10 3 11 4 12 5 13 6 14 7 15 8 16 9 7 10 6 11 5 12
REMARK SMILES IDX 4 13 3 14 2 15 1 16
REMARK H PARENT
REMARK Flexibility Score: inf
ROOT
ATOM      1  C   UNL     1     127.665 145.489 122.345  1.00  0.00     0.000 C 
ENDROOT
BRANCH   1   2
ATOM      2  C   UNL     1     128.894 146.371 122.593  1.00  0.00     0.000 C 
BRANCH   2   3
ATOM      3  C   UNL     1     130.132 145.521 122.898  1.00  0.00     0.000 C 
BRANCH   3   4
ATOM      4  C   UNL     1     131.415 146.227 122.436  1.00  0.00     0.000 C 
BRANCH   4   5
ATOM      5  C   UNL     1     131.473 146.440 120.913  1.00  0.00     0.006 C 
BRANCH   5   6
ATOM      6  C   UNL     1     132.567 145.619 120.208  1.00  0.00     0.053 C 
BRANCH   6   7
ATOM      7  C   UNL     1     133.819 146.411 119.973  1.00  0.00     0.041 C 
ATOM      8  O   UNL     1     134.546 146.747 120.944  1.00  0.00    -0.550 OA
ATOM      9  O   UNL     1     134.200 146.748 118.681  1.00  0.00    -0.550 OA
ENDBRANCH   6   7
ENDBRANCH   5   6
ENDBRANCH   4   5
ENDBRANCH   3   4
ENDBRANCH   2   3
ENDBRANCH   1   2
BRANCH   1  10
ATOM     10  C   UNL     1     126.933 145.913 121.063  1.00  0.00     0.000 C 
BRANCH  10  11
ATOM     11  C   UNL     1     127.888 146.153 119.883  1.00  0.00    -0.000 C 
BRANCH  11  12
ATOM     12  C   UNL     1     127.552 145.278 118.663  1.00  0.00    -0.000 C 
BRANCH  12  13
ATOM     13  C   UNL     1     128.019 143.823 118.833  1.00  0.00    -0.000 C 
BRANCH  13  14
ATOM     14  C   UNL     1     129.458 143.723 119.367  1.00  0.00    -0.000 C 
BRANCH  14  15
ATOM     15  C   UNL     1     129.576 142.762 120.562  1.00  0.00    -0.003 C 
ATOM     16  C   UNL     1     128.274 142.019 120.857  1.00  0.00     0.004 C 
ENDBRANCH  14  15
ENDBRANCH  13  14
ENDBRANCH  12  13
ENDBRANCH  11  12
ENDBRANCH  10  11
ENDBRANCH   1  10
TORSDOF 12
ENDMDL
MODEL 3
REMARK VINA RESULT:    -3.687      1.889      2.673
REMARK INTER + INTRA:          -7.762
REMARK INTER:                  -6.043
REMARK INTRA:                  -1.719
REMARK UNBOUND:                -1.488
REMARK SMILES CCCCCCCCCCCCCC(=O)[O-]
REMARK SMILES IDX 8 1 9 2 10 3 11 4 12 5 13 6 14 7 15 8 16 9 7 10 6 11 5 12
REMARK SMILES IDX 4 13 3 14 2 15 1 16
REMARK H PARENT
REMARK Flexibility Score: inf
ROOT
ATOM      1  C   UNL     1     128.652 143.339 119.525  1.00  0.00     0.000 C 
ENDROOT
BRANCH   1   2
ATOM      2  C   UNL     1     129.516 143.041 120.756  1.00  0.00     0.000 C 
BRANCH   2   3
ATOM      3  C   UNL     1     130.558 144.142 120.979  1.00  0.00     0.000 C 
BRANCH   3   4
ATOM      4  C   UNL     1     130.646 145.073 119.760  1.00  0.00     0.000 C 
BRANCH   4   5
ATOM      5  C   UNL     1     130.899 146.543 120.139  1.00  0.00     0.006 C 
BRANCH   5   6
ATOM      6  C   UNL     1     132.388 146.919 120.226  1.00  0.00     0.053 C 
BRANCH   6   7
ATOM      7  C   UNL     1     132.875 147.021 121.641  1.00  0.00     0.041 C 
ATOM      8  O   UNL     1     132.050 147.105 122.588  1.00  0.00    -0.550 OA
ATOM      9  O   UNL     1     134.236 146.990 121.916  1.00  0.00    -0.550 OA
ENDBRANCH   6   7
ENDBRANCH   5   6
ENDBRANCH   4   5
ENDBRANCH   3   4
ENDBRANCH   2   3
ENDBRANCH   1   2
BRANCH   1  10
ATOM     10  C   UNL     1     127.288 143.914 119.937  1.00  0.00     0.000 C 
BRANCH  10  11
ATOM     11  C   UNL     1     127.033 145.315 119.356  1.00  0.00    -0.000 C 
BRANCH  11  12
ATOM     12  C   UNL     1     127.047 146.412 120.435  1.00  0.00    -0.000 C 
BRANCH  12  13
ATOM     13  C   UNL     1     127.248 145.847 121.850  1.00  0.00    -0.000 C 
BRANCH  13  14
ATOM     14  C   UNL     1     127.810 146.891 122.830  1.00  0.00    -0.000 C 
BRANCH  14  15
ATOM     15  C   UNL     1     128.732 146.267 123.890  1.00  0.00    -0.003 C 
ATOM     16  C   UNL     1     128.051 145.159 124.691  1.00  0.00     0.004 C 
ENDBRANCH  14  15
ENDBRANCH  13  14
ENDBRANCH  12  13
ENDBRANCH  11  12
ENDBRANCH  10  11
ENDBRANCH   1  10
TORSDOF 12
ENDMDL
MODEL 4
REMARK VINA RESULT:    -3.596      2.894      5.931
REMARK INTER + INTRA:          -7.607
REMARK INTER:                  -6.379
REMARK INTRA:                  -1.228
REMARK UNBOUND:                -1.488
REMARK SMILES CCCCCCCCCCCCCC(=O)[O-]
REMARK SMILES IDX 8 1 9 2 10 3 11 4 12 5 13 6 14 7 15 8 16 9 7 10 6 11 5 12
REMARK SMILES IDX 4 13 3 14 2 15 1 16
REMARK H PARENT
REMARK Flexibility Score: inf
ROOT
ATOM      1  C   UNL     1     128.624 144.897 119.015  1.00  0.00     0.000 C 
ENDROOT
BRANCH   1   2
ATOM      2  C   UNL     1     127.366 145.533 119.620  1.00  0.00     0.000 C 
BRANCH   2   3
ATOM      3  C   UNL     1     127.284 145.267 121.128  1.00  0.00     0.000 C 
BRANCH   3   4
ATOM      4  C   UNL     1     126.881 146.537 121.891  1.00  0.00     0.000 C 
BRANCH   4   5
ATOM      5  C   UNL     1     127.808 146.848 123.079  1.00  0.00     0.006 C 
BRANCH   5   6
ATOM      6  C   UNL     1     128.982 145.864 123.230  1.00  0.00     0.053 C 
BRANCH   6   7
ATOM      7  C   UNL     1     130.035 146.365 124.172  1.00  0.00     0.041 C 
ATOM      8  O   UNL     1     129.897 146.212 125.414  1.00  0.00    -0.550 OA
ATOM      9  O   UNL     1     131.184 146.969 123.678  1.00  0.00    -0.550 OA
ENDBRANCH   6   7
ENDBRANCH   5   6
ENDBRANCH   4   5
ENDBRANCH   3   4
ENDBRANCH   2   3
ENDBRANCH   1   2
BRANCH   1  10
ATOM     10  C   UNL     1     129.872 145.266 119.831  1.00  0.00     0.000 C 
BRANCH  10  11
ATOM     11  C   UNL     1     130.415 146.663 119.490  1.00  0.00    -0.000 C 
BRANCH  11  12
ATOM     12  C   UNL     1     131.808 146.919 120.092  1.00  0.00    -0.000 C 
BRANCH  12  13
ATOM     13  C   UNL     1     132.518 145.622 120.511  1.00  0.00    -0.000 C 
BRANCH  13  14
ATOM     14  C   UNL     1     133.565 145.162 119.481  1.00  0.00    -0.000 C 
BRANCH  14  15
ATOM     15  C   UNL     1     134.414 146.327 118.947  1.00  0.00    -0.003 C 
ATOM     16  C   UNL     1     135.647 146.606 119.806  1.00  0.00     0.004 C 
ENDBRANCH  14  15
ENDBRANCH  13  14
ENDBRANCH  12  13
ENDBRANCH  11  12
ENDBRANCH  10  11
ENDBRANCH   1  10
TORSDOF 12
ENDMDL
MODEL 5
REMARK VINA RESULT:    -3.581      3.571      5.774
REMARK INTER + INTRA:          -7.581
REMARK INTER:                  -5.791
REMARK INTRA:                  -1.790
REMARK UNBOUND:                -1.488
REMARK SMILES CCCCCCCCCCCCCC(=O)[O-]
REMARK SMILES IDX 8 1 9 2 10 3 11 4 12 5 13 6 14 7 15 8 16 9 7 10 6 11 5 12
REMARK SMILES IDX 4 13 3 14 2 15 1 16
REMARK H PARENT
REMARK Flexibility Score: inf
ROOT
ATOM      1  C   UNL     1     126.897 145.487 120.645  1.00  0.00     0.000 C 
ENDROOT
BRANCH   1   2
ATOM      2  C   UNL     1     127.625 146.568 121.453  1.00  0.00     0.000 C 
BRANCH   2   3
ATOM      3  C   UNL     1     126.876 146.882 122.754  1.00  0.00     0.000 C 
BRANCH   3   4
ATOM      4  C   UNL     1     127.749 146.576 123.980  1.00  0.00     0.000 C 
BRANCH   4   5
ATOM      5  C   UNL     1     129.058 145.851 123.624  1.00  0.00     0.006 C 
BRANCH   5   6
ATOM      6  C   UNL     1     129.290 144.553 124.418  1.00  0.00     0.053 C 
BRANCH   6   7
ATOM      7  C   UNL     1     128.143 143.593 124.299  1.00  0.00     0.041 C 
ATOM      8  O   UNL     1     127.535 143.204 125.330  1.00  0.00    -0.550 OA
ATOM      9  O   UNL     1     127.725 143.156 123.049  1.00  0.00    -0.550 OA
ENDBRANCH   6   7
ENDBRANCH   5   6
ENDBRANCH   4   5
ENDBRANCH   3   4
ENDBRANCH   2   3
ENDBRANCH   1   2
BRANCH   1  10
ATOM     10  C   UNL     1     127.205 145.620 119.146  1.00  0.00     0.000 C 
BRANCH  10  11
ATOM     11  C   UNL     1     128.014 144.434 118.597  1.00  0.00    -0.000 C 
BRANCH  11  12
ATOM     12  C   UNL     1     128.294 143.364 119.667  1.00  0.00    -0.000 C 
BRANCH  12  13
ATOM     13  C   UNL     1     129.780 142.976 119.740  1.00  0.00    -0.000 C 
BRANCH  13  14
ATOM     14  C   UNL     1     130.557 143.806 120.776  1.00  0.00    -0.000 C 
BRANCH  14  15
ATOM     15  C   UNL     1     131.458 144.867 120.123  1.00  0.00    -0.003 C 
ATOM     16  C   UNL     1     130.797 146.243 120.050  1.00  0.00     0.004 C 
ENDBRANCH  14  15
ENDBRANCH  13  14
ENDBRANCH  12  13
ENDBRANCH  11  12
ENDBRANCH  10  11
ENDBRANCH   1  10
TORSDOF 12
ENDMDL
MODEL 6
REMARK VINA RESULT:    -3.579      1.759      3.150
REMARK INTER + INTRA:          -7.579
REMARK INTER:                  -5.619
REMARK INTRA:                  -1.960
REMARK UNBOUND:                -1.488
REMARK SMILES CCCCCCCCCCCCCC(=O)[O-]
REMARK SMILES IDX 8 1 9 2 10 3 11 4 12 5 13 6 14 7 15 8 16 9 7 10 6 11 5 12
REMARK SMILES IDX 4 13 3 14 2 15 1 16
REMARK H PARENT
REMARK Flexibility Score: inf
ROOT
ATOM      1  C   UNL     1     127.804 145.707 119.807  1.00  0.00     0.000 C 
ENDROOT
BRANCH   1   2
ATOM      2  C   UNL     1     128.828 144.646 119.386  1.00  0.00     0.000 C 
BRANCH   2   3
ATOM      3  C   UNL     1     130.239 145.026 119.850  1.00  0.00     0.000 C 
BRANCH   3   4
ATOM      4  C   UNL     1     130.505 146.523 119.634  1.00  0.00     0.000 C 
BRANCH   4   5
ATOM      5  C   UNL     1     131.648 147.066 120.511  1.00  0.00     0.006 C 
BRANCH   5   6
ATOM      6  C   UNL     1     132.960 146.271 120.390  1.00  0.00     0.053 C 
BRANCH   6   7
ATOM      7  C   UNL     1     133.878 146.495 121.554  1.00  0.00     0.041 C 
ATOM      8  O   UNL     1     133.519 146.164 122.715  1.00  0.00    -0.550 OA
ATOM      9  O   UNL     1     135.142 147.036 121.354  1.00  0.00    -0.550 OA
ENDBRANCH   6   7
ENDBRANCH   5   6
ENDBRANCH   4   5
ENDBRANCH   3   4
ENDBRANCH   2   3
ENDBRANCH   1   2
BRANCH   1  10
ATOM     10  C   UNL     1     127.169 145.353 121.160  1.00  0.00     0.000 C 
BRANCH  10  11
ATOM     11  C   UNL     1     127.166 146.533 122.144  1.00  0.00    -0.000 C 
BRANCH  11  12
ATOM     12  C   UNL     1     127.814 146.178 123.495  1.00  0.00    -0.000 C 
BRANCH  12  13
ATOM     13  C   UNL     1     129.326 146.459 123.516  1.00  0.00    -0.000 C 
BRANCH  13  14
ATOM     14  C   UNL     1     130.167 145.173 123.439  1.00  0.00    -0.000 C 
BRANCH  14  15
ATOM     15  C   UNL     1     129.348 143.914 123.767  1.00  0.00    -0.003 C 
ATOM     16  C   UNL     1     129.485 142.824 122.706  1.00  0.00     0.004 C 
ENDBRANCH  14  15
ENDBRANCH  13  14
ENDBRANCH  12  13
ENDBRANCH  11  12
ENDBRANCH  10  11
ENDBRANCH   1  10
TORSDOF 12
ENDMDL
MODEL 7
REMARK VINA RESULT:    -3.554      1.986      3.614
REMARK INTER + INTRA:          -7.535
REMARK INTER:                  -5.580
REMARK INTRA:                  -1.955
REMARK UNBOUND:                -1.488
REMARK SMILES CCCCCCCCCCCCCC(=O)[O-]
REMARK SMILES IDX 8 1 9 2 10 3 11 4 12 5 13 6 14 7 15 8 16 9 7 10 6 11 5 12
REMARK SMILES IDX 4 13 3 14 2 15 1 16
REMARK H PARENT
REMARK Flexibility Score: inf
ROOT
ATOM      1  C   UNL     1     128.139 145.623 119.306  1.00  0.00     0.000 C 
ENDROOT
BRANCH   1   2
ATOM      2  C   UNL     1     128.372 145.924 120.792  1.00  0.00     0.000 C 
BRANCH   2   3
ATOM      3  C   UNL     1     129.851 146.212 121.071  1.00  0.00     0.000 C 
BRANCH   3   4
ATOM      4  C   UNL     1     130.645 146.341 119.763  1.00  0.00     0.000 C 
BRANCH   4   5
ATOM      5  C   UNL     1     132.112 146.751 119.984  1.00  0.00     0.006 C 
BRANCH   5   6
ATOM      6  C   UNL     1     132.499 146.914 121.465  1.00  0.00     0.053 C 
BRANCH   6   7
ATOM      7  C   UNL     1     133.865 146.375 121.766  1.00  0.00     0.041 C 
ATOM      8  O   UNL     1     134.016 145.489 122.647  1.00  0.00    -0.550 OA
ATOM      9  O   UNL     1     134.967 146.826 121.050  1.00  0.00    -0.550 OA
ENDBRANCH   6   7
ENDBRANCH   5   6
ENDBRANCH   4   5
ENDBRANCH   3   4
ENDBRANCH   2   3
ENDBRANCH   1   2
BRANCH   1  10
ATOM     10  C   UNL     1     127.625 144.189 119.110  1.00  0.00     0.000 C 
BRANCH  10  11
ATOM     11  C   UNL     1     127.481 143.421 120.434  1.00  0.00    -0.000 C 
BRANCH  11  12
ATOM     12  C   UNL     1     128.392 142.182 120.501  1.00  0.00    -0.000 C 
BRANCH  12  13
ATOM     13  C   UNL     1     129.833 142.485 120.062  1.00  0.00    -0.000 C 
BRANCH  13  14
ATOM     14  C   UNL     1     130.770 142.753 121.253  1.00  0.00    -0.000 C 
BRANCH  14  15
ATOM     15  C   UNL     1     132.212 143.052 120.812  1.00  0.00    -0.003 C 
ATOM     16  C   UNL     1     132.377 143.062 119.293  1.00  0.00     0.004 C 
ENDBRANCH  14  15
ENDBRANCH  13  14
ENDBRANCH  12  13
ENDBRANCH  11  12
ENDBRANCH  10  11
ENDBRANCH   1  10
TORSDOF 12
ENDMDL
MODEL 8
REMARK VINA RESULT:    -3.551      3.216      5.647
REMARK INTER + INTRA:          -7.530
REMARK INTER:                  -5.639
REMARK INTRA:                  -1.891
REMARK UNBOUND:                -1.488
REMARK SMILES CCCCCCCCCCCCCC(=O)[O-]
REMARK SMILES IDX 8 1 9 2 10 3 11 4 12 5 13 6 14 7 15 8 16 9 7 10 6 11 5 12
REMARK SMILES IDX 4 13 3 14 2 15 1 16
REMARK H PARENT
REMARK Flexibility Score: inf
ROOT
ATOM      1  C   UNL     1     127.681 146.376 120.386  1.00  0.00     0.000 C 
ENDROOT
BRANCH   1   2
ATOM      2  C   UNL     1     127.008 145.643 119.220  1.00  0.00     0.000 C 
BRANCH   2   3
ATOM      3  C   UNL     1     127.959 144.620 118.588  1.00  0.00     0.000 C 
BRANCH   3   4
ATOM      4  C   UNL     1     128.549 143.684 119.653  1.00  0.00     0.000 C 
BRANCH   4   5
ATOM      5  C   UNL     1     127.551 142.619 120.141  1.00  0.00     0.006 C 
BRANCH   5   6
ATOM      6  C   UNL     1     127.672 142.287 121.639  1.00  0.00     0.053 C 
BRANCH   6   7
ATOM      7  C   UNL     1     128.500 141.063 121.891  1.00  0.00     0.041 C 
ATOM      8  O   UNL     1     129.736 141.075 121.651  1.00  0.00    -0.550 OA
ATOM      9  O   UNL     1     127.915 139.921 122.424  1.00  0.00    -0.550 OA
ENDBRANCH   6   7
ENDBRANCH   5   6
ENDBRANCH   4   5
ENDBRANCH   3   4
ENDBRANCH   2   3
ENDBRANCH   1   2
BRANCH   1  10
ATOM     10  C   UNL     1     126.875 146.202 121.683  1.00  0.00     0.000 C 
BRANCH  10  11
ATOM     11  C   UNL     1     127.724 145.654 122.841  1.00  0.00    -0.000 C 
BRANCH  11  12
ATOM     12  C   UNL     1     129.073 146.383 122.981  1.00  0.00    -0.000 C 
BRANCH  12  13
ATOM     13  C   UNL     1     130.259 145.412 123.096  1.00  0.00    -0.000 C 
BRANCH  13  14
ATOM     14  C   UNL     1     130.987 145.208 121.755  1.00  0.00    -0.000 C 
BRANCH  14  15
ATOM     15  C   UNL     1     131.500 146.528 121.158  1.00  0.00    -0.003 C 
ATOM     16  C   UNL     1     131.141 146.689 119.681  1.00  0.00     0.004 C 
ENDBRANCH  14  15
ENDBRANCH  13  14
ENDBRANCH  12  13
ENDBRANCH  11  12
ENDBRANCH  10  11
ENDBRANCH   1  10
TORSDOF 12
ENDMDL
MODEL 9
REMARK VINA RESULT:    -3.492      4.414      6.310
REMARK INTER + INTRA:          -7.431
REMARK INTER:                  -5.357
REMARK INTRA:                  -2.073
REMARK UNBOUND:                -1.488
REMARK SMILES CCCCCCCCCCCCCC(=O)[O-]
REMARK SMILES IDX 8 1 9 2 10 3 11 4 12 5 13 6 14 7 15 8 16 9 7 10 6 11 5 12
REMARK SMILES IDX 4 13 3 14 2 15 1 16
REMARK H PARENT
REMARK Flexibility Score: inf
ROOT
ATOM      1  C   UNL     1     128.616 145.472 119.312  1.00  0.00     0.000 C 
ENDROOT
BRANCH   1   2
ATOM      2  C   UNL     1     128.404 145.869 120.778  1.00  0.00     0.000 C 
BRANCH   2   3
ATOM      3  C   UNL     1     129.744 146.083 121.491  1.00  0.00     0.000 C 
BRANCH   3   4
ATOM      4  C   UNL     1     129.608 145.851 123.003  1.00  0.00     0.000 C 
BRANCH   4   5
ATOM      5  C   UNL     1     128.258 145.228 123.399  1.00  0.00     0.006 C 
BRANCH   5   6
ATOM      6  C   UNL     1     127.657 145.810 124.691  1.00  0.00     0.053 C 
BRANCH   6   7
ATOM      7  C   UNL     1     127.384 144.757 125.723  1.00  0.00     0.041 C 
ATOM      8  O   UNL     1     127.164 143.568 125.371  1.00  0.00    -0.550 OA
ATOM      9  O   UNL     1     127.405 145.080 127.074  1.00  0.00    -0.550 OA
ENDBRANCH   6   7
ENDBRANCH   5   6
ENDBRANCH   4   5
ENDBRANCH   3   4
ENDBRANCH   2   3
ENDBRANCH   1   2
BRANCH   1  10
ATOM     10  C   UNL     1     127.877 144.165 118.984  1.00  0.00     0.000 C 
BRANCH  10  11
ATOM     11  C   UNL     1     127.283 143.488 120.230  1.00  0.00    -0.000 C 
BRANCH  11  12
ATOM     12  C   UNL     1     127.828 142.064 120.445  1.00  0.00    -0.000 C 
BRANCH  12  13
ATOM     13  C   UNL     1     128.676 141.943 121.722  1.00  0.00    -0.000 C 
BRANCH  13  14
ATOM     14  C   UNL     1     130.125 142.418 121.517  1.00  0.00    -0.000 C 
BRANCH  14  15
ATOM     15  C   UNL     1     130.700 141.982 120.159  1.00  0.00    -0.003 C 
ATOM     16  C   UNL     1     131.468 143.100 119.454  1.00  0.00     0.004 C 
ENDBRANCH  14  15
ENDBRANCH  13  14
ENDBRANCH  12  13
ENDBRANCH  11  12
ENDBRANCH  10  11
ENDBRANCH   1  10
TORSDOF 12
ENDMDL
