MODEL 1
REMARK VINA RESULT:    -4.272      0.000      0.000
REMARK INTER + INTRA:          -5.020
REMARK INTER:                  -5.021
REMARK INTRA:                   0.001
REMARK UNBOUND:                 0.001
REMARK SMILES O=c1c(O)c(-c2ccc(O)cc2)oc2cc(O)cc(O)c12
REMARK SMILES IDX 5 1 3 2 2 3 1 4 21 5 19 6 18 7 16 8 15 9 14 10 13 11 6 12
REMARK SMILES IDX 7 13 8 14 9 15 12 16 11 17 10 18 4 20 20 22 17 24
REMARK H PARENT 10 19 4 21 20 23 17 25
REMARK Flexibility Score: inf
ROOT
ATOM      1  C   UNL     1       2.191  22.986   4.334  1.00  0.00     0.180 A 
ATOM      2  C   UNL     1       1.241  22.516   3.411  1.00  0.00     0.208 A 
ATOM      3  C   UNL     1       0.067  21.911   3.890  1.00  0.00     0.238 A 
ATOM      4  O   UNL     1      -0.753  21.443   3.058  1.00  0.00    -0.285 OA
ATOM      5  C   UNL     1      -0.149  21.799   5.284  1.00  0.00     0.111 A 
ATOM      6  C   UNL     1      -1.320  21.241   5.880  1.00  0.00     0.134 A 
ATOM      7  C   UNL     1      -1.370  21.062   7.268  1.00  0.00     0.093 A 
ATOM      8  C   UNL     1      -0.321  21.480   8.086  1.00  0.00     0.123 A 
ATOM      9  C   UNL     1       0.804  22.081   7.519  1.00  0.00     0.094 A 
ATOM     10  C   UNL     1       0.898  22.240   6.135  1.00  0.00     0.146 A 
ATOM     11  O   UNL     1       1.988  22.808   5.634  1.00  0.00    -0.452 OA
ENDROOT
BRANCH   1  12
ATOM     12  C   UNL     1       3.439  23.657   3.907  1.00  0.00     0.021 A 
ATOM     13  C   UNL     1       3.422  24.724   2.989  1.00  0.00     0.016 A 
ATOM     14  C   UNL     1       4.612  25.358   2.620  1.00  0.00     0.047 A 
ATOM     15  C   UNL     1       5.830  24.946   3.169  1.00  0.00     0.115 A 
ATOM     16  C   UNL     1       4.665  23.263   4.471  1.00  0.00     0.016 A 
ATOM     17  C   UNL     1       5.853  23.898   4.099  1.00  0.00     0.047 A 
BRANCH  15  18
ATOM     18  O   UNL     1       7.008  25.586   2.790  1.00  0.00    -0.508 OA
ATOM     19  H   UNL     1       7.400  25.470   1.863  1.00  0.00     0.293 HD
ENDBRANCH  15  18
ENDBRANCH   1  12
BRANCH   2  20
ATOM     20  O   UNL     1       1.485  22.616   2.038  1.00  0.00    -0.502 OA
ATOM     21  H   UNL     1       2.176  22.046   1.566  1.00  0.00     0.293 HD
ENDBRANCH   2  20
BRANCH   6  22
ATOM     22  O   UNL     1      -2.462  20.876   5.162  1.00  0.00    -0.507 OA
ATOM     23  H   UNL     1      -3.323  20.553   5.578  1.00  0.00     0.293 HD
ENDBRANCH   6  22
BRANCH   8  24
ATOM     24  O   UNL     1      -0.412  21.300   9.465  1.00  0.00    -0.508 OA
ATOM     25  H   UNL     1      -1.289  21.421   9.958  1.00  0.00     0.293 HD
ENDBRANCH   8  24
TORSDOF 5
ENDMDL
MODEL 2
REMARK VINA RESULT:    -4.130      1.955      6.340
REMARK INTER + INTRA:          -4.853
REMARK INTER:                  -4.849
REMARK INTRA:                  -0.004
REMARK UNBOUND:                 0.001
REMARK SMILES O=c1c(O)c(-c2ccc(O)cc2)oc2cc(O)cc(O)c12
REMARK SMILES IDX 5 1 3 2 2 3 1 4 21 5 19 6 18 7 16 8 15 9 14 10 13 11 6 12
REMARK SMILES IDX 7 13 8 14 9 15 12 16 11 17 10 18 4 20 20 22 17 24
REMARK H PARENT 10 19 4 21 20 23 17 25
REMARK Flexibility Score: inf
ROOT
ATOM      1  C   UNL     1       2.404  23.269   4.362  1.00  0.00     0.180 A 
ATOM      2  C   UNL     1       2.950  24.069   3.344  1.00  0.00     0.208 A 
ATOM      3  C   UNL     1       4.242  24.594   3.509  1.00  0.00     0.238 A 
ATOM      4  O   UNL     1       4.703  25.355   2.619  1.00  0.00    -0.285 OA
ATOM      5  C   UNL     1       4.977  24.300   4.682  1.00  0.00     0.111 A 
ATOM      6  C   UNL     1       6.308  24.745   4.937  1.00  0.00     0.134 A 
ATOM      7  C   UNL     1       6.890  24.504   6.187  1.00  0.00     0.093 A 
ATOM      8  C   UNL     1       6.215  23.776   7.167  1.00  0.00     0.123 A 
ATOM      9  C   UNL     1       4.935  23.285   6.907  1.00  0.00     0.094 A 
ATOM     10  C   UNL     1       4.315  23.542   5.683  1.00  0.00     0.146 A 
ATOM     11  O   UNL     1       3.093  23.064   5.478  1.00  0.00    -0.452 OA
ENDROOT
BRANCH   1  12
ATOM     12  C   UNL     1       1.060  22.659   4.249  1.00  0.00     0.021 A 
ATOM     13  C   UNL     1       0.685  21.911   3.116  1.00  0.00     0.016 A 
ATOM     14  C   UNL     1      -0.581  21.325   3.044  1.00  0.00     0.047 A 
ATOM     15  C   UNL     1      -1.485  21.464   4.102  1.00  0.00     0.115 A 
ATOM     16  C   UNL     1       0.154  22.777   5.318  1.00  0.00     0.016 A 
ATOM     17  C   UNL     1      -1.112  22.190   5.241  1.00  0.00     0.047 A 
BRANCH  15  18
ATOM     18  O   UNL     1      -2.744  20.875   4.015  1.00  0.00    -0.508 OA
ATOM     19  H   UNL     1      -2.869  19.949   3.623  1.00  0.00     0.293 HD
ENDBRANCH  15  18
ENDBRANCH   1  12
BRANCH   2  20
ATOM     20  O   UNL     1       2.198  24.366   2.203  1.00  0.00    -0.502 OA
ATOM     21  H   UNL     1       1.233  24.668   2.252  1.00  0.00     0.293 HD
ENDBRANCH   2  20
BRANCH   6  22
ATOM     22  O   UNL     1       7.106  25.400   3.994  1.00  0.00    -0.507 OA
ATOM     23  H   UNL     1       6.778  25.748   3.106  1.00  0.00     0.293 HD
ENDBRANCH   6  22
BRANCH   8  24
ATOM     24  O   UNL     1       6.831  23.541   8.395  1.00  0.00    -0.508 OA
ATOM     25  H   UNL     1       7.140  24.304   8.987  1.00  0.00     0.293 HD
ENDBRANCH   8  24
TORSDOF 5
ENDMDL
MODEL 3
REMARK VINA RESULT:    -4.027      2.241      6.751
REMARK INTER + INTRA:          -4.732
REMARK INTER:                  -4.462
REMARK INTRA:                  -0.270
REMARK UNBOUND:                 0.001
REMARK SMILES O=c1c(O)c(-c2ccc(O)cc2)oc2cc(O)cc(O)c12
REMARK SMILES IDX 5 1 3 2 2 3 1 4 21 5 19 6 18 7 16 8 15 9 14 10 13 11 6 12
REMARK SMILES IDX 7 13 8 14 9 15 12 16 11 17 10 18 4 20 20 22 17 24
REMARK H PARENT 10 19 4 21 20 23 17 25
REMARK Flexibility Score: inf
ROOT
ATOM      1  C   UNL     1       2.072  22.972   4.214  1.00  0.00     0.180 A 
ATOM      2  C   UNL     1       2.374  22.688   5.557  1.00  0.00     0.208 A 
ATOM      3  C   UNL     1       3.596  23.130   6.088  1.00  0.00     0.238 A 
ATOM      4  O   UNL     1       3.884  22.825   7.275  1.00  0.00    -0.285 OA
ATOM      5  C   UNL     1       4.493  23.864   5.276  1.00  0.00     0.111 A 
ATOM      6  C   UNL     1       5.740  24.395   5.722  1.00  0.00     0.134 A 
ATOM      7  C   UNL     1       6.607  24.991   4.798  1.00  0.00     0.093 A 
ATOM      8  C   UNL     1       6.244  25.135   3.459  1.00  0.00     0.123 A 
ATOM      9  C   UNL     1       5.001  24.673   3.024  1.00  0.00     0.094 A 
ATOM     10  C   UNL     1       4.131  24.040   3.915  1.00  0.00     0.146 A 
ATOM     11  O   UNL     1       2.962  23.606   3.460  1.00  0.00    -0.452 OA
ENDROOT
BRANCH   1  12
ATOM     12  C   UNL     1       0.794  22.562   3.590  1.00  0.00     0.021 A 
ATOM     13  C   UNL     1       0.607  21.260   3.088  1.00  0.00     0.016 A 
ATOM     14  C   UNL     1      -0.618  20.889   2.525  1.00  0.00     0.047 A 
ATOM     15  C   UNL     1      -1.674  21.804   2.467  1.00  0.00     0.115 A 
ATOM     16  C   UNL     1      -0.279  23.469   3.548  1.00  0.00     0.016 A 
ATOM     17  C   UNL     1      -1.502  23.095   2.983  1.00  0.00     0.047 A 
BRANCH  15  18
ATOM     18  O   UNL     1      -2.888  21.420   1.903  1.00  0.00    -0.508 OA
ATOM     19  H   UNL     1      -3.731  21.343   2.460  1.00  0.00     0.293 HD
ENDBRANCH  15  18
ENDBRANCH   1  12
BRANCH   2  20
ATOM     20  O   UNL     1       1.483  21.942   6.335  1.00  0.00    -0.502 OA
ATOM     21  H   UNL     1       0.481  22.078   6.294  1.00  0.00     0.293 HD
ENDBRANCH   2  20
BRANCH   6  22
ATOM     22  O   UNL     1       6.160  24.387   7.055  1.00  0.00    -0.507 OA
ATOM     23  H   UNL     1       5.733  24.923   7.795  1.00  0.00     0.293 HD
ENDBRANCH   6  22
BRANCH   8  24
ATOM     24  O   UNL     1       7.125  25.748   2.570  1.00  0.00    -0.508 OA
ATOM     25  H   UNL     1       8.093  25.920   2.818  1.00  0.00     0.293 HD
ENDBRANCH   8  24
TORSDOF 5
ENDMDL
MODEL 4
REMARK VINA RESULT:    -4.010      2.685      6.052
REMARK INTER + INTRA:          -4.712
REMARK INTER:                  -4.448
REMARK INTRA:                  -0.264
REMARK UNBOUND:                 0.001
REMARK SMILES O=c1c(O)c(-c2ccc(O)cc2)oc2cc(O)cc(O)c12
REMARK SMILES IDX 5 1 3 2 2 3 1 4 21 5 19 6 18 7 16 8 15 9 14 10 13 11 6 12
REMARK SMILES IDX 7 13 8 14 9 15 12 16 11 17 10 18 4 20 20 22 17 24
REMARK H PARENT 10 19 4 21 20 23 17 25
REMARK Flexibility Score: inf
ROOT
ATOM      1  C   UNL     1       2.195  23.167   3.773  1.00  0.00     0.180 A 
ATOM      2  C   UNL     1       2.976  24.103   3.073  1.00  0.00     0.208 A 
ATOM      3  C   UNL     1       4.208  24.503   3.614  1.00  0.00     0.238 A 
ATOM      4  O   UNL     1       4.877  25.382   3.010  1.00  0.00    -0.285 OA
ATOM      5  C   UNL     1       4.652  23.951   4.839  1.00  0.00     0.111 A 
ATOM      6  C   UNL     1       5.902  24.253   5.459  1.00  0.00     0.134 A 
ATOM      7  C   UNL     1       6.180  23.748   6.735  1.00  0.00     0.093 A 
ATOM      8  C   UNL     1       5.284  22.899   7.385  1.00  0.00     0.123 A 
ATOM      9  C   UNL     1       4.085  22.549   6.762  1.00  0.00     0.094 A 
ATOM     10  C   UNL     1       3.764  23.067   5.506  1.00  0.00     0.146 A 
ATOM     11  O   UNL     1       2.609  22.717   4.951  1.00  0.00    -0.452 OA
ENDROOT
BRANCH   1  12
ATOM     12  C   UNL     1       0.898  22.678   3.255  1.00  0.00     0.021 A 
ATOM     13  C   UNL     1       0.786  21.428   2.619  1.00  0.00     0.016 A 
ATOM     14  C   UNL     1      -0.455  20.977   2.160  1.00  0.00     0.047 A 
ATOM     15  C   UNL     1      -1.600  21.759   2.339  1.00  0.00     0.115 A 
ATOM     16  C   UNL     1      -0.261  23.450   3.451  1.00  0.00     0.016 A 
ATOM     17  C   UNL     1      -1.500  22.996   2.989  1.00  0.00     0.047 A 
BRANCH  15  18
ATOM     18  O   UNL     1      -2.830  21.298   1.875  1.00  0.00    -0.508 OA
ATOM     19  H   UNL     1      -3.358  20.597   2.382  1.00  0.00     0.293 HD
ENDBRANCH  15  18
ENDBRANCH   1  12
BRANCH   2  20
ATOM     20  O   UNL     1       2.508  24.653   1.876  1.00  0.00    -0.502 OA
ATOM     21  H   UNL     1       3.014  24.565   1.003  1.00  0.00     0.293 HD
ENDBRANCH   2  20
BRANCH   6  22
ATOM     22  O   UNL     1       6.907  25.015   4.857  1.00  0.00    -0.507 OA
ATOM     23  H   UNL     1       7.884  24.766   4.839  1.00  0.00     0.293 HD
ENDBRANCH   6  22
BRANCH   8  24
ATOM     24  O   UNL     1       5.601  22.403   8.647  1.00  0.00    -0.508 OA
ATOM     25  H   UNL     1       5.306  22.878   9.493  1.00  0.00     0.293 HD
ENDBRANCH   8  24
TORSDOF 5
ENDMDL
MODEL 5
REMARK VINA RESULT:    -3.975     22.804     24.173
REMARK INTER + INTRA:          -4.670
REMARK INTER:                  -5.137
REMARK INTRA:                   0.467
REMARK UNBOUND:                 0.001
REMARK SMILES O=c1c(O)c(-c2ccc(O)cc2)oc2cc(O)cc(O)c12
REMARK SMILES IDX 5 1 3 2 2 3 1 4 21 5 19 6 18 7 16 8 15 9 14 10 13 11 6 12
REMARK SMILES IDX 7 13 8 14 9 15 12 16 11 17 10 18 4 20 20 22 17 24
REMARK H PARENT 10 19 4 21 20 23 17 25
REMARK Flexibility Score: inf
ROOT
ATOM      1  C   UNL     1      -6.293  40.824  18.247  1.00  0.00     0.180 A 
ATOM      2  C   UNL     1      -7.049  40.862  19.431  1.00  0.00     0.208 A 
ATOM      3  C   UNL     1      -8.445  40.738  19.352  1.00  0.00     0.238 A 
ATOM      4  O   UNL     1      -9.121  40.828  20.411  1.00  0.00    -0.285 OA
ATOM      5  C   UNL     1      -9.067  40.561  18.094  1.00  0.00     0.111 A 
ATOM      6  C   UNL     1     -10.470  40.384  17.900  1.00  0.00     0.134 A 
ATOM      7  C   UNL     1     -10.989  40.349  16.600  1.00  0.00     0.093 A 
ATOM      8  C   UNL     1     -10.150  40.418  15.487  1.00  0.00     0.123 A 
ATOM      9  C   UNL     1      -8.771  40.531  15.665  1.00  0.00     0.094 A 
ATOM     10  C   UNL     1      -8.227  40.606  16.950  1.00  0.00     0.146 A 
ATOM     11  O   UNL     1      -6.911  40.722  17.076  1.00  0.00    -0.452 OA
ENDROOT
BRANCH   1  12
ATOM     12  C   UNL     1      -4.816  40.923  18.251  1.00  0.00     0.021 A 
ATOM     13  C   UNL     1      -4.078  40.835  19.447  1.00  0.00     0.016 A 
ATOM     14  C   UNL     1      -2.682  40.906  19.422  1.00  0.00     0.047 A 
ATOM     15  C   UNL     1      -2.005  41.054  18.208  1.00  0.00     0.115 A 
ATOM     16  C   UNL     1      -4.127  41.049  17.032  1.00  0.00     0.016 A 
ATOM     17  C   UNL     1      -2.731  41.122  17.012  1.00  0.00     0.047 A 
BRANCH  15  18
ATOM     18  O   UNL     1      -0.614  41.125  18.200  1.00  0.00    -0.508 OA
ATOM     19  H   UNL     1      -0.051  40.581  18.844  1.00  0.00     0.293 HD
ENDBRANCH  15  18
ENDBRANCH   1  12
BRANCH   2  20
ATOM     20  O   UNL     1      -6.417  41.060  20.662  1.00  0.00    -0.502 OA
ATOM     21  H   UNL     1      -5.933  40.317  21.150  1.00  0.00     0.293 HD
ENDBRANCH   2  20
BRANCH   6  22
ATOM     22  O   UNL     1     -11.386  40.212  18.942  1.00  0.00    -0.507 OA
ATOM     23  H   UNL     1     -11.811  39.332  19.193  1.00  0.00     0.293 HD
ENDBRANCH   6  22
BRANCH   8  24
ATOM     24  O   UNL     1     -10.700  40.364  14.208  1.00  0.00    -0.508 OA
ATOM     25  H   UNL     1     -11.587  39.906  14.032  1.00  0.00     0.293 HD
ENDBRANCH   8  24
TORSDOF 5
ENDMDL
MODEL 6
REMARK VINA RESULT:    -3.901      1.364      3.237
REMARK INTER + INTRA:          -4.584
REMARK INTER:                  -4.365
REMARK INTRA:                  -0.219
REMARK UNBOUND:                 0.001
REMARK SMILES O=c1c(O)c(-c2ccc(O)cc2)oc2cc(O)cc(O)c12
REMARK SMILES IDX 5 1 3 2 2 3 1 4 21 5 19 6 18 7 16 8 15 9 14 10 13 11 6 12
REMARK SMILES IDX 7 13 8 14 9 15 12 16 11 17 10 18 4 20 20 22 17 24
REMARK H PARENT 10 19 4 21 20 23 17 25
REMARK Flexibility Score: inf
ROOT
ATOM      1  C   UNL     1       2.231  23.157   4.103  1.00  0.00     0.180 A 
ATOM      2  C   UNL     1       1.992  23.086   5.486  1.00  0.00     0.208 A 
ATOM      3  C   UNL     1       0.792  22.518   5.942  1.00  0.00     0.238 A 
ATOM      4  O   UNL     1       0.560  22.507   7.179  1.00  0.00    -0.285 OA
ATOM      5  C   UNL     1      -0.147  22.014   5.011  1.00  0.00     0.111 A 
ATOM      6  C   UNL     1      -1.377  21.381   5.363  1.00  0.00     0.134 A 
ATOM      7  C   UNL     1      -2.290  21.039   4.357  1.00  0.00     0.093 A 
ATOM      8  C   UNL     1      -1.989  21.244   3.011  1.00  0.00     0.123 A 
ATOM      9  C   UNL     1      -0.763  21.807   2.653  1.00  0.00     0.094 A 
ATOM     10  C   UNL     1       0.151  22.193   3.635  1.00  0.00     0.146 A 
ATOM     11  O   UNL     1       1.302  22.734   3.253  1.00  0.00    -0.452 OA
ENDROOT
BRANCH   1  12
ATOM     12  C   UNL     1       3.483  23.718   3.547  1.00  0.00     0.021 A 
ATOM     13  C   UNL     1       4.708  23.033   3.659  1.00  0.00     0.016 A 
ATOM     14  C   UNL     1       5.872  23.571   3.104  1.00  0.00     0.047 A 
ATOM     15  C   UNL     1       5.829  24.791   2.422  1.00  0.00     0.115 A 
ATOM     16  C   UNL     1       3.444  24.932   2.840  1.00  0.00     0.016 A 
ATOM     17  C   UNL     1       4.610  25.469   2.288  1.00  0.00     0.047 A 
BRANCH  15  18
ATOM     18  O   UNL     1       6.998  25.316   1.875  1.00  0.00    -0.508 OA
ATOM     19  H   UNL     1       7.842  24.761   1.796  1.00  0.00     0.293 HD
ENDBRANCH  15  18
ENDBRANCH   1  12
BRANCH   2  20
ATOM     20  O   UNL     1       2.924  23.610   6.388  1.00  0.00    -0.502 OA
ATOM     21  H   UNL     1       2.834  23.495   7.390  1.00  0.00     0.293 HD
ENDBRANCH   2  20
BRANCH   6  22
ATOM     22  O   UNL     1      -1.736  21.045   6.671  1.00  0.00    -0.507 OA
ATOM     23  H   UNL     1      -1.538  21.609   7.484  1.00  0.00     0.293 HD
ENDBRANCH   6  22
BRANCH   8  24
ATOM     24  O   UNL     1      -2.914  20.876   2.036  1.00  0.00    -0.508 OA
ATOM     25  H   UNL     1      -2.959  21.352   1.142  1.00  0.00     0.293 HD
ENDBRANCH   8  24
TORSDOF 5
ENDMDL
MODEL 7
REMARK VINA RESULT:    -2.961     23.099     24.588
REMARK INTER + INTRA:          -3.479
REMARK INTER:                  -4.014
REMARK INTRA:                   0.534
REMARK UNBOUND:                 0.001
REMARK SMILES O=c1c(O)c(-c2ccc(O)cc2)oc2cc(O)cc(O)c12
REMARK SMILES IDX 5 1 3 2 2 3 1 4 21 5 19 6 18 7 16 8 15 9 14 10 13 11 6 12
REMARK SMILES IDX 7 13 8 14 9 15 12 16 11 17 10 18 4 20 20 22 17 24
REMARK H PARENT 10 19 4 21 20 23 17 25
REMARK Flexibility Score: inf
ROOT
ATOM      1  C   UNL     1      -7.865  40.730  17.998  1.00  0.00     0.180 A 
ATOM      2  C   UNL     1      -8.641  40.841  19.165  1.00  0.00     0.208 A 
ATOM      3  C   UNL     1     -10.037  40.728  19.067  1.00  0.00     0.238 A 
ATOM      4  O   UNL     1     -10.730  40.883  20.107  1.00  0.00    -0.285 OA
ATOM      5  C   UNL     1     -10.639  40.491  17.809  1.00  0.00     0.111 A 
ATOM      6  C   UNL     1     -12.040  40.320  17.600  1.00  0.00     0.134 A 
ATOM      7  C   UNL     1     -12.537  40.221  16.294  1.00  0.00     0.093 A 
ATOM      8  C   UNL     1     -11.678  40.220  15.195  1.00  0.00     0.123 A 
ATOM      9  C   UNL     1     -10.301  40.327  15.392  1.00  0.00     0.094 A 
ATOM     10  C   UNL     1      -9.779  40.464  16.680  1.00  0.00     0.146 A 
ATOM     11  O   UNL     1      -8.463  40.573  16.824  1.00  0.00    -0.452 OA
ENDROOT
BRANCH   1  12
ATOM     12  C   UNL     1      -6.387  40.812  18.024  1.00  0.00     0.021 A 
ATOM     13  C   UNL     1      -5.641  40.989  16.844  1.00  0.00     0.016 A 
ATOM     14  C   UNL     1      -4.248  41.088  16.896  1.00  0.00     0.047 A 
ATOM     15  C   UNL     1      -3.583  41.026  18.124  1.00  0.00     0.115 A 
ATOM     16  C   UNL     1      -5.713  40.773  19.257  1.00  0.00     0.016 A 
ATOM     17  C   UNL     1      -4.320  40.871  19.306  1.00  0.00     0.047 A 
BRANCH  15  18
ATOM     18  O   UNL     1      -2.194  41.125  18.161  1.00  0.00    -0.508 OA
ATOM     19  H   UNL     1      -1.604  40.509  17.614  1.00  0.00     0.293 HD
ENDBRANCH  15  18
ENDBRANCH   1  12
BRANCH   2  20
ATOM     20  O   UNL     1      -8.028  41.098  20.395  1.00  0.00    -0.502 OA
ATOM     21  H   UNL     1      -7.146  41.589  20.471  1.00  0.00     0.293 HD
ENDBRANCH   2  20
BRANCH   6  22
ATOM     22  O   UNL     1     -12.976  40.215  18.633  1.00  0.00    -0.507 OA
ATOM     23  H   UNL     1     -13.976  40.242  18.506  1.00  0.00     0.293 HD
ENDBRANCH   6  22
BRANCH   8  24
ATOM     24  O   UNL     1     -12.206  40.104  13.911  1.00  0.00    -0.508 OA
ATOM     25  H   UNL     1     -13.201  39.987  13.756  1.00  0.00     0.293 HD
ENDBRANCH   8  24
TORSDOF 5
ENDMDL
MODEL 8
REMARK VINA RESULT:    -2.917     22.954     24.263
REMARK INTER + INTRA:          -3.428
REMARK INTER:                  -3.734
REMARK INTRA:                   0.307
REMARK UNBOUND:                 0.001
REMARK SMILES O=c1c(O)c(-c2ccc(O)cc2)oc2cc(O)cc(O)c12
REMARK SMILES IDX 5 1 3 2 2 3 1 4 21 5 19 6 18 7 16 8 15 9 14 10 13 11 6 12
REMARK SMILES IDX 7 13 8 14 9 15 12 16 11 17 10 18 4 20 20 22 17 24
REMARK H PARENT 10 19 4 21 20 23 17 25
REMARK Flexibility Score: inf
ROOT
ATOM      1  C   UNL     1      -6.923  40.407  18.504  1.00  0.00     0.180 A 
ATOM      2  C   UNL     1      -7.566  40.695  17.288  1.00  0.00     0.208 A 
ATOM      3  C   UNL     1      -8.955  40.509  17.190  1.00  0.00     0.238 A 
ATOM      4  O   UNL     1      -9.516  40.717  16.083  1.00  0.00    -0.285 OA
ATOM      5  C   UNL     1      -9.684  40.052  18.313  1.00  0.00     0.111 A 
ATOM      6  C   UNL     1     -11.099  39.866  18.339  1.00  0.00     0.134 A 
ATOM      7  C   UNL     1     -11.699  39.285  19.463  1.00  0.00     0.093 A 
ATOM      8  C   UNL     1     -10.946  38.944  20.586  1.00  0.00     0.123 A 
ATOM      9  C   UNL     1      -9.570  39.176  20.595  1.00  0.00     0.094 A 
ATOM     10  C   UNL     1      -8.938  39.720  19.474  1.00  0.00     0.146 A 
ATOM     11  O   UNL     1      -7.626  39.917  19.519  1.00  0.00    -0.452 OA
ENDROOT
BRANCH   1  12
ATOM     12  C   UNL     1      -5.468  40.602  18.692  1.00  0.00     0.021 A 
ATOM     13  C   UNL     1      -4.932  40.969  19.940  1.00  0.00     0.016 A 
ATOM     14  C   UNL     1      -3.552  41.123  20.099  1.00  0.00     0.047 A 
ATOM     15  C   UNL     1      -2.689  40.903  19.021  1.00  0.00     0.115 A 
ATOM     16  C   UNL     1      -4.593  40.360  17.618  1.00  0.00     0.016 A 
ATOM     17  C   UNL     1      -3.213  40.517  17.780  1.00  0.00     0.047 A 
BRANCH  15  18
ATOM     18  O   UNL     1      -1.316  41.062  19.194  1.00  0.00    -0.508 OA
ATOM     19  H   UNL     1      -0.733  40.304  19.531  1.00  0.00     0.293 HD
ENDBRANCH  15  18
ENDBRANCH   1  12
BRANCH   2  20
ATOM     20  O   UNL     1      -6.823  41.124  16.184  1.00  0.00    -0.502 OA
ATOM     21  H   UNL     1      -7.257  41.445  15.328  1.00  0.00     0.293 HD
ENDBRANCH   2  20
BRANCH   6  22
ATOM     22  O   UNL     1     -11.957  40.257  17.306  1.00  0.00    -0.507 OA
ATOM     23  H   UNL     1     -11.681  40.372  16.343  1.00  0.00     0.293 HD
ENDBRANCH   6  22
BRANCH   8  24
ATOM     24  O   UNL     1     -11.579  38.382  21.693  1.00  0.00    -0.508 OA
ATOM     25  H   UNL     1     -11.050  38.016  22.476  1.00  0.00     0.293 HD
ENDBRANCH   8  24
TORSDOF 5
ENDMDL
