MODEL 1
REMARK VINA RESULT:    -7.322      0.000      0.000
REMARK INTER + INTRA:          -8.922
REMARK INTER:                  -8.606
REMARK INTRA:                  -0.316
REMARK UNBOUND:                -0.316
REMARK SMILES O=c1cc(-c2ccc(O)c(O)c2)oc2cc(O)cc(O)c12
REMARK SMILES IDX 4 1 3 2 2 3 1 4 21 5 19 6 18 7 16 8 15 9 14 10 13 11 5 12
REMARK SMILES IDX 6 13 7 14 8 15 12 16 10 17 9 18 11 20 20 22 17 24
REMARK H PARENT 9 19 11 21 20 23 17 25
REMARK Flexibility Score: inf
ROOT
ATOM      1  C   UNL     1     -23.571 -49.919 102.924  1.00  0.00     0.138 A 
ATOM      2  C   UNL     1     -23.566 -49.323 104.194  1.00  0.00     0.100 A 
ATOM      3  C   UNL     1     -22.988 -48.065 104.364  1.00  0.00     0.197 A 
ATOM      4  O   UNL     1     -23.053 -47.530 105.501  1.00  0.00    -0.289 OA
ATOM      5  C   UNL     1     -22.385 -47.413 103.261  1.00  0.00     0.107 A 
ATOM      6  C   UNL     1     -21.731 -46.147 103.325  1.00  0.00     0.134 A 
ATOM      7  C   UNL     1     -21.273 -45.546 102.145  1.00  0.00     0.093 A 
ATOM      8  C   UNL     1     -21.393 -46.194 100.913  1.00  0.00     0.123 A 
ATOM      9  C   UNL     1     -21.982 -47.455 100.848  1.00  0.00     0.094 A 
ATOM     10  C   UNL     1     -22.480 -48.064 102.003  1.00  0.00     0.146 A 
ATOM     11  O   UNL     1     -23.048 -49.261 101.895  1.00  0.00    -0.456 OA
ENDROOT
BRANCH   1  12
ATOM     12  C   UNL     1     -24.171 -51.256 102.687  1.00  0.00     0.021 A 
ATOM     13  C   UNL     1     -24.932 -51.862 103.704  1.00  0.00     0.016 A 
ATOM     14  C   UNL     1     -25.514 -53.117 103.503  1.00  0.00     0.051 A 
ATOM     15  C   UNL     1     -25.354 -53.782 102.281  1.00  0.00     0.157 A 
ATOM     16  C   UNL     1     -24.026 -51.925 101.457  1.00  0.00     0.062 A 
ATOM     17  C   UNL     1     -24.612 -53.184 101.255  1.00  0.00     0.158 A 
BRANCH  15  18
ATOM     18  O   UNL     1     -25.932 -55.033 102.077  1.00  0.00    -0.504 OA
ATOM     19  H   UNL     1     -26.199 -55.626 102.855  1.00  0.00     0.293 HD
ENDBRANCH  15  18
BRANCH  17  20
ATOM     20  O   UNL     1     -24.464 -53.843 100.037  1.00  0.00    -0.504 OA
ATOM     21  H   UNL     1     -23.643 -54.399  99.831  1.00  0.00     0.293 HD
ENDBRANCH  17  20
ENDBRANCH   1  12
BRANCH   6  22
ATOM     22  O   UNL     1     -21.483 -45.454 104.514  1.00  0.00    -0.507 OA
ATOM     23  H   UNL     1     -22.119 -44.798 104.941  1.00  0.00     0.293 HD
ENDBRANCH   6  22
BRANCH   8  24
ATOM     24  O   UNL     1     -20.921 -45.596  99.747  1.00  0.00    -0.508 OA
ATOM     25  H   UNL     1     -20.985 -46.062  98.849  1.00  0.00     0.293 HD
ENDBRANCH   8  24
TORSDOF 5
ENDMDL
MODEL 2
REMARK VINA RESULT:    -7.004      4.357      7.074
REMARK INTER + INTRA:          -8.548
REMARK INTER:                  -8.259
REMARK INTRA:                  -0.289
REMARK UNBOUND:                -0.316
REMARK SMILES O=c1cc(-c2ccc(O)c(O)c2)oc2cc(O)cc(O)c12
REMARK SMILES IDX 4 1 3 2 2 3 1 4 21 5 19 6 18 7 16 8 15 9 14 10 13 11 5 12
REMARK SMILES IDX 6 13 7 14 8 15 12 16 10 17 9 18 11 20 20 22 17 24
REMARK H PARENT 9 19 11 21 20 23 17 25
REMARK Flexibility Score: inf
ROOT
ATOM      1  C   UNL     1     -20.171 -47.161 104.498  1.00  0.00     0.138 A 
ATOM      2  C   UNL     1     -18.931 -46.775 105.027  1.00  0.00     0.100 A 
ATOM      3  C   UNL     1     -18.495 -47.320 106.235  1.00  0.00     0.197 A 
ATOM      4  O   UNL     1     -17.351 -47.001 106.652  1.00  0.00    -0.289 OA
ATOM      5  C   UNL     1     -19.321 -48.234 106.932  1.00  0.00     0.107 A 
ATOM      6  C   UNL     1     -18.997 -48.823 108.191  1.00  0.00     0.134 A 
ATOM      7  C   UNL     1     -19.839 -49.804 108.730  1.00  0.00     0.093 A 
ATOM      8  C   UNL     1     -21.022 -50.172 108.085  1.00  0.00     0.123 A 
ATOM      9  C   UNL     1     -21.373 -49.564 106.882  1.00  0.00     0.094 A 
ATOM     10  C   UNL     1     -20.537 -48.608 106.302  1.00  0.00     0.146 A 
ATOM     11  O   UNL     1     -20.901 -48.062 105.146  1.00  0.00    -0.456 OA
ENDROOT
BRANCH   1  12
ATOM     12  C   UNL     1     -20.683 -46.611 103.218  1.00  0.00     0.021 A 
ATOM     13  C   UNL     1     -20.647 -45.222 102.998  1.00  0.00     0.016 A 
ATOM     14  C   UNL     1     -21.116 -44.681 101.798  1.00  0.00     0.051 A 
ATOM     15  C   UNL     1     -21.619 -45.518 100.795  1.00  0.00     0.157 A 
ATOM     16  C   UNL     1     -21.179 -47.447 102.199  1.00  0.00     0.062 A 
ATOM     17  C   UNL     1     -21.648 -46.904 100.994  1.00  0.00     0.158 A 
BRANCH  15  18
ATOM     18  O   UNL     1     -22.089 -44.982  99.597  1.00  0.00    -0.504 OA
ATOM     19  H   UNL     1     -21.458 -44.586  98.910  1.00  0.00     0.293 HD
ENDBRANCH  15  18
BRANCH  17  20
ATOM     20  O   UNL     1     -22.139 -47.734  99.989  1.00  0.00    -0.504 OA
ATOM     21  H   UNL     1     -23.132 -47.803  99.796  1.00  0.00     0.293 HD
ENDBRANCH  17  20
ENDBRANCH   1  12
BRANCH   6  22
ATOM     22  O   UNL     1     -17.885 -48.465 108.959  1.00  0.00    -0.507 OA
ATOM     23  H   UNL     1     -17.088 -47.951 108.615  1.00  0.00     0.293 HD
ENDBRANCH   6  22
BRANCH   8  24
ATOM     24  O   UNL     1     -21.861 -51.138 108.637  1.00  0.00    -0.508 OA
ATOM     25  H   UNL     1     -22.052 -51.168 109.633  1.00  0.00     0.293 HD
ENDBRANCH   8  24
TORSDOF 5
ENDMDL
MODEL 3
REMARK VINA RESULT:    -6.915      4.552      5.839
REMARK INTER + INTRA:          -8.444
REMARK INTER:                  -8.152
REMARK INTRA:                  -0.292
REMARK UNBOUND:                -0.316
REMARK SMILES O=c1cc(-c2ccc(O)c(O)c2)oc2cc(O)cc(O)c12
REMARK SMILES IDX 4 1 3 2 2 3 1 4 21 5 19 6 18 7 16 8 15 9 14 10 13 11 5 12
REMARK SMILES IDX 6 13 7 14 8 15 12 16 10 17 9 18 11 20 20 22 17 24
REMARK H PARENT 9 19 11 21 20 23 17 25
REMARK Flexibility Score: inf
ROOT
ATOM      1  C   UNL     1     -20.629 -47.650 105.263  1.00  0.00     0.138 A 
ATOM      2  C   UNL     1     -21.917 -47.480 104.738  1.00  0.00     0.100 A 
ATOM      3  C   UNL     1     -22.104 -46.672 103.616  1.00  0.00     0.197 A 
ATOM      4  O   UNL     1     -23.262 -46.587 103.130  1.00  0.00    -0.289 OA
ATOM      5  C   UNL     1     -20.997 -46.006 103.036  1.00  0.00     0.107 A 
ATOM      6  C   UNL     1     -21.075 -45.126 101.916  1.00  0.00     0.134 A 
ATOM      7  C   UNL     1     -19.896 -44.616 101.357  1.00  0.00     0.093 A 
ATOM      8  C   UNL     1     -18.649 -44.906 101.915  1.00  0.00     0.123 A 
ATOM      9  C   UNL     1     -18.568 -45.722 103.041  1.00  0.00     0.094 A 
ATOM     10  C   UNL     1     -19.722 -46.274 103.601  1.00  0.00     0.146 A 
ATOM     11  O   UNL     1     -19.600 -47.058 104.667  1.00  0.00    -0.456 OA
ENDROOT
BRANCH   1  12
ATOM     12  C   UNL     1     -20.374 -48.497 106.456  1.00  0.00     0.021 A 
ATOM     13  C   UNL     1     -19.195 -48.308 107.199  1.00  0.00     0.016 A 
ATOM     14  C   UNL     1     -18.935 -49.087 108.330  1.00  0.00     0.051 A 
ATOM     15  C   UNL     1     -19.853 -50.061 108.741  1.00  0.00     0.157 A 
ATOM     16  C   UNL     1     -21.297 -49.470 106.884  1.00  0.00     0.062 A 
ATOM     17  C   UNL     1     -21.037 -50.251 108.019  1.00  0.00     0.158 A 
BRANCH  15  18
ATOM     18  O   UNL     1     -19.597 -50.841 109.868  1.00  0.00    -0.504 OA
ATOM     19  H   UNL     1     -20.259 -51.537 110.192  1.00  0.00     0.293 HD
ENDBRANCH  15  18
BRANCH  17  20
ATOM     20  O   UNL     1     -21.953 -51.214 108.439  1.00  0.00    -0.504 OA
ATOM     21  H   UNL     1     -22.762 -51.456 107.879  1.00  0.00     0.293 HD
ENDBRANCH  17  20
ENDBRANCH   1  12
BRANCH   6  22
ATOM     22  O   UNL     1     -22.275 -44.704 101.335  1.00  0.00    -0.507 OA
ATOM     23  H   UNL     1     -22.938 -44.082 101.770  1.00  0.00     0.293 HD
ENDBRANCH   6  22
BRANCH   8  24
ATOM     24  O   UNL     1     -17.483 -44.382 101.361  1.00  0.00    -0.508 OA
ATOM     25  H   UNL     1     -17.468 -44.003 100.420  1.00  0.00     0.293 HD
ENDBRANCH   8  24
TORSDOF 5
ENDMDL
MODEL 4
REMARK VINA RESULT:    -6.717      1.994      3.605
REMARK INTER + INTRA:          -8.211
REMARK INTER:                  -7.921
REMARK INTRA:                  -0.289
REMARK UNBOUND:                -0.316
REMARK SMILES O=c1cc(-c2ccc(O)c(O)c2)oc2cc(O)cc(O)c12
REMARK SMILES IDX 4 1 3 2 2 3 1 4 21 5 19 6 18 7 16 8 15 9 14 10 13 11 5 12
REMARK SMILES IDX 6 13 7 14 8 15 12 16 10 17 9 18 11 20 20 22 17 24
REMARK H PARENT 9 19 11 21 20 23 17 25
REMARK Flexibility Score: inf
ROOT
ATOM      1  C   UNL     1     -23.644 -50.840 103.431  1.00  0.00     0.138 A 
ATOM      2  C   UNL     1     -23.497 -49.833 102.466  1.00  0.00     0.100 A 
ATOM      3  C   UNL     1     -22.653 -48.751 102.720  1.00  0.00     0.197 A 
ATOM      4  O   UNL     1     -22.494 -47.896 101.811  1.00  0.00    -0.289 OA
ATOM      5  C   UNL     1     -21.975 -48.664 103.960  1.00  0.00     0.107 A 
ATOM      6  C   UNL     1     -21.121 -47.587 104.343  1.00  0.00     0.134 A 
ATOM      7  C   UNL     1     -20.412 -47.665 105.549  1.00  0.00     0.093 A 
ATOM      8  C   UNL     1     -20.574 -48.753 106.411  1.00  0.00     0.123 A 
ATOM      9  C   UNL     1     -21.447 -49.783 106.070  1.00  0.00     0.094 A 
ATOM     10  C   UNL     1     -22.142 -49.751 104.858  1.00  0.00     0.146 A 
ATOM     11  O   UNL     1     -22.954 -50.761 104.564  1.00  0.00    -0.456 OA
ENDROOT
BRANCH   1  12
ATOM     12  C   UNL     1     -24.530 -52.011 103.214  1.00  0.00     0.021 A 
ATOM     13  C   UNL     1     -24.450 -52.724 102.003  1.00  0.00     0.016 A 
ATOM     14  C   UNL     1     -25.267 -53.834 101.777  1.00  0.00     0.051 A 
ATOM     15  C   UNL     1     -26.170 -54.257 102.760  1.00  0.00     0.157 A 
ATOM     16  C   UNL     1     -25.432 -52.451 104.202  1.00  0.00     0.062 A 
ATOM     17  C   UNL     1     -26.251 -53.567 103.976  1.00  0.00     0.158 A 
BRANCH  15  18
ATOM     18  O   UNL     1     -26.988 -55.364 102.538  1.00  0.00    -0.504 OA
ATOM     19  H   UNL     1     -26.639 -56.196 102.076  1.00  0.00     0.293 HD
ENDBRANCH  15  18
BRANCH  17  20
ATOM     20  O   UNL     1     -27.143 -53.997 104.955  1.00  0.00    -0.504 OA
ATOM     21  H   UNL     1     -27.165 -54.962 105.265  1.00  0.00     0.293 HD
ENDBRANCH  17  20
ENDBRANCH   1  12
BRANCH   6  22
ATOM     22  O   UNL     1     -20.954 -46.417 103.597  1.00  0.00    -0.507 OA
ATOM     23  H   UNL     1     -20.075 -46.093 103.223  1.00  0.00     0.293 HD
ENDBRANCH   6  22
BRANCH   8  24
ATOM     24  O   UNL     1     -19.877 -48.814 107.615  1.00  0.00    -0.508 OA
ATOM     25  H   UNL     1     -18.932 -48.455 107.700  1.00  0.00     0.293 HD
ENDBRANCH   8  24
TORSDOF 5
ENDMDL
MODEL 5
REMARK VINA RESULT:    -6.648      4.018      5.790
REMARK INTER + INTRA:          -8.130
REMARK INTER:                  -7.825
REMARK INTRA:                  -0.305
REMARK UNBOUND:                -0.316
REMARK SMILES O=c1cc(-c2ccc(O)c(O)c2)oc2cc(O)cc(O)c12
REMARK SMILES IDX 4 1 3 2 2 3 1 4 21 5 19 6 18 7 16 8 15 9 14 10 13 11 5 12
REMARK SMILES IDX 6 13 7 14 8 15 12 16 10 17 9 18 11 20 20 22 17 24
REMARK H PARENT 9 19 11 21 20 23 17 25
REMARK Flexibility Score: inf
ROOT
ATOM      1  C   UNL     1     -20.957 -47.524 104.433  1.00  0.00     0.138 A 
ATOM      2  C   UNL     1     -21.598 -48.002 103.281  1.00  0.00     0.100 A 
ATOM      3  C   UNL     1     -21.748 -47.164 102.176  1.00  0.00     0.197 A 
ATOM      4  O   UNL     1     -22.272 -47.641 101.136  1.00  0.00    -0.289 OA
ATOM      5  C   UNL     1     -21.278 -45.830 102.236  1.00  0.00     0.107 A 
ATOM      6  C   UNL     1     -21.412 -44.875 101.185  1.00  0.00     0.134 A 
ATOM      7  C   UNL     1     -20.805 -43.619 101.314  1.00  0.00     0.093 A 
ATOM      8  C   UNL     1     -20.122 -43.264 102.479  1.00  0.00     0.123 A 
ATOM      9  C   UNL     1     -20.033 -44.171 103.532  1.00  0.00     0.094 A 
ATOM     10  C   UNL     1     -20.597 -45.444 103.421  1.00  0.00     0.146 A 
ATOM     11  O   UNL     1     -20.477 -46.285 104.443  1.00  0.00    -0.456 OA
ENDROOT
BRANCH   1  12
ATOM     12  C   UNL     1     -20.772 -48.372 105.638  1.00  0.00     0.021 A 
ATOM     13  C   UNL     1     -21.722 -49.366 105.935  1.00  0.00     0.016 A 
ATOM     14  C   UNL     1     -21.567 -50.182 107.059  1.00  0.00     0.051 A 
ATOM     15  C   UNL     1     -20.456 -50.026 107.897  1.00  0.00     0.157 A 
ATOM     16  C   UNL     1     -19.652 -48.229 106.479  1.00  0.00     0.062 A 
ATOM     17  C   UNL     1     -19.496 -49.050 107.605  1.00  0.00     0.158 A 
BRANCH  15  18
ATOM     18  O   UNL     1     -20.299 -50.837 109.019  1.00  0.00    -0.504 OA
ATOM     19  H   UNL     1     -20.680 -51.776 109.052  1.00  0.00     0.293 HD
ENDBRANCH  15  18
BRANCH  17  20
ATOM     20  O   UNL     1     -18.387 -48.905 108.436  1.00  0.00    -0.504 OA
ATOM     21  H   UNL     1     -17.993 -47.994 108.640  1.00  0.00     0.293 HD
ENDBRANCH  17  20
ENDBRANCH   1  12
BRANCH   6  22
ATOM     22  O   UNL     1     -22.144 -45.096 100.015  1.00  0.00    -0.507 OA
ATOM     23  H   UNL     1     -21.742 -45.225  99.099  1.00  0.00     0.293 HD
ENDBRANCH   6  22
BRANCH   8  24
ATOM     24  O   UNL     1     -19.535 -42.007 102.604  1.00  0.00    -0.508 OA
ATOM     25  H   UNL     1     -20.052 -41.214 102.969  1.00  0.00     0.293 HD
ENDBRANCH   8  24
TORSDOF 5
ENDMDL
MODEL 6
REMARK VINA RESULT:    -6.603      4.494      5.756
REMARK INTER + INTRA:          -8.078
REMARK INTER:                  -7.781
REMARK INTRA:                  -0.297
REMARK UNBOUND:                -0.316
REMARK SMILES O=c1cc(-c2ccc(O)c(O)c2)oc2cc(O)cc(O)c12
REMARK SMILES IDX 4 1 3 2 2 3 1 4 21 5 19 6 18 7 16 8 15 9 14 10 13 11 5 12
REMARK SMILES IDX 6 13 7 14 8 15 12 16 10 17 9 18 11 20 20 22 17 24
REMARK H PARENT 9 19 11 21 20 23 17 25
REMARK Flexibility Score: inf
ROOT
ATOM      1  C   UNL     1     -19.932 -47.317 104.555  1.00  0.00     0.138 A 
ATOM      2  C   UNL     1     -18.644 -46.765 104.531  1.00  0.00     0.100 A 
ATOM      3  C   UNL     1     -18.279 -45.907 103.492  1.00  0.00     0.197 A 
ATOM      4  O   UNL     1     -17.138 -45.380 103.530  1.00  0.00    -0.289 OA
ATOM      5  C   UNL     1     -19.203 -45.626 102.457  1.00  0.00     0.107 A 
ATOM      6  C   UNL     1     -18.927 -44.798 101.327  1.00  0.00     0.134 A 
ATOM      7  C   UNL     1     -19.957 -44.497 100.426  1.00  0.00     0.093 A 
ATOM      8  C   UNL     1     -21.233 -45.043 100.582  1.00  0.00     0.123 A 
ATOM      9  C   UNL     1     -21.497 -45.895 101.651  1.00  0.00     0.094 A 
ATOM     10  C   UNL     1     -20.501 -46.186 102.586  1.00  0.00     0.146 A 
ATOM     11  O   UNL     1     -20.797 -46.992 103.601  1.00  0.00    -0.456 OA
ENDROOT
BRANCH   1  12
ATOM     12  C   UNL     1     -20.371 -48.236 105.636  1.00  0.00     0.021 A 
ATOM     13  C   UNL     1     -21.692 -48.720 105.638  1.00  0.00     0.016 A 
ATOM     14  C   UNL     1     -22.128 -49.592 106.639  1.00  0.00     0.051 A 
ATOM     15  C   UNL     1     -21.249 -50.003 107.648  1.00  0.00     0.157 A 
ATOM     16  C   UNL     1     -19.490 -48.665 106.647  1.00  0.00     0.062 A 
ATOM     17  C   UNL     1     -19.927 -49.541 107.651  1.00  0.00     0.158 A 
BRANCH  15  18
ATOM     18  O   UNL     1     -21.680 -50.872 108.649  1.00  0.00    -0.504 OA
ATOM     19  H   UNL     1     -21.745 -51.871 108.492  1.00  0.00     0.293 HD
ENDBRANCH  15  18
BRANCH  17  20
ATOM     20  O   UNL     1     -19.052 -49.962 108.650  1.00  0.00    -0.504 OA
ATOM     21  H   UNL     1     -18.099 -49.623 108.698  1.00  0.00     0.293 HD
ENDBRANCH  17  20
ENDBRANCH   1  12
BRANCH   6  22
ATOM     22  O   UNL     1     -17.667 -44.271 101.032  1.00  0.00    -0.507 OA
ATOM     23  H   UNL     1     -17.357 -43.344 101.281  1.00  0.00     0.293 HD
ENDBRANCH   6  22
BRANCH   8  24
ATOM     24  O   UNL     1     -22.247 -44.749  99.671  1.00  0.00    -0.508 OA
ATOM     25  H   UNL     1     -22.910 -45.456  99.370  1.00  0.00     0.293 HD
ENDBRANCH   8  24
TORSDOF 5
ENDMDL
MODEL 7
REMARK VINA RESULT:    -6.581      1.950      3.194
REMARK INTER + INTRA:          -8.052
REMARK INTER:                  -7.780
REMARK INTRA:                  -0.272
REMARK UNBOUND:                -0.316
REMARK SMILES O=c1cc(-c2ccc(O)c(O)c2)oc2cc(O)cc(O)c12
REMARK SMILES IDX 4 1 3 2 2 3 1 4 21 5 19 6 18 7 16 8 15 9 14 10 13 11 5 12
REMARK SMILES IDX 6 13 7 14 8 15 12 16 10 17 9 18 11 20 20 22 17 24
REMARK H PARENT 9 19 11 21 20 23 17 25
REMARK Flexibility Score: inf
ROOT
ATOM      1  C   UNL     1     -23.293 -50.442 103.476  1.00  0.00     0.138 A 
ATOM      2  C   UNL     1     -23.224 -49.321 102.637  1.00  0.00     0.100 A 
ATOM      3  C   UNL     1     -22.422 -48.237 102.997  1.00  0.00     0.197 A 
ATOM      4  O   UNL     1     -22.332 -47.272 102.195  1.00  0.00    -0.289 OA
ATOM      5  C   UNL     1     -21.709 -48.266 104.220  1.00  0.00     0.107 A 
ATOM      6  C   UNL     1     -20.893 -47.202 104.708  1.00  0.00     0.134 A 
ATOM      7  C   UNL     1     -20.143 -47.389 105.876  1.00  0.00     0.093 A 
ATOM      8  C   UNL     1     -20.226 -48.579 106.604  1.00  0.00     0.123 A 
ATOM      9  C   UNL     1     -21.062 -49.603 106.163  1.00  0.00     0.094 A 
ATOM     10  C   UNL     1     -21.796 -49.460 104.984  1.00  0.00     0.146 A 
ATOM     11  O   UNL     1     -22.570 -50.466 104.591  1.00  0.00    -0.456 OA
ENDROOT
BRANCH   1  12
ATOM     12  C   UNL     1     -24.131 -51.622 103.142  1.00  0.00     0.021 A 
ATOM     13  C   UNL     1     -25.061 -52.098 104.083  1.00  0.00     0.016 A 
ATOM     14  C   UNL     1     -25.866 -53.201 103.790  1.00  0.00     0.051 A 
ATOM     15  C   UNL     1     -25.763 -53.841 102.548  1.00  0.00     0.157 A 
ATOM     16  C   UNL     1     -24.043 -52.262 101.891  1.00  0.00     0.062 A 
ATOM     17  C   UNL     1     -24.853 -53.368 101.596  1.00  0.00     0.158 A 
BRANCH  15  18
ATOM     18  O   UNL     1     -26.565 -54.942 102.253  1.00  0.00    -0.504 OA
ATOM     19  H   UNL     1     -26.168 -55.808 101.907  1.00  0.00     0.293 HD
ENDBRANCH  15  18
BRANCH  17  20
ATOM     20  O   UNL     1     -24.761 -54.000 100.357  1.00  0.00    -0.504 OA
ATOM     21  H   UNL     1     -24.270 -53.575  99.580  1.00  0.00     0.293 HD
ENDBRANCH  17  20
ENDBRANCH   1  12
BRANCH   6  22
ATOM     22  O   UNL     1     -20.804 -45.944 104.105  1.00  0.00    -0.507 OA
ATOM     23  H   UNL     1     -19.980 -45.581 103.650  1.00  0.00     0.293 HD
ENDBRANCH   6  22
BRANCH   8  24
ATOM     24  O   UNL     1     -19.487 -48.750 107.772  1.00  0.00    -0.508 OA
ATOM     25  H   UNL     1     -19.693 -48.219 108.612  1.00  0.00     0.293 HD
ENDBRANCH   8  24
TORSDOF 5
ENDMDL
MODEL 8
REMARK VINA RESULT:    -6.563      2.300      7.115
REMARK INTER + INTRA:          -8.030
REMARK INTER:                  -7.716
REMARK INTRA:                  -0.315
REMARK UNBOUND:                -0.316
REMARK SMILES O=c1cc(-c2ccc(O)c(O)c2)oc2cc(O)cc(O)c12
REMARK SMILES IDX 4 1 3 2 2 3 1 4 21 5 19 6 18 7 16 8 15 9 14 10 13 11 5 12
REMARK SMILES IDX 6 13 7 14 8 15 12 16 10 17 9 18 11 20 20 22 17 24
REMARK H PARENT 9 19 11 21 20 23 17 25
REMARK Flexibility Score: inf
ROOT
ATOM      1  C   UNL     1     -21.424 -46.557 102.637  1.00  0.00     0.138 A 
ATOM      2  C   UNL     1     -20.683 -46.662 103.824  1.00  0.00     0.100 A 
ATOM      3  C   UNL     1     -20.869 -47.765 104.658  1.00  0.00     0.197 A 
ATOM      4  O   UNL     1     -20.146 -47.862 105.683  1.00  0.00    -0.289 OA
ATOM      5  C   UNL     1     -21.823 -48.753 104.316  1.00  0.00     0.107 A 
ATOM      6  C   UNL     1     -22.125 -49.899 105.111  1.00  0.00     0.134 A 
ATOM      7  C   UNL     1     -23.005 -50.870 104.614  1.00  0.00     0.093 A 
ATOM      8  C   UNL     1     -23.639 -50.705 103.380  1.00  0.00     0.123 A 
ATOM      9  C   UNL     1     -23.391 -49.563 102.622  1.00  0.00     0.094 A 
ATOM     10  C   UNL     1     -22.492 -48.594 103.074  1.00  0.00     0.146 A 
ATOM     11  O   UNL     1     -22.273 -47.526 102.313  1.00  0.00    -0.456 OA
ENDROOT
BRANCH   1  12
ATOM     12  C   UNL     1     -21.267 -45.405 101.714  1.00  0.00     0.021 A 
ATOM     13  C   UNL     1     -20.596 -44.251 102.157  1.00  0.00     0.016 A 
ATOM     14  C   UNL     1     -20.429 -43.156 101.305  1.00  0.00     0.051 A 
ATOM     15  C   UNL     1     -20.920 -43.200  99.995  1.00  0.00     0.157 A 
ATOM     16  C   UNL     1     -21.747 -45.446 100.391  1.00  0.00     0.062 A 
ATOM     17  C   UNL     1     -21.577 -44.347  99.536  1.00  0.00     0.158 A 
BRANCH  15  18
ATOM     18  O   UNL     1     -20.756 -42.109  99.143  1.00  0.00    -0.504 OA
ATOM     19  H   UNL     1     -19.905 -41.977  98.608  1.00  0.00     0.293 HD
ENDBRANCH  15  18
BRANCH  17  20
ATOM     20  O   UNL     1     -22.055 -44.391  98.228  1.00  0.00    -0.504 OA
ATOM     21  H   UNL     1     -21.570 -44.907  97.503  1.00  0.00     0.293 HD
ENDBRANCH  17  20
ENDBRANCH   1  12
BRANCH   6  22
ATOM     22  O   UNL     1     -21.613 -50.119 106.393  1.00  0.00    -0.507 OA
ATOM     23  H   UNL     1     -21.107 -50.943 106.677  1.00  0.00     0.293 HD
ENDBRANCH   6  22
BRANCH   8  24
ATOM     24  O   UNL     1     -24.524 -51.668 102.902  1.00  0.00    -0.508 OA
ATOM     25  H   UNL     1     -24.346 -52.659 103.025  1.00  0.00     0.293 HD
ENDBRANCH   8  24
TORSDOF 5
ENDMDL
MODEL 9
REMARK VINA RESULT:    -6.459      3.574      7.276
REMARK INTER + INTRA:          -7.908
REMARK INTER:                  -7.645
REMARK INTRA:                  -0.264
REMARK UNBOUND:                -0.316
REMARK SMILES O=c1cc(-c2ccc(O)c(O)c2)oc2cc(O)cc(O)c12
REMARK SMILES IDX 4 1 3 2 2 3 1 4 21 5 19 6 18 7 16 8 15 9 14 10 13 11 5 12
REMARK SMILES IDX 6 13 7 14 8 15 12 16 10 17 9 18 11 20 20 22 17 24
REMARK H PARENT 9 19 11 21 20 23 17 25
REMARK Flexibility Score: inf
ROOT
ATOM      1  C   UNL     1     -20.871 -47.908 103.908  1.00  0.00     0.138 A 
ATOM      2  C   UNL     1     -21.903 -48.857 103.885  1.00  0.00     0.100 A 
ATOM      3  C   UNL     1     -22.065 -49.726 104.965  1.00  0.00     0.197 A 
ATOM      4  O   UNL     1     -23.037 -50.526 104.943  1.00  0.00    -0.289 OA
ATOM      5  C   UNL     1     -21.170 -49.663 106.059  1.00  0.00     0.107 A 
ATOM      6  C   UNL     1     -21.215 -50.526 107.195  1.00  0.00     0.134 A 
ATOM      7  C   UNL     1     -20.348 -50.294 108.271  1.00  0.00     0.093 A 
ATOM      8  C   UNL     1     -19.400 -49.270 108.225  1.00  0.00     0.123 A 
ATOM      9  C   UNL     1     -19.313 -48.456 107.098  1.00  0.00     0.094 A 
ATOM     10  C   UNL     1     -20.186 -48.640 106.023  1.00  0.00     0.146 A 
ATOM     11  O   UNL     1     -20.079 -47.833 104.972  1.00  0.00    -0.456 OA
ENDROOT
BRANCH   1  12
ATOM     12  C   UNL     1     -20.653 -46.960 102.786  1.00  0.00     0.021 A 
ATOM     13  C   UNL     1     -19.557 -47.148 101.925  1.00  0.00     0.016 A 
ATOM     14  C   UNL     1     -19.334 -46.275 100.858  1.00  0.00     0.051 A 
ATOM     15  C   UNL     1     -20.207 -45.204 100.627  1.00  0.00     0.157 A 
ATOM     16  C   UNL     1     -21.534 -45.889 102.540  1.00  0.00     0.062 A 
ATOM     17  C   UNL     1     -21.311 -45.013 101.467  1.00  0.00     0.158 A 
BRANCH  15  18
ATOM     18  O   UNL     1     -19.988 -44.330  99.564  1.00  0.00    -0.504 OA
ATOM     19  H   UNL     1     -20.744 -44.028  98.961  1.00  0.00     0.293 HD
ENDBRANCH  15  18
BRANCH  17  20
ATOM     20  O   UNL     1     -22.184 -43.954 101.228  1.00  0.00    -0.504 OA
ATOM     21  H   UNL     1     -23.095 -43.908 101.668  1.00  0.00     0.293 HD
ENDBRANCH  17  20
ENDBRANCH   1  12
BRANCH   6  22
ATOM     22  O   UNL     1     -22.065 -51.630 107.306  1.00  0.00    -0.507 OA
ATOM     23  H   UNL     1     -22.237 -52.141 108.158  1.00  0.00     0.293 HD
ENDBRANCH   6  22
BRANCH   8  24
ATOM     24  O   UNL     1     -18.532 -49.057 109.294  1.00  0.00    -0.508 OA
ATOM     25  H   UNL     1     -17.633 -48.605 109.165  1.00  0.00     0.293 HD
ENDBRANCH   8  24
TORSDOF 5
ENDMDL
