MODEL 1
REMARK VINA RESULT:    -6.234      0.000      0.000
REMARK INTER + INTRA:          -6.416
REMARK INTER:                  -6.416
REMARK INTRA:                   0.000
REMARK UNBOUND:                 0.000
REMARK SMILES O=c1ccc2ccc(O)cc2o1
REMARK SMILES IDX 6 1 7 2 8 3 10 4 11 5 5 6 4 7 3 8 2 9 1 10 12 11 9 12
REMARK H PARENT 9 13
REMARK Flexibility Score: inf
ROOT
ATOM      1  C   UNL     1     -15.125   1.460  -9.623  1.00  0.00     0.016 A 
ATOM      2  C   UNL     1     -15.086   2.757  -9.101  1.00  0.00     0.047 A 
ATOM      3  C   UNL     1     -13.866   3.333  -8.725  1.00  0.00     0.119 A 
ATOM      4  C   UNL     1     -12.675   2.607  -8.874  1.00  0.00     0.094 A 
ATOM      5  C   UNL     1     -12.703   1.309  -9.396  1.00  0.00     0.142 A 
ATOM      6  C   UNL     1     -13.936   0.732  -9.773  1.00  0.00     0.018 A 
ATOM      7  C   UNL     1     -13.933  -0.567 -10.292  1.00  0.00     0.019 A 
ATOM      8  C   UNL     1     -12.723  -1.249 -10.421  1.00  0.00     0.094 A 
ATOM      9  C   UNL     1     -11.541  -0.613 -10.027  1.00  0.00     0.336 A 
ATOM     10  O   UNL     1     -10.440  -1.213 -10.136  1.00  0.00    -0.246 OA
ATOM     11  O   UNL     1     -11.572   0.623  -9.536  1.00  0.00    -0.423 OA
ENDROOT
BRANCH   3  12
ATOM     12  O   UNL     1     -13.849   4.625  -8.206  1.00  0.00    -0.508 OA
ATOM     13  H   UNL     1     -13.681   4.799  -7.222  1.00  0.00     0.293 HD
ENDBRANCH   3  12
TORSDOF 1
ENDMDL
MODEL 2
REMARK VINA RESULT:    -6.078      1.639      2.329
REMARK INTER + INTRA:          -6.256
REMARK INTER:                  -6.256
REMARK INTRA:                   0.000
REMARK UNBOUND:                 0.000
REMARK SMILES O=c1ccc2ccc(O)cc2o1
REMARK SMILES IDX 6 1 7 2 8 3 10 4 11 5 5 6 4 7 3 8 2 9 1 10 12 11 9 12
REMARK H PARENT 9 13
REMARK Flexibility Score: inf
ROOT
ATOM      1  C   UNL     1     -14.017   3.508  -8.784  1.00  0.00     0.016 A 
ATOM      2  C   UNL     1     -12.837   4.160  -8.413  1.00  0.00     0.047 A 
ATOM      3  C   UNL     1     -11.606   3.501  -8.504  1.00  0.00     0.119 A 
ATOM      4  C   UNL     1     -11.552   2.179  -8.970  1.00  0.00     0.094 A 
ATOM      5  C   UNL     1     -12.727   1.518  -9.344  1.00  0.00     0.142 A 
ATOM      6  C   UNL     1     -13.967   2.186  -9.250  1.00  0.00     0.018 A 
ATOM      7  C   UNL     1     -15.125   1.500  -9.631  1.00  0.00     0.019 A 
ATOM      8  C   UNL     1     -15.022   0.186 -10.089  1.00  0.00     0.094 A 
ATOM      9  C   UNL     1     -13.758  -0.412 -10.155  1.00  0.00     0.336 A 
ATOM     10  O   UNL     1     -13.645  -1.596 -10.565  1.00  0.00    -0.246 OA
ATOM     11  O   UNL     1     -12.673   0.264  -9.786  1.00  0.00    -0.423 OA
ENDROOT
BRANCH   3  12
ATOM     12  O   UNL     1     -10.441   4.169  -8.129  1.00  0.00    -0.508 OA
ATOM     13  H   UNL     1     -10.171   4.256  -7.156  1.00  0.00     0.293 HD
ENDBRANCH   3  12
TORSDOF 1
ENDMDL
MODEL 3
REMARK VINA RESULT:    -5.774      4.924      6.794
REMARK INTER + INTRA:          -5.942
REMARK INTER:                  -5.942
REMARK INTRA:                   0.000
REMARK UNBOUND:                 0.000
REMARK SMILES O=c1ccc2ccc(O)cc2o1
REMARK SMILES IDX 6 1 7 2 8 3 10 4 11 5 5 6 4 7 3 8 2 9 1 10 12 11 9 12
REMARK H PARENT 9 13
REMARK Flexibility Score: inf
ROOT
ATOM      1  C   UNL     1     -10.623  -2.627  -7.656  1.00  0.00     0.016 A 
ATOM      2  C   UNL     1     -10.318  -1.867  -8.790  1.00  0.00     0.047 A 
ATOM      3  C   UNL     1     -10.000  -2.497  -9.999  1.00  0.00     0.119 A 
ATOM      4  C   UNL     1      -9.987  -3.898 -10.076  1.00  0.00     0.094 A 
ATOM      5  C   UNL     1     -10.291  -4.666  -8.947  1.00  0.00     0.142 A 
ATOM      6  C   UNL     1     -10.611  -4.027  -7.729  1.00  0.00     0.018 A 
ATOM      7  C   UNL     1     -10.910  -4.821  -6.618  1.00  0.00     0.019 A 
ATOM      8  C   UNL     1     -10.885  -6.211  -6.743  1.00  0.00     0.094 A 
ATOM      9  C   UNL     1     -10.559  -6.774  -7.982  1.00  0.00     0.336 A 
ATOM     10  O   UNL     1     -10.531  -8.025  -8.114  1.00  0.00    -0.246 OA
ATOM     11  O   UNL     1     -10.278  -5.995  -9.023  1.00  0.00    -0.423 OA
ENDROOT
BRANCH   3  12
ATOM     12  O   UNL     1      -9.699  -1.723 -11.117  1.00  0.00    -0.508 OA
ATOM     13  H   UNL     1      -8.859  -1.883 -11.661  1.00  0.00     0.293 HD
ENDBRANCH   3  12
TORSDOF 1
ENDMDL
MODEL 4
REMARK VINA RESULT:    -5.397      6.068      8.394
REMARK INTER + INTRA:          -5.555
REMARK INTER:                  -5.555
REMARK INTRA:                   0.000
REMARK UNBOUND:                 0.000
REMARK SMILES O=c1ccc2ccc(O)cc2o1
REMARK SMILES IDX 6 1 7 2 8 3 10 4 11 5 5 6 4 7 3 8 2 9 1 10 12 11 9 12
REMARK H PARENT 9 13
REMARK Flexibility Score: inf
ROOT
ATOM      1  C   UNL     1     -10.821  -7.493  -7.948  1.00  0.00     0.016 A 
ATOM      2  C   UNL     1     -11.262  -8.103  -6.769  1.00  0.00     0.047 A 
ATOM      3  C   UNL     1     -11.547  -7.330  -5.637  1.00  0.00     0.119 A 
ATOM      4  C   UNL     1     -11.390  -5.936  -5.683  1.00  0.00     0.094 A 
ATOM      5  C   UNL     1     -10.950  -5.318  -6.858  1.00  0.00     0.142 A 
ATOM      6  C   UNL     1     -10.663  -6.101  -7.998  1.00  0.00     0.018 A 
ATOM      7  C   UNL     1     -10.225  -5.454  -9.158  1.00  0.00     0.019 A 
ATOM      8  C   UNL     1     -10.085  -4.066  -9.156  1.00  0.00     0.094 A 
ATOM      9  C   UNL     1     -10.388  -3.355  -7.989  1.00  0.00     0.336 A 
ATOM     10  O   UNL     1     -10.268  -2.103  -7.968  1.00  0.00    -0.246 OA
ATOM     11  O   UNL     1     -10.803  -3.996  -6.899  1.00  0.00    -0.423 OA
ENDROOT
BRANCH   3  12
ATOM     12  O   UNL     1     -11.984  -7.956  -4.472  1.00  0.00    -0.508 OA
ATOM     13  H   UNL     1     -12.298  -7.422  -3.669  1.00  0.00     0.293 HD
ENDBRANCH   3  12
TORSDOF 1
ENDMDL
MODEL 5
REMARK VINA RESULT:    -5.361      5.842      7.723
REMARK INTER + INTRA:          -5.517
REMARK INTER:                  -5.517
REMARK INTRA:                   0.000
REMARK UNBOUND:                 0.000
REMARK SMILES O=c1ccc2ccc(O)cc2o1
REMARK SMILES IDX 6 1 7 2 8 3 10 4 11 5 5 6 4 7 3 8 2 9 1 10 12 11 9 12
REMARK H PARENT 9 13
REMARK Flexibility Score: inf
ROOT
ATOM      1  C   UNL     1     -10.207  -5.107  -9.507  1.00  0.00     0.016 A 
ATOM      2  C   UNL     1     -10.065  -3.728  -9.320  1.00  0.00     0.047 A 
ATOM      3  C   UNL     1     -10.277  -3.160  -8.058  1.00  0.00     0.119 A 
ATOM      4  C   UNL     1     -10.632  -3.976  -6.973  1.00  0.00     0.094 A 
ATOM      5  C   UNL     1     -10.776  -5.356  -7.151  1.00  0.00     0.142 A 
ATOM      6  C   UNL     1     -10.562  -5.925  -8.426  1.00  0.00     0.018 A 
ATOM      7  C   UNL     1     -10.712  -7.308  -8.573  1.00  0.00     0.019 A 
ATOM      8  C   UNL     1     -11.066  -8.079  -7.465  1.00  0.00     0.094 A 
ATOM      9  C   UNL     1     -11.262  -7.446  -6.232  1.00  0.00     0.336 A 
ATOM     10  O   UNL     1     -11.582  -8.125  -5.223  1.00  0.00    -0.246 OA
ATOM     11  O   UNL     1     -11.112  -6.128  -6.121  1.00  0.00    -0.423 OA
ENDROOT
BRANCH   3  12
ATOM     12  O   UNL     1     -10.132  -1.784  -7.892  1.00  0.00    -0.508 OA
ATOM     13  H   UNL     1      -9.714  -1.205  -8.611  1.00  0.00     0.293 HD
ENDBRANCH   3  12
TORSDOF 1
ENDMDL
MODEL 6
REMARK VINA RESULT:    -4.926      6.384      7.894
REMARK INTER + INTRA:          -5.070
REMARK INTER:                  -5.070
REMARK INTRA:                   0.000
REMARK UNBOUND:                 0.000
REMARK SMILES O=c1ccc2ccc(O)cc2o1
REMARK SMILES IDX 6 1 7 2 8 3 10 4 11 5 5 6 4 7 3 8 2 9 1 10 12 11 9 12
REMARK H PARENT 9 13
REMARK Flexibility Score: inf
ROOT
ATOM      1  C   UNL     1     -11.847  -5.818  -5.630  1.00  0.00     0.016 A 
ATOM      2  C   UNL     1     -12.965  -6.658  -5.653  1.00  0.00     0.047 A 
ATOM      3  C   UNL     1     -13.608  -6.947  -6.862  1.00  0.00     0.119 A 
ATOM      4  C   UNL     1     -13.130  -6.393  -8.059  1.00  0.00     0.094 A 
ATOM      5  C   UNL     1     -12.013  -5.553  -8.047  1.00  0.00     0.142 A 
ATOM      6  C   UNL     1     -11.367  -5.263  -6.825  1.00  0.00     0.018 A 
ATOM      7  C   UNL     1     -10.251  -4.419  -6.844  1.00  0.00     0.019 A 
ATOM      8  C   UNL     1      -9.812  -3.893  -8.059  1.00  0.00     0.094 A 
ATOM      9  C   UNL     1     -10.502  -4.224  -9.231  1.00  0.00     0.336 A 
ATOM     10  O   UNL     1     -10.121  -3.759 -10.336  1.00  0.00    -0.246 OA
ATOM     11  O   UNL     1     -11.561  -5.029  -9.184  1.00  0.00    -0.423 OA
ENDROOT
BRANCH   3  12
ATOM     12  O   UNL     1     -14.721  -7.786  -6.863  1.00  0.00    -0.508 OA
ATOM     13  H   UNL     1     -15.616  -7.478  -6.501  1.00  0.00     0.293 HD
ENDBRANCH   3  12
TORSDOF 1
ENDMDL
MODEL 7
REMARK VINA RESULT:    -4.895      4.989      7.429
REMARK INTER + INTRA:          -5.038
REMARK INTER:                  -5.038
REMARK INTRA:                   0.000
REMARK UNBOUND:                 0.000
REMARK SMILES O=c1ccc2ccc(O)cc2o1
REMARK SMILES IDX 6 1 7 2 8 3 10 4 11 5 5 6 4 7 3 8 2 9 1 10 12 11 9 12
REMARK H PARENT 9 13
REMARK Flexibility Score: inf
ROOT
ATOM      1  C   UNL     1     -10.999  -4.548  -6.561  1.00  0.00     0.016 A 
ATOM      2  C   UNL     1     -11.000  -5.947  -6.559  1.00  0.00     0.047 A 
ATOM      3  C   UNL     1     -10.633  -6.657  -7.708  1.00  0.00     0.119 A 
ATOM      4  C   UNL     1     -10.262  -5.963  -8.871  1.00  0.00     0.094 A 
ATOM      5  C   UNL     1     -10.258  -4.565  -8.883  1.00  0.00     0.142 A 
ATOM      6  C   UNL     1     -10.629  -3.852  -7.721  1.00  0.00     0.018 A 
ATOM      7  C   UNL     1     -10.615  -2.454  -7.764  1.00  0.00     0.019 A 
ATOM      8  C   UNL     1     -10.238  -1.809  -8.942  1.00  0.00     0.094 A 
ATOM      9  C   UNL     1      -9.883  -2.581 -10.054  1.00  0.00     0.336 A 
ATOM     10  O   UNL     1      -9.540  -2.018 -11.125  1.00  0.00    -0.246 OA
ATOM     11  O   UNL     1      -9.905  -3.910  -9.986  1.00  0.00    -0.423 OA
ENDROOT
BRANCH   3  12
ATOM     12  O   UNL     1     -10.641  -8.050  -7.685  1.00  0.00    -0.508 OA
ATOM     13  H   UNL     1      -9.797  -8.581  -7.507  1.00  0.00     0.293 HD
ENDBRANCH   3  12
TORSDOF 1
ENDMDL
MODEL 8
REMARK VINA RESULT:    -4.844     15.757     17.420
REMARK INTER + INTRA:          -4.985
REMARK INTER:                  -4.985
REMARK INTRA:                   0.000
REMARK UNBOUND:                 0.000
REMARK SMILES O=c1ccc2ccc(O)cc2o1
REMARK SMILES IDX 6 1 7 2 8 3 10 4 11 5 5 6 4 7 3 8 2 9 1 10 12 11 9 12
REMARK H PARENT 9 13
REMARK Flexibility Score: inf
ROOT
ATOM      1  C   UNL     1     -11.910   5.069   8.442  1.00  0.00     0.016 A 
ATOM      2  C   UNL     1     -11.549   3.806   7.963  1.00  0.00     0.047 A 
ATOM      3  C   UNL     1     -11.770   3.467   6.623  1.00  0.00     0.119 A 
ATOM      4  C   UNL     1     -12.358   4.399   5.754  1.00  0.00     0.094 A 
ATOM      5  C   UNL     1     -12.722   5.665   6.224  1.00  0.00     0.142 A 
ATOM      6  C   UNL     1     -12.497   6.002   7.576  1.00  0.00     0.018 A 
ATOM      7  C   UNL     1     -12.872   7.276   8.017  1.00  0.00     0.019 A 
ATOM      8  C   UNL     1     -13.452   8.168   7.116  1.00  0.00     0.094 A 
ATOM      9  C   UNL     1     -13.645   7.764   5.790  1.00  0.00     0.336 A 
ATOM     10  O   UNL     1     -14.167   8.555   4.962  1.00  0.00    -0.246 OA
ATOM     11  O   UNL     1     -13.279   6.546   5.397  1.00  0.00    -0.423 OA
ENDROOT
BRANCH   3  12
ATOM     12  O   UNL     1     -11.404   2.203   6.165  1.00  0.00    -0.508 OA
ATOM     13  H   UNL     1     -10.485   1.818   6.351  1.00  0.00     0.293 HD
ENDBRANCH   3  12
TORSDOF 1
ENDMDL
MODEL 9
REMARK VINA RESULT:    -4.803      7.385      8.333
REMARK INTER + INTRA:          -4.944
REMARK INTER:                  -4.944
REMARK INTRA:                   0.000
REMARK UNBOUND:                 0.000
REMARK SMILES O=c1ccc2ccc(O)cc2o1
REMARK SMILES IDX 6 1 7 2 8 3 10 4 11 5 5 6 4 7 3 8 2 9 1 10 12 11 9 12
REMARK H PARENT 9 13
REMARK Flexibility Score: inf
ROOT
ATOM      1  C   UNL     1     -12.103  -5.916  -5.508  1.00  0.00     0.016 A 
ATOM      2  C   UNL     1     -10.882  -5.293  -5.786  1.00  0.00     0.047 A 
ATOM      3  C   UNL     1     -10.466  -5.111  -7.110  1.00  0.00     0.119 A 
ATOM      4  C   UNL     1     -11.278  -5.552  -8.166  1.00  0.00     0.094 A 
ATOM      5  C   UNL     1     -12.501  -6.175  -7.898  1.00  0.00     0.142 A 
ATOM      6  C   UNL     1     -12.917  -6.358  -6.561  1.00  0.00     0.018 A 
ATOM      7  C   UNL     1     -14.145  -6.984  -6.324  1.00  0.00     0.019 A 
ATOM      8  C   UNL     1     -14.918  -7.405  -7.406  1.00  0.00     0.094 A 
ATOM      9  C   UNL     1     -14.442  -7.190  -8.704  1.00  0.00     0.336 A 
ATOM     10  O   UNL     1     -15.125  -7.563  -9.692  1.00  0.00    -0.246 OA
ATOM     11  O   UNL     1     -13.269  -6.592  -8.901  1.00  0.00    -0.423 OA
ENDROOT
BRANCH   3  12
ATOM     12  O   UNL     1      -9.245  -4.490  -7.366  1.00  0.00    -0.508 OA
ATOM     13  H   UNL     1      -9.171  -3.714  -8.014  1.00  0.00     0.293 HD
ENDBRANCH   3  12
TORSDOF 1
ENDMDL
