MODEL 1
REMARK VINA RESULT:    -9.273      0.000      0.000
REMARK INTER + INTRA:         -15.460
REMARK INTER:                 -13.610
REMARK INTRA:                  -1.850
REMARK UNBOUND:                -1.850
REMARK SMILES O=c1c(O[C@@H]2O[C@@H](CO)[C@@H](O)[C@@H](O)[C@@H]2O)c(-c2ccc(O)c(O)c2)oc2cc(O)cc(O)c12
REMARK SMILES IDX 4 1 3 2 16 3 25 4 2 5 26 6 1 7 33 8 27 9 31 10 28 11 30 12
REMARK SMILES IDX 17 13 18 14 19 15 20 16 24 17 22 18 21 19 23 21 32 23 29 25
REMARK SMILES IDX 5 27 14 28 6 29 12 30 7 31 10 32 15 33 13 35 8 37 9 38 11 40
REMARK H PARENT 21 20 23 22 32 24 29 26 15 34 13 36 9 39 11 41
REMARK Flexibility Score: inf
ROOT
ATOM      1  O   UNL     1      13.608  45.650   7.906  1.00  0.00    -0.454 OA
ENDROOT
BRANCH   1   2
ATOM      2  C   UNL     1      12.315  45.780   7.296  1.00  0.00     0.214 A 
ATOM      3  C   UNL     1      12.091  46.323   5.994  1.00  0.00     0.180 A 
ATOM      4  O   UNL     1      11.021  47.087   5.807  1.00  0.00    -0.452 OA
ATOM      5  C   UNL     1      11.151  45.453   8.023  1.00  0.00     0.239 A 
ATOM      6  C   UNL     1       9.930  46.924   6.557  1.00  0.00     0.146 A 
ATOM      7  O   UNL     1      11.218  44.654   8.993  1.00  0.00    -0.285 OA
ATOM      8  C   UNL     1       9.935  46.053   7.662  1.00  0.00     0.111 A 
ATOM      9  C   UNL     1       8.780  47.676   6.232  1.00  0.00     0.094 A 
ATOM     10  C   UNL     1       8.798  46.036   8.511  1.00  0.00     0.134 A 
ATOM     11  C   UNL     1       7.594  47.496   6.987  1.00  0.00     0.123 A 
ATOM     12  C   UNL     1       7.592  46.637   8.095  1.00  0.00     0.093 A 
BRANCH   3  13
ATOM     13  C   UNL     1      12.454  45.574   4.745  1.00  0.00     0.025 A 
ATOM     14  C   UNL     1      13.541  46.049   3.998  1.00  0.00     0.016 A 
ATOM     15  C   UNL     1      14.658  45.205   3.728  1.00  0.00     0.051 A 
ATOM     16  C   UNL     1      14.554  43.845   4.064  1.00  0.00     0.157 A 
ATOM     17  C   UNL     1      12.241  44.167   4.683  1.00  0.00     0.062 A 
ATOM     18  C   UNL     1      13.286  43.299   4.339  1.00  0.00     0.158 A 
BRANCH  16  19
ATOM     19  O   UNL     1      15.650  43.004   4.095  1.00  0.00    -0.504 OA
ATOM     20  H   UNL     1      16.135  42.737   3.236  1.00  0.00     0.293 HD
ENDBRANCH  16  19
BRANCH  18  21
ATOM     21  O   UNL     1      13.034  41.916   4.197  1.00  0.00    -0.504 OA
ATOM     22  H   UNL     1      12.198  41.482   4.605  1.00  0.00     0.293 HD
ENDBRANCH  18  21
ENDBRANCH   3  13
BRANCH  10  23
ATOM     23  O   UNL     1       8.922  45.641   9.854  1.00  0.00    -0.507 OA
ATOM     24  H   UNL     1       9.688  45.000  10.074  1.00  0.00     0.293 HD
ENDBRANCH  10  23
BRANCH  11  25
ATOM     25  O   UNL     1       6.466  48.298   6.731  1.00  0.00    -0.508 OA
ATOM     26  H   UNL     1       6.521  49.302   6.873  1.00  0.00     0.293 HD
ENDBRANCH  11  25
ENDBRANCH   1   2
BRANCH   1  27
ATOM     27  C   UNL     1      14.405  44.451   7.732  1.00  0.00     0.339 C 
ATOM     28  C   UNL     1      15.902  44.800   7.275  1.00  0.00     0.214 C 
ATOM     29  O   UNL     1      14.381  43.699   8.957  1.00  0.00    -0.332 OA
ATOM     30  C   UNL     1      16.904  44.789   8.472  1.00  0.00     0.180 C 
ATOM     31  C   UNL     1      15.429  42.748   9.063  1.00  0.00     0.179 C 
ATOM     32  C   UNL     1      16.797  43.489   9.299  1.00  0.00     0.177 C 
BRANCH  28  33
ATOM     33  O   UNL     1      15.976  46.043   6.625  1.00  0.00    -0.384 OA
ATOM     34  H   UNL     1      16.832  46.108   6.157  1.00  0.00     0.211 HD
ENDBRANCH  28  33
BRANCH  30  35
ATOM     35  O   UNL     1      18.229  45.006   8.034  1.00  0.00    -0.387 OA
ATOM     36  H   UNL     1      18.868  44.760   8.754  1.00  0.00     0.211 HD
ENDBRANCH  30  35
BRANCH  31  37
ATOM     37  C   UNL     1      15.345  41.650   7.961  1.00  0.00     0.191 C 
BRANCH  37  38
ATOM     38  O   UNL     1      16.034  40.464   8.293  1.00  0.00    -0.394 OA
ATOM     39  H   UNL     1      15.367  39.740   8.363  1.00  0.00     0.210 HD
ENDBRANCH  37  38
ENDBRANCH  31  37
BRANCH  32  40
ATOM     40  O   UNL     1      17.901  42.659   9.119  1.00  0.00    -0.387 OA
ATOM     41  H   UNL     1      18.585  43.172   8.642  1.00  0.00     0.211 HD
ENDBRANCH  32  40
ENDBRANCH   1  27
TORSDOF 12
ENDMDL
MODEL 2
REMARK VINA RESULT:    -8.534      1.331      1.660
REMARK INTER + INTRA:         -14.376
REMARK INTER:                 -13.281
REMARK INTRA:                  -1.095
REMARK UNBOUND:                -1.850
REMARK SMILES O=c1c(O[C@@H]2O[C@@H](CO)[C@@H](O)[C@@H](O)[C@@H]2O)c(-c2ccc(O)c(O)c2)oc2cc(O)cc(O)c12
REMARK SMILES IDX 4 1 3 2 16 3 25 4 2 5 26 6 1 7 33 8 27 9 31 10 28 11 30 12
REMARK SMILES IDX 17 13 18 14 19 15 20 16 24 17 22 18 21 19 23 21 32 23 29 25
REMARK SMILES IDX 5 27 14 28 6 29 12 30 7 31 10 32 15 33 13 35 8 37 9 38 11 40
REMARK H PARENT 21 20 23 22 32 24 29 26 15 34 13 36 9 39 11 41
REMARK Flexibility Score: inf
ROOT
ATOM      1  O   UNL     1      12.997  43.928   7.425  1.00  0.00    -0.454 OA
ENDROOT
BRANCH   1   2
ATOM      2  C   UNL     1      12.079  44.815   6.767  1.00  0.00     0.214 A 
ATOM      3  C   UNL     1      12.453  45.757   5.761  1.00  0.00     0.180 A 
ATOM      4  O   UNL     1      11.862  46.945   5.762  1.00  0.00    -0.452 OA
ATOM      5  C   UNL     1      10.729  44.865   7.171  1.00  0.00     0.239 A 
ATOM      6  C   UNL     1      10.632  47.093   6.258  1.00  0.00     0.146 A 
ATOM      7  O   UNL     1      10.209  43.879   7.755  1.00  0.00    -0.285 OA
ATOM      8  C   UNL     1       9.993  46.035   6.931  1.00  0.00     0.111 A 
ATOM      9  C   UNL     1      10.003  48.349   6.119  1.00  0.00     0.094 A 
ATOM     10  C   UNL     1       8.752  46.296   7.569  1.00  0.00     0.134 A 
ATOM     11  C   UNL     1       8.682  48.524   6.601  1.00  0.00     0.123 A 
ATOM     12  C   UNL     1       8.040  47.479   7.282  1.00  0.00     0.093 A 
BRANCH   3  13
ATOM     13  C   UNL     1      12.826  45.332   4.371  1.00  0.00     0.025 A 
ATOM     14  C   UNL     1      14.001  45.868   3.823  1.00  0.00     0.016 A 
ATOM     15  C   UNL     1      15.048  45.011   3.377  1.00  0.00     0.051 A 
ATOM     16  C   UNL     1      14.795  43.630   3.328  1.00  0.00     0.157 A 
ATOM     17  C   UNL     1      12.487  44.023   3.921  1.00  0.00     0.062 A 
ATOM     18  C   UNL     1      13.466  43.171   3.396  1.00  0.00     0.158 A 
BRANCH  16  19
ATOM     19  O   UNL     1      15.803  42.697   3.172  1.00  0.00    -0.504 OA
ATOM     20  H   UNL     1      16.232  42.243   3.980  1.00  0.00     0.293 HD
ENDBRANCH  16  19
BRANCH  18  21
ATOM     21  O   UNL     1      13.095  41.911   2.874  1.00  0.00    -0.504 OA
ATOM     22  H   UNL     1      13.008  41.757   1.863  1.00  0.00     0.293 HD
ENDBRANCH  18  21
ENDBRANCH   3  13
BRANCH  10  23
ATOM     23  O   UNL     1       8.336  45.513   8.659  1.00  0.00    -0.507 OA
ATOM     24  H   UNL     1       7.465  45.792   9.118  1.00  0.00     0.293 HD
ENDBRANCH  10  23
BRANCH  11  25
ATOM     25  O   UNL     1       8.073  49.792   6.547  1.00  0.00    -0.508 OA
ATOM     26  H   UNL     1       8.018  50.359   7.388  1.00  0.00     0.293 HD
ENDBRANCH  11  25
ENDBRANCH   1   2
BRANCH   1  27
ATOM     27  C   UNL     1      14.408  43.921   7.092  1.00  0.00     0.339 C 
ATOM     28  C   UNL     1      15.278  44.699   8.192  1.00  0.00     0.214 C 
ATOM     29  O   UNL     1      14.839  42.559   6.934  1.00  0.00    -0.332 OA
ATOM     30  C   UNL     1      15.943  43.726   9.216  1.00  0.00     0.180 C 
ATOM     31  C   UNL     1      16.245  42.391   7.021  1.00  0.00     0.179 C 
ATOM     32  C   UNL     1      16.712  42.588   8.510  1.00  0.00     0.177 C 
BRANCH  28  33
ATOM     33  O   UNL     1      14.513  45.649   8.890  1.00  0.00    -0.384 OA
ATOM     34  H   UNL     1      13.790  45.190   9.362  1.00  0.00     0.211 HD
ENDBRANCH  28  33
BRANCH  30  35
ATOM     35  O   UNL     1      16.778  44.422  10.117  1.00  0.00    -0.387 OA
ATOM     36  H   UNL     1      17.436  43.797  10.522  1.00  0.00     0.211 HD
ENDBRANCH  30  35
BRANCH  31  37
ATOM     37  C   UNL     1      17.002  43.145   5.886  1.00  0.00     0.191 C 
BRANCH  37  38
ATOM     38  O   UNL     1      18.177  43.791   6.324  1.00  0.00    -0.394 OA
ATOM     39  H   UNL     1      18.021  44.101   7.248  1.00  0.00     0.210 HD
ENDBRANCH  37  38
ENDBRANCH  31  37
BRANCH  32  40
ATOM     40  O   UNL     1      18.092  42.733   8.631  1.00  0.00    -0.387 OA
ATOM     41  H   UNL     1      18.270  43.221   9.461  1.00  0.00     0.211 HD
ENDBRANCH  32  40
ENDBRANCH   1  27
TORSDOF 12
ENDMDL
MODEL 3
REMARK VINA RESULT:    -7.911      1.505      2.086
REMARK INTER + INTRA:         -13.461
REMARK INTER:                 -12.378
REMARK INTRA:                  -1.083
REMARK UNBOUND:                -1.850
REMARK SMILES O=c1c(O[C@@H]2O[C@@H](CO)[C@@H](O)[C@@H](O)[C@@H]2O)c(-c2ccc(O)c(O)c2)oc2cc(O)cc(O)c12
REMARK SMILES IDX 4 1 3 2 16 3 25 4 2 5 26 6 1 7 33 8 27 9 31 10 28 11 30 12
REMARK SMILES IDX 17 13 18 14 19 15 20 16 24 17 22 18 21 19 23 21 32 23 29 25
REMARK SMILES IDX 5 27 14 28 6 29 12 30 7 31 10 32 15 33 13 35 8 37 9 38 11 40
REMARK H PARENT 21 20 23 22 32 24 29 26 15 34 13 36 9 39 11 41
REMARK Flexibility Score: inf
ROOT
ATOM      1  O   UNL     1      14.254  45.919   7.588  1.00  0.00    -0.454 OA
ENDROOT
BRANCH   1   2
ATOM      2  C   UNL     1      12.902  45.452   7.459  1.00  0.00     0.214 A 
ATOM      3  C   UNL     1      12.016  45.832   6.406  1.00  0.00     0.180 A 
ATOM      4  O   UNL     1      10.738  46.033   6.702  1.00  0.00    -0.452 OA
ATOM      5  C   UNL     1      12.335  44.639   8.463  1.00  0.00     0.239 A 
ATOM      6  C   UNL     1      10.169  45.400   7.729  1.00  0.00     0.146 A 
ATOM      7  O   UNL     1      13.078  43.958   9.217  1.00  0.00    -0.285 OA
ATOM      8  C   UNL     1      10.941  44.627   8.618  1.00  0.00     0.111 A 
ATOM      9  C   UNL     1       8.780  45.553   7.921  1.00  0.00     0.094 A 
ATOM     10  C   UNL     1      10.309  44.104   9.775  1.00  0.00     0.134 A 
ATOM     11  C   UNL     1       8.142  44.862   8.980  1.00  0.00     0.123 A 
ATOM     12  C   UNL     1       8.902  44.097   9.876  1.00  0.00     0.093 A 
BRANCH   3  13
ATOM     13  C   UNL     1      12.181  45.323   5.004  1.00  0.00     0.025 A 
ATOM     14  C   UNL     1      13.112  45.974   4.183  1.00  0.00     0.016 A 
ATOM     15  C   UNL     1      14.187  45.250   3.591  1.00  0.00     0.051 A 
ATOM     16  C   UNL     1      14.178  43.849   3.700  1.00  0.00     0.157 A 
ATOM     17  C   UNL     1      11.997  43.936   4.734  1.00  0.00     0.062 A 
ATOM     18  C   UNL     1      12.989  43.196   4.079  1.00  0.00     0.158 A 
BRANCH  16  19
ATOM     19  O   UNL     1      15.284  43.075   3.404  1.00  0.00    -0.504 OA
ATOM     20  H   UNL     1      15.754  42.528   4.128  1.00  0.00     0.293 HD
ENDBRANCH  16  19
BRANCH  18  21
ATOM     21  O   UNL     1      12.753  41.845   3.743  1.00  0.00    -0.504 OA
ATOM     22  H   UNL     1      12.211  41.229   4.360  1.00  0.00     0.293 HD
ENDBRANCH  18  21
ENDBRANCH   3  13
BRANCH  10  23
ATOM     23  O   UNL     1      11.064  43.811  10.924  1.00  0.00    -0.507 OA
ATOM     24  H   UNL     1      10.571  43.858  11.820  1.00  0.00     0.293 HD
ENDBRANCH  10  23
BRANCH  11  25
ATOM     25  O   UNL     1       6.774  45.070   9.237  1.00  0.00    -0.508 OA
ATOM     26  H   UNL     1       6.451  45.166  10.196  1.00  0.00     0.293 HD
ENDBRANCH  11  25
ENDBRANCH   1   2
BRANCH   1  27
ATOM     27  C   UNL     1      15.378  45.079   7.221  1.00  0.00     0.339 C 
ATOM     28  C   UNL     1      16.449  44.974   8.411  1.00  0.00     0.214 C 
ATOM     29  O   UNL     1      14.882  43.787   6.832  1.00  0.00    -0.332 OA
ATOM     30  C   UNL     1      16.279  43.665   9.244  1.00  0.00     0.180 C 
ATOM     31  C   UNL     1      15.868  42.767   6.854  1.00  0.00     0.179 C 
ATOM     32  C   UNL     1      16.231  42.412   8.343  1.00  0.00     0.177 C 
BRANCH  28  33
ATOM     33  O   UNL     1      16.384  46.081   9.274  1.00  0.00    -0.384 OA
ATOM     34  H   UNL     1      15.921  46.812   8.820  1.00  0.00     0.211 HD
ENDBRANCH  28  33
BRANCH  30  35
ATOM     35  O   UNL     1      17.288  43.548  10.226  1.00  0.00    -0.387 OA
ATOM     36  H   UNL     1      18.152  43.881   9.865  1.00  0.00     0.211 HD
ENDBRANCH  30  35
BRANCH  31  37
ATOM     37  C   UNL     1      17.019  43.035   5.838  1.00  0.00     0.191 C 
BRANCH  37  38
ATOM     38  O   UNL     1      18.237  43.399   6.450  1.00  0.00    -0.394 OA
ATOM     39  H   UNL     1      18.892  43.574   5.733  1.00  0.00     0.210 HD
ENDBRANCH  37  38
ENDBRANCH  31  37
BRANCH  32  40
ATOM     40  O   UNL     1      17.388  41.643   8.450  1.00  0.00    -0.387 OA
ATOM     41  H   UNL     1      17.273  41.033   9.207  1.00  0.00     0.211 HD
ENDBRANCH  32  40
ENDBRANCH   1  27
TORSDOF 12
ENDMDL
MODEL 4
REMARK VINA RESULT:    -7.655      2.808      5.663
REMARK INTER + INTRA:         -13.085
REMARK INTER:                 -11.587
REMARK INTRA:                  -1.498
REMARK UNBOUND:                -1.850
REMARK SMILES O=c1c(O[C@@H]2O[C@@H](CO)[C@@H](O)[C@@H](O)[C@@H]2O)c(-c2ccc(O)c(O)c2)oc2cc(O)cc(O)c12
REMARK SMILES IDX 4 1 3 2 16 3 25 4 2 5 26 6 1 7 33 8 27 9 31 10 28 11 30 12
REMARK SMILES IDX 17 13 18 14 19 15 20 16 24 17 22 18 21 19 23 21 32 23 29 25
REMARK SMILES IDX 5 27 14 28 6 29 12 30 7 31 10 32 15 33 13 35 8 37 9 38 11 40
REMARK H PARENT 21 20 23 22 32 24 29 26 15 34 13 36 9 39 11 41
REMARK Flexibility Score: inf
ROOT
ATOM      1  O   UNL     1      11.770  44.973   8.587  1.00  0.00    -0.454 OA
ENDROOT
BRANCH   1   2
ATOM      2  C   UNL     1      10.352  45.153   8.718  1.00  0.00     0.214 A 
ATOM      3  C   UNL     1       9.514  44.357   9.556  1.00  0.00     0.180 A 
ATOM      4  O   UNL     1       8.306  44.033   9.111  1.00  0.00    -0.452 OA
ATOM      5  C   UNL     1       9.681  46.102   7.918  1.00  0.00     0.239 A 
ATOM      6  C   UNL     1       7.668  44.818   8.241  1.00  0.00     0.146 A 
ATOM      7  O   UNL     1      10.312  47.078   7.435  1.00  0.00    -0.285 OA
ATOM      8  C   UNL     1       8.315  45.922   7.655  1.00  0.00     0.111 A 
ATOM      9  C   UNL     1       6.338  44.491   7.899  1.00  0.00     0.094 A 
ATOM     10  C   UNL     1       7.640  46.627   6.626  1.00  0.00     0.134 A 
ATOM     11  C   UNL     1       5.622  45.328   7.008  1.00  0.00     0.123 A 
ATOM     12  C   UNL     1       6.260  46.426   6.411  1.00  0.00     0.093 A 
BRANCH   3  13
ATOM     13  C   UNL     1       9.530  44.484  11.051  1.00  0.00     0.025 A 
ATOM     14  C   UNL     1       8.351  44.913  11.678  1.00  0.00     0.016 A 
ATOM     15  C   UNL     1       7.726  44.107  12.673  1.00  0.00     0.051 A 
ATOM     16  C   UNL     1       8.417  42.975  13.136  1.00  0.00     0.157 A 
ATOM     17  C   UNL     1      10.344  43.605  11.822  1.00  0.00     0.062 A 
ATOM     18  C   UNL     1       9.794  42.852  12.868  1.00  0.00     0.158 A 
BRANCH  16  19
ATOM     19  O   UNL     1       7.806  41.990  13.889  1.00  0.00    -0.504 OA
ATOM     20  H   UNL     1       7.923  41.951  14.903  1.00  0.00     0.293 HD
ENDBRANCH  16  19
BRANCH  18  21
ATOM     21  O   UNL     1      10.632  42.053  13.676  1.00  0.00    -0.504 OA
ATOM     22  H   UNL     1      11.260  42.473  14.372  1.00  0.00     0.293 HD
ENDBRANCH  18  21
ENDBRANCH   3  13
BRANCH  10  23
ATOM     23  O   UNL     1       8.369  47.345   5.662  1.00  0.00    -0.507 OA
ATOM     24  H   UNL     1       8.592  48.318   5.888  1.00  0.00     0.293 HD
ENDBRANCH  10  23
BRANCH  11  25
ATOM     25  O   UNL     1       4.326  44.971   6.591  1.00  0.00    -0.508 OA
ATOM     26  H   UNL     1       3.551  45.606   6.760  1.00  0.00     0.293 HD
ENDBRANCH  11  25
ENDBRANCH   1   2
BRANCH   1  27
ATOM     27  C   UNL     1      12.367  44.591   7.321  1.00  0.00     0.339 C 
ATOM     28  C   UNL     1      13.481  45.645   6.852  1.00  0.00     0.214 C 
ATOM     29  O   UNL     1      12.904  43.263   7.446  1.00  0.00    -0.332 OA
ATOM     30  C   UNL     1      14.927  45.169   7.200  1.00  0.00     0.180 C 
ATOM     31  C   UNL     1      13.858  42.938   6.447  1.00  0.00     0.179 C 
ATOM     32  C   UNL     1      15.192  43.730   6.710  1.00  0.00     0.177 C 
BRANCH  28  33
ATOM     33  O   UNL     1      13.268  46.917   7.410  1.00  0.00    -0.384 OA
ATOM     34  H   UNL     1      12.362  46.956   7.775  1.00  0.00     0.211 HD
ENDBRANCH  28  33
BRANCH  30  35
ATOM     35  O   UNL     1      15.896  46.065   6.697  1.00  0.00    -0.387 OA
ATOM     36  H   UNL     1      16.700  46.058   7.281  1.00  0.00     0.211 HD
ENDBRANCH  30  35
BRANCH  31  37
ATOM     37  C   UNL     1      13.242  42.947   5.016  1.00  0.00     0.191 C 
BRANCH  37  38
ATOM     38  O   UNL     1      14.177  42.659   3.998  1.00  0.00    -0.394 OA
ATOM     39  H   UNL     1      14.773  41.948   4.333  1.00  0.00     0.210 HD
ENDBRANCH  37  38
ENDBRANCH  31  37
BRANCH  32  40
ATOM     40  O   UNL     1      16.064  43.697   5.624  1.00  0.00    -0.387 OA
ATOM     41  H   UNL     1      16.946  43.432   5.957  1.00  0.00     0.211 HD
ENDBRANCH  32  40
ENDBRANCH   1  27
TORSDOF 12
ENDMDL
MODEL 5
REMARK VINA RESULT:    -7.479      2.487      5.559
REMARK INTER + INTRA:         -12.828
REMARK INTER:                 -11.264
REMARK INTRA:                  -1.564
REMARK UNBOUND:                -1.850
REMARK SMILES O=c1c(O[C@@H]2O[C@@H](CO)[C@@H](O)[C@@H](O)[C@@H]2O)c(-c2ccc(O)c(O)c2)oc2cc(O)cc(O)c12
REMARK SMILES IDX 4 1 3 2 16 3 25 4 2 5 26 6 1 7 33 8 27 9 31 10 28 11 30 12
REMARK SMILES IDX 17 13 18 14 19 15 20 16 24 17 22 18 21 19 23 21 32 23 29 25
REMARK SMILES IDX 5 27 14 28 6 29 12 30 7 31 10 32 15 33 13 35 8 37 9 38 11 40
REMARK H PARENT 21 20 23 22 32 24 29 26 15 34 13 36 9 39 11 41
REMARK Flexibility Score: inf
ROOT
ATOM      1  O   UNL     1      11.672  45.540   7.917  1.00  0.00    -0.454 OA
ENDROOT
BRANCH   1   2
ATOM      2  C   UNL     1      10.450  45.346   8.646  1.00  0.00     0.214 A 
ATOM      3  C   UNL     1       9.222  46.010   8.347  1.00  0.00     0.180 A 
ATOM      4  O   UNL     1       8.457  46.400   9.359  1.00  0.00    -0.452 OA
ATOM      5  C   UNL     1      10.433  44.531   9.796  1.00  0.00     0.239 A 
ATOM      6  C   UNL     1       8.492  45.757  10.527  1.00  0.00     0.146 A 
ATOM      7  O   UNL     1      11.306  43.637   9.948  1.00  0.00    -0.285 OA
ATOM      8  C   UNL     1       9.447  44.752  10.769  1.00  0.00     0.111 A 
ATOM      9  C   UNL     1       7.568  46.135  11.525  1.00  0.00     0.094 A 
ATOM     10  C   UNL     1       9.536  44.211  12.078  1.00  0.00     0.134 A 
ATOM     11  C   UNL     1       7.556  45.443  12.762  1.00  0.00     0.123 A 
ATOM     12  C   UNL     1       8.509  44.447  13.017  1.00  0.00     0.093 A 
BRANCH   3  13
ATOM     13  C   UNL     1       8.399  45.659   7.142  1.00  0.00     0.025 A 
ATOM     14  C   UNL     1       7.995  44.323   6.999  1.00  0.00     0.016 A 
ATOM     15  C   UNL     1       6.613  43.991   6.899  1.00  0.00     0.051 A 
ATOM     16  C   UNL     1       5.690  45.042   6.758  1.00  0.00     0.157 A 
ATOM     17  C   UNL     1       7.507  46.626   6.594  1.00  0.00     0.062 A 
ATOM     18  C   UNL     1       6.154  46.321   6.397  1.00  0.00     0.158 A 
BRANCH  16  19
ATOM     19  O   UNL     1       4.330  44.860   6.919  1.00  0.00    -0.504 OA
ATOM     20  H   UNL     1       3.854  45.163   7.770  1.00  0.00     0.293 HD
ENDBRANCH  16  19
BRANCH  18  21
ATOM     21  O   UNL     1       5.305  47.262   5.772  1.00  0.00    -0.504 OA
ATOM     22  H   UNL     1       4.715  47.896   6.323  1.00  0.00     0.293 HD
ENDBRANCH  18  21
ENDBRANCH   3  13
BRANCH  10  23
ATOM     23  O   UNL     1      10.739  43.645  12.531  1.00  0.00    -0.507 OA
ATOM     24  H   UNL     1      10.786  43.401  13.524  1.00  0.00     0.293 HD
ENDBRANCH  10  23
BRANCH  11  25
ATOM     25  O   UNL     1       6.700  45.862  13.797  1.00  0.00    -0.508 OA
ATOM     26  H   UNL     1       6.651  46.848  14.041  1.00  0.00     0.293 HD
ENDBRANCH  11  25
ENDBRANCH   1   2
BRANCH   1  27
ATOM     27  C   UNL     1      11.912  44.865   6.656  1.00  0.00     0.339 C 
ATOM     28  C   UNL     1      12.871  45.725   5.700  1.00  0.00     0.214 C 
ATOM     29  O   UNL     1      12.455  43.561   6.927  1.00  0.00    -0.332 OA
ATOM     30  C   UNL     1      14.354  45.242   5.762  1.00  0.00     0.180 C 
ATOM     31  C   UNL     1      13.111  42.974   5.814  1.00  0.00     0.179 C 
ATOM     32  C   UNL     1      14.472  43.717   5.548  1.00  0.00     0.177 C 
BRANCH  28  33
ATOM     33  O   UNL     1      12.820  47.096   6.002  1.00  0.00    -0.384 OA
ATOM     34  H   UNL     1      12.223  47.232   6.764  1.00  0.00     0.211 HD
ENDBRANCH  28  33
BRANCH  30  35
ATOM     35  O   UNL     1      15.163  45.949   4.846  1.00  0.00    -0.387 OA
ATOM     36  H   UNL     1      14.978  45.637   3.920  1.00  0.00     0.211 HD
ENDBRANCH  30  35
BRANCH  31  37
ATOM     37  C   UNL     1      12.141  42.724   4.620  1.00  0.00     0.191 C 
BRANCH  37  38
ATOM     38  O   UNL     1      12.638  41.803   3.674  1.00  0.00    -0.394 OA
ATOM     39  H   UNL     1      12.025  41.808   2.901  1.00  0.00     0.210 HD
ENDBRANCH  37  38
ENDBRANCH  31  37
BRANCH  32  40
ATOM     40  O   UNL     1      15.028  43.403   4.310  1.00  0.00    -0.387 OA
ATOM     41  H   UNL     1      16.001  43.461   4.396  1.00  0.00     0.211 HD
ENDBRANCH  32  40
ENDBRANCH   1  27
TORSDOF 12
ENDMDL
MODEL 6
REMARK VINA RESULT:    -7.404      1.486      5.411
REMARK INTER + INTRA:         -12.716
REMARK INTER:                 -12.097
REMARK INTRA:                  -0.619
REMARK UNBOUND:                -1.850
REMARK SMILES O=c1c(O[C@@H]2O[C@@H](CO)[C@@H](O)[C@@H](O)[C@@H]2O)c(-c2ccc(O)c(O)c2)oc2cc(O)cc(O)c12
REMARK SMILES IDX 4 1 3 2 16 3 25 4 2 5 26 6 1 7 33 8 27 9 31 10 28 11 30 12
REMARK SMILES IDX 17 13 18 14 19 15 20 16 24 17 22 18 21 19 23 21 32 23 29 25
REMARK SMILES IDX 5 27 14 28 6 29 12 30 7 31 10 32 15 33 13 35 8 37 9 38 11 40
REMARK H PARENT 21 20 23 22 32 24 29 26 15 34 13 36 9 39 11 41
REMARK Flexibility Score: inf
ROOT
ATOM      1  O   UNL     1      14.923  45.473   8.128  1.00  0.00    -0.454 OA
ENDROOT
BRANCH   1   2
ATOM      2  C   UNL     1      14.145  45.285   6.936  1.00  0.00     0.214 A 
ATOM      3  C   UNL     1      12.720  45.201   6.911  1.00  0.00     0.180 A 
ATOM      4  O   UNL     1      12.156  44.337   6.077  1.00  0.00    -0.452 OA
ATOM      5  C   UNL     1      14.785  45.069   5.698  1.00  0.00     0.239 A 
ATOM      6  C   UNL     1      12.772  43.979   4.948  1.00  0.00     0.146 A 
ATOM      7  O   UNL     1      15.966  45.469   5.522  1.00  0.00    -0.285 OA
ATOM      8  C   UNL     1      14.095  44.383   4.688  1.00  0.00     0.111 A 
ATOM      9  C   UNL     1      12.073  43.157   4.039  1.00  0.00     0.094 A 
ATOM     10  C   UNL     1      14.749  43.849   3.549  1.00  0.00     0.134 A 
ATOM     11  C   UNL     1      12.688  42.793   2.815  1.00  0.00     0.123 A 
ATOM     12  C   UNL     1      14.008  43.183   2.550  1.00  0.00     0.093 A 
BRANCH   3  13
ATOM     13  C   UNL     1      11.847  46.402   7.127  1.00  0.00     0.025 A 
ATOM     14  C   UNL     1      11.662  47.273   6.043  1.00  0.00     0.016 A 
ATOM     15  C   UNL     1      10.353  47.554   5.555  1.00  0.00     0.051 A 
ATOM     16  C   UNL     1       9.257  47.089   6.300  1.00  0.00     0.157 A 
ATOM     17  C   UNL     1      10.751  46.321   8.035  1.00  0.00     0.062 A 
ATOM     18  C   UNL     1       9.457  46.667   7.628  1.00  0.00     0.158 A 
BRANCH  16  19
ATOM     19  O   UNL     1       7.971  47.069   5.793  1.00  0.00    -0.504 OA
ATOM     20  H   UNL     1       7.631  46.276   5.247  1.00  0.00     0.293 HD
ENDBRANCH  16  19
BRANCH  18  21
ATOM     21  O   UNL     1       8.400  46.663   8.566  1.00  0.00    -0.504 OA
ATOM     22  H   UNL     1       8.447  46.097   9.421  1.00  0.00     0.293 HD
ENDBRANCH  18  21
ENDBRANCH   3  13
BRANCH  10  23
ATOM     23  O   UNL     1      16.151  43.761   3.512  1.00  0.00    -0.507 OA
ATOM     24  H   UNL     1      16.611  43.422   4.361  1.00  0.00     0.293 HD
ENDBRANCH  10  23
BRANCH  11  25
ATOM     25  O   UNL     1      12.039  41.905   1.936  1.00  0.00    -0.508 OA
ATOM     26  H   UNL     1      11.833  40.958   2.240  1.00  0.00     0.293 HD
ENDBRANCH  11  25
ENDBRANCH   1   2
BRANCH   1  27
ATOM     27  C   UNL     1      15.701  44.389   8.699  1.00  0.00     0.339 C 
ATOM     28  C   UNL     1      14.758  43.215   9.251  1.00  0.00     0.214 C 
ATOM     29  O   UNL     1      16.625  43.912   7.706  1.00  0.00    -0.332 OA
ATOM     30  C   UNL     1      14.631  42.034   8.239  1.00  0.00     0.180 C 
ATOM     31  C   UNL     1      17.137  42.617   7.979  1.00  0.00     0.179 C 
ATOM     32  C   UNL     1      16.011  41.542   7.752  1.00  0.00     0.177 C 
BRANCH  28  33
ATOM     33  O   UNL     1      13.474  43.683   9.578  1.00  0.00    -0.384 OA
ATOM     34  H   UNL     1      13.114  43.141  10.307  1.00  0.00     0.211 HD
ENDBRANCH  28  33
BRANCH  30  35
ATOM     35  O   UNL     1      13.875  40.972   8.782  1.00  0.00    -0.387 OA
ATOM     36  H   UNL     1      13.845  41.049   9.773  1.00  0.00     0.211 HD
ENDBRANCH  30  35
BRANCH  31  37
ATOM     37  C   UNL     1      17.967  42.576   9.298  1.00  0.00     0.191 C 
BRANCH  37  38
ATOM     38  O   UNL     1      18.104  41.280   9.837  1.00  0.00    -0.394 OA
ATOM     39  H   UNL     1      18.283  40.662   9.089  1.00  0.00     0.210 HD
ENDBRANCH  37  38
ENDBRANCH  31  37
BRANCH  32  40
ATOM     40  O   UNL     1      16.339  40.295   8.278  1.00  0.00    -0.387 OA
ATOM     41  H   UNL     1      16.256  39.636   7.559  1.00  0.00     0.211 HD
ENDBRANCH  32  40
ENDBRANCH   1  27
TORSDOF 12
ENDMDL
MODEL 7
REMARK VINA RESULT:    -7.118      2.507      5.773
REMARK INTER + INTRA:         -12.297
REMARK INTER:                 -10.765
REMARK INTRA:                  -1.532
REMARK UNBOUND:                -1.850
REMARK SMILES O=c1c(O[C@@H]2O[C@@H](CO)[C@@H](O)[C@@H](O)[C@@H]2O)c(-c2ccc(O)c(O)c2)oc2cc(O)cc(O)c12
REMARK SMILES IDX 4 1 3 2 16 3 25 4 2 5 26 6 1 7 33 8 27 9 31 10 28 11 30 12
REMARK SMILES IDX 17 13 18 14 19 15 20 16 24 17 22 18 21 19 23 21 32 23 29 25
REMARK SMILES IDX 5 27 14 28 6 29 12 30 7 31 10 32 15 33 13 35 8 37 9 38 11 40
REMARK H PARENT 21 20 23 22 32 24 29 26 15 34 13 36 9 39 11 41
REMARK Flexibility Score: inf
ROOT
ATOM      1  O   UNL     1      10.403  45.994   7.549  1.00  0.00    -0.454 OA
ENDROOT
BRANCH   1   2
ATOM      2  C   UNL     1       8.989  45.850   7.759  1.00  0.00     0.214 A 
ATOM      3  C   UNL     1       8.342  44.612   8.057  1.00  0.00     0.180 A 
ATOM      4  O   UNL     1       7.156  44.376   7.510  1.00  0.00    -0.452 OA
ATOM      5  C   UNL     1       8.130  46.953   7.576  1.00  0.00     0.239 A 
ATOM      6  C   UNL     1       6.345  45.383   7.183  1.00  0.00     0.146 A 
ATOM      7  O   UNL     1       8.579  48.125   7.675  1.00  0.00    -0.285 OA
ATOM      8  C   UNL     1       6.783  46.718   7.260  1.00  0.00     0.111 A 
ATOM      9  C   UNL     1       5.047  45.072   6.723  1.00  0.00     0.094 A 
ATOM     10  C   UNL     1       5.932  47.735   6.755  1.00  0.00     0.134 A 
ATOM     11  C   UNL     1       4.150  46.121   6.404  1.00  0.00     0.123 A 
ATOM     12  C   UNL     1       4.580  47.455   6.470  1.00  0.00     0.093 A 
BRANCH   3  13
ATOM     13  C   UNL     1       8.470  43.949   9.397  1.00  0.00     0.025 A 
ATOM     14  C   UNL     1       9.763  43.759   9.905  1.00  0.00     0.016 A 
ATOM     15  C   UNL     1      10.133  44.307  11.167  1.00  0.00     0.051 A 
ATOM     16  C   UNL     1       9.122  44.874  11.962  1.00  0.00     0.157 A 
ATOM     17  C   UNL     1       7.454  44.143  10.376  1.00  0.00     0.062 A 
ATOM     18  C   UNL     1       7.775  44.601  11.660  1.00  0.00     0.158 A 
BRANCH  16  19
ATOM     19  O   UNL     1       9.400  45.661  13.064  1.00  0.00    -0.504 OA
ATOM     20  H   UNL     1      10.207  46.288  13.075  1.00  0.00     0.293 HD
ENDBRANCH  16  19
BRANCH  18  21
ATOM     21  O   UNL     1       6.765  44.702  12.644  1.00  0.00    -0.504 OA
ATOM     22  H   UNL     1       5.773  44.598  12.402  1.00  0.00     0.293 HD
ENDBRANCH  18  21
ENDBRANCH   3  13
BRANCH  10  23
ATOM     23  O   UNL     1       6.471  48.954   6.309  1.00  0.00    -0.507 OA
ATOM     24  H   UNL     1       6.867  48.962   5.365  1.00  0.00     0.293 HD
ENDBRANCH  10  23
BRANCH  11  25
ATOM     25  O   UNL     1       2.884  45.828   5.865  1.00  0.00    -0.508 OA
ATOM     26  H   UNL     1       2.084  45.731   6.484  1.00  0.00     0.293 HD
ENDBRANCH  11  25
ENDBRANCH   1   2
BRANCH   1  27
ATOM     27  C   UNL     1      11.089  45.254   6.508  1.00  0.00     0.339 C 
ATOM     28  C   UNL     1      12.132  46.179   5.716  1.00  0.00     0.214 C 
ATOM     29  O   UNL     1      11.729  44.111   7.099  1.00  0.00    -0.332 OA
ATOM     30  C   UNL     1      13.594  45.996   6.230  1.00  0.00     0.180 C 
ATOM     31  C   UNL     1      12.754  43.550   6.293  1.00  0.00     0.179 C 
ATOM     32  C   UNL     1      14.003  44.508   6.281  1.00  0.00     0.177 C 
BRANCH  28  33
ATOM     33  O   UNL     1      11.786  47.540   5.788  1.00  0.00    -0.384 OA
ATOM     34  H   UNL     1      10.954  47.630   6.291  1.00  0.00     0.211 HD
ENDBRANCH  28  33
BRANCH  30  35
ATOM     35  O   UNL     1      14.507  46.748   5.459  1.00  0.00    -0.387 OA
ATOM     36  H   UNL     1      14.733  47.593   5.931  1.00  0.00     0.211 HD
ENDBRANCH  30  35
BRANCH  31  37
ATOM     37  C   UNL     1      12.209  43.002   4.940  1.00  0.00     0.191 C 
BRANCH  37  38
ATOM     38  O   UNL     1      13.166  42.275   4.200  1.00  0.00    -0.394 OA
ATOM     39  H   UNL     1      13.817  41.900   4.840  1.00  0.00     0.210 HD
ENDBRANCH  37  38
ENDBRANCH  31  37
BRANCH  32  40
ATOM     40  O   UNL     1      14.926  44.182   5.290  1.00  0.00    -0.387 OA
ATOM     41  H   UNL     1      14.540  44.436   4.427  1.00  0.00     0.211 HD
ENDBRANCH  32  40
ENDBRANCH   1  27
TORSDOF 12
ENDMDL
MODEL 8
REMARK VINA RESULT:    -7.059      2.125      5.214
REMARK INTER + INTRA:         -12.211
REMARK INTER:                 -10.696
REMARK INTRA:                  -1.515
REMARK UNBOUND:                -1.850
REMARK SMILES O=c1c(O[C@@H]2O[C@@H](CO)[C@@H](O)[C@@H](O)[C@@H]2O)c(-c2ccc(O)c(O)c2)oc2cc(O)cc(O)c12
REMARK SMILES IDX 4 1 3 2 16 3 25 4 2 5 26 6 1 7 33 8 27 9 31 10 28 11 30 12
REMARK SMILES IDX 17 13 18 14 19 15 20 16 24 17 22 18 21 19 23 21 32 23 29 25
REMARK SMILES IDX 5 27 14 28 6 29 12 30 7 31 10 32 15 33 13 35 8 37 9 38 11 40
REMARK H PARENT 21 20 23 22 32 24 29 26 15 34 13 36 9 39 11 41
REMARK Flexibility Score: inf
ROOT
ATOM      1  O   UNL     1      10.892  44.724   6.263  1.00  0.00    -0.454 OA
ENDROOT
BRANCH   1   2
ATOM      2  C   UNL     1       9.879  45.364   7.055  1.00  0.00     0.214 A 
ATOM      3  C   UNL     1       8.902  44.666   7.827  1.00  0.00     0.180 A 
ATOM      4  O   UNL     1       7.669  45.156   7.870  1.00  0.00    -0.452 OA
ATOM      5  C   UNL     1       9.739  46.767   7.027  1.00  0.00     0.239 A 
ATOM      6  C   UNL     1       7.449  46.462   7.712  1.00  0.00     0.146 A 
ATOM      7  O   UNL     1      10.716  47.491   6.702  1.00  0.00    -0.285 OA
ATOM      8  C   UNL     1       8.494  47.330   7.341  1.00  0.00     0.111 A 
ATOM      9  C   UNL     1       6.136  46.945   7.894  1.00  0.00     0.094 A 
ATOM     10  C   UNL     1       8.171  48.679   7.039  1.00  0.00     0.134 A 
ATOM     11  C   UNL     1       5.880  48.333   7.770  1.00  0.00     0.123 A 
ATOM     12  C   UNL     1       6.911  49.205   7.392  1.00  0.00     0.093 A 
BRANCH   3  13
ATOM     13  C   UNL     1       9.252  43.952   9.099  1.00  0.00     0.025 A 
ATOM     14  C   UNL     1      10.262  44.509   9.898  1.00  0.00     0.016 A 
ATOM     15  C   UNL     1       9.999  44.868  11.252  1.00  0.00     0.051 A 
ATOM     16  C   UNL     1       8.771  44.477  11.812  1.00  0.00     0.157 A 
ATOM     17  C   UNL     1       8.242  43.239   9.806  1.00  0.00     0.062 A 
ATOM     18  C   UNL     1       8.000  43.495  11.162  1.00  0.00     0.158 A 
BRANCH  16  19
ATOM     19  O   UNL     1       8.304  44.992  13.006  1.00  0.00    -0.504 OA
ATOM     20  H   UNL     1       8.421  45.980  13.238  1.00  0.00     0.293 HD
ENDBRANCH  16  19
BRANCH  18  21
ATOM     21  O   UNL     1       7.055  42.716  11.867  1.00  0.00    -0.504 OA
ATOM     22  H   UNL     1       6.425  42.070  11.378  1.00  0.00     0.293 HD
ENDBRANCH  18  21
ENDBRANCH   3  13
BRANCH  10  23
ATOM     23  O   UNL     1       8.994  49.430   6.183  1.00  0.00    -0.507 OA
ATOM     24  H   UNL     1       8.959  50.447   6.290  1.00  0.00     0.293 HD
ENDBRANCH  10  23
BRANCH  11  25
ATOM     25  O   UNL     1       4.563  48.820   7.863  1.00  0.00    -0.508 OA
ATOM     26  H   UNL     1       4.349  49.570   8.515  1.00  0.00     0.293 HD
ENDBRANCH  11  25
ENDBRANCH   1   2
BRANCH   1  27
ATOM     27  C   UNL     1      12.005  44.030   6.882  1.00  0.00     0.339 C 
ATOM     28  C   UNL     1      12.823  43.157   5.814  1.00  0.00     0.214 C 
ATOM     29  O   UNL     1      12.844  44.996   7.538  1.00  0.00    -0.332 OA
ATOM     30  C   UNL     1      14.104  43.891   5.308  1.00  0.00     0.180 C 
ATOM     31  C   UNL     1      14.152  44.521   7.816  1.00  0.00     0.179 C 
ATOM     32  C   UNL     1      14.970  44.408   6.477  1.00  0.00     0.177 C 
BRANCH  28  33
ATOM     33  O   UNL     1      12.030  42.801   4.710  1.00  0.00    -0.384 OA
ATOM     34  H   UNL     1      12.367  41.964   4.333  1.00  0.00     0.211 HD
ENDBRANCH  28  33
BRANCH  30  35
ATOM     35  O   UNL     1      14.858  43.069   4.441  1.00  0.00    -0.387 OA
ATOM     36  H   UNL     1      14.924  43.492   3.544  1.00  0.00     0.211 HD
ENDBRANCH  30  35
BRANCH  31  37
ATOM     37  C   UNL     1      14.146  43.315   8.802  1.00  0.00     0.191 C 
BRANCH  37  38
ATOM     38  O   UNL     1      15.231  43.320   9.704  1.00  0.00    -0.394 OA
ATOM     39  H   UNL     1      15.966  43.829   9.286  1.00  0.00     0.210 HD
ENDBRANCH  37  38
ENDBRANCH  31  37
BRANCH  32  40
ATOM     40  O   UNL     1      16.148  43.678   6.621  1.00  0.00    -0.387 OA
ATOM     41  H   UNL     1      16.211  43.394   7.555  1.00  0.00     0.211 HD
ENDBRANCH  32  40
ENDBRANCH   1  27
TORSDOF 12
ENDMDL
MODEL 9
REMARK VINA RESULT:    -7.007      2.487      5.722
REMARK INTER + INTRA:         -12.135
REMARK INTER:                 -10.730
REMARK INTRA:                  -1.405
REMARK UNBOUND:                -1.850
REMARK SMILES O=c1c(O[C@@H]2O[C@@H](CO)[C@@H](O)[C@@H](O)[C@@H]2O)c(-c2ccc(O)c(O)c2)oc2cc(O)cc(O)c12
REMARK SMILES IDX 4 1 3 2 16 3 25 4 2 5 26 6 1 7 33 8 27 9 31 10 28 11 30 12
REMARK SMILES IDX 17 13 18 14 19 15 20 16 24 17 22 18 21 19 23 21 32 23 29 25
REMARK SMILES IDX 5 27 14 28 6 29 12 30 7 31 10 32 15 33 13 35 8 37 9 38 11 40
REMARK H PARENT 21 20 23 22 32 24 29 26 15 34 13 36 9 39 11 41
REMARK Flexibility Score: inf
ROOT
ATOM      1  O   UNL     1      11.323  44.647   8.155  1.00  0.00    -0.454 OA
ENDROOT
BRANCH   1   2
ATOM      2  C   UNL     1       9.910  44.867   8.278  1.00  0.00     0.214 A 
ATOM      3  C   UNL     1       8.984  43.899   8.772  1.00  0.00     0.180 A 
ATOM      4  O   UNL     1       7.792  43.818   8.195  1.00  0.00    -0.452 OA
ATOM      5  C   UNL     1       9.336  46.067   7.807  1.00  0.00     0.239 A 
ATOM      6  C   UNL     1       7.247  44.884   7.606  1.00  0.00     0.146 A 
ATOM      7  O   UNL     1      10.043  47.103   7.699  1.00  0.00    -0.285 OA
ATOM      8  C   UNL     1       7.982  46.073   7.443  1.00  0.00     0.111 A 
ATOM      9  C   UNL     1       5.926  44.775   7.120  1.00  0.00     0.094 A 
ATOM     10  C   UNL     1       7.406  47.119   6.675  1.00  0.00     0.134 A 
ATOM     11  C   UNL     1       5.308  45.902   6.524  1.00  0.00     0.123 A 
ATOM     12  C   UNL     1       6.034  47.089   6.349  1.00  0.00     0.093 A 
BRANCH   3  13
ATOM     13  C   UNL     1       8.915  43.531  10.225  1.00  0.00     0.025 A 
ATOM     14  C   UNL     1      10.083  43.680  10.988  1.00  0.00     0.016 A 
ATOM     15  C   UNL     1      10.090  44.513  12.145  1.00  0.00     0.051 A 
ATOM     16  C   UNL     1       8.862  45.020  12.601  1.00  0.00     0.157 A 
ATOM     17  C   UNL     1       7.695  43.712  10.939  1.00  0.00     0.062 A 
ATOM     18  C   UNL     1       7.664  44.451  12.128  1.00  0.00     0.158 A 
BRANCH  16  19
ATOM     19  O   UNL     1       8.781  46.036  13.535  1.00  0.00    -0.504 OA
ATOM     20  H   UNL     1       9.249  46.931  13.384  1.00  0.00     0.293 HD
ENDBRANCH  16  19
BRANCH  18  21
ATOM     21  O   UNL     1       6.463  44.545  12.867  1.00  0.00    -0.504 OA
ATOM     22  H   UNL     1       6.133  43.767  13.449  1.00  0.00     0.293 HD
ENDBRANCH  18  21
ENDBRANCH   3  13
BRANCH  10  23
ATOM     23  O   UNL     1       8.227  48.061   6.033  1.00  0.00    -0.507 OA
ATOM     24  H   UNL     1       8.822  47.711   5.277  1.00  0.00     0.293 HD
ENDBRANCH  10  23
BRANCH  11  25
ATOM     25  O   UNL     1       4.024  45.787   5.959  1.00  0.00    -0.508 OA
ATOM     26  H   UNL     1       3.809  44.997   5.357  1.00  0.00     0.293 HD
ENDBRANCH  11  25
ENDBRANCH   1   2
BRANCH   1  27
ATOM     27  C   UNL     1      11.984  44.705   6.865  1.00  0.00     0.339 C 
ATOM     28  C   UNL     1      13.211  45.738   6.877  1.00  0.00     0.214 C 
ATOM     29  O   UNL     1      12.404  43.380   6.501  1.00  0.00    -0.332 OA
ATOM     30  C   UNL     1      14.584  45.023   7.080  1.00  0.00     0.180 C 
ATOM     31  C   UNL     1      13.405  43.354   5.494  1.00  0.00     0.179 C 
ATOM     32  C   UNL     1      14.772  43.851   6.094  1.00  0.00     0.177 C 
BRANCH  28  33
ATOM     33  O   UNL     1      13.056  46.725   7.865  1.00  0.00    -0.384 OA
ATOM     34  H   UNL     1      13.939  47.033   8.149  1.00  0.00     0.211 HD
ENDBRANCH  28  33
BRANCH  30  35
ATOM     35  O   UNL     1      15.656  45.938   6.995  1.00  0.00    -0.387 OA
ATOM     36  H   UNL     1      16.352  45.708   7.666  1.00  0.00     0.211 HD
ENDBRANCH  30  35
BRANCH  31  37
ATOM     37  C   UNL     1      12.905  43.959   4.148  1.00  0.00     0.191 C 
BRANCH  37  38
ATOM     38  O   UNL     1      13.655  45.075   3.719  1.00  0.00    -0.394 OA
ATOM     39  H   UNL     1      13.076  45.616   3.130  1.00  0.00     0.210 HD
ENDBRANCH  37  38
ENDBRANCH  31  37
BRANCH  32  40
ATOM     40  O   UNL     1      15.721  44.136   5.114  1.00  0.00    -0.387 OA
ATOM     41  H   UNL     1      16.000  45.067   5.230  1.00  0.00     0.211 HD
ENDBRANCH  32  40
ENDBRANCH   1  27
TORSDOF 12
ENDMDL
