MODEL 1
REMARK VINA RESULT:    -5.328      0.000      0.000
REMARK INTER + INTRA:          -5.847
REMARK INTER:                  -5.795
REMARK INTRA:                  -0.053
REMARK UNBOUND:                -0.053
REMARK SMILES COc1cc2ccc(=O)oc2cc1O
REMARK SMILES IDX 3 1 13 2 12 3 11 4 5 5 4 6 6 7 7 8 8 9 9 10 10 11 2 12 1 13
REMARK SMILES IDX 14 14
REMARK H PARENT 14 15
REMARK Flexibility Score: inf
ROOT
ATOM      1  C   UNL     1     -96.208  83.944 209.077  1.00  0.00     0.161 A 
ATOM      2  C   UNL     1     -95.947  82.938 210.020  1.00  0.00     0.161 A 
ATOM      3  C   UNL     1     -96.284  81.605 209.744  1.00  0.00     0.098 A 
ATOM      4  C   UNL     1     -96.881  81.266 208.528  1.00  0.00     0.142 A 
ATOM      5  C   UNL     1     -97.146  82.271 207.574  1.00  0.00     0.022 A 
ATOM      6  C   UNL     1     -96.811  83.605 207.849  1.00  0.00     0.062 A 
ATOM      7  C   UNL     1     -97.745  81.902 206.366  1.00  0.00     0.019 A 
ATOM      8  C   UNL     1     -98.060  80.562 206.139  1.00  0.00     0.094 A 
ATOM      9  C   UNL     1     -97.768  79.621 207.131  1.00  0.00     0.336 A 
ATOM     10  O   UNL     1     -98.044  78.407 206.946  1.00  0.00    -0.246 OA
ATOM     11  O   UNL     1     -97.197  79.999 208.272  1.00  0.00    -0.423 OA
ENDROOT
BRANCH   1  12
ATOM     12  O   UNL     1     -95.854  85.265 209.396  1.00  0.00    -0.493 OA
ATOM     13  C   UNL     1     -96.688  86.399 209.175  1.00  0.00     0.278 C 
ENDBRANCH   1  12
BRANCH   2  14
ATOM     14  O   UNL     1     -95.351  83.273 211.236  1.00  0.00    -0.504 OA
ATOM     15  H   UNL     1     -95.549  82.756 212.084  1.00  0.00     0.293 HD
ENDBRANCH   2  14
TORSDOF 2
ENDMDL
MODEL 2
REMARK VINA RESULT:    -5.159      2.988      4.019
REMARK INTER + INTRA:          -5.664
REMARK INTER:                  -5.602
REMARK INTRA:                  -0.062
REMARK UNBOUND:                -0.053
REMARK SMILES COc1cc2ccc(=O)oc2cc1O
REMARK SMILES IDX 3 1 13 2 12 3 11 4 5 5 4 6 6 7 7 8 8 9 9 10 10 11 2 12 1 13
REMARK SMILES IDX 14 14
REMARK H PARENT 14 15
REMARK Flexibility Score: inf
ROOT
ATOM      1  C   UNL     1     -96.070  84.773 208.907  1.00  0.00     0.161 A 
ATOM      2  C   UNL     1     -96.681  86.036 208.901  1.00  0.00     0.161 A 
ATOM      3  C   UNL     1     -97.819  86.268 208.114  1.00  0.00     0.098 A 
ATOM      4  C   UNL     1     -98.354  85.245 207.330  1.00  0.00     0.142 A 
ATOM      5  C   UNL     1     -97.746  83.971 207.330  1.00  0.00     0.022 A 
ATOM      6  C   UNL     1     -96.608  83.738 208.116  1.00  0.00     0.062 A 
ATOM      7  C   UNL     1     -98.304  82.966 206.535  1.00  0.00     0.019 A 
ATOM      8  C   UNL     1     -99.436  83.247 205.770  1.00  0.00     0.094 A 
ATOM      9  C   UNL     1     -99.985  84.532 205.820  1.00  0.00     0.336 A 
ATOM     10  O   UNL     1    -101.007  84.807 205.138  1.00  0.00    -0.246 OA
ATOM     11  O   UNL     1     -99.434  85.471 206.586  1.00  0.00    -0.423 OA
ENDROOT
BRANCH   1  12
ATOM     12  O   UNL     1     -94.934  84.586 209.710  1.00  0.00    -0.493 OA
ATOM     13  C   UNL     1     -94.877  83.715 210.836  1.00  0.00     0.278 C 
ENDBRANCH   1  12
BRANCH   2  14
ATOM     14  O   UNL     1     -96.150  87.061 209.683  1.00  0.00    -0.504 OA
ATOM     15  H   UNL     1     -96.044  88.002 209.324  1.00  0.00     0.293 HD
ENDBRANCH   2  14
TORSDOF 2
ENDMDL
MODEL 3
REMARK VINA RESULT:    -4.970      2.398      5.418
REMARK INTER + INTRA:          -5.459
REMARK INTER:                  -5.395
REMARK INTRA:                  -0.064
REMARK UNBOUND:                -0.053
REMARK SMILES COc1cc2ccc(=O)oc2cc1O
REMARK SMILES IDX 3 1 13 2 12 3 11 4 5 5 4 6 6 7 7 8 8 9 9 10 10 11 2 12 1 13
REMARK SMILES IDX 14 14
REMARK H PARENT 14 15
REMARK Flexibility Score: inf
ROOT
ATOM      1  C   UNL     1     -96.173  79.530 206.392  1.00  0.00     0.161 A 
ATOM      2  C   UNL     1     -97.385  79.649 205.696  1.00  0.00     0.161 A 
ATOM      3  C   UNL     1     -98.116  80.845 205.746  1.00  0.00     0.098 A 
ATOM      4  C   UNL     1     -97.644  81.928 206.489  1.00  0.00     0.142 A 
ATOM      5  C   UNL     1     -96.425  81.818 207.192  1.00  0.00     0.022 A 
ATOM      6  C   UNL     1     -95.694  80.623 207.143  1.00  0.00     0.062 A 
ATOM      7  C   UNL     1     -95.978  82.920 207.927  1.00  0.00     0.019 A 
ATOM      8  C   UNL     1     -96.741  84.087 207.946  1.00  0.00     0.094 A 
ATOM      9  C   UNL     1     -97.938  84.124 207.225  1.00  0.00     0.336 A 
ATOM     10  O   UNL     1     -98.642  85.168 207.227  1.00  0.00    -0.246 OA
ATOM     11  O   UNL     1     -98.341  83.061 206.533  1.00  0.00    -0.423 OA
ENDROOT
BRANCH   1  12
ATOM     12  O   UNL     1     -95.475  78.315 206.313  1.00  0.00    -0.493 OA
ATOM     13  C   UNL     1     -95.325  77.398 207.394  1.00  0.00     0.278 C 
ENDBRANCH   1  12
BRANCH   2  14
ATOM     14  O   UNL     1     -97.860  78.569 204.953  1.00  0.00    -0.504 OA
ATOM     15  H   UNL     1     -98.847  78.453 204.755  1.00  0.00     0.293 HD
ENDBRANCH   2  14
TORSDOF 2
ENDMDL
MODEL 4
REMARK VINA RESULT:    -4.942      2.041      2.894
REMARK INTER + INTRA:          -5.428
REMARK INTER:                  -5.368
REMARK INTRA:                  -0.060
REMARK UNBOUND:                -0.053
REMARK SMILES COc1cc2ccc(=O)oc2cc1O
REMARK SMILES IDX 3 1 13 2 12 3 11 4 5 5 4 6 6 7 7 8 8 9 9 10 10 11 2 12 1 13
REMARK SMILES IDX 14 14
REMARK H PARENT 14 15
REMARK Flexibility Score: inf
ROOT
ATOM      1  C   UNL     1     -97.018  86.631 208.689  1.00  0.00     0.161 A 
ATOM      2  C   UNL     1     -95.780  86.150 209.142  1.00  0.00     0.161 A 
ATOM      3  C   UNL     1     -95.371  84.844 208.830  1.00  0.00     0.098 A 
ATOM      4  C   UNL     1     -96.192  84.013 208.067  1.00  0.00     0.142 A 
ATOM      5  C   UNL     1     -97.438  84.488 207.607  1.00  0.00     0.022 A 
ATOM      6  C   UNL     1     -97.849  85.792 207.918  1.00  0.00     0.062 A 
ATOM      7  C   UNL     1     -98.238  83.632 206.845  1.00  0.00     0.019 A 
ATOM      8  C   UNL     1     -97.786  82.343 206.562  1.00  0.00     0.094 A 
ATOM      9  C   UNL     1     -96.540  81.940 207.051  1.00  0.00     0.336 A 
ATOM     10  O   UNL     1     -96.113  80.781 206.806  1.00  0.00    -0.246 OA
ATOM     11  O   UNL     1     -95.798  82.775 207.774  1.00  0.00    -0.423 OA
ENDROOT
BRANCH   1  12
ATOM     12  O   UNL     1     -97.386  87.943 209.024  1.00  0.00    -0.493 OA
ATOM     13  C   UNL     1     -97.211  89.073 208.173  1.00  0.00     0.278 C 
ENDBRANCH   1  12
BRANCH   2  14
ATOM     14  O   UNL     1     -94.958  86.978 209.904  1.00  0.00    -0.504 OA
ATOM     15  H   UNL     1     -94.417  86.619 210.683  1.00  0.00     0.293 HD
ENDBRANCH   2  14
TORSDOF 2
ENDMDL
MODEL 5
REMARK VINA RESULT:    -4.930      2.425      4.272
REMARK INTER + INTRA:          -5.414
REMARK INTER:                  -5.357
REMARK INTRA:                  -0.057
REMARK UNBOUND:                -0.053
REMARK SMILES COc1cc2ccc(=O)oc2cc1O
REMARK SMILES IDX 3 1 13 2 12 3 11 4 5 5 4 6 6 7 7 8 8 9 9 10 10 11 2 12 1 13
REMARK SMILES IDX 14 14
REMARK H PARENT 14 15
REMARK Flexibility Score: inf
ROOT
ATOM      1  C   UNL     1     -97.964  87.319 207.623  1.00  0.00     0.161 A 
ATOM      2  C   UNL     1     -97.114  87.556 208.714  1.00  0.00     0.161 A 
ATOM      3  C   UNL     1     -96.411  86.496 209.307  1.00  0.00     0.098 A 
ATOM      4  C   UNL     1     -96.551  85.197 208.817  1.00  0.00     0.142 A 
ATOM      5  C   UNL     1     -97.404  84.949 207.721  1.00  0.00     0.022 A 
ATOM      6  C   UNL     1     -98.107  86.007 207.127  1.00  0.00     0.062 A 
ATOM      7  C   UNL     1     -97.523  83.638 207.252  1.00  0.00     0.019 A 
ATOM      8  C   UNL     1     -96.803  82.619 207.876  1.00  0.00     0.094 A 
ATOM      9  C   UNL     1     -95.977  82.939 208.958  1.00  0.00     0.336 A 
ATOM     10  O   UNL     1     -95.318  82.035 209.535  1.00  0.00    -0.246 OA
ATOM     11  O   UNL     1     -95.881  84.196 209.384  1.00  0.00    -0.423 OA
ENDROOT
BRANCH   1  12
ATOM     12  O   UNL     1     -98.647  88.409 207.061  1.00  0.00    -0.493 OA
ATOM     13  C   UNL     1     -98.196  89.147 205.929  1.00  0.00     0.278 C 
ENDBRANCH   1  12
BRANCH   2  14
ATOM     14  O   UNL     1     -96.971  88.853 209.206  1.00  0.00    -0.504 OA
ATOM     15  H   UNL     1     -97.292  89.658 208.682  1.00  0.00     0.293 HD
ENDBRANCH   2  14
TORSDOF 2
ENDMDL
MODEL 6
REMARK VINA RESULT:    -4.903      1.176      4.792
REMARK INTER + INTRA:          -5.385
REMARK INTER:                  -5.320
REMARK INTRA:                  -0.065
REMARK UNBOUND:                -0.053
REMARK SMILES COc1cc2ccc(=O)oc2cc1O
REMARK SMILES IDX 3 1 13 2 12 3 11 4 5 5 4 6 6 7 7 8 8 9 9 10 10 11 2 12 1 13
REMARK SMILES IDX 14 14
REMARK H PARENT 14 15
REMARK Flexibility Score: inf
ROOT
ATOM      1  C   UNL     1     -96.960  80.654 208.102  1.00  0.00     0.161 A 
ATOM      2  C   UNL     1     -96.112  80.788 209.213  1.00  0.00     0.161 A 
ATOM      3  C   UNL     1     -95.745  82.062 209.674  1.00  0.00     0.098 A 
ATOM      4  C   UNL     1     -96.219  83.207 209.031  1.00  0.00     0.142 A 
ATOM      5  C   UNL     1     -97.072  83.082 207.914  1.00  0.00     0.022 A 
ATOM      6  C   UNL     1     -97.439  81.810 207.452  1.00  0.00     0.062 A 
ATOM      7  C   UNL     1     -97.530  84.246 207.292  1.00  0.00     0.019 A 
ATOM      8  C   UNL     1     -97.136  85.489 207.787  1.00  0.00     0.094 A 
ATOM      9  C   UNL     1     -96.289  85.536 208.899  1.00  0.00     0.336 A 
ATOM     10  O   UNL     1     -95.922  86.647 209.363  1.00  0.00    -0.246 OA
ATOM     11  O   UNL     1     -95.867  84.412 209.473  1.00  0.00    -0.423 OA
ENDROOT
BRANCH   1  12
ATOM     12  O   UNL     1     -97.301  79.361 207.677  1.00  0.00    -0.493 OA
ATOM     13  C   UNL     1     -98.548  78.726 207.948  1.00  0.00     0.278 C 
ENDBRANCH   1  12
BRANCH   2  14
ATOM     14  O   UNL     1     -95.637  79.647 209.857  1.00  0.00    -0.504 OA
ATOM     15  H   UNL     1     -95.342  79.668 210.826  1.00  0.00     0.293 HD
ENDBRANCH   2  14
TORSDOF 2
ENDMDL
MODEL 7
REMARK VINA RESULT:    -4.889      1.435      5.386
REMARK INTER + INTRA:          -5.370
REMARK INTER:                  -5.316
REMARK INTRA:                  -0.054
REMARK UNBOUND:                -0.053
REMARK SMILES COc1cc2ccc(=O)oc2cc1O
REMARK SMILES IDX 3 1 13 2 12 3 11 4 5 5 4 6 6 7 7 8 8 9 9 10 10 11 2 12 1 13
REMARK SMILES IDX 14 14
REMARK H PARENT 14 15
REMARK Flexibility Score: inf
ROOT
ATOM      1  C   UNL     1     -97.393  81.104 208.004  1.00  0.00     0.161 A 
ATOM      2  C   UNL     1     -97.792  82.097 207.096  1.00  0.00     0.161 A 
ATOM      3  C   UNL     1     -97.359  83.421 207.260  1.00  0.00     0.098 A 
ATOM      4  C   UNL     1     -96.526  83.763 208.327  1.00  0.00     0.142 A 
ATOM      5  C   UNL     1     -96.120  82.770 209.245  1.00  0.00     0.022 A 
ATOM      6  C   UNL     1     -96.553  81.447 209.083  1.00  0.00     0.062 A 
ATOM      7  C   UNL     1     -95.286  83.143 210.303  1.00  0.00     0.019 A 
ATOM      8  C   UNL     1     -94.882  84.473 210.422  1.00  0.00     0.094 A 
ATOM      9  C   UNL     1     -95.324  85.402 209.475  1.00  0.00     0.336 A 
ATOM     10  O   UNL     1     -94.971  86.606 209.564  1.00  0.00    -0.246 OA
ATOM     11  O   UNL     1     -96.117  85.021 208.477  1.00  0.00    -0.423 OA
ENDROOT
BRANCH   1  12
ATOM     12  O   UNL     1     -97.851  79.792 207.801  1.00  0.00    -0.493 OA
ATOM     13  C   UNL     1     -99.010  79.238 208.417  1.00  0.00     0.278 C 
ENDBRANCH   1  12
BRANCH   2  14
ATOM     14  O   UNL     1     -98.624  81.760 206.030  1.00  0.00    -0.504 OA
ATOM     15  H   UNL     1     -99.280  82.424 205.637  1.00  0.00     0.293 HD
ENDBRANCH   2  14
TORSDOF 2
ENDMDL
MODEL 8
REMARK VINA RESULT:    -4.862      1.833      5.096
REMARK INTER + INTRA:          -5.341
REMARK INTER:                  -5.279
REMARK INTRA:                  -0.061
REMARK UNBOUND:                -0.053
REMARK SMILES COc1cc2ccc(=O)oc2cc1O
REMARK SMILES IDX 3 1 13 2 12 3 11 4 5 5 4 6 6 7 7 8 8 9 9 10 10 11 2 12 1 13
REMARK SMILES IDX 14 14
REMARK H PARENT 14 15
REMARK Flexibility Score: inf
ROOT
ATOM      1  C   UNL     1     -96.432  82.439 208.057  1.00  0.00     0.161 A 
ATOM      2  C   UNL     1     -95.698  82.946 209.140  1.00  0.00     0.161 A 
ATOM      3  C   UNL     1     -95.790  84.304 209.484  1.00  0.00     0.098 A 
ATOM      4  C   UNL     1     -96.612  85.161 208.752  1.00  0.00     0.142 A 
ATOM      5  C   UNL     1     -97.354  84.660 207.661  1.00  0.00     0.022 A 
ATOM      6  C   UNL     1     -97.263  83.304 207.316  1.00  0.00     0.062 A 
ATOM      7  C   UNL     1     -98.169  85.543 206.948  1.00  0.00     0.019 A 
ATOM      8  C   UNL     1     -98.226  86.884 207.329  1.00  0.00     0.094 A 
ATOM      9  C   UNL     1     -97.463  87.310 208.421  1.00  0.00     0.336 A 
ATOM     10  O   UNL     1     -97.501  88.515 208.782  1.00  0.00    -0.246 OA
ATOM     11  O   UNL     1     -96.696  86.448 209.084  1.00  0.00    -0.423 OA
ENDROOT
BRANCH   1  12
ATOM     12  O   UNL     1     -96.309  81.075 207.749  1.00  0.00    -0.493 OA
ATOM     13  C   UNL     1     -95.776  80.568 206.528  1.00  0.00     0.278 C 
ENDBRANCH   1  12
BRANCH   2  14
ATOM     14  O   UNL     1     -94.875  82.093 209.873  1.00  0.00    -0.504 OA
ATOM     15  H   UNL     1     -93.922  81.898 209.588  1.00  0.00     0.293 HD
ENDBRANCH   2  14
TORSDOF 2
ENDMDL
MODEL 9
REMARK VINA RESULT:    -4.853      1.536      2.468
REMARK INTER + INTRA:          -5.331
REMARK INTER:                  -5.266
REMARK INTRA:                  -0.064
REMARK UNBOUND:                -0.053
REMARK SMILES COc1cc2ccc(=O)oc2cc1O
REMARK SMILES IDX 3 1 13 2 12 3 11 4 5 5 4 6 6 7 7 8 8 9 9 10 10 11 2 12 1 13
REMARK SMILES IDX 14 14
REMARK H PARENT 14 15
REMARK Flexibility Score: inf
ROOT
ATOM      1  C   UNL     1     -96.411  86.071 208.478  1.00  0.00     0.161 A 
ATOM      2  C   UNL     1     -95.539  85.674 209.504  1.00  0.00     0.161 A 
ATOM      3  C   UNL     1     -95.337  84.311 209.772  1.00  0.00     0.098 A 
ATOM      4  C   UNL     1     -96.000  83.340 209.021  1.00  0.00     0.142 A 
ATOM      5  C   UNL     1     -96.878  83.730 207.988  1.00  0.00     0.022 A 
ATOM      6  C   UNL     1     -97.082  85.091 207.719  1.00  0.00     0.062 A 
ATOM      7  C   UNL     1     -97.528  82.734 207.254  1.00  0.00     0.019 A 
ATOM      8  C   UNL     1     -97.293  81.394 207.560  1.00  0.00     0.094 A 
ATOM      9  C   UNL     1     -96.410  81.081 208.597  1.00  0.00     0.336 A 
ATOM     10  O   UNL     1     -96.183  79.878 208.889  1.00  0.00    -0.246 OA
ATOM     11  O   UNL     1     -95.804  82.049 209.281  1.00  0.00    -0.423 OA
ENDROOT
BRANCH   1  12
ATOM     12  O   UNL     1     -96.583  87.445 208.244  1.00  0.00    -0.493 OA
ATOM     13  C   UNL     1     -95.936  88.173 207.205  1.00  0.00     0.278 C 
ENDBRANCH   1  12
BRANCH   2  14
ATOM     14  O   UNL     1     -94.875  86.642 210.256  1.00  0.00    -0.504 OA
ATOM     15  H   UNL     1     -94.717  87.576 209.898  1.00  0.00     0.293 HD
ENDBRANCH   2  14
TORSDOF 2
ENDMDL
