MODEL 1
REMARK VINA RESULT:    -4.516      0.000      0.000
REMARK INTER + INTRA:         -16.374
REMARK INTER:                 -11.380
REMARK INTRA:                  -4.994
REMARK UNBOUND:                -4.994
REMARK SMILES CCCCCCCCCCCCCCCCCCCCCCCCCCCC(=O)[O-]
REMARK SMILES IDX 15 1 16 2 17 3 18 4 19 5 20 6 21 7 22 8 23 9 24 10 25 11
REMARK SMILES IDX 26 12 27 13 28 14 29 15 30 16 14 17 13 18 12 19 11 20 10 21
REMARK SMILES IDX 9 22 8 23 7 24 6 25 5 26 4 27 3 28 2 29 1 30
REMARK H PARENT
REMARK Flexibility Score: inf
ROOT
ATOM      1  C   UNL     1      15.580   3.779   0.335  1.00  0.00     0.000 C 
ENDROOT
BRANCH   1   2
ATOM      2  C   UNL     1      16.116   3.374  -1.050  1.00  0.00     0.000 C 
BRANCH   2   3
ATOM      3  C   UNL     1      17.250   2.338  -0.971  1.00  0.00     0.000 C 
BRANCH   3   4
ATOM      4  C   UNL     1      17.103   1.209  -2.010  1.00  0.00     0.000 C 
BRANCH   4   5
ATOM      5  C   UNL     1      16.019   0.162  -1.692  1.00  0.00     0.000 C 
BRANCH   5   6
ATOM      6  C   UNL     1      14.898   0.033  -2.742  1.00  0.00     0.000 C 
BRANCH   6   7
ATOM      7  C   UNL     1      13.611   0.808  -2.387  1.00  0.00     0.000 C 
BRANCH   7   8
ATOM      8  C   UNL     1      13.411   0.965  -0.872  1.00  0.00     0.000 C 
BRANCH   8   9
ATOM      9  C   UNL     1      12.998  -0.366  -0.230  1.00  0.00     0.000 C 
BRANCH   9  10
ATOM     10  C   UNL     1      13.359  -0.391   1.263  1.00  0.00     0.000 C 
BRANCH  10  11
ATOM     11  C   UNL     1      14.452   0.627   1.624  1.00  0.00     0.000 C 
BRANCH  11  12
ATOM     12  C   UNL     1      14.533   0.899   3.134  1.00  0.00     0.006 C 
BRANCH  12  13
ATOM     13  C   UNL     1      15.704   1.831   3.460  1.00  0.00     0.053 C 
BRANCH  13  14
ATOM     14  C   UNL     1      16.333   1.448   4.762  1.00  0.00     0.041 C 
ATOM     15  O   UNL     1      17.214   2.183   5.281  1.00  0.00    -0.550 OA
ATOM     16  O   UNL     1      15.981   0.255   5.380  1.00  0.00    -0.550 OA
ENDBRANCH  13  14
ENDBRANCH  12  13
ENDBRANCH  11  12
ENDBRANCH  10  11
ENDBRANCH   9  10
ENDBRANCH   8   9
ENDBRANCH   7   8
ENDBRANCH   6   7
ENDBRANCH   5   6
ENDBRANCH   4   5
ENDBRANCH   3   4
ENDBRANCH   2   3
ENDBRANCH   1   2
BRANCH   1  17
ATOM     17  C   UNL     1      14.079   4.133   0.383  1.00  0.00     0.000 C 
BRANCH  17  18
ATOM     18  C   UNL     1      13.533   4.475   1.780  1.00  0.00     0.000 C 
BRANCH  18  19
ATOM     19  C   UNL     1      12.063   4.920   1.754  1.00  0.00     0.000 C 
BRANCH  19  20
ATOM     20  C   UNL     1      11.200   4.021   2.647  1.00  0.00     0.000 C 
BRANCH  20  21
ATOM     21  C   UNL     1      11.214   2.569   2.145  1.00  0.00     0.000 C 
BRANCH  21  22
ATOM     22  C   UNL     1       9.847   2.106   1.610  1.00  0.00    -0.000 C 
BRANCH  22  23
ATOM     23  C   UNL     1       9.904   1.191   0.374  1.00  0.00    -0.000 C 
BRANCH  23  24
ATOM     24  C   UNL     1       9.704   1.956  -0.946  1.00  0.00    -0.000 C 
BRANCH  24  25
ATOM     25  C   UNL     1       9.139   3.369  -0.728  1.00  0.00    -0.000 C 
BRANCH  25  26
ATOM     26  C   UNL     1      10.074   4.472  -1.256  1.00  0.00    -0.000 C 
BRANCH  26  27
ATOM     27  C   UNL     1       9.566   5.890  -0.936  1.00  0.00    -0.000 C 
BRANCH  27  28
ATOM     28  C   UNL     1       8.635   5.982   0.286  1.00  0.00    -0.000 C 
BRANCH  28  29
ATOM     29  C   UNL     1       8.395   7.426   0.748  1.00  0.00    -0.003 C 
ATOM     30  C   UNL     1       8.610   8.412  -0.397  1.00  0.00     0.004 C 
ENDBRANCH  28  29
ENDBRANCH  27  28
ENDBRANCH  26  27
ENDBRANCH  25  26
ENDBRANCH  24  25
ENDBRANCH  23  24
ENDBRANCH  22  23
ENDBRANCH  21  22
ENDBRANCH  20  21
ENDBRANCH  19  20
ENDBRANCH  18  19
ENDBRANCH  17  18
ENDBRANCH   1  17
TORSDOF 26
ENDMDL
MODEL 2
REMARK VINA RESULT:    -4.485      2.276      3.970
REMARK INTER + INTRA:         -16.296
REMARK INTER:                 -10.210
REMARK INTRA:                  -6.086
REMARK UNBOUND:                -4.994
REMARK SMILES CCCCCCCCCCCCCCCCCCCCCCCCCCCC(=O)[O-]
REMARK SMILES IDX 15 1 16 2 17 3 18 4 19 5 20 6 21 7 22 8 23 9 24 10 25 11
REMARK SMILES IDX 26 12 27 13 28 14 29 15 30 16 14 17 13 18 12 19 11 20 10 21
REMARK SMILES IDX 9 22 8 23 7 24 6 25 5 26 4 27 3 28 2 29 1 30
REMARK H PARENT
REMARK Flexibility Score: inf
ROOT
ATOM      1  C   UNL     1      15.225   0.841   2.351  1.00  0.00     0.000 C 
ENDROOT
BRANCH   1   2
ATOM      2  C   UNL     1      15.779   2.248   2.640  1.00  0.00     0.000 C 
BRANCH   2   3
ATOM      3  C   UNL     1      15.231   3.315   1.677  1.00  0.00     0.000 C 
BRANCH   3   4
ATOM      4  C   UNL     1      14.260   2.735   0.631  1.00  0.00     0.000 C 
BRANCH   4   5
ATOM      5  C   UNL     1      14.272   3.442  -0.738  1.00  0.00     0.000 C 
BRANCH   5   6
ATOM      6  C   UNL     1      13.101   3.087  -1.676  1.00  0.00     0.000 C 
BRANCH   6   7
ATOM      7  C   UNL     1      12.152   2.006  -1.115  1.00  0.00     0.000 C 
BRANCH   7   8
ATOM      8  C   UNL     1      12.067   0.764  -2.016  1.00  0.00     0.000 C 
BRANCH   8   9
ATOM      9  C   UNL     1      12.319  -0.518  -1.212  1.00  0.00     0.000 C 
BRANCH   9  10
ATOM     10  C   UNL     1      13.807  -0.665  -0.865  1.00  0.00     0.000 C 
BRANCH  10  11
ATOM     11  C   UNL     1      14.689  -0.856  -2.109  1.00  0.00     0.000 C 
BRANCH  11  12
ATOM     12  C   UNL     1      15.682   0.299  -2.315  1.00  0.00     0.006 C 
BRANCH  12  13
ATOM     13  C   UNL     1      16.530   0.521  -1.059  1.00  0.00     0.053 C 
BRANCH  13  14
ATOM     14  C   UNL     1      17.620   1.510  -1.330  1.00  0.00     0.041 C 
ATOM     15  O   UNL     1      17.498   2.706  -0.955  1.00  0.00    -0.550 OA
ATOM     16  O   UNL     1      18.749   1.122  -2.039  1.00  0.00    -0.550 OA
ENDBRANCH  13  14
ENDBRANCH  12  13
ENDBRANCH  11  12
ENDBRANCH  10  11
ENDBRANCH   9  10
ENDBRANCH   8   9
ENDBRANCH   7   8
ENDBRANCH   6   7
ENDBRANCH   5   6
ENDBRANCH   4   5
ENDBRANCH   3   4
ENDBRANCH   2   3
ENDBRANCH   1   2
BRANCH   1  17
ATOM     17  C   UNL     1      14.111   0.362   3.305  1.00  0.00     0.000 C 
BRANCH  17  18
ATOM     18  C   UNL     1      13.175  -0.714   2.729  1.00  0.00     0.000 C 
BRANCH  18  19
ATOM     19  C   UNL     1      11.695  -0.444   3.036  1.00  0.00     0.000 C 
BRANCH  19  20
ATOM     20  C   UNL     1      11.126   0.629   2.100  1.00  0.00     0.000 C 
BRANCH  20  21
ATOM     21  C   UNL     1       9.914   1.329   2.735  1.00  0.00     0.000 C 
BRANCH  21  22
ATOM     22  C   UNL     1       8.709   1.421   1.782  1.00  0.00    -0.000 C 
BRANCH  22  23
ATOM     23  C   UNL     1       8.925   0.800   0.391  1.00  0.00    -0.000 C 
BRANCH  23  24
ATOM     24  C   UNL     1       8.676   1.795  -0.754  1.00  0.00    -0.000 C 
BRANCH  24  25
ATOM     25  C   UNL     1       8.485   3.236  -0.251  1.00  0.00    -0.000 C 
BRANCH  25  26
ATOM     26  C   UNL     1       9.082   4.284  -1.208  1.00  0.00    -0.000 C 
BRANCH  26  27
ATOM     27  C   UNL     1      10.146   5.170  -0.535  1.00  0.00    -0.000 C 
BRANCH  27  28
ATOM     28  C   UNL     1      10.217   5.045   0.997  1.00  0.00    -0.000 C 
BRANCH  28  29
ATOM     29  C   UNL     1      11.656   4.990   1.528  1.00  0.00    -0.003 C 
ATOM     30  C   UNL     1      11.691   4.496   2.971  1.00  0.00     0.004 C 
ENDBRANCH  28  29
ENDBRANCH  27  28
ENDBRANCH  26  27
ENDBRANCH  25  26
ENDBRANCH  24  25
ENDBRANCH  23  24
ENDBRANCH  22  23
ENDBRANCH  21  22
ENDBRANCH  20  21
ENDBRANCH  19  20
ENDBRANCH  18  19
ENDBRANCH  17  18
ENDBRANCH   1  17
TORSDOF 26
ENDMDL
MODEL 3
REMARK VINA RESULT:    -4.470      3.024      6.109
REMARK INTER + INTRA:         -16.257
REMARK INTER:                 -10.453
REMARK INTRA:                  -5.804
REMARK UNBOUND:                -4.994
REMARK SMILES CCCCCCCCCCCCCCCCCCCCCCCCCCCC(=O)[O-]
REMARK SMILES IDX 15 1 16 2 17 3 18 4 19 5 20 6 21 7 22 8 23 9 24 10 25 11
REMARK SMILES IDX 26 12 27 13 28 14 29 15 30 16 14 17 13 18 12 19 11 20 10 21
REMARK SMILES IDX 9 22 8 23 7 24 6 25 5 26 4 27 3 28 2 29 1 30
REMARK H PARENT
REMARK Flexibility Score: inf
ROOT
ATOM      1  C   UNL     1      15.757   2.444   2.508  1.00  0.00     0.000 C 
ENDROOT
BRANCH   1   2
ATOM      2  C   UNL     1      15.699   1.291   3.526  1.00  0.00     0.000 C 
BRANCH   2   3
ATOM      3  C   UNL     1      15.355  -0.061   2.878  1.00  0.00     0.000 C 
BRANCH   3   4
ATOM      4  C   UNL     1      14.580  -0.998   3.824  1.00  0.00     0.000 C 
BRANCH   4   5
ATOM      5  C   UNL     1      13.045  -0.932   3.701  1.00  0.00     0.000 C 
BRANCH   5   6
ATOM      6  C   UNL     1      12.513  -0.247   2.426  1.00  0.00     0.000 C 
BRANCH   6   7
ATOM      7  C   UNL     1      11.360  -1.008   1.739  1.00  0.00     0.000 C 
BRANCH   7   8
ATOM      8  C   UNL     1      10.364  -0.071   1.037  1.00  0.00     0.000 C 
BRANCH   8   9
ATOM      9  C   UNL     1       9.739   0.913   2.034  1.00  0.00     0.000 C 
BRANCH   9  10
ATOM     10  C   UNL     1       8.637   1.747   1.364  1.00  0.00     0.000 C 
BRANCH  10  11
ATOM     11  C   UNL     1       8.965   2.096  -0.097  1.00  0.00     0.000 C 
BRANCH  11  12
ATOM     12  C   UNL     1       8.369   3.444  -0.532  1.00  0.00     0.006 C 
BRANCH  12  13
ATOM     13  C   UNL     1       8.993   4.599   0.257  1.00  0.00     0.053 C 
BRANCH  13  14
ATOM     14  C   UNL     1       9.637   5.580  -0.671  1.00  0.00     0.041 C 
ATOM     15  O   UNL     1       9.916   6.741  -0.270  1.00  0.00    -0.550 OA
ATOM     16  O   UNL     1       9.885   5.229  -1.991  1.00  0.00    -0.550 OA
ENDBRANCH  13  14
ENDBRANCH  12  13
ENDBRANCH  11  12
ENDBRANCH  10  11
ENDBRANCH   9  10
ENDBRANCH   8   9
ENDBRANCH   7   8
ENDBRANCH   6   7
ENDBRANCH   5   6
ENDBRANCH   4   5
ENDBRANCH   3   4
ENDBRANCH   2   3
ENDBRANCH   1   2
BRANCH   1  17
ATOM     17  C   UNL     1      15.767   2.016   1.026  1.00  0.00     0.000 C 
BRANCH  17  18
ATOM     18  C   UNL     1      16.122   3.131   0.026  1.00  0.00     0.000 C 
BRANCH  18  19
ATOM     19  C   UNL     1      16.698   2.590  -1.290  1.00  0.00     0.000 C 
BRANCH  19  20
ATOM     20  C   UNL     1      16.897   1.072  -1.221  1.00  0.00     0.000 C 
BRANCH  20  21
ATOM     21  C   UNL     1      16.622   0.417  -2.583  1.00  0.00     0.000 C 
BRANCH  21  22
ATOM     22  C   UNL     1      15.132   0.093  -2.802  1.00  0.00    -0.000 C 
BRANCH  22  23
ATOM     23  C   UNL     1      14.371  -0.366  -1.546  1.00  0.00    -0.000 C 
BRANCH  23  24
ATOM     24  C   UNL     1      13.178   0.542  -1.204  1.00  0.00    -0.000 C 
BRANCH  24  25
ATOM     25  C   UNL     1      13.187   1.853  -2.007  1.00  0.00    -0.000 C 
BRANCH  25  26
ATOM     26  C   UNL     1      12.519   3.017  -1.253  1.00  0.00    -0.000 C 
BRANCH  26  27
ATOM     27  C   UNL     1      12.420   2.770   0.263  1.00  0.00    -0.000 C 
BRANCH  27  28
ATOM     28  C   UNL     1      12.631   4.020   1.136  1.00  0.00    -0.000 C 
BRANCH  28  29
ATOM     29  C   UNL     1      12.371   3.759   2.627  1.00  0.00    -0.003 C 
ATOM     30  C   UNL     1      11.375   4.766   3.194  1.00  0.00     0.004 C 
ENDBRANCH  28  29
ENDBRANCH  27  28
ENDBRANCH  26  27
ENDBRANCH  25  26
ENDBRANCH  24  25
ENDBRANCH  23  24
ENDBRANCH  22  23
ENDBRANCH  21  22
ENDBRANCH  20  21
ENDBRANCH  19  20
ENDBRANCH  18  19
ENDBRANCH  17  18
ENDBRANCH   1  17
TORSDOF 26
ENDMDL
MODEL 4
REMARK VINA RESULT:    -4.407      3.079      6.265
REMARK INTER + INTRA:         -16.100
REMARK INTER:                 -10.652
REMARK INTRA:                  -5.449
REMARK UNBOUND:                -4.994
REMARK SMILES CCCCCCCCCCCCCCCCCCCCCCCCCCCC(=O)[O-]
REMARK SMILES IDX 15 1 16 2 17 3 18 4 19 5 20 6 21 7 22 8 23 9 24 10 25 11
REMARK SMILES IDX 26 12 27 13 28 14 29 15 30 16 14 17 13 18 12 19 11 20 10 21
REMARK SMILES IDX 9 22 8 23 7 24 6 25 5 26 4 27 3 28 2 29 1 30
REMARK H PARENT
REMARK Flexibility Score: inf
ROOT
ATOM      1  C   UNL     1      14.919   3.800  -1.513  1.00  0.00     0.000 C 
ENDROOT
BRANCH   1   2
ATOM      2  C   UNL     1      13.986   2.961  -2.405  1.00  0.00     0.000 C 
BRANCH   2   3
ATOM      3  C   UNL     1      13.021   2.078  -1.596  1.00  0.00     0.000 C 
BRANCH   3   4
ATOM      4  C   UNL     1      12.537   0.845  -2.382  1.00  0.00     0.000 C 
BRANCH   4   5
ATOM      5  C   UNL     1      11.580  -0.088  -1.616  1.00  0.00     0.000 C 
BRANCH   5   6
ATOM      6  C   UNL     1      10.102   0.349  -1.600  1.00  0.00     0.000 C 
BRANCH   6   7
ATOM      7  C   UNL     1       9.352  -0.013  -0.300  1.00  0.00     0.000 C 
BRANCH   7   8
ATOM      8  C   UNL     1      10.210   0.193   0.957  1.00  0.00     0.000 C 
BRANCH   8   9
ATOM      9  C   UNL     1       9.851   1.509   1.659  1.00  0.00     0.000 C 
BRANCH   9  10
ATOM     10  C   UNL     1       8.530   2.076   1.119  1.00  0.00     0.000 C 
BRANCH  10  11
ATOM     11  C   UNL     1       8.651   3.545   0.681  1.00  0.00     0.000 C 
BRANCH  11  12
ATOM     12  C   UNL     1       8.747   3.704  -0.844  1.00  0.00     0.006 C 
BRANCH  12  13
ATOM     13  C   UNL     1      10.041   4.419  -1.239  1.00  0.00     0.053 C 
BRANCH  13  14
ATOM     14  C   UNL     1       9.806   5.890  -1.379  1.00  0.00     0.041 C 
ATOM     15  O   UNL     1       9.649   6.401  -2.519  1.00  0.00    -0.550 OA
ATOM     16  O   UNL     1       9.808   6.704  -0.254  1.00  0.00    -0.550 OA
ENDBRANCH  13  14
ENDBRANCH  12  13
ENDBRANCH  11  12
ENDBRANCH  10  11
ENDBRANCH   9  10
ENDBRANCH   8   9
ENDBRANCH   7   8
ENDBRANCH   6   7
ENDBRANCH   5   6
ENDBRANCH   4   5
ENDBRANCH   3   4
ENDBRANCH   2   3
ENDBRANCH   1   2
BRANCH   1  17
ATOM     17  C   UNL     1      16.174   3.066  -0.995  1.00  0.00     0.000 C 
BRANCH  17  18
ATOM     18  C   UNL     1      16.703   1.950  -1.912  1.00  0.00     0.000 C 
BRANCH  18  19
ATOM     19  C   UNL     1      16.927   0.624  -1.171  1.00  0.00     0.000 C 
BRANCH  19  20
ATOM     20  C   UNL     1      15.735  -0.322  -1.364  1.00  0.00     0.000 C 
BRANCH  20  21
ATOM     21  C   UNL     1      15.414  -1.077  -0.065  1.00  0.00     0.000 C 
BRANCH  21  22
ATOM     22  C   UNL     1      14.309  -0.398   0.765  1.00  0.00    -0.000 C 
BRANCH  22  23
ATOM     23  C   UNL     1      14.360  -0.682   2.277  1.00  0.00    -0.000 C 
BRANCH  23  24
ATOM     24  C   UNL     1      14.577   0.588   3.117  1.00  0.00    -0.000 C 
BRANCH  24  25
ATOM     25  C   UNL     1      15.658   1.507   2.526  1.00  0.00    -0.000 C 
BRANCH  25  26
ATOM     26  C   UNL     1      15.196   2.970   2.408  1.00  0.00    -0.000 C 
BRANCH  26  27
ATOM     27  C   UNL     1      13.742   3.101   1.919  1.00  0.00    -0.000 C 
BRANCH  27  28
ATOM     28  C   UNL     1      13.276   4.545   1.659  1.00  0.00    -0.000 C 
BRANCH  28  29
ATOM     29  C   UNL     1      11.789   4.760   1.974  1.00  0.00    -0.003 C 
ATOM     30  C   UNL     1      11.500   4.512   3.451  1.00  0.00     0.004 C 
ENDBRANCH  28  29
ENDBRANCH  27  28
ENDBRANCH  26  27
ENDBRANCH  25  26
ENDBRANCH  24  25
ENDBRANCH  23  24
ENDBRANCH  22  23
ENDBRANCH  21  22
ENDBRANCH  20  21
ENDBRANCH  19  20
ENDBRANCH  18  19
ENDBRANCH  17  18
ENDBRANCH   1  17
TORSDOF 26
ENDMDL
MODEL 5
REMARK VINA RESULT:    -4.383      3.208      6.691
REMARK INTER + INTRA:         -16.039
REMARK INTER:                 -11.350
REMARK INTRA:                  -4.689
REMARK UNBOUND:                -4.994
REMARK SMILES CCCCCCCCCCCCCCCCCCCCCCCCCCCC(=O)[O-]
REMARK SMILES IDX 15 1 16 2 17 3 18 4 19 5 20 6 21 7 22 8 23 9 24 10 25 11
REMARK SMILES IDX 26 12 27 13 28 14 29 15 30 16 14 17 13 18 12 19 11 20 10 21
REMARK SMILES IDX 9 22 8 23 7 24 6 25 5 26 4 27 3 28 2 29 1 30
REMARK H PARENT
REMARK Flexibility Score: inf
ROOT
ATOM      1  C   UNL     1      15.048  -0.821  -1.761  1.00  0.00     0.000 C 
ENDROOT
BRANCH   1   2
ATOM      2  C   UNL     1      15.762  -0.004  -2.853  1.00  0.00     0.000 C 
BRANCH   2   3
ATOM      3  C   UNL     1      16.941   0.820  -2.308  1.00  0.00     0.000 C 
BRANCH   3   4
ATOM      4  C   UNL     1      16.634   1.479  -0.950  1.00  0.00     0.000 C 
BRANCH   4   5
ATOM      5  C   UNL     1      16.575   3.019  -0.966  1.00  0.00     0.000 C 
BRANCH   5   6
ATOM      6  C   UNL     1      15.160   3.627  -0.915  1.00  0.00     0.000 C 
BRANCH   6   7
ATOM      7  C   UNL     1      14.734   4.113   0.487  1.00  0.00     0.000 C 
BRANCH   7   8
ATOM      8  C   UNL     1      13.226   3.960   0.737  1.00  0.00     0.000 C 
BRANCH   8   9
ATOM      9  C   UNL     1      12.835   4.529   2.106  1.00  0.00     0.000 C 
BRANCH   9  10
ATOM     10  C   UNL     1      11.308   4.627   2.244  1.00  0.00     0.000 C 
BRANCH  10  11
ATOM     11  C   UNL     1      10.594   4.690   0.884  1.00  0.00     0.000 C 
BRANCH  11  12
ATOM     12  C   UNL     1       9.762   5.970   0.711  1.00  0.00     0.006 C 
BRANCH  12  13
ATOM     13  C   UNL     1       8.802   5.842  -0.476  1.00  0.00     0.053 C 
BRANCH  13  14
ATOM     14  C   UNL     1       9.422   6.404  -1.716  1.00  0.00     0.041 C 
ATOM     15  O   UNL     1       9.158   7.580  -2.078  1.00  0.00    -0.550 OA
ATOM     16  O   UNL     1      10.253   5.613  -2.497  1.00  0.00    -0.550 OA
ENDBRANCH  13  14
ENDBRANCH  12  13
ENDBRANCH  11  12
ENDBRANCH  10  11
ENDBRANCH   9  10
ENDBRANCH   8   9
ENDBRANCH   7   8
ENDBRANCH   6   7
ENDBRANCH   5   6
ENDBRANCH   4   5
ENDBRANCH   3   4
ENDBRANCH   2   3
ENDBRANCH   1   2
BRANCH   1  17
ATOM     17  C   UNL     1      13.554  -0.491  -1.560  1.00  0.00     0.000 C 
BRANCH  17  18
ATOM     18  C   UNL     1      13.115   0.890  -2.078  1.00  0.00     0.000 C 
BRANCH  18  19
ATOM     19  C   UNL     1      11.599   1.110  -1.976  1.00  0.00     0.000 C 
BRANCH  19  20
ATOM     20  C   UNL     1      10.869  -0.208  -1.694  1.00  0.00     0.000 C 
BRANCH  20  21
ATOM     21  C   UNL     1       9.811  -0.029  -0.595  1.00  0.00     0.000 C 
BRANCH  21  22
ATOM     22  C   UNL     1      10.164   1.092   0.400  1.00  0.00    -0.000 C 
BRANCH  22  23
ATOM     23  C   UNL     1      10.300   0.646   1.867  1.00  0.00    -0.000 C 
BRANCH  23  24
ATOM     24  C   UNL     1      11.656   1.027   2.485  1.00  0.00    -0.000 C 
BRANCH  24  25
ATOM     25  C   UNL     1      12.845   0.486   1.674  1.00  0.00    -0.000 C 
BRANCH  25  26
ATOM     26  C   UNL     1      14.018   0.039   2.564  1.00  0.00    -0.000 C 
BRANCH  26  27
ATOM     27  C   UNL     1      15.348   0.717   2.185  1.00  0.00    -0.000 C 
BRANCH  27  28
ATOM     28  C   UNL     1      15.763   1.882   3.100  1.00  0.00    -0.000 C 
BRANCH  28  29
ATOM     29  C   UNL     1      15.808   1.491   4.584  1.00  0.00    -0.003 C 
ATOM     30  C   UNL     1      17.038   2.079   5.270  1.00  0.00     0.004 C 
ENDBRANCH  28  29
ENDBRANCH  27  28
ENDBRANCH  26  27
ENDBRANCH  25  26
ENDBRANCH  24  25
ENDBRANCH  23  24
ENDBRANCH  22  23
ENDBRANCH  21  22
ENDBRANCH  20  21
ENDBRANCH  19  20
ENDBRANCH  18  19
ENDBRANCH  17  18
ENDBRANCH   1  17
TORSDOF 26
ENDMDL
MODEL 6
REMARK VINA RESULT:    -4.368      1.155      4.220
REMARK INTER + INTRA:         -16.000
REMARK INTER:                 -10.680
REMARK INTRA:                  -5.320
REMARK UNBOUND:                -4.994
REMARK SMILES CCCCCCCCCCCCCCCCCCCCCCCCCCCC(=O)[O-]
REMARK SMILES IDX 15 1 16 2 17 3 18 4 19 5 20 6 21 7 22 8 23 9 24 10 25 11
REMARK SMILES IDX 26 12 27 13 28 14 29 15 30 16 14 17 13 18 12 19 11 20 10 21
REMARK SMILES IDX 9 22 8 23 7 24 6 25 5 26 4 27 3 28 2 29 1 30
REMARK H PARENT
REMARK Flexibility Score: inf
ROOT
ATOM      1  C   UNL     1      15.197  -0.329  -1.824  1.00  0.00     0.000 C 
ENDROOT
BRANCH   1   2
ATOM      2  C   UNL     1      13.749   0.090  -2.140  1.00  0.00     0.000 C 
BRANCH   2   3
ATOM      3  C   UNL     1      12.707  -0.713  -1.342  1.00  0.00     0.000 C 
BRANCH   3   4
ATOM      4  C   UNL     1      11.276  -0.165  -1.506  1.00  0.00     0.000 C 
BRANCH   4   5
ATOM      5  C   UNL     1      11.137   1.362  -1.364  1.00  0.00     0.000 C 
BRANCH   5   6
ATOM      6  C   UNL     1      10.357   1.843  -0.125  1.00  0.00     0.000 C 
BRANCH   6   7
ATOM      7  C   UNL     1       9.948   0.709   0.840  1.00  0.00     0.000 C 
BRANCH   7   8
ATOM      8  C   UNL     1      10.603   0.841   2.224  1.00  0.00     0.000 C 
BRANCH   8   9
ATOM      9  C   UNL     1      11.779  -0.132   2.371  1.00  0.00     0.000 C 
BRANCH   9  10
ATOM     10  C   UNL     1      13.105   0.629   2.524  1.00  0.00     0.000 C 
BRANCH  10  11
ATOM     11  C   UNL     1      14.262  -0.041   1.765  1.00  0.00     0.000 C 
BRANCH  11  12
ATOM     12  C   UNL     1      15.632   0.251   2.397  1.00  0.00     0.006 C 
BRANCH  12  13
ATOM     13  C   UNL     1      15.568   1.488   3.296  1.00  0.00     0.053 C 
BRANCH  13  14
ATOM     14  C   UNL     1      16.395   1.287   4.526  1.00  0.00     0.041 C 
ATOM     15  O   UNL     1      16.513   0.139   5.030  1.00  0.00    -0.550 OA
ATOM     16  O   UNL     1      16.998   2.375   5.144  1.00  0.00    -0.550 OA
ENDBRANCH  13  14
ENDBRANCH  12  13
ENDBRANCH  11  12
ENDBRANCH  10  11
ENDBRANCH   9  10
ENDBRANCH   8   9
ENDBRANCH   7   8
ENDBRANCH   6   7
ENDBRANCH   5   6
ENDBRANCH   4   5
ENDBRANCH   3   4
ENDBRANCH   2   3
ENDBRANCH   1   2
BRANCH   1  17
ATOM     17  C   UNL     1      16.284   0.367  -2.669  1.00  0.00     0.000 C 
BRANCH  17  18
ATOM     18  C   UNL     1      17.289   1.215  -1.871  1.00  0.00     0.000 C 
BRANCH  18  19
ATOM     19  C   UNL     1      16.608   2.206  -0.917  1.00  0.00     0.000 C 
BRANCH  19  20
ATOM     20  C   UNL     1      15.939   3.346  -1.693  1.00  0.00     0.000 C 
BRANCH  20  21
ATOM     21  C   UNL     1      14.446   3.450  -1.344  1.00  0.00     0.000 C 
BRANCH  21  22
ATOM     22  C   UNL     1      14.153   3.133   0.134  1.00  0.00    -0.000 C 
BRANCH  22  23
ATOM     23  C   UNL     1      14.555   4.235   1.131  1.00  0.00    -0.000 C 
BRANCH  23  24
ATOM     24  C   UNL     1      13.357   5.071   1.612  1.00  0.00    -0.000 C 
BRANCH  24  25
ATOM     25  C   UNL     1      12.333   4.236   2.397  1.00  0.00    -0.000 C 
BRANCH  25  26
ATOM     26  C   UNL     1      10.880   4.665   2.123  1.00  0.00    -0.000 C 
BRANCH  26  27
ATOM     27  C   UNL     1      10.701   5.323   0.743  1.00  0.00    -0.000 C 
BRANCH  27  28
ATOM     28  C   UNL     1       9.357   6.046   0.542  1.00  0.00    -0.000 C 
BRANCH  28  29
ATOM     29  C   UNL     1       8.668   5.673  -0.778  1.00  0.00    -0.003 C 
ATOM     30  C   UNL     1       9.661   5.059  -1.761  1.00  0.00     0.004 C 
ENDBRANCH  28  29
ENDBRANCH  27  28
ENDBRANCH  26  27
ENDBRANCH  25  26
ENDBRANCH  24  25
ENDBRANCH  23  24
ENDBRANCH  22  23
ENDBRANCH  21  22
ENDBRANCH  20  21
ENDBRANCH  19  20
ENDBRANCH  18  19
ENDBRANCH  17  18
ENDBRANCH   1  17
TORSDOF 26
ENDMDL
MODEL 7
REMARK VINA RESULT:    -4.361      3.273      7.389
REMARK INTER + INTRA:         -15.984
REMARK INTER:                 -11.345
REMARK INTRA:                  -4.639
REMARK UNBOUND:                -4.994
REMARK SMILES CCCCCCCCCCCCCCCCCCCCCCCCCCCC(=O)[O-]
REMARK SMILES IDX 15 1 16 2 17 3 18 4 19 5 20 6 21 7 22 8 23 9 24 10 25 11
REMARK SMILES IDX 26 12 27 13 28 14 29 15 30 16 14 17 13 18 12 19 11 20 10 21
REMARK SMILES IDX 9 22 8 23 7 24 6 25 5 26 4 27 3 28 2 29 1 30
REMARK H PARENT
REMARK Flexibility Score: inf
ROOT
ATOM      1  C   UNL     1      13.072   2.250  -1.493  1.00  0.00     0.000 C 
ENDROOT
BRANCH   1   2
ATOM      2  C   UNL     1      12.560   1.112  -2.395  1.00  0.00     0.000 C 
BRANCH   2   3
ATOM      3  C   UNL     1      11.202   0.552  -1.938  1.00  0.00     0.000 C 
BRANCH   3   4
ATOM      4  C   UNL     1      10.315   1.612  -1.258  1.00  0.00     0.000 C 
BRANCH   4   5
ATOM      5  C   UNL     1       9.616   1.152   0.035  1.00  0.00     0.000 C 
BRANCH   5   6
ATOM      6  C   UNL     1      10.526   0.456   1.067  1.00  0.00     0.000 C 
BRANCH   6   7
ATOM      7  C   UNL     1      11.046   1.391   2.179  1.00  0.00     0.000 C 
BRANCH   7   8
ATOM      8  C   UNL     1      11.899   2.547   1.633  1.00  0.00     0.000 C 
BRANCH   8   9
ATOM      9  C   UNL     1      12.101   3.633   2.698  1.00  0.00     0.000 C 
BRANCH   9  10
ATOM     10  C   UNL     1      11.378   4.929   2.304  1.00  0.00     0.000 C 
BRANCH  10  11
ATOM     11  C   UNL     1      10.260   4.694   1.276  1.00  0.00     0.000 C 
BRANCH  11  12
ATOM     12  C   UNL     1      10.055   5.894   0.338  1.00  0.00     0.006 C 
BRANCH  12  13
ATOM     13  C   UNL     1       8.951   5.608  -0.683  1.00  0.00     0.053 C 
BRANCH  13  14
ATOM     14  C   UNL     1       9.383   6.022  -2.054  1.00  0.00     0.041 C 
ATOM     15  O   UNL     1      10.522   5.700  -2.483  1.00  0.00    -0.550 OA
ATOM     16  O   UNL     1       8.548   6.805  -2.840  1.00  0.00    -0.550 OA
ENDBRANCH  13  14
ENDBRANCH  12  13
ENDBRANCH  11  12
ENDBRANCH  10  11
ENDBRANCH   9  10
ENDBRANCH   8   9
ENDBRANCH   7   8
ENDBRANCH   6   7
ENDBRANCH   5   6
ENDBRANCH   4   5
ENDBRANCH   3   4
ENDBRANCH   2   3
ENDBRANCH   1   2
BRANCH   1  17
ATOM     17  C   UNL     1      13.655   3.470  -2.236  1.00  0.00     0.000 C 
BRANCH  17  18
ATOM     18  C   UNL     1      15.143   3.749  -1.966  1.00  0.00     0.000 C 
BRANCH  18  19
ATOM     19  C   UNL     1      15.567   3.395  -0.533  1.00  0.00     0.000 C 
BRANCH  19  20
ATOM     20  C   UNL     1      16.709   2.372  -0.534  1.00  0.00     0.000 C 
BRANCH  20  21
ATOM     21  C   UNL     1      16.877   1.734  -1.922  1.00  0.00     0.000 C 
BRANCH  21  22
ATOM     22  C   UNL     1      16.245   0.334  -2.019  1.00  0.00    -0.000 C 
BRANCH  22  23
ATOM     23  C   UNL     1      16.098  -0.412  -0.681  1.00  0.00    -0.000 C 
BRANCH  23  24
ATOM     24  C   UNL     1      14.652  -0.852  -0.397  1.00  0.00    -0.000 C 
BRANCH  24  25
ATOM     25  C   UNL     1      14.165  -0.415   0.995  1.00  0.00    -0.000 C 
BRANCH  25  26
ATOM     26  C   UNL     1      15.315   0.044   1.910  1.00  0.00    -0.000 C 
BRANCH  26  27
ATOM     27  C   UNL     1      14.833   0.915   3.084  1.00  0.00    -0.000 C 
BRANCH  27  28
ATOM     28  C   UNL     1      15.874   1.918   3.613  1.00  0.00    -0.000 C 
BRANCH  28  29
ATOM     29  C   UNL     1      16.278   1.650   5.070  1.00  0.00    -0.003 C 
ATOM     30  C   UNL     1      17.483   2.496   5.471  1.00  0.00     0.004 C 
ENDBRANCH  28  29
ENDBRANCH  27  28
ENDBRANCH  26  27
ENDBRANCH  25  26
ENDBRANCH  24  25
ENDBRANCH  23  24
ENDBRANCH  22  23
ENDBRANCH  21  22
ENDBRANCH  20  21
ENDBRANCH  19  20
ENDBRANCH  18  19
ENDBRANCH  17  18
ENDBRANCH   1  17
TORSDOF 26
ENDMDL
MODEL 8
REMARK VINA RESULT:    -4.255      1.139      2.874
REMARK INTER + INTRA:         -15.715
REMARK INTER:                 -10.586
REMARK INTRA:                  -5.129
REMARK UNBOUND:                -4.994
REMARK SMILES CCCCCCCCCCCCCCCCCCCCCCCCCCCC(=O)[O-]
REMARK SMILES IDX 15 1 16 2 17 3 18 4 19 5 20 6 21 7 22 8 23 9 24 10 25 11
REMARK SMILES IDX 26 12 27 13 28 14 29 15 30 16 14 17 13 18 12 19 11 20 10 21
REMARK SMILES IDX 9 22 8 23 7 24 6 25 5 26 4 27 3 28 2 29 1 30
REMARK H PARENT
REMARK Flexibility Score: inf
ROOT
ATOM      1  C   UNL     1      12.300   3.821   2.641  1.00  0.00     0.000 C 
ENDROOT
BRANCH   1   2
ATOM      2  C   UNL     1      12.860   4.550   1.406  1.00  0.00     0.000 C 
BRANCH   2   3
ATOM      3  C   UNL     1      14.376   4.353   1.232  1.00  0.00     0.000 C 
BRANCH   3   4
ATOM      4  C   UNL     1      14.751   3.785  -0.150  1.00  0.00     0.000 C 
BRANCH   4   5
ATOM      5  C   UNL     1      16.258   3.772  -0.467  1.00  0.00     0.000 C 
BRANCH   5   6
ATOM      6  C   UNL     1      16.759   2.539  -1.244  1.00  0.00     0.000 C 
BRANCH   6   7
ATOM      7  C   UNL     1      15.636   1.711  -1.903  1.00  0.00     0.000 C 
BRANCH   7   8
ATOM      8  C   UNL     1      15.723   0.215  -1.565  1.00  0.00     0.000 C 
BRANCH   8   9
ATOM      9  C   UNL     1      16.132   0.004  -0.101  1.00  0.00     0.000 C 
BRANCH   9  10
ATOM     10  C   UNL     1      14.936   0.213   0.839  1.00  0.00     0.000 C 
BRANCH  10  11
ATOM     11  C   UNL     1      15.341   0.208   2.322  1.00  0.00     0.000 C 
BRANCH  11  12
ATOM     12  C   UNL     1      15.803   1.587   2.815  1.00  0.00     0.006 C 
BRANCH  12  13
ATOM     13  C   UNL     1      15.504   1.763   4.307  1.00  0.00     0.053 C 
BRANCH  13  14
ATOM     14  C   UNL     1      16.739   1.535   5.120  1.00  0.00     0.041 C 
ATOM     15  O   UNL     1      17.206   0.373   5.251  1.00  0.00    -0.550 OA
ATOM     16  O   UNL     1      17.347   2.599   5.774  1.00  0.00    -0.550 OA
ENDBRANCH  13  14
ENDBRANCH  12  13
ENDBRANCH  11  12
ENDBRANCH  10  11
ENDBRANCH   9  10
ENDBRANCH   8   9
ENDBRANCH   7   8
ENDBRANCH   6   7
ENDBRANCH   5   6
ENDBRANCH   4   5
ENDBRANCH   3   4
ENDBRANCH   2   3
ENDBRANCH   1   2
BRANCH   1  17
ATOM     17  C   UNL     1      11.982   2.326   2.437  1.00  0.00     0.000 C 
BRANCH  17  18
ATOM     18  C   UNL     1      10.492   1.955   2.534  1.00  0.00     0.000 C 
BRANCH  18  19
ATOM     19  C   UNL     1      10.179   0.576   1.936  1.00  0.00     0.000 C 
BRANCH  19  20
ATOM     20  C   UNL     1      11.438  -0.298   1.883  1.00  0.00     0.000 C 
BRANCH  20  21
ATOM     21  C   UNL     1      11.621  -0.917   0.489  1.00  0.00     0.000 C 
BRANCH  21  22
ATOM     22  C   UNL     1      11.083  -0.020  -0.641  1.00  0.00    -0.000 C 
BRANCH  22  23
ATOM     23  C   UNL     1      12.048   1.081  -1.117  1.00  0.00    -0.000 C 
BRANCH  23  24
ATOM     24  C   UNL     1      11.367   2.453  -1.257  1.00  0.00    -0.000 C 
BRANCH  24  25
ATOM     25  C   UNL     1       9.833   2.356  -1.222  1.00  0.00    -0.000 C 
BRANCH  25  26
ATOM     26  C   UNL     1       9.176   3.562  -0.527  1.00  0.00    -0.000 C 
BRANCH  26  27
ATOM     27  C   UNL     1       9.488   4.898  -1.227  1.00  0.00    -0.000 C 
BRANCH  27  28
ATOM     28  C   UNL     1       8.333   5.915  -1.221  1.00  0.00    -0.000 C 
BRANCH  28  29
ATOM     29  C   UNL     1       8.326   6.807   0.028  1.00  0.00    -0.003 C 
ATOM     30  C   UNL     1       8.745   8.234  -0.314  1.00  0.00     0.004 C 
ENDBRANCH  28  29
ENDBRANCH  27  28
ENDBRANCH  26  27
ENDBRANCH  25  26
ENDBRANCH  24  25
ENDBRANCH  23  24
ENDBRANCH  22  23
ENDBRANCH  21  22
ENDBRANCH  20  21
ENDBRANCH  19  20
ENDBRANCH  18  19
ENDBRANCH  17  18
ENDBRANCH   1  17
TORSDOF 26
ENDMDL
MODEL 9
REMARK VINA RESULT:    -4.205      1.326      2.983
REMARK INTER + INTRA:         -15.590
REMARK INTER:                 -10.464
REMARK INTRA:                  -5.126
REMARK UNBOUND:                -4.994
REMARK SMILES CCCCCCCCCCCCCCCCCCCCCCCCCCCC(=O)[O-]
REMARK SMILES IDX 15 1 16 2 17 3 18 4 19 5 20 6 21 7 22 8 23 9 24 10 25 11
REMARK SMILES IDX 26 12 27 13 28 14 29 15 30 16 14 17 13 18 12 19 11 20 10 21
REMARK SMILES IDX 9 22 8 23 7 24 6 25 5 26 4 27 3 28 2 29 1 30
REMARK H PARENT
REMARK Flexibility Score: inf
ROOT
ATOM      1  C   UNL     1      12.603   1.100  -2.374  1.00  0.00     0.000 C 
ENDROOT
BRANCH   1   2
ATOM      2  C   UNL     1      12.748   2.454  -1.654  1.00  0.00     0.000 C 
BRANCH   2   3
ATOM      3  C   UNL     1      13.917   3.295  -2.194  1.00  0.00     0.000 C 
BRANCH   3   4
ATOM      4  C   UNL     1      14.878   3.766  -1.085  1.00  0.00     0.000 C 
BRANCH   4   5
ATOM      5  C   UNL     1      16.348   3.341  -1.267  1.00  0.00     0.000 C 
BRANCH   5   6
ATOM      6  C   UNL     1      16.762   2.057  -0.520  1.00  0.00     0.000 C 
BRANCH   6   7
ATOM      7  C   UNL     1      16.710   0.781  -1.386  1.00  0.00     0.000 C 
BRANCH   7   8
ATOM      8  C   UNL     1      15.709  -0.257  -0.855  1.00  0.00     0.000 C 
BRANCH   8   9
ATOM      9  C   UNL     1      14.923   0.297   0.340  1.00  0.00     0.000 C 
BRANCH   9  10
ATOM     10  C   UNL     1      14.726  -0.782   1.415  1.00  0.00     0.000 C 
BRANCH  10  11
ATOM     11  C   UNL     1      15.429  -0.435   2.737  1.00  0.00     0.000 C 
BRANCH  11  12
ATOM     12  C   UNL     1      15.721   1.067   2.878  1.00  0.00     0.006 C 
BRANCH  12  13
ATOM     13  C   UNL     1      15.480   1.539   4.315  1.00  0.00     0.053 C 
BRANCH  13  14
ATOM     14  C   UNL     1      16.747   1.478   5.107  1.00  0.00     0.041 C 
ATOM     15  O   UNL     1      17.340   2.539   5.435  1.00  0.00    -0.550 OA
ATOM     16  O   UNL     1      17.299   0.249   5.443  1.00  0.00    -0.550 OA
ENDBRANCH  13  14
ENDBRANCH  12  13
ENDBRANCH  11  12
ENDBRANCH  10  11
ENDBRANCH   9  10
ENDBRANCH   8   9
ENDBRANCH   7   8
ENDBRANCH   6   7
ENDBRANCH   5   6
ENDBRANCH   4   5
ENDBRANCH   3   4
ENDBRANCH   2   3
ENDBRANCH   1   2
BRANCH   1  17
ATOM     17  C   UNL     1      11.783   0.035  -1.617  1.00  0.00     0.000 C 
BRANCH  17  18
ATOM     18  C   UNL     1      10.849   0.584  -0.525  1.00  0.00     0.000 C 
BRANCH  18  19
ATOM     19  C   UNL     1      11.254   0.138   0.887  1.00  0.00     0.000 C 
BRANCH  19  20
ATOM     20  C   UNL     1      10.902   1.209   1.925  1.00  0.00     0.000 C 
BRANCH  20  21
ATOM     21  C   UNL     1      12.166   1.911   2.444  1.00  0.00     0.000 C 
BRANCH  21  22
ATOM     22  C   UNL     1      12.467   3.228   1.705  1.00  0.00    -0.000 C 
BRANCH  22  23
ATOM     23  C   UNL     1      11.787   4.478   2.293  1.00  0.00    -0.000 C 
BRANCH  23  24
ATOM     24  C   UNL     1      10.890   5.204   1.277  1.00  0.00    -0.000 C 
BRANCH  24  25
ATOM     25  C   UNL     1       9.755   4.311   0.749  1.00  0.00    -0.000 C 
BRANCH  25  26
ATOM     26  C   UNL     1       9.764   4.181  -0.785  1.00  0.00    -0.000 C 
BRANCH  26  27
ATOM     27  C   UNL     1      10.077   5.511  -1.495  1.00  0.00    -0.000 C 
BRANCH  27  28
ATOM     28  C   UNL     1       8.925   6.076  -2.345  1.00  0.00    -0.000 C 
BRANCH  28  29
ATOM     29  C   UNL     1       8.536   7.507  -1.951  1.00  0.00    -0.003 C 
ATOM     30  C   UNL     1       8.949   7.812  -0.514  1.00  0.00     0.004 C 
ENDBRANCH  28  29
ENDBRANCH  27  28
ENDBRANCH  26  27
ENDBRANCH  25  26
ENDBRANCH  24  25
ENDBRANCH  23  24
ENDBRANCH  22  23
ENDBRANCH  21  22
ENDBRANCH  20  21
ENDBRANCH  19  20
ENDBRANCH  18  19
ENDBRANCH  17  18
ENDBRANCH   1  17
TORSDOF 26
ENDMDL
