MODEL 1
REMARK VINA RESULT:    -5.904      0.000      0.000
REMARK INTER + INTRA:          -9.777
REMARK INTER:                  -9.355
REMARK INTRA:                  -0.422
REMARK UNBOUND:                -0.422
REMARK SMILES CCCCCCCCCCCC(=O)[O-]
REMARK SMILES IDX 7 1 8 2 9 3 10 4 11 5 12 6 13 7 14 8 6 9 5 10 4 11 3 12 2 13
REMARK SMILES IDX 1 14
REMARK H PARENT
REMARK Flexibility Score: inf
ROOT
ATOM      1  C   UNL     1      95.673 122.265 122.085  1.00  0.00     0.000 C 
ENDROOT
BRANCH   1   2
ATOM      2  C   UNL     1      96.294 122.570 123.459  1.00  0.00     0.000 C 
BRANCH   2   3
ATOM      3  C   UNL     1      95.577 123.718 124.189  1.00  0.00     0.000 C 
BRANCH   3   4
ATOM      4  C   UNL     1      96.501 124.913 124.461  1.00  0.00     0.006 C 
BRANCH   4   5
ATOM      5  C   UNL     1      97.292 124.711 125.757  1.00  0.00     0.053 C 
BRANCH   5   6
ATOM      6  C   UNL     1      98.083 125.938 126.086  1.00  0.00     0.041 C 
ATOM      7  O   UNL     1      98.800 125.971 127.120  1.00  0.00    -0.550 OA
ATOM      8  O   UNL     1      97.988 127.064 125.277  1.00  0.00    -0.550 OA
ENDBRANCH   5   6
ENDBRANCH   4   5
ENDBRANCH   3   4
ENDBRANCH   2   3
ENDBRANCH   1   2
BRANCH   1   9
ATOM      9  C   UNL     1      94.272 121.643 122.195  1.00  0.00     0.000 C 
BRANCH   9  10
ATOM     10  C   UNL     1      93.707 121.218 120.828  1.00  0.00    -0.000 C 
BRANCH  10  11
ATOM     11  C   UNL     1      94.797 121.083 119.751  1.00  0.00    -0.000 C 
BRANCH  11  12
ATOM     12  C   UNL     1      94.212 120.944 118.335  1.00  0.00    -0.000 C 
BRANCH  12  13
ATOM     13  C   UNL     1      92.832 121.610 118.201  1.00  0.00    -0.003 C 
ATOM     14  C   UNL     1      92.363 121.715 116.751  1.00  0.00     0.004 C 
ENDBRANCH  12  13
ENDBRANCH  11  12
ENDBRANCH  10  11
ENDBRANCH   9  10
ENDBRANCH   1   9
TORSDOF 10
ENDMDL
MODEL 2
REMARK VINA RESULT:    -5.838      1.404      2.476
REMARK INTER + INTRA:          -9.673
REMARK INTER:                  -9.331
REMARK INTRA:                  -0.342
REMARK UNBOUND:                -0.422
REMARK SMILES CCCCCCCCCCCC(=O)[O-]
REMARK SMILES IDX 7 1 8 2 9 3 10 4 11 5 12 6 13 7 14 8 6 9 5 10 4 11 3 12 2 13
REMARK SMILES IDX 1 14
REMARK H PARENT
REMARK Flexibility Score: inf
ROOT
ATOM      1  C   UNL     1      95.217 121.675 120.835  1.00  0.00     0.000 C 
ENDROOT
BRANCH   1   2
ATOM      2  C   UNL     1      94.370 121.324 122.071  1.00  0.00     0.000 C 
BRANCH   2   3
ATOM      3  C   UNL     1      94.258 122.494 123.062  1.00  0.00     0.000 C 
BRANCH   3   4
ATOM      4  C   UNL     1      95.628 122.987 123.551  1.00  0.00     0.006 C 
BRANCH   4   5
ATOM      5  C   UNL     1      95.477 123.915 124.760  1.00  0.00     0.053 C 
BRANCH   5   6
ATOM      6  C   UNL     1      96.816 124.386 125.231  1.00  0.00     0.041 C 
ATOM      7  O   UNL     1      97.260 125.505 124.862  1.00  0.00    -0.550 OA
ATOM      8  O   UNL     1      97.597 123.567 126.037  1.00  0.00    -0.550 OA
ENDBRANCH   5   6
ENDBRANCH   4   5
ENDBRANCH   3   4
ENDBRANCH   2   3
ENDBRANCH   1   2
BRANCH   1   9
ATOM      9  C   UNL     1      94.804 120.875 119.590  1.00  0.00     0.000 C 
BRANCH   9  10
ATOM     10  C   UNL     1      93.700 121.578 118.778  1.00  0.00    -0.000 C 
BRANCH  10  11
ATOM     11  C   UNL     1      93.463 120.921 117.408  1.00  0.00    -0.000 C 
BRANCH  11  12
ATOM     12  C   UNL     1      92.503 121.735 116.523  1.00  0.00    -0.000 C 
BRANCH  12  13
ATOM     13  C   UNL     1      92.019 123.023 117.211  1.00  0.00    -0.003 C 
ATOM     14  C   UNL     1      92.714 124.276 116.679  1.00  0.00     0.004 C 
ENDBRANCH  12  13
ENDBRANCH  11  12
ENDBRANCH  10  11
ENDBRANCH   9  10
ENDBRANCH   1   9
TORSDOF 10
ENDMDL
MODEL 3
REMARK VINA RESULT:    -5.805      4.372      8.208
REMARK INTER + INTRA:          -9.620
REMARK INTER:                  -9.232
REMARK INTRA:                  -0.388
REMARK UNBOUND:                -0.422
REMARK SMILES CCCCCCCCCCCC(=O)[O-]
REMARK SMILES IDX 7 1 8 2 9 3 10 4 11 5 12 6 13 7 14 8 6 9 5 10 4 11 3 12 2 13
REMARK SMILES IDX 1 14
REMARK H PARENT
REMARK Flexibility Score: inf
ROOT
ATOM      1  C   UNL     1      94.267 121.410 122.580  1.00  0.00     0.000 C 
ENDROOT
BRANCH   1   2
ATOM      2  C   UNL     1      93.826 121.620 121.120  1.00  0.00     0.000 C 
BRANCH   2   3
ATOM      3  C   UNL     1      94.883 121.145 120.110  1.00  0.00     0.000 C 
BRANCH   3   4
ATOM      4  C   UNL     1      94.297 120.906 118.711  1.00  0.00     0.006 C 
BRANCH   4   5
ATOM      5  C   UNL     1      92.911 121.544 118.581  1.00  0.00     0.053 C 
BRANCH   5   6
ATOM      6  C   UNL     1      92.697 122.056 117.191  1.00  0.00     0.041 C 
ATOM      7  O   UNL     1      92.574 123.291 116.982  1.00  0.00    -0.550 OA
ATOM      8  O   UNL     1      92.583 121.163 116.132  1.00  0.00    -0.550 OA
ENDBRANCH   5   6
ENDBRANCH   4   5
ENDBRANCH   3   4
ENDBRANCH   2   3
ENDBRANCH   1   2
BRANCH   1   9
ATOM      9  C   UNL     1      94.424 122.734 123.344  1.00  0.00     0.000 C 
BRANCH   9  10
ATOM     10  C   UNL     1      95.859 123.288 123.272  1.00  0.00    -0.000 C 
BRANCH  10  11
ATOM     11  C   UNL     1      96.141 124.344 124.354  1.00  0.00    -0.000 C 
BRANCH  11  12
ATOM     12  C   UNL     1      97.043 123.807 125.479  1.00  0.00    -0.000 C 
BRANCH  12  13
ATOM     13  C   UNL     1      97.556 124.923 126.403  1.00  0.00    -0.003 C 
ATOM     14  C   UNL     1      98.044 126.152 125.636  1.00  0.00     0.004 C 
ENDBRANCH  12  13
ENDBRANCH  11  12
ENDBRANCH  10  11
ENDBRANCH   9  10
ENDBRANCH   1   9
TORSDOF 10
ENDMDL
MODEL 4
REMARK VINA RESULT:    -5.613      1.366      2.496
REMARK INTER + INTRA:          -9.316
REMARK INTER:                  -8.906
REMARK INTRA:                  -0.411
REMARK UNBOUND:                -0.422
REMARK SMILES CCCCCCCCCCCC(=O)[O-]
REMARK SMILES IDX 7 1 8 2 9 3 10 4 11 5 12 6 13 7 14 8 6 9 5 10 4 11 3 12 2 13
REMARK SMILES IDX 1 14
REMARK H PARENT
REMARK Flexibility Score: inf
ROOT
ATOM      1  C   UNL     1      95.765 123.631 123.652  1.00  0.00     0.000 C 
ENDROOT
BRANCH   1   2
ATOM      2  C   UNL     1      96.439 124.814 124.369  1.00  0.00     0.000 C 
BRANCH   2   3
ATOM      3  C   UNL     1      97.076 124.407 125.708  1.00  0.00     0.000 C 
BRANCH   3   4
ATOM      4  C   UNL     1      97.967 125.510 126.296  1.00  0.00     0.006 C 
BRANCH   4   5
ATOM      5  C   UNL     1      98.004 126.735 125.377  1.00  0.00     0.053 C 
BRANCH   5   6
ATOM      6  C   UNL     1      99.297 127.471 125.533  1.00  0.00     0.041 C 
ATOM      7  O   UNL     1     100.288 127.170 124.817  1.00  0.00    -0.550 OA
ATOM      8  O   UNL     1      99.423 128.455 126.506  1.00  0.00    -0.550 OA
ENDBRANCH   5   6
ENDBRANCH   4   5
ENDBRANCH   3   4
ENDBRANCH   2   3
ENDBRANCH   1   2
BRANCH   1   9
ATOM      9  C   UNL     1      94.289 123.466 124.046  1.00  0.00     0.000 C 
BRANCH   9  10
ATOM     10  C   UNL     1      93.589 122.346 123.253  1.00  0.00    -0.000 C 
BRANCH  10  11
ATOM     11  C   UNL     1      94.555 121.576 122.337  1.00  0.00    -0.000 C 
BRANCH  11  12
ATOM     12  C   UNL     1      93.895 121.144 121.016  1.00  0.00    -0.000 C 
BRANCH  12  13
ATOM     13  C   UNL     1      94.909 121.010 119.869  1.00  0.00    -0.003 C 
ATOM     14  C   UNL     1      94.252 121.040 118.490  1.00  0.00     0.004 C 
ENDBRANCH  12  13
ENDBRANCH  11  12
ENDBRANCH  10  11
ENDBRANCH   9  10
ENDBRANCH   1   9
TORSDOF 10
ENDMDL
MODEL 5
REMARK VINA RESULT:    -5.380      1.767      3.256
REMARK INTER + INTRA:          -8.947
REMARK INTER:                  -8.488
REMARK INTRA:                  -0.459
REMARK UNBOUND:                -0.422
REMARK SMILES CCCCCCCCCCCC(=O)[O-]
REMARK SMILES IDX 7 1 8 2 9 3 10 4 11 5 12 6 13 7 14 8 6 9 5 10 4 11 3 12 2 13
REMARK SMILES IDX 1 14
REMARK H PARENT
REMARK Flexibility Score: inf
ROOT
ATOM      1  C   UNL     1      96.282 124.686 124.440  1.00  0.00     0.000 C 
ENDROOT
BRANCH   1   2
ATOM      2  C   UNL     1      97.126 124.242 125.648  1.00  0.00     0.000 C 
BRANCH   2   3
ATOM      3  C   UNL     1      97.805 125.422 126.361  1.00  0.00     0.000 C 
BRANCH   3   4
ATOM      4  C   UNL     1      98.003 126.634 125.440  1.00  0.00     0.006 C 
BRANCH   4   5
ATOM      5  C   UNL     1      98.711 127.774 126.179  1.00  0.00     0.053 C 
BRANCH   5   6
ATOM      6  C   UNL     1      99.993 128.127 125.493  1.00  0.00     0.041 C 
ATOM      7  O   UNL     1     100.500 129.269 125.646  1.00  0.00    -0.550 OA
ATOM      8  O   UNL     1     100.603 127.211 124.645  1.00  0.00    -0.550 OA
ENDBRANCH   5   6
ENDBRANCH   4   5
ENDBRANCH   3   4
ENDBRANCH   2   3
ENDBRANCH   1   2
BRANCH   1   9
ATOM      9  C   UNL     1      95.275 123.614 123.998  1.00  0.00     0.000 C 
BRANCH   9  10
ATOM     10  C   UNL     1      95.884 122.607 123.006  1.00  0.00    -0.000 C 
BRANCH  10  11
ATOM     11  C   UNL     1      94.874 121.544 122.544  1.00  0.00    -0.000 C 
BRANCH  11  12
ATOM     12  C   UNL     1      93.477 122.133 122.284  1.00  0.00    -0.000 C 
BRANCH  12  13
ATOM     13  C   UNL     1      92.911 121.723 120.914  1.00  0.00    -0.003 C 
ATOM     14  C   UNL     1      93.963 121.091 120.004  1.00  0.00     0.004 C 
ENDBRANCH  12  13
ENDBRANCH  11  12
ENDBRANCH  10  11
ENDBRANCH   9  10
ENDBRANCH   1   9
TORSDOF 10
ENDMDL
MODEL 6
REMARK VINA RESULT:    -5.314      3.814      8.213
REMARK INTER + INTRA:          -8.842
REMARK INTER:                  -8.323
REMARK INTRA:                  -0.519
REMARK UNBOUND:                -0.422
REMARK SMILES CCCCCCCCCCCC(=O)[O-]
REMARK SMILES IDX 7 1 8 2 9 3 10 4 11 5 12 6 13 7 14 8 6 9 5 10 4 11 3 12 2 13
REMARK SMILES IDX 1 14
REMARK H PARENT
REMARK Flexibility Score: inf
ROOT
ATOM      1  C   UNL     1      96.488 124.645 124.352  1.00  0.00     0.000 C 
ENDROOT
BRANCH   1   2
ATOM      2  C   UNL     1      95.745 123.460 123.710  1.00  0.00     0.000 C 
BRANCH   2   3
ATOM      3  C   UNL     1      94.257 123.418 124.093  1.00  0.00     0.000 C 
BRANCH   3   4
ATOM      4  C   UNL     1      93.461 122.403 123.260  1.00  0.00     0.006 C 
BRANCH   4   5
ATOM      5  C   UNL     1      94.400 121.476 122.482  1.00  0.00     0.053 C 
BRANCH   5   6
ATOM      6  C   UNL     1      94.038 121.460 121.030  1.00  0.00     0.041 C 
ATOM      7  O   UNL     1      92.851 121.675 120.671  1.00  0.00    -0.550 OA
ATOM      8  O   UNL     1      95.003 121.157 120.077  1.00  0.00    -0.550 OA
ENDBRANCH   5   6
ENDBRANCH   4   5
ENDBRANCH   3   4
ENDBRANCH   2   3
ENDBRANCH   1   2
BRANCH   1   9
ATOM      9  C   UNL     1      96.956 124.341 125.784  1.00  0.00     0.000 C 
BRANCH   9  10
ATOM     10  C   UNL     1      98.082 125.282 126.248  1.00  0.00    -0.000 C 
BRANCH  10  11
ATOM     11  C   UNL     1      98.165 126.567 125.407  1.00  0.00    -0.000 C 
BRANCH  11  12
ATOM     12  C   UNL     1      98.307 127.830 126.274  1.00  0.00    -0.000 C 
BRANCH  12  13
ATOM     13  C   UNL     1      97.651 127.672 127.655  1.00  0.00    -0.003 C 
ATOM     14  C   UNL     1      97.379 129.011 128.339  1.00  0.00     0.004 C 
ENDBRANCH  12  13
ENDBRANCH  11  12
ENDBRANCH  10  11
ENDBRANCH   9  10
ENDBRANCH   1   9
TORSDOF 10
ENDMDL
MODEL 7
REMARK VINA RESULT:    -5.220      4.076      7.974
REMARK INTER + INTRA:          -8.693
REMARK INTER:                  -8.217
REMARK INTRA:                  -0.475
REMARK UNBOUND:                -0.422
REMARK SMILES CCCCCCCCCCCC(=O)[O-]
REMARK SMILES IDX 7 1 8 2 9 3 10 4 11 5 12 6 13 7 14 8 6 9 5 10 4 11 3 12 2 13
REMARK SMILES IDX 1 14
REMARK H PARENT
REMARK Flexibility Score: inf
ROOT
ATOM      1  C   UNL     1      94.372 123.548 124.338  1.00  0.00     0.000 C 
ENDROOT
BRANCH   1   2
ATOM      2  C   UNL     1      93.925 122.822 123.056  1.00  0.00     0.000 C 
BRANCH   2   3
ATOM      3  C   UNL     1      95.064 122.024 122.402  1.00  0.00     0.000 C 
BRANCH   3   4
ATOM      4  C   UNL     1      94.616 121.291 121.128  1.00  0.00     0.006 C 
BRANCH   4   5
ATOM      5  C   UNL     1      93.221 121.750 120.694  1.00  0.00     0.053 C 
BRANCH   5   6
ATOM      6  C   UNL     1      93.089 121.692 119.205  1.00  0.00     0.041 C 
ATOM      7  O   UNL     1      91.982 121.931 118.657  1.00  0.00    -0.550 OA
ATOM      8  O   UNL     1      94.178 121.323 118.425  1.00  0.00    -0.550 OA
ENDBRANCH   5   6
ENDBRANCH   4   5
ENDBRANCH   3   4
ENDBRANCH   2   3
ENDBRANCH   1   2
BRANCH   1   9
ATOM      9  C   UNL     1      95.800 124.105 124.233  1.00  0.00     0.000 C 
BRANCH   9  10
ATOM     10  C   UNL     1      96.723 123.574 125.345  1.00  0.00    -0.000 C 
BRANCH  10  11
ATOM     11  C   UNL     1      97.573 124.682 125.988  1.00  0.00    -0.000 C 
BRANCH  11  12
ATOM     12  C   UNL     1      97.637 125.953 125.123  1.00  0.00    -0.000 C 
BRANCH  12  13
ATOM     13  C   UNL     1      98.164 127.168 125.903  1.00  0.00    -0.003 C 
ATOM     14  C   UNL     1      99.589 127.554 125.509  1.00  0.00     0.004 C 
ENDBRANCH  12  13
ENDBRANCH  11  12
ENDBRANCH  10  11
ENDBRANCH   9  10
ENDBRANCH   1   9
TORSDOF 10
ENDMDL
MODEL 8
REMARK VINA RESULT:    -5.193      3.894      8.145
REMARK INTER + INTRA:          -8.651
REMARK INTER:                  -8.185
REMARK INTRA:                  -0.466
REMARK UNBOUND:                -0.422
REMARK SMILES CCCCCCCCCCCC(=O)[O-]
REMARK SMILES IDX 7 1 8 2 9 3 10 4 11 5 12 6 13 7 14 8 6 9 5 10 4 11 3 12 2 13
REMARK SMILES IDX 1 14
REMARK H PARENT
REMARK Flexibility Score: inf
ROOT
ATOM      1  C   UNL     1      96.217 124.625 124.464  1.00  0.00     0.000 C 
ENDROOT
BRANCH   1   2
ATOM      2  C   UNL     1      95.446 123.492 123.766  1.00  0.00     0.000 C 
BRANCH   2   3
ATOM      3  C   UNL     1      96.376 122.424 123.168  1.00  0.00     0.000 C 
BRANCH   3   4
ATOM      4  C   UNL     1      95.960 122.004 121.751  1.00  0.00     0.006 C 
BRANCH   4   5
ATOM      5  C   UNL     1      94.516 121.491 121.734  1.00  0.00     0.053 C 
BRANCH   5   6
ATOM      6  C   UNL     1      94.045 121.298 120.327  1.00  0.00     0.041 C 
ATOM      7  O   UNL     1      94.837 120.875 119.445  1.00  0.00    -0.550 OA
ATOM      8  O   UNL     1      92.742 121.634 119.979  1.00  0.00    -0.550 OA
ENDBRANCH   5   6
ENDBRANCH   4   5
ENDBRANCH   3   4
ENDBRANCH   2   3
ENDBRANCH   1   2
BRANCH   1   9
ATOM      9  C   UNL     1      96.982 124.141 125.705  1.00  0.00     0.000 C 
BRANCH   9  10
ATOM     10  C   UNL     1      98.095 125.117 126.129  1.00  0.00    -0.000 C 
BRANCH  10  11
ATOM     11  C   UNL     1      97.934 126.510 125.499  1.00  0.00    -0.000 C 
BRANCH  11  12
ATOM     12  C   UNL     1      98.894 127.546 126.108  1.00  0.00    -0.000 C 
BRANCH  12  13
ATOM     13  C   UNL     1     100.357 127.074 126.090  1.00  0.00    -0.003 C 
ATOM     14  C   UNL     1     101.030 127.281 124.733  1.00  0.00     0.004 C 
ENDBRANCH  12  13
ENDBRANCH  11  12
ENDBRANCH  10  11
ENDBRANCH   9  10
ENDBRANCH   1   9
TORSDOF 10
ENDMDL
MODEL 9
REMARK VINA RESULT:    -5.147      2.619      5.000
REMARK INTER + INTRA:          -8.578
REMARK INTER:                  -8.086
REMARK INTRA:                  -0.492
REMARK UNBOUND:                -0.422
REMARK SMILES CCCCCCCCCCCC(=O)[O-]
REMARK SMILES IDX 7 1 8 2 9 3 10 4 11 5 12 6 13 7 14 8 6 9 5 10 4 11 3 12 2 13
REMARK SMILES IDX 1 14
REMARK H PARENT
REMARK Flexibility Score: inf
ROOT
ATOM      1  C   UNL     1      97.977 125.068 126.240  1.00  0.00     0.000 C 
ENDROOT
BRANCH   1   2
ATOM      2  C   UNL     1      97.977 126.389 125.451  1.00  0.00     0.000 C 
BRANCH   2   3
ATOM      3  C   UNL     1      98.403 127.591 126.309  1.00  0.00     0.000 C 
BRANCH   3   4
ATOM      4  C   UNL     1      99.924 127.665 126.509  1.00  0.00     0.006 C 
BRANCH   4   5
ATOM      5  C   UNL     1     100.517 128.865 125.764  1.00  0.00     0.053 C 
BRANCH   5   6
ATOM      6  C   UNL     1     101.170 128.423 124.493  1.00  0.00     0.041 C 
ATOM      7  O   UNL     1     101.348 129.242 123.554  1.00  0.00    -0.550 OA
ATOM      8  O   UNL     1     101.536 127.093 124.326  1.00  0.00    -0.550 OA
ENDBRANCH   5   6
ENDBRANCH   4   5
ENDBRANCH   3   4
ENDBRANCH   2   3
ENDBRANCH   1   2
BRANCH   1   9
ATOM      9  C   UNL     1      96.927 124.073 125.724  1.00  0.00     0.000 C 
BRANCH   9  10
ATOM     10  C   UNL     1      96.220 124.570 124.450  1.00  0.00    -0.000 C 
BRANCH  10  11
ATOM     11  C   UNL     1      95.357 123.483 123.788  1.00  0.00    -0.000 C 
BRANCH  11  12
ATOM     12  C   UNL     1      96.203 122.375 123.136  1.00  0.00    -0.000 C 
BRANCH  12  13
ATOM     13  C   UNL     1      95.648 121.939 121.770  1.00  0.00    -0.003 C 
ATOM     14  C   UNL     1      94.227 121.382 121.858  1.00  0.00     0.004 C 
ENDBRANCH  12  13
ENDBRANCH  11  12
ENDBRANCH  10  11
ENDBRANCH   9  10
ENDBRANCH   1   9
TORSDOF 10
ENDMDL
