MODEL 1
REMARK VINA RESULT:    -6.597      0.000      0.000
REMARK INTER + INTRA:          -8.246
REMARK INTER:                  -7.947
REMARK INTRA:                  -0.299
REMARK UNBOUND:                -0.299
REMARK SMILES O=c1c(O)c(-c2ccc(O)c(O)c2)oc2cc(O)cc(O)c12
REMARK SMILES IDX 5 1 3 2 2 3 1 4 22 5 20 6 19 7 17 8 16 9 15 10 14 11 6 12
REMARK SMILES IDX 7 13 8 14 9 15 13 16 11 17 10 18 12 20 4 22 21 24 18 26
REMARK H PARENT 10 19 12 21 4 23 21 25 18 27
REMARK Flexibility Score: inf
ROOT
ATOM      1  C   UNL     1      49.079  -9.402  17.347  1.00  0.00     0.180 A 
ATOM      2  C   UNL     1      49.299 -10.636  16.704  1.00  0.00     0.208 A 
ATOM      3  C   UNL     1      48.192 -11.386  16.280  1.00  0.00     0.238 A 
ATOM      4  O   UNL     1      48.377 -12.497  15.713  1.00  0.00    -0.285 OA
ATOM      5  C   UNL     1      46.890 -10.885  16.486  1.00  0.00     0.111 A 
ATOM      6  C   UNL     1      45.721 -11.577  16.084  1.00  0.00     0.134 A 
ATOM      7  C   UNL     1      44.462 -11.008  16.316  1.00  0.00     0.093 A 
ATOM      8  C   UNL     1      44.346  -9.762  16.939  1.00  0.00     0.123 A 
ATOM      9  C   UNL     1      45.496  -9.074  17.338  1.00  0.00     0.094 A 
ATOM     10  C   UNL     1      46.761  -9.626  17.117  1.00  0.00     0.146 A 
ATOM     11  O   UNL     1      47.838  -8.954  17.510  1.00  0.00    -0.452 OA
ENDROOT
BRANCH   1  12
ATOM     12  C   UNL     1      50.194  -8.561  17.840  1.00  0.00     0.025 A 
ATOM     13  C   UNL     1      50.692  -7.487  17.083  1.00  0.00     0.016 A 
ATOM     14  C   UNL     1      51.762  -6.724  17.558  1.00  0.00     0.051 A 
ATOM     15  C   UNL     1      52.359  -7.029  18.785  1.00  0.00     0.157 A 
ATOM     16  C   UNL     1      50.809  -8.878  19.063  1.00  0.00     0.062 A 
ATOM     17  C   UNL     1      51.882  -8.112  19.541  1.00  0.00     0.158 A 
BRANCH  15  18
ATOM     18  O   UNL     1      53.423  -6.247  19.234  1.00  0.00    -0.504 OA
ATOM     19  H   UNL     1      54.384  -6.561  19.173  1.00  0.00     0.293 HD
ENDBRANCH  15  18
BRANCH  17  20
ATOM     20  O   UNL     1      52.477  -8.426  20.763  1.00  0.00    -0.504 OA
ATOM     21  H   UNL     1      51.923  -8.627  21.587  1.00  0.00     0.293 HD
ENDBRANCH  17  20
ENDBRANCH   1  12
BRANCH   2  22
ATOM     22  O   UNL     1      50.601 -11.086  16.470  1.00  0.00    -0.502 OA
ATOM     23  H   UNL     1      50.995 -11.142  15.537  1.00  0.00     0.293 HD
ENDBRANCH   2  22
BRANCH   6  24
ATOM     24  O   UNL     1      45.803 -12.823  15.459  1.00  0.00    -0.507 OA
ATOM     25  H   UNL     1      46.462 -13.002  14.710  1.00  0.00     0.293 HD
ENDBRANCH   6  24
BRANCH   8  26
ATOM     26  O   UNL     1      43.082  -9.218  17.157  1.00  0.00    -0.508 OA
ATOM     27  H   UNL     1      42.279  -9.510  16.611  1.00  0.00     0.293 HD
ENDBRANCH   8  26
TORSDOF 6
ENDMDL
MODEL 2
REMARK VINA RESULT:    -6.294     11.264     12.810
REMARK INTER + INTRA:          -7.881
REMARK INTER:                  -7.753
REMARK INTRA:                  -0.128
REMARK UNBOUND:                -0.299
REMARK SMILES O=c1c(O)c(-c2ccc(O)c(O)c2)oc2cc(O)cc(O)c12
REMARK SMILES IDX 5 1 3 2 2 3 1 4 22 5 20 6 19 7 17 8 16 9 15 10 14 11 6 12
REMARK SMILES IDX 7 13 8 14 9 15 13 16 11 17 10 18 12 20 4 22 21 24 18 26
REMARK H PARENT 10 19 12 21 4 23 21 25 18 27
REMARK Flexibility Score: inf
ROOT
ATOM      1  C   UNL     1      44.491  -4.428  27.061  1.00  0.00     0.180 A 
ATOM      2  C   UNL     1      45.497  -4.373  26.076  1.00  0.00     0.208 A 
ATOM      3  C   UNL     1      45.461  -3.341  25.126  1.00  0.00     0.238 A 
ATOM      4  O   UNL     1      46.350  -3.288  24.234  1.00  0.00    -0.285 OA
ATOM      5  C   UNL     1      44.437  -2.373  25.187  1.00  0.00     0.111 A 
ATOM      6  C   UNL     1      44.332  -1.299  24.271  1.00  0.00     0.134 A 
ATOM      7  C   UNL     1      43.288  -0.372  24.403  1.00  0.00     0.093 A 
ATOM      8  C   UNL     1      42.352  -0.495  25.433  1.00  0.00     0.123 A 
ATOM      9  C   UNL     1      42.450  -1.554  26.340  1.00  0.00     0.094 A 
ATOM     10  C   UNL     1      43.481  -2.490  26.224  1.00  0.00     0.146 A 
ATOM     11  O   UNL     1      43.550  -3.490  27.096  1.00  0.00    -0.452 OA
ENDROOT
BRANCH   1  12
ATOM     12  C   UNL     1      44.450  -5.497  28.085  1.00  0.00     0.025 A 
ATOM     13  C   UNL     1      45.500  -5.671  29.003  1.00  0.00     0.016 A 
ATOM     14  C   UNL     1      45.451  -6.702  29.945  1.00  0.00     0.051 A 
ATOM     15  C   UNL     1      44.363  -7.581  29.976  1.00  0.00     0.157 A 
ATOM     16  C   UNL     1      43.369  -6.394  28.105  1.00  0.00     0.062 A 
ATOM     17  C   UNL     1      43.318  -7.428  29.051  1.00  0.00     0.158 A 
BRANCH  15  18
ATOM     18  O   UNL     1      44.341  -8.598  30.929  1.00  0.00    -0.504 OA
ATOM     19  H   UNL     1      45.139  -9.202  31.091  1.00  0.00     0.293 HD
ENDBRANCH  15  18
BRANCH  17  20
ATOM     20  O   UNL     1      42.234  -8.305  29.071  1.00  0.00    -0.504 OA
ATOM     21  H   UNL     1      42.355  -9.296  29.249  1.00  0.00     0.293 HD
ENDBRANCH  17  20
ENDBRANCH   1  12
BRANCH   2  22
ATOM     22  O   UNL     1      46.528  -5.317  26.068  1.00  0.00    -0.502 OA
ATOM     23  H   UNL     1      46.655  -5.988  26.818  1.00  0.00     0.293 HD
ENDBRANCH   2  22
BRANCH   6  24
ATOM     24  O   UNL     1      45.252  -1.147  23.232  1.00  0.00    -0.507 OA
ATOM     25  H   UNL     1      45.032  -1.420  22.281  1.00  0.00     0.293 HD
ENDBRANCH   6  24
BRANCH   8  26
ATOM     26  O   UNL     1      41.325   0.441  25.543  1.00  0.00    -0.508 OA
ATOM     27  H   UNL     1      41.386   1.221  26.188  1.00  0.00     0.293 HD
ENDBRANCH   8  26
TORSDOF 6
ENDMDL
MODEL 3
REMARK VINA RESULT:    -6.242     11.185     12.689
REMARK INTER + INTRA:          -7.818
REMARK INTER:                  -7.743
REMARK INTRA:                  -0.075
REMARK UNBOUND:                -0.299
REMARK SMILES O=c1c(O)c(-c2ccc(O)c(O)c2)oc2cc(O)cc(O)c12
REMARK SMILES IDX 5 1 3 2 2 3 1 4 22 5 20 6 19 7 17 8 16 9 15 10 14 11 6 12
REMARK SMILES IDX 7 13 8 14 9 15 13 16 11 17 10 18 12 20 4 22 21 24 18 26
REMARK H PARENT 10 19 12 21 4 23 21 25 18 27
REMARK Flexibility Score: inf
ROOT
ATOM      1  C   UNL     1      44.474  -4.530  26.954  1.00  0.00     0.180 A 
ATOM      2  C   UNL     1      45.512  -4.456  26.005  1.00  0.00     0.208 A 
ATOM      3  C   UNL     1      45.523  -3.389  25.094  1.00  0.00     0.238 A 
ATOM      4  O   UNL     1      46.441  -3.318  24.233  1.00  0.00    -0.285 OA
ATOM      5  C   UNL     1      44.512  -2.407  25.159  1.00  0.00     0.111 A 
ATOM      6  C   UNL     1      44.453  -1.298  24.280  1.00  0.00     0.134 A 
ATOM      7  C   UNL     1      43.421  -0.359  24.414  1.00  0.00     0.093 A 
ATOM      8  C   UNL     1      42.449  -0.504  25.408  1.00  0.00     0.123 A 
ATOM      9  C   UNL     1      42.502  -1.598  26.278  1.00  0.00     0.094 A 
ATOM     10  C   UNL     1      43.522  -2.546  26.159  1.00  0.00     0.146 A 
ATOM     11  O   UNL     1      43.547  -3.578  26.995  1.00  0.00    -0.452 OA
ENDROOT
BRANCH   1  12
ATOM     12  C   UNL     1      44.383  -5.635  27.936  1.00  0.00     0.025 A 
ATOM     13  C   UNL     1      43.237  -6.444  28.025  1.00  0.00     0.016 A 
ATOM     14  C   UNL     1      43.165  -7.465  28.976  1.00  0.00     0.051 A 
ATOM     15  C   UNL     1      44.226  -7.685  29.860  1.00  0.00     0.157 A 
ATOM     16  C   UNL     1      45.439  -5.845  28.839  1.00  0.00     0.062 A 
ATOM     17  C   UNL     1      45.368  -6.870  29.794  1.00  0.00     0.158 A 
BRANCH  15  18
ATOM     18  O   UNL     1      44.126  -8.713  30.796  1.00  0.00    -0.504 OA
ATOM     19  H   UNL     1      43.278  -8.880  31.324  1.00  0.00     0.293 HD
ENDBRANCH  15  18
BRANCH  17  20
ATOM     20  O   UNL     1      46.427  -7.079  30.677  1.00  0.00    -0.504 OA
ATOM     21  H   UNL     1      47.061  -6.330  30.932  1.00  0.00     0.293 HD
ENDBRANCH  17  20
ENDBRANCH   1  12
BRANCH   2  22
ATOM     22  O   UNL     1      46.527  -5.416  25.995  1.00  0.00    -0.502 OA
ATOM     23  H   UNL     1      47.245  -5.453  26.709  1.00  0.00     0.293 HD
ENDBRANCH   2  22
BRANCH   6  24
ATOM     24  O   UNL     1      45.409  -1.123  23.278  1.00  0.00    -0.507 OA
ATOM     25  H   UNL     1      45.880  -1.910  22.847  1.00  0.00     0.293 HD
ENDBRANCH   6  24
BRANCH   8  26
ATOM     26  O   UNL     1      41.434   0.444  25.520  1.00  0.00    -0.508 OA
ATOM     27  H   UNL     1      40.484   0.177  25.752  1.00  0.00     0.293 HD
ENDBRANCH   8  26
TORSDOF 6
ENDMDL
MODEL 4
REMARK VINA RESULT:    -6.111     13.607     17.022
REMARK INTER + INTRA:          -7.660
REMARK INTER:                  -7.340
REMARK INTRA:                  -0.320
REMARK UNBOUND:                -0.299
REMARK SMILES O=c1c(O)c(-c2ccc(O)c(O)c2)oc2cc(O)cc(O)c12
REMARK SMILES IDX 5 1 3 2 2 3 1 4 22 5 20 6 19 7 17 8 16 9 15 10 14 11 6 12
REMARK SMILES IDX 7 13 8 14 9 15 13 16 11 17 10 18 12 20 4 22 21 24 18 26
REMARK H PARENT 10 19 12 21 4 23 21 25 18 27
REMARK Flexibility Score: inf
ROOT
ATOM      1  C   UNL     1      50.597  -9.266  32.977  1.00  0.00     0.180 A 
ATOM      2  C   UNL     1      50.505 -10.526  33.600  1.00  0.00     0.208 A 
ATOM      3  C   UNL     1      51.679 -11.146  34.052  1.00  0.00     0.238 A 
ATOM      4  O   UNL     1      51.610 -12.279  34.602  1.00  0.00    -0.285 OA
ATOM      5  C   UNL     1      52.919 -10.492  33.892  1.00  0.00     0.111 A 
ATOM      6  C   UNL     1      54.148 -11.048  34.323  1.00  0.00     0.134 A 
ATOM      7  C   UNL     1      55.339 -10.331  34.136  1.00  0.00     0.093 A 
ATOM      8  C   UNL     1      55.325  -9.072  33.530  1.00  0.00     0.123 A 
ATOM      9  C   UNL     1      54.114  -8.519  33.101  1.00  0.00     0.094 A 
ATOM     10  C   UNL     1      52.917  -9.218  33.277  1.00  0.00     0.146 A 
ATOM     11  O   UNL     1      51.781  -8.673  32.857  1.00  0.00    -0.452 OA
ENDROOT
BRANCH   1  12
ATOM     12  C   UNL     1      49.405  -8.556  32.458  1.00  0.00     0.025 A 
ATOM     13  C   UNL     1      48.704  -7.628  33.246  1.00  0.00     0.016 A 
ATOM     14  C   UNL     1      47.568  -6.989  32.743  1.00  0.00     0.051 A 
ATOM     15  C   UNL     1      47.107  -7.276  31.454  1.00  0.00     0.157 A 
ATOM     16  C   UNL     1      48.928  -8.857  31.171  1.00  0.00     0.062 A 
ATOM     17  C   UNL     1      47.788  -8.216  30.664  1.00  0.00     0.158 A 
BRANCH  15  18
ATOM     18  O   UNL     1      45.972  -6.620  30.979  1.00  0.00    -0.504 OA
ATOM     19  H   UNL     1      45.972  -6.110  30.104  1.00  0.00     0.293 HD
ENDBRANCH  15  18
BRANCH  17  20
ATOM     20  O   UNL     1      47.330  -8.513  29.381  1.00  0.00    -0.504 OA
ATOM     21  H   UNL     1      47.970  -8.636  28.604  1.00  0.00     0.293 HD
ENDBRANCH  17  20
ENDBRANCH   1  12
BRANCH   2  22
ATOM     22  O   UNL     1      49.259 -11.129  33.790  1.00  0.00    -0.502 OA
ATOM     23  H   UNL     1      49.077 -11.768  34.556  1.00  0.00     0.293 HD
ENDBRANCH   2  22
BRANCH   6  24
ATOM     24  O   UNL     1      54.196 -12.303  34.933  1.00  0.00    -0.507 OA
ATOM     25  H   UNL     1      54.926 -12.549  35.590  1.00  0.00     0.293 HD
ENDBRANCH   6  24
BRANCH   8  26
ATOM     26  O   UNL     1      56.522  -8.380  33.357  1.00  0.00    -0.508 OA
ATOM     27  H   UNL     1      57.347  -8.606  33.901  1.00  0.00     0.293 HD
ENDBRANCH   8  26
TORSDOF 6
ENDMDL
MODEL 5
REMARK VINA RESULT:    -5.911     14.936     18.138
REMARK INTER + INTRA:          -7.420
REMARK INTER:                  -7.237
REMARK INTRA:                  -0.183
REMARK UNBOUND:                -0.299
REMARK SMILES O=c1c(O)c(-c2ccc(O)c(O)c2)oc2cc(O)cc(O)c12
REMARK SMILES IDX 5 1 3 2 2 3 1 4 22 5 20 6 19 7 17 8 16 9 15 10 14 11 6 12
REMARK SMILES IDX 7 13 8 14 9 15 13 16 11 17 10 18 12 20 4 22 21 24 18 26
REMARK H PARENT 10 19 12 21 4 23 21 25 18 27
REMARK Flexibility Score: inf
ROOT
ATOM      1  C   UNL     1      54.428   0.843  29.441  1.00  0.00     0.180 A 
ATOM      2  C   UNL     1      53.120   1.298  29.699  1.00  0.00     0.208 A 
ATOM      3  C   UNL     1      52.626   1.232  31.010  1.00  0.00     0.238 A 
ATOM      4  O   UNL     1      51.453   1.627  31.252  1.00  0.00    -0.285 OA
ATOM      5  C   UNL     1      53.450   0.734  32.042  1.00  0.00     0.111 A 
ATOM      6  C   UNL     1      53.029   0.638  33.391  1.00  0.00     0.134 A 
ATOM      7  C   UNL     1      53.910   0.140  34.360  1.00  0.00     0.093 A 
ATOM      8  C   UNL     1      55.202  -0.262  34.010  1.00  0.00     0.123 A 
ATOM      9  C   UNL     1      55.623  -0.171  32.680  1.00  0.00     0.094 A 
ATOM     10  C   UNL     1      54.758   0.321  31.698  1.00  0.00     0.146 A 
ATOM     11  O   UNL     1      55.181   0.393  30.440  1.00  0.00    -0.452 OA
ENDROOT
BRANCH   1  12
ATOM     12  C   UNL     1      55.014   0.863  28.081  1.00  0.00     0.025 A 
ATOM     13  C   UNL     1      54.472   0.090  27.039  1.00  0.00     0.016 A 
ATOM     14  C   UNL     1      55.057   0.106  25.770  1.00  0.00     0.051 A 
ATOM     15  C   UNL     1      56.196   0.880  25.525  1.00  0.00     0.157 A 
ATOM     16  C   UNL     1      56.170   1.623  27.837  1.00  0.00     0.062 A 
ATOM     17  C   UNL     1      56.757   1.641  26.563  1.00  0.00     0.158 A 
BRANCH  15  18
ATOM     18  O   UNL     1      56.755   0.878  24.248  1.00  0.00    -0.504 OA
ATOM     19  H   UNL     1      56.451   1.521  23.526  1.00  0.00     0.293 HD
ENDBRANCH  15  18
BRANCH  17  20
ATOM     20  O   UNL     1      57.897   2.410  26.329  1.00  0.00    -0.504 OA
ATOM     21  H   UNL     1      58.717   2.337  26.920  1.00  0.00     0.293 HD
ENDBRANCH  17  20
ENDBRANCH   1  12
BRANCH   2  22
ATOM     22  O   UNL     1      52.343   1.832  28.668  1.00  0.00    -0.502 OA
ATOM     23  H   UNL     1      52.260   1.382  27.763  1.00  0.00     0.293 HD
ENDBRANCH   2  22
BRANCH   6  24
ATOM     24  O   UNL     1      51.746   1.032  33.773  1.00  0.00    -0.507 OA
ATOM     25  H   UNL     1      51.324   0.712  34.637  1.00  0.00     0.293 HD
ENDBRANCH   6  24
BRANCH   8  26
ATOM     26  O   UNL     1      56.058  -0.753  34.993  1.00  0.00    -0.508 OA
ATOM     27  H   UNL     1      55.887  -0.584  35.978  1.00  0.00     0.293 HD
ENDBRANCH   8  26
TORSDOF 6
ENDMDL
MODEL 6
REMARK VINA RESULT:    -5.770     13.950     16.899
REMARK INTER + INTRA:          -7.249
REMARK INTER:                  -6.982
REMARK INTRA:                  -0.267
REMARK UNBOUND:                -0.299
REMARK SMILES O=c1c(O)c(-c2ccc(O)c(O)c2)oc2cc(O)cc(O)c12
REMARK SMILES IDX 5 1 3 2 2 3 1 4 22 5 20 6 19 7 17 8 16 9 15 10 14 11 6 12
REMARK SMILES IDX 7 13 8 14 9 15 13 16 11 17 10 18 12 20 4 22 21 24 18 26
REMARK H PARENT 10 19 12 21 4 23 21 25 18 27
REMARK Flexibility Score: inf
ROOT
ATOM      1  C   UNL     1      53.961   0.651  28.551  1.00  0.00     0.180 A 
ATOM      2  C   UNL     1      53.457  -0.323  27.666  1.00  0.00     0.208 A 
ATOM      3  C   UNL     1      54.110  -0.528  26.441  1.00  0.00     0.238 A 
ATOM      4  O   UNL     1      53.663  -1.389  25.636  1.00  0.00    -0.285 OA
ATOM      5  C   UNL     1      55.262   0.225  26.130  1.00  0.00     0.111 A 
ATOM      6  C   UNL     1      55.980   0.076  24.919  1.00  0.00     0.134 A 
ATOM      7  C   UNL     1      57.122   0.857  24.688  1.00  0.00     0.093 A 
ATOM      8  C   UNL     1      57.560   1.779  25.641  1.00  0.00     0.123 A 
ATOM      9  C   UNL     1      56.854   1.932  26.838  1.00  0.00     0.094 A 
ATOM     10  C   UNL     1      55.713   1.164  27.088  1.00  0.00     0.146 A 
ATOM     11  O   UNL     1      55.057   1.331  28.231  1.00  0.00    -0.452 OA
ENDROOT
BRANCH   1  12
ATOM     12  C   UNL     1      53.317   0.938  29.853  1.00  0.00     0.025 A 
ATOM     13  C   UNL     1      52.102   1.641  29.930  1.00  0.00     0.016 A 
ATOM     14  C   UNL     1      51.526   1.922  31.171  1.00  0.00     0.051 A 
ATOM     15  C   UNL     1      52.157   1.520  32.353  1.00  0.00     0.157 A 
ATOM     16  C   UNL     1      53.960   0.554  31.042  1.00  0.00     0.062 A 
ATOM     17  C   UNL     1      53.382   0.834  32.289  1.00  0.00     0.158 A 
BRANCH  15  18
ATOM     18  O   UNL     1      51.557   1.812  33.576  1.00  0.00    -0.504 OA
ATOM     19  H   UNL     1      50.979   2.634  33.710  1.00  0.00     0.293 HD
ENDBRANCH  15  18
BRANCH  17  20
ATOM     20  O   UNL     1      54.022   0.437  33.462  1.00  0.00    -0.504 OA
ATOM     21  H   UNL     1      54.196  -0.541  33.667  1.00  0.00     0.293 HD
ENDBRANCH  17  20
ENDBRANCH   1  12
BRANCH   2  22
ATOM     22  O   UNL     1      52.344  -1.089  28.020  1.00  0.00    -0.502 OA
ATOM     23  H   UNL     1      51.847  -1.665  27.350  1.00  0.00     0.293 HD
ENDBRANCH   2  22
BRANCH   6  24
ATOM     24  O   UNL     1      55.569  -0.837  23.947  1.00  0.00    -0.507 OA
ATOM     25  H   UNL     1      55.898  -1.796  23.943  1.00  0.00     0.293 HD
ENDBRANCH   6  24
BRANCH   8  26
ATOM     26  O   UNL     1      58.698   2.542  25.386  1.00  0.00    -0.508 OA
ATOM     27  H   UNL     1      58.828   3.456  25.805  1.00  0.00     0.293 HD
ENDBRANCH   8  26
TORSDOF 6
ENDMDL
MODEL 7
REMARK VINA RESULT:    -5.666     14.006     16.944
REMARK INTER + INTRA:          -7.124
REMARK INTER:                  -6.800
REMARK INTRA:                  -0.324
REMARK UNBOUND:                -0.299
REMARK SMILES O=c1c(O)c(-c2ccc(O)c(O)c2)oc2cc(O)cc(O)c12
REMARK SMILES IDX 5 1 3 2 2 3 1 4 22 5 20 6 19 7 17 8 16 9 15 10 14 11 6 12
REMARK SMILES IDX 7 13 8 14 9 15 13 16 11 17 10 18 12 20 4 22 21 24 18 26
REMARK H PARENT 10 19 12 21 4 23 21 25 18 27
REMARK Flexibility Score: inf
ROOT
ATOM      1  C   UNL     1      53.873   1.038  27.839  1.00  0.00     0.180 A 
ATOM      2  C   UNL     1      52.653   1.722  27.663  1.00  0.00     0.208 A 
ATOM      3  C   UNL     1      51.867   2.007  28.790  1.00  0.00     0.238 A 
ATOM      4  O   UNL     1      50.769   2.609  28.644  1.00  0.00    -0.285 OA
ATOM      5  C   UNL     1      52.320   1.625  30.070  1.00  0.00     0.111 A 
ATOM      6  C   UNL     1      51.590   1.879  31.257  1.00  0.00     0.134 A 
ATOM      7  C   UNL     1      52.112   1.474  32.494  1.00  0.00     0.093 A 
ATOM      8  C   UNL     1      53.347   0.825  32.569  1.00  0.00     0.123 A 
ATOM      9  C   UNL     1      54.072   0.570  31.401  1.00  0.00     0.094 A 
ATOM     10  C   UNL     1      53.568   0.964  30.157  1.00  0.00     0.146 A 
ATOM     11  O   UNL     1      54.274   0.706  29.062  1.00  0.00    -0.452 OA
ENDROOT
BRANCH   1  12
ATOM     12  C   UNL     1      54.748   0.685  26.697  1.00  0.00     0.025 A 
ATOM     13  C   UNL     1      54.522  -0.473  25.932  1.00  0.00     0.016 A 
ATOM     14  C   UNL     1      55.376  -0.798  24.876  1.00  0.00     0.051 A 
ATOM     15  C   UNL     1      56.473   0.015  24.575  1.00  0.00     0.157 A 
ATOM     16  C   UNL     1      55.862   1.489  26.406  1.00  0.00     0.062 A 
ATOM     17  C   UNL     1      56.719   1.164  25.345  1.00  0.00     0.158 A 
BRANCH  15  18
ATOM     18  O   UNL     1      57.305  -0.334  23.513  1.00  0.00    -0.504 OA
ATOM     19  H   UNL     1      58.315  -0.293  23.584  1.00  0.00     0.293 HD
ENDBRANCH  15  18
BRANCH  17  20
ATOM     20  O   UNL     1      57.815   1.976  25.056  1.00  0.00    -0.504 OA
ATOM     21  H   UNL     1      58.754   1.599  24.991  1.00  0.00     0.293 HD
ENDBRANCH  17  20
ENDBRANCH   1  12
BRANCH   2  22
ATOM     22  O   UNL     1      52.252   2.132  26.389  1.00  0.00    -0.502 OA
ATOM     23  H   UNL     1      52.680   2.919  25.914  1.00  0.00     0.293 HD
ENDBRANCH   2  22
BRANCH   6  24
ATOM     24  O   UNL     1      50.354   2.526  31.216  1.00  0.00    -0.507 OA
ATOM     25  H   UNL     1      50.260   3.474  30.870  1.00  0.00     0.293 HD
ENDBRANCH   6  24
BRANCH   8  26
ATOM     26  O   UNL     1      53.843   0.434  33.811  1.00  0.00    -0.508 OA
ATOM     27  H   UNL     1      54.588  -0.248  33.893  1.00  0.00     0.293 HD
ENDBRANCH   8  26
TORSDOF 6
ENDMDL
MODEL 8
REMARK VINA RESULT:    -5.572      9.984     12.097
REMARK INTER + INTRA:          -7.011
REMARK INTER:                  -6.750
REMARK INTRA:                  -0.260
REMARK UNBOUND:                -0.299
REMARK SMILES O=c1c(O)c(-c2ccc(O)c(O)c2)oc2cc(O)cc(O)c12
REMARK SMILES IDX 5 1 3 2 2 3 1 4 22 5 20 6 19 7 17 8 16 9 15 10 14 11 6 12
REMARK SMILES IDX 7 13 8 14 9 15 13 16 11 17 10 18 12 20 4 22 21 24 18 26
REMARK H PARENT 10 19 12 21 4 23 21 25 18 27
REMARK Flexibility Score: inf
ROOT
ATOM      1  C   UNL     1      47.270  -6.640  28.189  1.00  0.00     0.180 A 
ATOM      2  C   UNL     1      46.176  -5.755  28.250  1.00  0.00     0.208 A 
ATOM      3  C   UNL     1      45.954  -4.875  27.180  1.00  0.00     0.238 A 
ATOM      4  O   UNL     1      44.984  -4.072  27.228  1.00  0.00    -0.285 OA
ATOM      5  C   UNL     1      46.815  -4.907  26.063  1.00  0.00     0.111 A 
ATOM      6  C   UNL     1      46.658  -4.057  24.941  1.00  0.00     0.134 A 
ATOM      7  C   UNL     1      47.551  -4.155  23.864  1.00  0.00     0.093 A 
ATOM      8  C   UNL     1      48.593  -5.087  23.885  1.00  0.00     0.123 A 
ATOM      9  C   UNL     1      48.753  -5.928  24.989  1.00  0.00     0.094 A 
ATOM     10  C   UNL     1      47.875  -5.844  26.074  1.00  0.00     0.146 A 
ATOM     11  O   UNL     1      48.051  -6.652  27.114  1.00  0.00    -0.452 OA
ENDROOT
BRANCH   1  12
ATOM     12  C   UNL     1      47.580  -7.585  29.287  1.00  0.00     0.025 A 
ATOM     13  C   UNL     1      48.670  -7.375  30.149  1.00  0.00     0.016 A 
ATOM     14  C   UNL     1      48.957  -8.293  31.162  1.00  0.00     0.051 A 
ATOM     15  C   UNL     1      48.172  -9.439  31.322  1.00  0.00     0.157 A 
ATOM     16  C   UNL     1      46.806  -8.748  29.437  1.00  0.00     0.062 A 
ATOM     17  C   UNL     1      47.092  -9.670  30.454  1.00  0.00     0.158 A 
BRANCH  15  18
ATOM     18  O   UNL     1      48.481 -10.336  32.343  1.00  0.00    -0.504 OA
ATOM     19  H   UNL     1      47.933 -10.394  33.193  1.00  0.00     0.293 HD
ENDBRANCH  15  18
BRANCH  17  20
ATOM     20  O   UNL     1      46.309 -10.815  30.602  1.00  0.00    -0.504 OA
ATOM     21  H   UNL     1      45.316 -10.808  30.401  1.00  0.00     0.293 HD
ENDBRANCH  17  20
ENDBRANCH   1  12
BRANCH   2  22
ATOM     22  O   UNL     1      45.311  -5.779  29.347  1.00  0.00    -0.502 OA
ATOM     23  H   UNL     1      44.875  -6.633  29.676  1.00  0.00     0.293 HD
ENDBRANCH   2  22
BRANCH   6  24
ATOM     24  O   UNL     1      45.627  -3.117  24.890  1.00  0.00    -0.507 OA
ATOM     25  H   UNL     1      45.773  -2.150  25.156  1.00  0.00     0.293 HD
ENDBRANCH   6  24
BRANCH   8  26
ATOM     26  O   UNL     1      49.465  -5.164  22.801  1.00  0.00    -0.508 OA
ATOM     27  H   UNL     1      49.328  -4.600  21.970  1.00  0.00     0.293 HD
ENDBRANCH   8  26
TORSDOF 6
ENDMDL
MODEL 9
REMARK VINA RESULT:    -5.517     11.233     13.129
REMARK INTER + INTRA:          -6.945
REMARK INTER:                  -6.927
REMARK INTRA:                  -0.018
REMARK UNBOUND:                -0.299
REMARK SMILES O=c1c(O)c(-c2ccc(O)c(O)c2)oc2cc(O)cc(O)c12
REMARK SMILES IDX 5 1 3 2 2 3 1 4 22 5 20 6 19 7 17 8 16 9 15 10 14 11 6 12
REMARK SMILES IDX 7 13 8 14 9 15 13 16 11 17 10 18 12 20 4 22 21 24 18 26
REMARK H PARENT 10 19 12 21 4 23 21 25 18 27
REMARK Flexibility Score: inf
ROOT
ATOM      1  C   UNL     1      44.169  -4.359  27.281  1.00  0.00     0.180 A 
ATOM      2  C   UNL     1      43.125  -3.416  27.357  1.00  0.00     0.208 A 
ATOM      3  C   UNL     1      43.131  -2.325  26.474  1.00  0.00     0.238 A 
ATOM      4  O   UNL     1      42.208  -1.469  26.540  1.00  0.00    -0.285 OA
ATOM      5  C   UNL     1      44.165  -2.206  25.522  1.00  0.00     0.111 A 
ATOM      6  C   UNL     1      44.242  -1.139  24.594  1.00  0.00     0.134 A 
ATOM      7  C   UNL     1      45.297  -1.095  23.671  1.00  0.00     0.093 A 
ATOM      8  C   UNL     1      46.273  -2.095  23.656  1.00  0.00     0.123 A 
ATOM      9  C   UNL     1      46.203  -3.150  24.570  1.00  0.00     0.094 A 
ATOM     10  C   UNL     1      45.160  -3.211  25.500  1.00  0.00     0.146 A 
ATOM     11  O   UNL     1      45.118  -4.221  26.361  1.00  0.00    -0.452 OA
ENDROOT
BRANCH   1  12
ATOM     12  C   UNL     1      44.242  -5.526  28.190  1.00  0.00     0.025 A 
ATOM     13  C   UNL     1      45.405  -5.809  28.927  1.00  0.00     0.016 A 
ATOM     14  C   UNL     1      45.459  -6.930  29.758  1.00  0.00     0.051 A 
ATOM     15  C   UNL     1      44.362  -7.792  29.858  1.00  0.00     0.157 A 
ATOM     16  C   UNL     1      43.149  -6.405  28.276  1.00  0.00     0.062 A 
ATOM     17  C   UNL     1      43.201  -7.530  29.111  1.00  0.00     0.158 A 
BRANCH  15  18
ATOM     18  O   UNL     1      44.444  -8.901  30.699  1.00  0.00    -0.504 OA
ATOM     19  H   UNL     1      44.955  -9.736  30.439  1.00  0.00     0.293 HD
ENDBRANCH  15  18
BRANCH  17  20
ATOM     20  O   UNL     1      42.106  -8.388  29.200  1.00  0.00    -0.504 OA
ATOM     21  H   UNL     1      42.033  -9.217  28.621  1.00  0.00     0.293 HD
ENDBRANCH  17  20
ENDBRANCH   1  12
BRANCH   2  22
ATOM     22  O   UNL     1      42.088  -3.585  28.277  1.00  0.00    -0.502 OA
ATOM     23  H   UNL     1      42.124  -3.195  29.212  1.00  0.00     0.293 HD
ENDBRANCH   2  22
BRANCH   6  24
ATOM     24  O   UNL     1      43.282  -0.125  24.582  1.00  0.00    -0.507 OA
ATOM     25  H   UNL     1      43.423   0.748  25.077  1.00  0.00     0.293 HD
ENDBRANCH   6  24
BRANCH   8  26
ATOM     26  O   UNL     1      47.310  -2.027  22.728  1.00  0.00    -0.508 OA
ATOM     27  H   UNL     1      47.368  -1.273  22.053  1.00  0.00     0.293 HD
ENDBRANCH   8  26
TORSDOF 6
ENDMDL
