MODEL 1
REMARK VINA RESULT:    -5.098      0.000      0.000
REMARK INTER + INTRA:         -11.753
REMARK INTER:                  -9.866
REMARK INTRA:                  -1.887
REMARK UNBOUND:                -1.887
REMARK SMILES CCCCCCCCCCCCCCCCCC(=O)[O-]
REMARK SMILES IDX 10 1 11 2 12 3 13 4 14 5 15 6 16 7 17 8 18 9 19 10 20 11
REMARK SMILES IDX 9 12 8 13 7 14 6 15 5 16 4 17 3 18 2 19 1 20
REMARK H PARENT
REMARK Flexibility Score: inf
ROOT
ATOM      1  C   UNL     1      44.352  -4.515  28.629  1.00  0.00     0.000 C 
ENDROOT
BRANCH   1   2
ATOM      2  C   UNL     1      45.269  -4.475  27.398  1.00  0.00     0.000 C 
BRANCH   2   3
ATOM      3  C   UNL     1      44.859  -5.537  26.372  1.00  0.00     0.000 C 
BRANCH   3   4
ATOM      4  C   UNL     1      45.050  -6.951  26.940  1.00  0.00     0.000 C 
BRANCH   4   5
ATOM      5  C   UNL     1      45.498  -7.966  25.875  1.00  0.00     0.000 C 
BRANCH   5   6
ATOM      6  C   UNL     1      45.458  -7.445  24.425  1.00  0.00     0.000 C 
BRANCH   6   7
ATOM      7  C   UNL     1      46.824  -7.489  23.709  1.00  0.00     0.006 C 
BRANCH   7   8
ATOM      8  C   UNL     1      47.994  -7.234  24.669  1.00  0.00     0.053 C 
BRANCH   8   9
ATOM      9  C   UNL     1      48.330  -5.777  24.710  1.00  0.00     0.041 C 
ATOM     10  O   UNL     1      48.507  -5.137  23.639  1.00  0.00    -0.550 OA
ATOM     11  O   UNL     1      48.495  -5.136  25.930  1.00  0.00    -0.550 OA
ENDBRANCH   8   9
ENDBRANCH   7   8
ENDBRANCH   6   7
ENDBRANCH   5   6
ENDBRANCH   4   5
ENDBRANCH   3   4
ENDBRANCH   2   3
ENDBRANCH   1   2
BRANCH   1  12
ATOM     12  C   UNL     1      43.627  -3.181  28.878  1.00  0.00     0.000 C 
BRANCH  12  13
ATOM     13  C   UNL     1      42.104  -3.215  28.640  1.00  0.00    -0.000 C 
BRANCH  13  14
ATOM     14  C   UNL     1      41.537  -4.583  28.214  1.00  0.00    -0.000 C 
BRANCH  14  15
ATOM     15  C   UNL     1      41.065  -4.665  26.751  1.00  0.00    -0.000 C 
BRANCH  15  16
ATOM     16  C   UNL     1      39.864  -5.604  26.562  1.00  0.00    -0.000 C 
BRANCH  16  17
ATOM     17  C   UNL     1      38.554  -4.810  26.464  1.00  0.00    -0.000 C 
BRANCH  17  18
ATOM     18  C   UNL     1      37.757  -4.830  27.786  1.00  0.00    -0.000 C 
BRANCH  18  19
ATOM     19  C   UNL     1      37.602  -3.445  28.434  1.00  0.00    -0.003 C 
ATOM     20  C   UNL     1      37.996  -2.300  27.503  1.00  0.00     0.004 C 
ENDBRANCH  18  19
ENDBRANCH  17  18
ENDBRANCH  16  17
ENDBRANCH  15  16
ENDBRANCH  14  15
ENDBRANCH  13  14
ENDBRANCH  12  13
ENDBRANCH   1  12
TORSDOF 16
ENDMDL
MODEL 2
REMARK VINA RESULT:    -4.988      5.138      9.156
REMARK INTER + INTRA:         -11.541
REMARK INTER:                 -10.772
REMARK INTRA:                  -0.769
REMARK UNBOUND:                -1.887
REMARK SMILES CCCCCCCCCCCCCCCCCC(=O)[O-]
REMARK SMILES IDX 10 1 11 2 12 3 13 4 14 5 15 6 16 7 17 8 18 9 19 10 20 11
REMARK SMILES IDX 9 12 8 13 7 14 6 15 5 16 4 17 3 18 2 19 1 20
REMARK H PARENT
REMARK Flexibility Score: inf
ROOT
ATOM      1  C   UNL     1      42.263  -4.171  27.979  1.00  0.00     0.000 C 
ENDROOT
BRANCH   1   2
ATOM      2  C   UNL     1      41.526  -4.788  26.781  1.00  0.00     0.000 C 
BRANCH   2   3
ATOM      3  C   UNL     1      40.098  -4.242  26.673  1.00  0.00     0.000 C 
BRANCH   3   4
ATOM      4  C   UNL     1      39.068  -5.377  26.768  1.00  0.00     0.000 C 
BRANCH   4   5
ATOM      5  C   UNL     1      38.705  -5.969  25.396  1.00  0.00     0.000 C 
BRANCH   5   6
ATOM      6  C   UNL     1      38.095  -7.384  25.442  1.00  0.00     0.000 C 
BRANCH   6   7
ATOM      7  C   UNL     1      36.570  -7.397  25.681  1.00  0.00     0.006 C 
BRANCH   7   8
ATOM      8  C   UNL     1      35.774  -7.356  24.369  1.00  0.00     0.053 C 
BRANCH   8   9
ATOM      9  C   UNL     1      34.321  -7.131  24.645  1.00  0.00     0.041 C 
ATOM     10  O   UNL     1      33.750  -7.752  25.581  1.00  0.00    -0.550 OA
ATOM     11  O   UNL     1      33.585  -6.274  23.839  1.00  0.00    -0.550 OA
ENDBRANCH   8   9
ENDBRANCH   7   8
ENDBRANCH   6   7
ENDBRANCH   5   6
ENDBRANCH   4   5
ENDBRANCH   3   4
ENDBRANCH   2   3
ENDBRANCH   1   2
BRANCH   1  12
ATOM     12  C   UNL     1      43.527  -4.956  28.372  1.00  0.00     0.000 C 
BRANCH  12  13
ATOM     13  C   UNL     1      44.825  -4.481  27.689  1.00  0.00    -0.000 C 
BRANCH  13  14
ATOM     14  C   UNL     1      45.674  -5.596  27.048  1.00  0.00    -0.000 C 
BRANCH  14  15
ATOM     15  C   UNL     1      45.019  -6.990  27.041  1.00  0.00    -0.000 C 
BRANCH  15  16
ATOM     16  C   UNL     1      45.706  -7.967  26.075  1.00  0.00    -0.000 C 
BRANCH  16  17
ATOM     17  C   UNL     1      45.761  -7.388  24.653  1.00  0.00    -0.000 C 
BRANCH  17  18
ATOM     18  C   UNL     1      47.209  -7.215  24.148  1.00  0.00    -0.000 C 
BRANCH  18  19
ATOM     19  C   UNL     1      47.315  -7.073  22.621  1.00  0.00    -0.003 C 
ATOM     20  C   UNL     1      48.439  -7.912  22.017  1.00  0.00     0.004 C 
ENDBRANCH  18  19
ENDBRANCH  17  18
ENDBRANCH  16  17
ENDBRANCH  15  16
ENDBRANCH  14  15
ENDBRANCH  13  14
ENDBRANCH  12  13
ENDBRANCH   1  12
TORSDOF 16
ENDMDL
MODEL 3
REMARK VINA RESULT:    -4.985      1.497      3.759
REMARK INTER + INTRA:         -11.535
REMARK INTER:                 -10.086
REMARK INTRA:                  -1.449
REMARK UNBOUND:                -1.887
REMARK SMILES CCCCCCCCCCCCCCCCCC(=O)[O-]
REMARK SMILES IDX 10 1 11 2 12 3 13 4 14 5 15 6 16 7 17 8 18 9 19 10 20 11
REMARK SMILES IDX 9 12 8 13 7 14 6 15 5 16 4 17 3 18 2 19 1 20
REMARK H PARENT
REMARK Flexibility Score: inf
ROOT
ATOM      1  C   UNL     1      42.128  -5.428  26.647  1.00  0.00     0.000 C 
ENDROOT
BRANCH   1   2
ATOM      2  C   UNL     1      43.508  -5.263  27.299  1.00  0.00     0.000 C 
BRANCH   2   3
ATOM      3  C   UNL     1      44.619  -5.764  26.371  1.00  0.00     0.000 C 
BRANCH   3   4
ATOM      4  C   UNL     1      45.480  -6.827  27.069  1.00  0.00     0.000 C 
BRANCH   4   5
ATOM      5  C   UNL     1      46.220  -7.742  26.079  1.00  0.00     0.000 C 
BRANCH   5   6
ATOM      6  C   UNL     1      46.386  -7.161  24.660  1.00  0.00     0.000 C 
BRANCH   6   7
ATOM      7  C   UNL     1      47.825  -7.263  24.111  1.00  0.00     0.006 C 
BRANCH   7   8
ATOM      8  C   UNL     1      48.538  -5.905  24.089  1.00  0.00     0.053 C 
BRANCH   8   9
ATOM      9  C   UNL     1      49.107  -5.591  25.436  1.00  0.00     0.041 C 
ATOM     10  O   UNL     1      48.488  -4.829  26.225  1.00  0.00    -0.550 OA
ATOM     11  O   UNL     1      50.346  -6.102  25.803  1.00  0.00    -0.550 OA
ENDBRANCH   8   9
ENDBRANCH   7   8
ENDBRANCH   6   7
ENDBRANCH   5   6
ENDBRANCH   4   5
ENDBRANCH   3   4
ENDBRANCH   2   3
ENDBRANCH   1   2
BRANCH   1  12
ATOM     12  C   UNL     1      40.969  -5.197  27.631  1.00  0.00     0.000 C 
BRANCH  12  13
ATOM     13  C   UNL     1      39.902  -4.191  27.154  1.00  0.00    -0.000 C 
BRANCH  13  14
ATOM     14  C   UNL     1      39.411  -3.198  28.226  1.00  0.00    -0.000 C 
BRANCH  14  15
ATOM     15  C   UNL     1      40.081  -3.345  29.604  1.00  0.00    -0.000 C 
BRANCH  15  16
ATOM     16  C   UNL     1      41.057  -2.201  29.918  1.00  0.00    -0.000 C 
BRANCH  16  17
ATOM     17  C   UNL     1      42.503  -2.713  29.982  1.00  0.00    -0.000 C 
BRANCH  17  18
ATOM     18  C   UNL     1      43.531  -1.605  29.666  1.00  0.00    -0.000 C 
BRANCH  18  19
ATOM     19  C   UNL     1      44.556  -2.003  28.593  1.00  0.00    -0.003 C 
ATOM     20  C   UNL     1      45.503  -0.865  28.217  1.00  0.00     0.004 C 
ENDBRANCH  18  19
ENDBRANCH  17  18
ENDBRANCH  16  17
ENDBRANCH  15  16
ENDBRANCH  14  15
ENDBRANCH  13  14
ENDBRANCH  12  13
ENDBRANCH   1  12
TORSDOF 16
ENDMDL
MODEL 4
REMARK VINA RESULT:    -4.949      2.351      3.203
REMARK INTER + INTRA:         -11.465
REMARK INTER:                 -10.589
REMARK INTRA:                  -0.876
REMARK UNBOUND:                -1.887
REMARK SMILES CCCCCCCCCCCCCCCCCC(=O)[O-]
REMARK SMILES IDX 10 1 11 2 12 3 13 4 14 5 15 6 16 7 17 8 18 9 19 10 20 11
REMARK SMILES IDX 9 12 8 13 7 14 6 15 5 16 4 17 3 18 2 19 1 20
REMARK H PARENT
REMARK Flexibility Score: inf
ROOT
ATOM      1  C   UNL     1      42.040  -3.974  27.897  1.00  0.00     0.000 C 
ENDROOT
BRANCH   1   2
ATOM      2  C   UNL     1      43.055  -4.816  28.685  1.00  0.00     0.000 C 
BRANCH   2   3
ATOM      3  C   UNL     1      43.706  -5.874  27.789  1.00  0.00     0.000 C 
BRANCH   3   4
ATOM      4  C   UNL     1      45.158  -5.496  27.459  1.00  0.00     0.000 C 
BRANCH   4   5
ATOM      5  C   UNL     1      45.522  -5.754  25.988  1.00  0.00     0.000 C 
BRANCH   5   6
ATOM      6  C   UNL     1      45.911  -7.209  25.662  1.00  0.00     0.000 C 
BRANCH   6   7
ATOM      7  C   UNL     1      47.001  -7.335  24.577  1.00  0.00     0.006 C 
BRANCH   7   8
ATOM      8  C   UNL     1      48.415  -7.373  25.172  1.00  0.00     0.053 C 
BRANCH   8   9
ATOM      9  C   UNL     1      49.207  -6.189  24.717  1.00  0.00     0.041 C 
ATOM     10  O   UNL     1      50.399  -6.040  25.096  1.00  0.00    -0.550 OA
ATOM     11  O   UNL     1      48.614  -5.224  23.913  1.00  0.00    -0.550 OA
ENDBRANCH   8   9
ENDBRANCH   7   8
ENDBRANCH   6   7
ENDBRANCH   5   6
ENDBRANCH   4   5
ENDBRANCH   3   4
ENDBRANCH   2   3
ENDBRANCH   1   2
BRANCH   1  12
ATOM     12  C   UNL     1      41.195  -4.814  26.923  1.00  0.00     0.000 C 
BRANCH  12  13
ATOM     13  C   UNL     1      39.873  -4.157  26.478  1.00  0.00    -0.000 C 
BRANCH  13  14
ATOM     14  C   UNL     1      38.782  -5.137  26.002  1.00  0.00    -0.000 C 
BRANCH  14  15
ATOM     15  C   UNL     1      38.878  -6.554  26.594  1.00  0.00    -0.000 C 
BRANCH  15  16
ATOM     16  C   UNL     1      38.211  -7.617  25.708  1.00  0.00    -0.000 C 
BRANCH  16  17
ATOM     17  C   UNL     1      37.154  -6.985  24.791  1.00  0.00    -0.000 C 
BRANCH  17  18
ATOM     18  C   UNL     1      35.723  -7.445  25.142  1.00  0.00    -0.000 C 
BRANCH  18  19
ATOM     19  C   UNL     1      34.664  -6.997  24.122  1.00  0.00    -0.003 C 
ATOM     20  C   UNL     1      33.327  -6.637  24.766  1.00  0.00     0.004 C 
ENDBRANCH  18  19
ENDBRANCH  17  18
ENDBRANCH  16  17
ENDBRANCH  15  16
ENDBRANCH  14  15
ENDBRANCH  13  14
ENDBRANCH  12  13
ENDBRANCH   1  12
TORSDOF 16
ENDMDL
MODEL 5
REMARK VINA RESULT:    -4.942      3.432      7.910
REMARK INTER + INTRA:         -11.450
REMARK INTER:                  -9.793
REMARK INTRA:                  -1.658
REMARK UNBOUND:                -1.887
REMARK SMILES CCCCCCCCCCCCCCCCCC(=O)[O-]
REMARK SMILES IDX 10 1 11 2 12 3 13 4 14 5 15 6 16 7 17 8 18 9 19 10 20 11
REMARK SMILES IDX 9 12 8 13 7 14 6 15 5 16 4 17 3 18 2 19 1 20
REMARK H PARENT
REMARK Flexibility Score: inf
ROOT
ATOM      1  C   UNL     1      46.645  -3.159  27.101  1.00  0.00     0.000 C 
ENDROOT
BRANCH   1   2
ATOM      2  C   UNL     1      45.372  -2.632  27.781  1.00  0.00     0.000 C 
BRANCH   2   3
ATOM      3  C   UNL     1      45.528  -1.158  28.171  1.00  0.00     0.000 C 
BRANCH   3   4
ATOM      4  C   UNL     1      44.484  -0.755  29.222  1.00  0.00     0.000 C 
BRANCH   4   5
ATOM      5  C   UNL     1      43.338  -1.774  29.345  1.00  0.00     0.000 C 
BRANCH   5   6
ATOM      6  C   UNL     1      43.157  -2.379  30.751  1.00  0.00     0.000 C 
BRANCH   6   7
ATOM      7  C   UNL     1      42.579  -3.810  30.742  1.00  0.00     0.006 C 
BRANCH   7   8
ATOM      8  C   UNL     1      42.644  -4.458  29.353  1.00  0.00     0.053 C 
BRANCH   8   9
ATOM      9  C   UNL     1      41.271  -4.793  28.867  1.00  0.00     0.041 C 
ATOM     10  O   UNL     1      40.424  -3.880  28.676  1.00  0.00    -0.550 OA
ATOM     11  O   UNL     1      40.908  -6.119  28.670  1.00  0.00    -0.550 OA
ENDBRANCH   8   9
ENDBRANCH   7   8
ENDBRANCH   6   7
ENDBRANCH   5   6
ENDBRANCH   4   5
ENDBRANCH   3   4
ENDBRANCH   2   3
ENDBRANCH   1   2
BRANCH   1  12
ATOM     12  C   UNL     1      46.542  -4.644  26.709  1.00  0.00     0.000 C 
BRANCH  12  13
ATOM     13  C   UNL     1      45.105  -5.164  26.504  1.00  0.00    -0.000 C 
BRANCH  13  14
ATOM     14  C   UNL     1      44.901  -6.663  26.799  1.00  0.00    -0.000 C 
BRANCH  14  15
ATOM     15  C   UNL     1      45.835  -7.610  26.024  1.00  0.00    -0.000 C 
BRANCH  15  16
ATOM     16  C   UNL     1      45.784  -7.387  24.505  1.00  0.00    -0.000 C 
BRANCH  16  17
ATOM     17  C   UNL     1      47.196  -7.389  23.901  1.00  0.00    -0.000 C 
BRANCH  17  18
ATOM     18  C   UNL     1      48.295  -7.454  24.983  1.00  0.00    -0.000 C 
BRANCH  18  19
ATOM     19  C   UNL     1      49.234  -6.237  24.982  1.00  0.00    -0.003 C 
ATOM     20  C   UNL     1      50.712  -6.619  25.023  1.00  0.00     0.004 C 
ENDBRANCH  18  19
ENDBRANCH  17  18
ENDBRANCH  16  17
ENDBRANCH  15  16
ENDBRANCH  14  15
ENDBRANCH  13  14
ENDBRANCH  12  13
ENDBRANCH   1  12
TORSDOF 16
ENDMDL
MODEL 6
REMARK VINA RESULT:    -4.879      1.585      2.399
REMARK INTER + INTRA:         -11.329
REMARK INTER:                  -9.720
REMARK INTRA:                  -1.608
REMARK UNBOUND:                -1.887
REMARK SMILES CCCCCCCCCCCCCCCCCC(=O)[O-]
REMARK SMILES IDX 10 1 11 2 12 3 13 4 14 5 15 6 16 7 17 8 18 9 19 10 20 11
REMARK SMILES IDX 9 12 8 13 7 14 6 15 5 16 4 17 3 18 2 19 1 20
REMARK H PARENT
REMARK Flexibility Score: inf
ROOT
ATOM      1  C   UNL     1      44.493  -5.926  27.548  1.00  0.00     0.000 C 
ENDROOT
BRANCH   1   2
ATOM      2  C   UNL     1      45.778  -6.127  26.731  1.00  0.00     0.000 C 
BRANCH   2   3
ATOM      3  C   UNL     1      46.058  -7.617  26.504  1.00  0.00     0.000 C 
BRANCH   3   4
ATOM      4  C   UNL     1      45.418  -8.102  25.195  1.00  0.00     0.000 C 
BRANCH   4   5
ATOM      5  C   UNL     1      45.714  -7.173  24.006  1.00  0.00     0.000 C 
BRANCH   5   6
ATOM      6  C   UNL     1      46.693  -7.746  22.963  1.00  0.00     0.000 C 
BRANCH   6   7
ATOM      7  C   UNL     1      48.075  -7.057  22.962  1.00  0.00     0.006 C 
BRANCH   7   8
ATOM      8  C   UNL     1      48.939  -7.482  24.157  1.00  0.00     0.053 C 
BRANCH   8   9
ATOM      9  C   UNL     1      49.304  -6.294  24.988  1.00  0.00     0.041 C 
ATOM     10  O   UNL     1      48.611  -5.244  24.933  1.00  0.00    -0.550 OA
ATOM     11  O   UNL     1      50.439  -6.328  25.787  1.00  0.00    -0.550 OA
ENDBRANCH   8   9
ENDBRANCH   7   8
ENDBRANCH   6   7
ENDBRANCH   5   6
ENDBRANCH   4   5
ENDBRANCH   3   4
ENDBRANCH   2   3
ENDBRANCH   1   2
BRANCH   1  12
ATOM     12  C   UNL     1      43.346  -5.323  26.719  1.00  0.00     0.000 C 
BRANCH  12  13
ATOM     13  C   UNL     1      41.949  -5.437  27.362  1.00  0.00    -0.000 C 
BRANCH  13  14
ATOM     14  C   UNL     1      40.847  -4.593  26.692  1.00  0.00    -0.000 C 
BRANCH  14  15
ATOM     15  C   UNL     1      39.689  -4.181  27.619  1.00  0.00    -0.000 C 
BRANCH  15  16
ATOM     16  C   UNL     1      39.370  -5.243  28.682  1.00  0.00    -0.000 C 
BRANCH  16  17
ATOM     17  C   UNL     1      38.289  -6.213  28.183  1.00  0.00    -0.000 C 
BRANCH  17  18
ATOM     18  C   UNL     1      37.435  -5.606  27.049  1.00  0.00    -0.000 C 
BRANCH  18  19
ATOM     19  C   UNL     1      37.315  -6.513  25.814  1.00  0.00    -0.003 C 
ATOM     20  C   UNL     1      38.579  -7.326  25.543  1.00  0.00     0.004 C 
ENDBRANCH  18  19
ENDBRANCH  17  18
ENDBRANCH  16  17
ENDBRANCH  15  16
ENDBRANCH  14  15
ENDBRANCH  13  14
ENDBRANCH  12  13
ENDBRANCH   1  12
TORSDOF 16
ENDMDL
MODEL 7
REMARK VINA RESULT:    -4.852      4.443      8.777
REMARK INTER + INTRA:         -11.278
REMARK INTER:                 -10.096
REMARK INTRA:                  -1.182
REMARK UNBOUND:                -1.887
REMARK SMILES CCCCCCCCCCCCCCCCCC(=O)[O-]
REMARK SMILES IDX 10 1 11 2 12 3 13 4 14 5 15 6 16 7 17 8 18 9 19 10 20 11
REMARK SMILES IDX 9 12 8 13 7 14 6 15 5 16 4 17 3 18 2 19 1 20
REMARK H PARENT
REMARK Flexibility Score: inf
ROOT
ATOM      1  C   UNL     1      43.285  -5.081  27.104  1.00  0.00     0.000 C 
ENDROOT
BRANCH   1   2
ATOM      2  C   UNL     1      42.170  -4.950  28.152  1.00  0.00     0.000 C 
BRANCH   2   3
ATOM      3  C   UNL     1      40.846  -4.542  27.497  1.00  0.00     0.000 C 
BRANCH   3   4
ATOM      4  C   UNL     1      39.669  -5.311  28.115  1.00  0.00     0.000 C 
BRANCH   4   5
ATOM      5  C   UNL     1      38.409  -5.283  27.232  1.00  0.00     0.000 C 
BRANCH   5   6
ATOM      6  C   UNL     1      38.676  -5.394  25.718  1.00  0.00     0.000 C 
BRANCH   6   7
ATOM      7  C   UNL     1      38.530  -6.827  25.163  1.00  0.00     0.006 C 
BRANCH   7   8
ATOM      8  C   UNL     1      37.410  -7.611  25.860  1.00  0.00     0.053 C 
BRANCH   8   9
ATOM      9  C   UNL     1      36.081  -7.260  25.271  1.00  0.00     0.041 C 
ATOM     10  O   UNL     1      35.931  -7.224  24.021  1.00  0.00    -0.550 OA
ATOM     11  O   UNL     1      35.019  -6.926  26.101  1.00  0.00    -0.550 OA
ENDBRANCH   8   9
ENDBRANCH   7   8
ENDBRANCH   6   7
ENDBRANCH   5   6
ENDBRANCH   4   5
ENDBRANCH   3   4
ENDBRANCH   2   3
ENDBRANCH   1   2
BRANCH   1  12
ATOM     12  C   UNL     1      44.684  -4.806  27.682  1.00  0.00     0.000 C 
BRANCH  12  13
ATOM     13  C   UNL     1      45.761  -5.841  27.297  1.00  0.00    -0.000 C 
BRANCH  13  14
ATOM     14  C   UNL     1      45.223  -7.225  26.886  1.00  0.00    -0.000 C 
BRANCH  14  15
ATOM     15  C   UNL     1      46.069  -7.965  25.834  1.00  0.00    -0.000 C 
BRANCH  15  16
ATOM     16  C   UNL     1      45.986  -7.321  24.441  1.00  0.00    -0.000 C 
BRANCH  16  17
ATOM     17  C   UNL     1      47.357  -7.325  23.750  1.00  0.00    -0.000 C 
BRANCH  17  18
ATOM     18  C   UNL     1      48.522  -7.395  24.760  1.00  0.00    -0.000 C 
BRANCH  18  19
ATOM     19  C   UNL     1      49.118  -6.022  25.109  1.00  0.00    -0.003 C 
ATOM     20  C   UNL     1      50.524  -6.111  25.700  1.00  0.00     0.004 C 
ENDBRANCH  18  19
ENDBRANCH  17  18
ENDBRANCH  16  17
ENDBRANCH  15  16
ENDBRANCH  14  15
ENDBRANCH  13  14
ENDBRANCH  12  13
ENDBRANCH   1  12
TORSDOF 16
ENDMDL
MODEL 8
REMARK VINA RESULT:    -4.833      3.613      8.211
REMARK INTER + INTRA:         -11.241
REMARK INTER:                  -9.832
REMARK INTRA:                  -1.409
REMARK UNBOUND:                -1.887
REMARK SMILES CCCCCCCCCCCCCCCCCC(=O)[O-]
REMARK SMILES IDX 10 1 11 2 12 3 13 4 14 5 15 6 16 7 17 8 18 9 19 10 20 11
REMARK SMILES IDX 9 12 8 13 7 14 6 15 5 16 4 17 3 18 2 19 1 20
REMARK H PARENT
REMARK Flexibility Score: inf
ROOT
ATOM      1  C   UNL     1      44.012  -5.501  27.929  1.00  0.00     0.000 C 
ENDROOT
BRANCH   1   2
ATOM      2  C   UNL     1      44.248  -4.038  28.333  1.00  0.00     0.000 C 
BRANCH   2   3
ATOM      3  C   UNL     1      42.919  -3.312  28.568  1.00  0.00     0.000 C 
BRANCH   3   4
ATOM      4  C   UNL     1      41.746  -4.111  27.982  1.00  0.00     0.000 C 
BRANCH   4   5
ATOM      5  C   UNL     1      40.389  -3.707  28.583  1.00  0.00     0.000 C 
BRANCH   5   6
ATOM      6  C   UNL     1      39.175  -3.957  27.668  1.00  0.00     0.000 C 
BRANCH   6   7
ATOM      7  C   UNL     1      39.497  -4.813  26.425  1.00  0.00     0.006 C 
BRANCH   7   8
ATOM      8  C   UNL     1      39.193  -6.301  26.648  1.00  0.00     0.053 C 
BRANCH   8   9
ATOM      9  C   UNL     1      38.234  -6.799  25.615  1.00  0.00     0.041 C 
ATOM     10  O   UNL     1      38.199  -6.268  24.473  1.00  0.00    -0.550 OA
ATOM     11  O   UNL     1      37.344  -7.818  25.927  1.00  0.00    -0.550 OA
ENDBRANCH   8   9
ENDBRANCH   7   8
ENDBRANCH   6   7
ENDBRANCH   5   6
ENDBRANCH   4   5
ENDBRANCH   3   4
ENDBRANCH   2   3
ENDBRANCH   1   2
BRANCH   1  12
ATOM     12  C   UNL     1      44.826  -5.918  26.691  1.00  0.00     0.000 C 
BRANCH  12  13
ATOM     13  C   UNL     1      45.476  -7.314  26.781  1.00  0.00    -0.000 C 
BRANCH  13  14
ATOM     14  C   UNL     1      45.509  -8.108  25.460  1.00  0.00    -0.000 C 
BRANCH  14  15
ATOM     15  C   UNL     1      45.524  -7.247  24.184  1.00  0.00    -0.000 C 
BRANCH  15  16
ATOM     16  C   UNL     1      46.569  -7.716  23.161  1.00  0.00    -0.000 C 
BRANCH  16  17
ATOM     17  C   UNL     1      47.864  -6.899  23.282  1.00  0.00    -0.000 C 
BRANCH  17  18
ATOM     18  C   UNL     1      48.884  -7.557  24.236  1.00  0.00    -0.000 C 
BRANCH  18  19
ATOM     19  C   UNL     1      49.420  -6.604  25.317  1.00  0.00    -0.003 C 
ATOM     20  C   UNL     1      48.491  -5.423  25.589  1.00  0.00     0.004 C 
ENDBRANCH  18  19
ENDBRANCH  17  18
ENDBRANCH  16  17
ENDBRANCH  15  16
ENDBRANCH  14  15
ENDBRANCH  13  14
ENDBRANCH  12  13
ENDBRANCH   1  12
TORSDOF 16
ENDMDL
MODEL 9
REMARK VINA RESULT:    -4.826      4.169      8.205
REMARK INTER + INTRA:         -11.227
REMARK INTER:                  -9.597
REMARK INTRA:                  -1.630
REMARK UNBOUND:                -1.887
REMARK SMILES CCCCCCCCCCCCCCCCCC(=O)[O-]
REMARK SMILES IDX 10 1 11 2 12 3 13 4 14 5 15 6 16 7 17 8 18 9 19 10 20 11
REMARK SMILES IDX 9 12 8 13 7 14 6 15 5 16 4 17 3 18 2 19 1 20
REMARK H PARENT
REMARK Flexibility Score: inf
ROOT
ATOM      1  C   UNL     1      42.065  -4.912  29.393  1.00  0.00     0.000 C 
ENDROOT
BRANCH   1   2
ATOM      2  C   UNL     1      41.712  -3.548  28.781  1.00  0.00     0.000 C 
BRANCH   2   3
ATOM      3  C   UNL     1      40.243  -3.194  29.038  1.00  0.00     0.000 C 
BRANCH   3   4
ATOM      4  C   UNL     1      39.308  -4.200  28.351  1.00  0.00     0.000 C 
BRANCH   4   5
ATOM      5  C   UNL     1      39.227  -3.997  26.829  1.00  0.00     0.000 C 
BRANCH   5   6
ATOM      6  C   UNL     1      39.496  -5.261  25.990  1.00  0.00     0.000 C 
BRANCH   6   7
ATOM      7  C   UNL     1      39.141  -6.577  26.716  1.00  0.00     0.006 C 
BRANCH   7   8
ATOM      8  C   UNL     1      38.376  -7.553  25.812  1.00  0.00     0.053 C 
BRANCH   8   9
ATOM      9  C   UNL     1      36.955  -7.114  25.653  1.00  0.00     0.041 C 
ATOM     10  O   UNL     1      36.343  -6.583  26.617  1.00  0.00    -0.550 OA
ATOM     11  O   UNL     1      36.290  -7.336  24.454  1.00  0.00    -0.550 OA
ENDBRANCH   8   9
ENDBRANCH   7   8
ENDBRANCH   6   7
ENDBRANCH   5   6
ENDBRANCH   4   5
ENDBRANCH   3   4
ENDBRANCH   2   3
ENDBRANCH   1   2
BRANCH   1  12
ATOM     12  C   UNL     1      42.906  -5.790  28.451  1.00  0.00     0.000 C 
BRANCH  12  13
ATOM     13  C   UNL     1      43.079  -5.233  27.024  1.00  0.00    -0.000 C 
BRANCH  13  14
ATOM     14  C   UNL     1      44.260  -5.821  26.228  1.00  0.00    -0.000 C 
BRANCH  14  15
ATOM     15  C   UNL     1      45.177  -6.765  27.028  1.00  0.00    -0.000 C 
BRANCH  15  16
ATOM     16  C   UNL     1      45.987  -7.712  26.130  1.00  0.00    -0.000 C 
BRANCH  16  17
ATOM     17  C   UNL     1      46.467  -6.992  24.862  1.00  0.00    -0.000 C 
BRANCH  17  18
ATOM     18  C   UNL     1      45.963  -7.677  23.574  1.00  0.00    -0.000 C 
BRANCH  18  19
ATOM     19  C   UNL     1      46.949  -7.580  22.398  1.00  0.00    -0.003 C 
ATOM     20  C   UNL     1      48.118  -6.636  22.672  1.00  0.00     0.004 C 
ENDBRANCH  18  19
ENDBRANCH  17  18
ENDBRANCH  16  17
ENDBRANCH  15  16
ENDBRANCH  14  15
ENDBRANCH  13  14
ENDBRANCH  12  13
ENDBRANCH   1  12
TORSDOF 16
ENDMDL
