MODEL 1
REMARK VINA RESULT:    -3.191      0.000      0.000
REMARK INTER + INTRA:          -8.091
REMARK INTER:                  -5.802
REMARK INTRA:                  -2.289
REMARK UNBOUND:                -2.289
REMARK SMILES CCCCCCCCCCCCCCCC(=O)[O-]
REMARK SMILES IDX 9 1 10 2 11 3 12 4 13 5 14 6 15 7 16 8 17 9 18 10 8 11 7 12
REMARK SMILES IDX 6 13 5 14 4 15 3 16 2 17 1 18
REMARK H PARENT
REMARK Flexibility Score: inf
ROOT
ATOM      1  C   UNL     1      59.650  28.073  52.924  1.00  0.00     0.000 C 
ENDROOT
BRANCH   1   2
ATOM      2  C   UNL     1      58.865  29.296  52.418  1.00  0.00     0.000 C 
BRANCH   2   3
ATOM      3  C   UNL     1      59.412  29.943  51.129  1.00  0.00     0.000 C 
BRANCH   3   4
ATOM      4  C   UNL     1      58.878  29.340  49.817  1.00  0.00     0.000 C 
BRANCH   4   5
ATOM      5  C   UNL     1      59.975  28.664  48.982  1.00  0.00     0.000 C 
BRANCH   5   6
ATOM      6  C   UNL     1      59.971  27.143  49.200  1.00  0.00     0.006 C 
BRANCH   6   7
ATOM      7  C   UNL     1      61.308  26.633  49.755  1.00  0.00     0.053 C 
BRANCH   7   8
ATOM      8  C   UNL     1      61.287  25.152  49.981  1.00  0.00     0.041 C 
ATOM      9  O   UNL     1      60.191  24.549  50.126  1.00  0.00    -0.550 OA
ATOM     10  O   UNL     1      62.475  24.433  49.999  1.00  0.00    -0.550 OA
ENDBRANCH   7   8
ENDBRANCH   6   7
ENDBRANCH   5   6
ENDBRANCH   4   5
ENDBRANCH   3   4
ENDBRANCH   2   3
ENDBRANCH   1   2
BRANCH   1  11
ATOM     11  C   UNL     1      58.883  26.753  52.736  1.00  0.00     0.000 C 
BRANCH  11  12
ATOM     12  C   UNL     1      57.430  26.840  53.233  1.00  0.00    -0.000 C 
BRANCH  12  13
ATOM     13  C   UNL     1      56.436  26.146  52.285  1.00  0.00    -0.000 C 
BRANCH  13  14
ATOM     14  C   UNL     1      56.946  26.092  50.836  1.00  0.00    -0.000 C 
BRANCH  14  15
ATOM     15  C   UNL     1      55.947  26.700  49.837  1.00  0.00    -0.000 C 
BRANCH  15  16
ATOM     16  C   UNL     1      55.541  28.135  50.207  1.00  0.00    -0.000 C 
BRANCH  16  17
ATOM     17  C   UNL     1      54.072  28.437  49.878  1.00  0.00    -0.003 C 
ATOM     18  C   UNL     1      53.367  27.201  49.324  1.00  0.00     0.004 C 
ENDBRANCH  16  17
ENDBRANCH  15  16
ENDBRANCH  14  15
ENDBRANCH  13  14
ENDBRANCH  12  13
ENDBRANCH  11  12
ENDBRANCH   1  11
TORSDOF 14
ENDMDL
MODEL 2
REMARK VINA RESULT:    -3.169     10.642     12.439
REMARK INTER + INTRA:          -8.052
REMARK INTER:                  -6.076
REMARK INTRA:                  -1.976
REMARK UNBOUND:                -2.289
REMARK SMILES CCCCCCCCCCCCCCCC(=O)[O-]
REMARK SMILES IDX 9 1 10 2 11 3 12 4 13 5 14 6 15 7 16 8 17 9 18 10 8 11 7 12
REMARK SMILES IDX 6 13 5 14 4 15 3 16 2 17 1 18
REMARK H PARENT
REMARK Flexibility Score: inf
ROOT
ATOM      1  C   UNL     1      60.789  30.859  60.487  1.00  0.00     0.000 C 
ENDROOT
BRANCH   1   2
ATOM      2  C   UNL     1      61.508  30.093  61.612  1.00  0.00     0.000 C 
BRANCH   2   3
ATOM      3  C   UNL     1      62.743  29.281  61.172  1.00  0.00     0.000 C 
BRANCH   3   4
ATOM      4  C   UNL     1      62.809  28.954  59.668  1.00  0.00     0.000 C 
BRANCH   4   5
ATOM      5  C   UNL     1      64.237  28.673  59.182  1.00  0.00     0.000 C 
BRANCH   5   6
ATOM      6  C   UNL     1      65.266  29.023  60.268  1.00  0.00     0.006 C 
BRANCH   6   7
ATOM      7  C   UNL     1      66.395  27.987  60.354  1.00  0.00     0.053 C 
BRANCH   7   8
ATOM      8  C   UNL     1      67.714  28.567  59.944  1.00  0.00     0.041 C 
ATOM      9  O   UNL     1      68.763  28.258  60.568  1.00  0.00    -0.550 OA
ATOM     10  O   UNL     1      67.789  29.423  58.853  1.00  0.00    -0.550 OA
ENDBRANCH   7   8
ENDBRANCH   6   7
ENDBRANCH   5   6
ENDBRANCH   4   5
ENDBRANCH   3   4
ENDBRANCH   2   3
ENDBRANCH   1   2
BRANCH   1  11
ATOM     11  C   UNL     1      61.352  32.274  60.274  1.00  0.00     0.000 C 
BRANCH  11  12
ATOM     12  C   UNL     1      62.093  32.418  58.934  1.00  0.00    -0.000 C 
BRANCH  12  13
ATOM     13  C   UNL     1      63.574  32.796  59.112  1.00  0.00    -0.000 C 
BRANCH  13  14
ATOM     14  C   UNL     1      63.996  32.839  60.589  1.00  0.00    -0.000 C 
BRANCH  14  15
ATOM     15  C   UNL     1      64.340  34.262  61.063  1.00  0.00    -0.000 C 
BRANCH  15  16
ATOM     16  C   UNL     1      63.722  35.348  60.167  1.00  0.00    -0.000 C 
BRANCH  16  17
ATOM     17  C   UNL     1      62.734  36.246  60.925  1.00  0.00    -0.003 C 
ATOM     18  C   UNL     1      61.307  36.035  60.429  1.00  0.00     0.004 C 
ENDBRANCH  16  17
ENDBRANCH  15  16
ENDBRANCH  14  15
ENDBRANCH  13  14
ENDBRANCH  12  13
ENDBRANCH  11  12
ENDBRANCH   1  11
TORSDOF 14
ENDMDL
MODEL 3
REMARK VINA RESULT:    -3.137     10.674     12.451
REMARK INTER + INTRA:          -7.993
REMARK INTER:                  -5.855
REMARK INTRA:                  -2.138
REMARK UNBOUND:                -2.289
REMARK SMILES CCCCCCCCCCCCCCCC(=O)[O-]
REMARK SMILES IDX 9 1 10 2 11 3 12 4 13 5 14 6 15 7 16 8 17 9 18 10 8 11 7 12
REMARK SMILES IDX 6 13 5 14 4 15 3 16 2 17 1 18
REMARK H PARENT
REMARK Flexibility Score: inf
ROOT
ATOM      1  C   UNL     1      62.435  32.949  58.172  1.00  0.00     0.000 C 
ENDROOT
BRANCH   1   2
ATOM      2  C   UNL     1      61.354  32.571  59.200  1.00  0.00     0.000 C 
BRANCH   2   3
ATOM      3  C   UNL     1      61.882  32.104  60.571  1.00  0.00     0.000 C 
BRANCH   3   4
ATOM      4  C   UNL     1      61.046  31.007  61.256  1.00  0.00     0.000 C 
BRANCH   4   5
ATOM      5  C   UNL     1      61.807  29.683  61.404  1.00  0.00     0.000 C 
BRANCH   5   6
ATOM      6  C   UNL     1      63.317  29.893  61.214  1.00  0.00     0.006 C 
BRANCH   6   7
ATOM      7  C   UNL     1      64.001  28.667  60.595  1.00  0.00     0.053 C 
BRANCH   7   8
ATOM      8  C   UNL     1      65.415  28.962  60.195  1.00  0.00     0.041 C 
ATOM      9  O   UNL     1      65.652  29.632  59.157  1.00  0.00    -0.550 OA
ATOM     10  O   UNL     1      66.469  28.525  60.989  1.00  0.00    -0.550 OA
ENDBRANCH   7   8
ENDBRANCH   6   7
ENDBRANCH   5   6
ENDBRANCH   4   5
ENDBRANCH   3   4
ENDBRANCH   2   3
ENDBRANCH   1   2
BRANCH   1  11
ATOM     11  C   UNL     1      63.829  32.418  58.550  1.00  0.00     0.000 C 
BRANCH  11  12
ATOM     12  C   UNL     1      64.952  33.407  58.194  1.00  0.00    -0.000 C 
BRANCH  12  13
ATOM     13  C   UNL     1      64.715  34.811  58.779  1.00  0.00    -0.000 C 
BRANCH  13  14
ATOM     14  C   UNL     1      64.887  34.848  60.306  1.00  0.00    -0.000 C 
BRANCH  14  15
ATOM     15  C   UNL     1      63.599  35.269  61.034  1.00  0.00    -0.000 C 
BRANCH  15  16
ATOM     16  C   UNL     1      62.682  36.138  60.159  1.00  0.00    -0.000 C 
BRANCH  16  17
ATOM     17  C   UNL     1      61.206  36.039  60.570  1.00  0.00    -0.003 C 
ATOM     18  C   UNL     1      60.288  36.160  59.357  1.00  0.00     0.004 C 
ENDBRANCH  16  17
ENDBRANCH  15  16
ENDBRANCH  14  15
ENDBRANCH  13  14
ENDBRANCH  12  13
ENDBRANCH  11  12
ENDBRANCH   1  11
TORSDOF 14
ENDMDL
MODEL 4
REMARK VINA RESULT:    -3.120     10.741     12.673
REMARK INTER + INTRA:          -7.961
REMARK INTER:                  -5.587
REMARK INTRA:                  -2.374
REMARK UNBOUND:                -2.289
REMARK SMILES CCCCCCCCCCCCCCCC(=O)[O-]
REMARK SMILES IDX 9 1 10 2 11 3 12 4 13 5 14 6 15 7 16 8 17 9 18 10 8 11 7 12
REMARK SMILES IDX 6 13 5 14 4 15 3 16 2 17 1 18
REMARK H PARENT
REMARK Flexibility Score: inf
ROOT
ATOM      1  C   UNL     1      61.424  33.005  58.721  1.00  0.00     0.000 C 
ENDROOT
BRANCH   1   2
ATOM      2  C   UNL     1      61.512  33.599  60.139  1.00  0.00     0.000 C 
BRANCH   2   3
ATOM      3  C   UNL     1      61.603  35.137  60.204  1.00  0.00     0.000 C 
BRANCH   3   4
ATOM      4  C   UNL     1      62.848  35.688  60.923  1.00  0.00     0.000 C 
BRANCH   4   5
ATOM      5  C   UNL     1      63.976  34.655  61.039  1.00  0.00     0.000 C 
BRANCH   5   6
ATOM      6  C   UNL     1      65.346  35.309  60.801  1.00  0.00     0.006 C 
BRANCH   6   7
ATOM      7  C   UNL     1      65.275  36.449  59.776  1.00  0.00     0.053 C 
BRANCH   7   8
ATOM      8  C   UNL     1      65.399  35.942  58.371  1.00  0.00     0.041 C 
ATOM      9  O   UNL     1      64.564  36.292  57.496  1.00  0.00    -0.550 OA
ATOM     10  O   UNL     1      66.455  35.109  58.022  1.00  0.00    -0.550 OA
ENDBRANCH   7   8
ENDBRANCH   6   7
ENDBRANCH   5   6
ENDBRANCH   4   5
ENDBRANCH   3   4
ENDBRANCH   2   3
ENDBRANCH   1   2
BRANCH   1  11
ATOM     11  C   UNL     1      62.582  33.454  57.814  1.00  0.00     0.000 C 
BRANCH  11  12
ATOM     12  C   UNL     1      63.843  32.593  57.998  1.00  0.00    -0.000 C 
BRANCH  12  13
ATOM     13  C   UNL     1      63.519  31.151  58.429  1.00  0.00    -0.000 C 
BRANCH  13  14
ATOM     14  C   UNL     1      64.454  30.647  59.540  1.00  0.00    -0.000 C 
BRANCH  14  15
ATOM     15  C   UNL     1      63.849  30.820  60.943  1.00  0.00    -0.000 C 
BRANCH  15  16
ATOM     16  C   UNL     1      62.842  29.713  61.293  1.00  0.00    -0.000 C 
BRANCH  16  17
ATOM     17  C   UNL     1      61.424  30.255  61.522  1.00  0.00    -0.003 C 
ATOM     18  C   UNL     1      60.478  29.807  60.412  1.00  0.00     0.004 C 
ENDBRANCH  16  17
ENDBRANCH  15  16
ENDBRANCH  14  15
ENDBRANCH  13  14
ENDBRANCH  12  13
ENDBRANCH  11  12
ENDBRANCH   1  11
TORSDOF 14
ENDMDL
MODEL 5
REMARK VINA RESULT:    -3.117      9.095     11.747
REMARK INTER + INTRA:          -7.957
REMARK INTER:                  -5.381
REMARK INTRA:                  -2.576
REMARK UNBOUND:                -2.289
REMARK SMILES CCCCCCCCCCCCCCCC(=O)[O-]
REMARK SMILES IDX 9 1 10 2 11 3 12 4 13 5 14 6 15 7 16 8 17 9 18 10 8 11 7 12
REMARK SMILES IDX 6 13 5 14 4 15 3 16 2 17 1 18
REMARK H PARENT
REMARK Flexibility Score: inf
ROOT
ATOM      1  C   UNL     1      64.095  30.425  60.991  1.00  0.00     0.000 C 
ENDROOT
BRANCH   1   2
ATOM      2  C   UNL     1      62.833  29.544  60.958  1.00  0.00     0.000 C 
BRANCH   2   3
ATOM      3  C   UNL     1      61.610  30.115  61.705  1.00  0.00     0.000 C 
BRANCH   3   4
ATOM      4  C   UNL     1      60.821  31.194  60.940  1.00  0.00     0.000 C 
BRANCH   4   5
ATOM      5  C   UNL     1      60.454  30.765  59.513  1.00  0.00     0.000 C 
BRANCH   5   6
ATOM      6  C   UNL     1      60.940  31.800  58.487  1.00  0.00     0.006 C 
BRANCH   6   7
ATOM      7  C   UNL     1      61.618  31.143  57.276  1.00  0.00     0.053 C 
BRANCH   7   8
ATOM      8  C   UNL     1      62.093  32.162  56.285  1.00  0.00     0.041 C 
ATOM      9  O   UNL     1      61.262  32.867  55.655  1.00  0.00    -0.550 OA
ATOM     10  O   UNL     1      63.453  32.355  56.082  1.00  0.00    -0.550 OA
ENDBRANCH   7   8
ENDBRANCH   6   7
ENDBRANCH   5   6
ENDBRANCH   4   5
ENDBRANCH   3   4
ENDBRANCH   2   3
ENDBRANCH   1   2
BRANCH   1  11
ATOM     11  C   UNL     1      64.499  30.941  59.599  1.00  0.00     0.000 C 
BRANCH  11  12
ATOM     12  C   UNL     1      64.449  32.475  59.503  1.00  0.00    -0.000 C 
BRANCH  12  13
ATOM     13  C   UNL     1      63.882  33.132  60.774  1.00  0.00    -0.000 C 
BRANCH  13  14
ATOM     14  C   UNL     1      64.298  34.605  60.910  1.00  0.00    -0.000 C 
BRANCH  14  15
ATOM     15  C   UNL     1      63.104  35.568  60.797  1.00  0.00    -0.000 C 
BRANCH  15  16
ATOM     16  C   UNL     1      61.781  34.838  60.516  1.00  0.00    -0.000 C 
BRANCH  16  17
ATOM     17  C   UNL     1      61.041  35.405  59.296  1.00  0.00    -0.003 C 
ATOM     18  C   UNL     1      61.947  35.436  58.068  1.00  0.00     0.004 C 
ENDBRANCH  16  17
ENDBRANCH  15  16
ENDBRANCH  14  15
ENDBRANCH  13  14
ENDBRANCH  12  13
ENDBRANCH  11  12
ENDBRANCH   1  11
TORSDOF 14
ENDMDL
MODEL 6
REMARK VINA RESULT:    -3.100      2.701      3.903
REMARK INTER + INTRA:          -7.925
REMARK INTER:                  -5.840
REMARK INTRA:                  -2.085
REMARK UNBOUND:                -2.289
REMARK SMILES CCCCCCCCCCCCCCCC(=O)[O-]
REMARK SMILES IDX 9 1 10 2 11 3 12 4 13 5 14 6 15 7 16 8 17 9 18 10 8 11 7 12
REMARK SMILES IDX 6 13 5 14 4 15 3 16 2 17 1 18
REMARK H PARENT
REMARK Flexibility Score: inf
ROOT
ATOM      1  C   UNL     1      58.471  25.580  51.099  1.00  0.00     0.000 C 
ENDROOT
BRANCH   1   2
ATOM      2  C   UNL     1      59.015  25.885  49.692  1.00  0.00     0.000 C 
BRANCH   2   3
ATOM      3  C   UNL     1      60.545  26.058  49.601  1.00  0.00     0.000 C 
BRANCH   3   4
ATOM      4  C   UNL     1      61.034  27.515  49.501  1.00  0.00     0.000 C 
BRANCH   4   5
ATOM      5  C   UNL     1      60.009  28.444  48.836  1.00  0.00     0.000 C 
BRANCH   5   6
ATOM      6  C   UNL     1      59.675  29.634  49.748  1.00  0.00     0.006 C 
BRANCH   6   7
ATOM      7  C   UNL     1      60.087  29.383  51.206  1.00  0.00     0.053 C 
BRANCH   7   8
ATOM      8  C   UNL     1      59.785  30.562  52.080  1.00  0.00     0.041 C 
ATOM      9  O   UNL     1      58.607  30.995  52.174  1.00  0.00    -0.550 OA
ATOM     10  O   UNL     1      60.800  31.162  52.816  1.00  0.00    -0.550 OA
ENDBRANCH   7   8
ENDBRANCH   6   7
ENDBRANCH   5   6
ENDBRANCH   4   5
ENDBRANCH   3   4
ENDBRANCH   2   3
ENDBRANCH   1   2
BRANCH   1  11
ATOM     11  C   UNL     1      57.141  26.296  51.392  1.00  0.00     0.000 C 
BRANCH  11  12
ATOM     12  C   UNL     1      56.830  27.402  50.369  1.00  0.00    -0.000 C 
BRANCH  12  13
ATOM     13  C   UNL     1      56.223  28.658  51.020  1.00  0.00    -0.000 C 
BRANCH  13  14
ATOM     14  C   UNL     1      54.913  29.094  50.345  1.00  0.00    -0.000 C 
BRANCH  14  15
ATOM     15  C   UNL     1      54.214  27.937  49.611  1.00  0.00    -0.000 C 
BRANCH  15  16
ATOM     16  C   UNL     1      53.213  27.189  50.506  1.00  0.00    -0.000 C 
BRANCH  16  17
ATOM     17  C   UNL     1      53.522  25.688  50.610  1.00  0.00    -0.003 C 
ATOM     18  C   UNL     1      54.068  25.145  49.293  1.00  0.00     0.004 C 
ENDBRANCH  16  17
ENDBRANCH  15  16
ENDBRANCH  14  15
ENDBRANCH  13  14
ENDBRANCH  12  13
ENDBRANCH  11  12
ENDBRANCH   1  11
TORSDOF 14
ENDMDL
MODEL 7
REMARK VINA RESULT:    -3.085      9.657     12.217
REMARK INTER + INTRA:          -7.899
REMARK INTER:                  -5.512
REMARK INTRA:                  -2.388
REMARK UNBOUND:                -2.289
REMARK SMILES CCCCCCCCCCCCCCCC(=O)[O-]
REMARK SMILES IDX 9 1 10 2 11 3 12 4 13 5 14 6 15 7 16 8 17 9 18 10 8 11 7 12
REMARK SMILES IDX 6 13 5 14 4 15 3 16 2 17 1 18
REMARK H PARENT
REMARK Flexibility Score: inf
ROOT
ATOM      1  C   UNL     1      62.181  31.455  57.037  1.00  0.00     0.000 C 
ENDROOT
BRANCH   1   2
ATOM      2  C   UNL     1      62.528  32.633  57.966  1.00  0.00     0.000 C 
BRANCH   2   3
ATOM      3  C   UNL     1      61.335  33.242  58.731  1.00  0.00     0.000 C 
BRANCH   3   4
ATOM      4  C   UNL     1      61.654  33.735  60.155  1.00  0.00     0.000 C 
BRANCH   4   5
ATOM      5  C   UNL     1      61.739  35.264  60.251  1.00  0.00     0.000 C 
BRANCH   5   6
ATOM      6  C   UNL     1      63.010  35.696  61.000  1.00  0.00     0.006 C 
BRANCH   6   7
ATOM      7  C   UNL     1      64.085  34.600  61.001  1.00  0.00     0.053 C 
BRANCH   7   8
ATOM      8  C   UNL     1      65.251  34.964  60.133  1.00  0.00     0.041 C 
ATOM      9  O   UNL     1      66.200  35.645  60.602  1.00  0.00    -0.550 OA
ATOM     10  O   UNL     1      65.304  34.522  58.817  1.00  0.00    -0.550 OA
ENDBRANCH   7   8
ENDBRANCH   6   7
ENDBRANCH   5   6
ENDBRANCH   4   5
ENDBRANCH   3   4
ENDBRANCH   2   3
ENDBRANCH   1   2
BRANCH   1  11
ATOM     11  C   UNL     1      61.017  30.601  57.567  1.00  0.00     0.000 C 
BRANCH  11  12
ATOM     12  C   UNL     1      61.490  29.262  58.157  1.00  0.00    -0.000 C 
BRANCH  12  13
ATOM     13  C   UNL     1      60.800  28.924  59.491  1.00  0.00    -0.000 C 
BRANCH  13  14
ATOM     14  C   UNL     1      60.535  30.171  60.348  1.00  0.00    -0.000 C 
BRANCH  14  15
ATOM     15  C   UNL     1      61.397  30.204  61.622  1.00  0.00    -0.000 C 
BRANCH  15  16
ATOM     16  C   UNL     1      62.830  29.704  61.379  1.00  0.00    -0.000 C 
BRANCH  16  17
ATOM     17  C   UNL     1      63.791  30.835  60.985  1.00  0.00    -0.003 C 
ATOM     18  C   UNL     1      64.790  30.365  59.931  1.00  0.00     0.004 C 
ENDBRANCH  16  17
ENDBRANCH  15  16
ENDBRANCH  14  15
ENDBRANCH  13  14
ENDBRANCH  12  13
ENDBRANCH  11  12
ENDBRANCH   1  11
TORSDOF 14
ENDMDL
MODEL 8
REMARK VINA RESULT:    -3.024      9.299     11.931
REMARK INTER + INTRA:          -7.788
REMARK INTER:                  -5.058
REMARK INTRA:                  -2.730
REMARK UNBOUND:                -2.289
REMARK SMILES CCCCCCCCCCCCCCCC(=O)[O-]
REMARK SMILES IDX 9 1 10 2 11 3 12 4 13 5 14 6 15 7 16 8 17 9 18 10 8 11 7 12
REMARK SMILES IDX 6 13 5 14 4 15 3 16 2 17 1 18
REMARK H PARENT
REMARK Flexibility Score: inf
ROOT
ATOM      1  C   UNL     1      60.670  29.106  58.072  1.00  0.00     0.000 C 
ENDROOT
BRANCH   1   2
ATOM      2  C   UNL     1      61.249  30.326  57.334  1.00  0.00     0.000 C 
BRANCH   2   3
ATOM      3  C   UNL     1      62.770  30.529  57.488  1.00  0.00     0.000 C 
BRANCH   3   4
ATOM      4  C   UNL     1      63.186  31.646  58.462  1.00  0.00     0.000 C 
BRANCH   4   5
ATOM      5  C   UNL     1      62.025  32.581  58.828  1.00  0.00     0.000 C 
BRANCH   5   6
ATOM      6  C   UNL     1      62.343  33.379  60.102  1.00  0.00     0.006 C 
BRANCH   6   7
ATOM      7  C   UNL     1      63.775  33.133  60.599  1.00  0.00     0.053 C 
BRANCH   7   8
ATOM      8  C   UNL     1      64.593  34.387  60.580  1.00  0.00     0.041 C 
ATOM      9  O   UNL     1      64.846  34.994  61.653  1.00  0.00    -0.550 OA
ATOM     10  O   UNL     1      65.104  34.867  59.380  1.00  0.00    -0.550 OA
ENDBRANCH   7   8
ENDBRANCH   6   7
ENDBRANCH   5   6
ENDBRANCH   4   5
ENDBRANCH   3   4
ENDBRANCH   2   3
ENDBRANCH   1   2
BRANCH   1  11
ATOM     11  C   UNL     1      59.587  29.486  59.096  1.00  0.00     0.000 C 
BRANCH  11  12
ATOM     12  C   UNL     1      59.961  29.073  60.529  1.00  0.00    -0.000 C 
BRANCH  12  13
ATOM     13  C   UNL     1      60.740  30.169  61.279  1.00  0.00    -0.000 C 
BRANCH  13  14
ATOM     14  C   UNL     1      62.225  29.816  61.458  1.00  0.00    -0.000 C 
BRANCH  14  15
ATOM     15  C   UNL     1      62.534  28.357  61.078  1.00  0.00    -0.000 C 
BRANCH  15  16
ATOM     16  C   UNL     1      63.877  28.209  60.346  1.00  0.00    -0.000 C 
BRANCH  16  17
ATOM     17  C   UNL     1      64.860  29.340  60.681  1.00  0.00    -0.003 C 
ATOM     18  C   UNL     1      65.924  29.483  59.597  1.00  0.00     0.004 C 
ENDBRANCH  16  17
ENDBRANCH  15  16
ENDBRANCH  14  15
ENDBRANCH  13  14
ENDBRANCH  12  13
ENDBRANCH  11  12
ENDBRANCH   1  11
TORSDOF 14
ENDMDL
MODEL 9
REMARK VINA RESULT:    -2.997      1.481      2.654
REMARK INTER + INTRA:          -7.739
REMARK INTER:                  -5.434
REMARK INTRA:                  -2.305
REMARK UNBOUND:                -2.289
REMARK SMILES CCCCCCCCCCCCCCCC(=O)[O-]
REMARK SMILES IDX 9 1 10 2 11 3 12 4 13 5 14 6 15 7 16 8 17 9 18 10 8 11 7 12
REMARK SMILES IDX 6 13 5 14 4 15 3 16 2 17 1 18
REMARK H PARENT
REMARK Flexibility Score: inf
ROOT
ATOM      1  C   UNL     1      56.829  25.844  51.455  1.00  0.00     0.000 C 
ENDROOT
BRANCH   1   2
ATOM      2  C   UNL     1      57.452  27.252  51.469  1.00  0.00     0.000 C 
BRANCH   2   3
ATOM      3  C   UNL     1      57.720  27.868  50.081  1.00  0.00     0.000 C 
BRANCH   3   4
ATOM      4  C   UNL     1      58.296  29.296  50.099  1.00  0.00     0.000 C 
BRANCH   4   5
ATOM      5  C   UNL     1      59.527  29.453  49.196  1.00  0.00     0.000 C 
BRANCH   5   6
ATOM      6  C   UNL     1      60.183  28.091  48.920  1.00  0.00     0.006 C 
BRANCH   6   7
ATOM      7  C   UNL     1      61.409  27.846  49.811  1.00  0.00     0.053 C 
BRANCH   7   8
ATOM      8  C   UNL     1      61.589  26.391  50.121  1.00  0.00     0.041 C 
ATOM      9  O   UNL     1      62.650  25.801  49.792  1.00  0.00    -0.550 OA
ATOM     10  O   UNL     1      60.597  25.697  50.802  1.00  0.00    -0.550 OA
ENDBRANCH   7   8
ENDBRANCH   6   7
ENDBRANCH   5   6
ENDBRANCH   4   5
ENDBRANCH   3   4
ENDBRANCH   2   3
ENDBRANCH   1   2
BRANCH   1  11
ATOM     11  C   UNL     1      55.598  25.728  52.371  1.00  0.00     0.000 C 
BRANCH  11  12
ATOM     12  C   UNL     1      54.276  25.738  51.585  1.00  0.00    -0.000 C 
BRANCH  12  13
ATOM     13  C   UNL     1      54.490  25.644  50.063  1.00  0.00    -0.000 C 
BRANCH  13  14
ATOM     14  C   UNL     1      54.065  26.925  49.330  1.00  0.00    -0.000 C 
BRANCH  14  15
ATOM     15  C   UNL     1      53.604  28.031  50.295  1.00  0.00    -0.000 C 
BRANCH  15  16
ATOM     16  C   UNL     1      54.369  29.348  50.092  1.00  0.00    -0.000 C 
BRANCH  16  17
ATOM     17  C   UNL     1      54.849  29.962  51.415  1.00  0.00    -0.003 C 
ATOM     18  C   UNL     1      54.241  29.235  52.611  1.00  0.00     0.004 C 
ENDBRANCH  16  17
ENDBRANCH  15  16
ENDBRANCH  14  15
ENDBRANCH  13  14
ENDBRANCH  12  13
ENDBRANCH  11  12
ENDBRANCH   1  11
TORSDOF 14
ENDMDL
