MODEL 1
REMARK VINA RESULT:    -5.248      0.000      0.000
REMARK INTER + INTRA:         -11.790
REMARK INTER:                  -9.543
REMARK INTRA:                  -2.247
REMARK UNBOUND:                -2.247
REMARK SMILES CCCCCCCCCCCCCCCC(=O)[O-]
REMARK SMILES IDX 9 1 10 2 11 3 12 4 13 5 14 6 15 7 16 8 17 9 18 10 8 11 7 12
REMARK SMILES IDX 6 13 5 14 4 15 3 16 2 17 1 18
REMARK H PARENT
REMARK Flexibility Score: inf
ROOT
ATOM      1  C   UNL     1     104.822 107.193 228.599  1.00  0.00     0.000 C 
ENDROOT
BRANCH   1   2
ATOM      2  C   UNL     1     105.359 105.770 228.386  1.00  0.00     0.000 C 
BRANCH   2   3
ATOM      3  C   UNL     1     104.239 104.731 228.219  1.00  0.00     0.000 C 
BRANCH   3   4
ATOM      4  C   UNL     1     103.160 105.178 227.215  1.00  0.00     0.000 C 
BRANCH   4   5
ATOM      5  C   UNL     1     101.735 105.014 227.783  1.00  0.00     0.000 C 
BRANCH   5   6
ATOM      6  C   UNL     1     101.705 104.526 229.241  1.00  0.00     0.006 C 
BRANCH   6   7
ATOM      7  C   UNL     1     100.889 103.241 229.424  1.00  0.00     0.053 C 
BRANCH   7   8
ATOM      8  C   UNL     1     101.540 102.348 230.432  1.00  0.00     0.041 C 
ATOM      9  O   UNL     1     100.956 101.304 230.826  1.00  0.00    -0.550 OA
ATOM     10  O   UNL     1     102.815 102.642 230.901  1.00  0.00    -0.550 OA
ENDBRANCH   7   8
ENDBRANCH   6   7
ENDBRANCH   5   6
ENDBRANCH   4   5
ENDBRANCH   3   4
ENDBRANCH   2   3
ENDBRANCH   1   2
BRANCH   1  11
ATOM     11  C   UNL     1     105.410 107.815 229.875  1.00  0.00     0.000 C 
BRANCH  11  12
ATOM     12  C   UNL     1     104.330 108.371 230.817  1.00  0.00    -0.000 C 
BRANCH  12  13
ATOM     13  C   UNL     1     102.943 107.767 230.549  1.00  0.00    -0.000 C 
BRANCH  13  14
ATOM     14  C   UNL     1     102.429 107.004 231.780  1.00  0.00    -0.000 C 
BRANCH  14  15
ATOM     15  C   UNL     1     103.373 105.856 232.194  1.00  0.00    -0.000 C 
BRANCH  15  16
ATOM     16  C   UNL     1     104.163 106.127 233.488  1.00  0.00    -0.000 C 
BRANCH  16  17
ATOM     17  C   UNL     1     105.645 105.709 233.420  1.00  0.00    -0.003 C 
ATOM     18  C   UNL     1     105.974 104.904 232.163  1.00  0.00     0.004 C 
ENDBRANCH  16  17
ENDBRANCH  15  16
ENDBRANCH  14  15
ENDBRANCH  13  14
ENDBRANCH  12  13
ENDBRANCH  11  12
ENDBRANCH   1  11
TORSDOF 14
ENDMDL
MODEL 2
REMARK VINA RESULT:    -5.168      2.048      5.034
REMARK INTER + INTRA:         -11.645
REMARK INTER:                  -9.381
REMARK INTRA:                  -2.264
REMARK UNBOUND:                -2.247
REMARK SMILES CCCCCCCCCCCCCCCC(=O)[O-]
REMARK SMILES IDX 9 1 10 2 11 3 12 4 13 5 14 6 15 7 16 8 17 9 18 10 8 11 7 12
REMARK SMILES IDX 6 13 5 14 4 15 3 16 2 17 1 18
REMARK H PARENT
REMARK Flexibility Score: inf
ROOT
ATOM      1  C   UNL     1     102.303 106.949 231.585  1.00  0.00     0.000 C 
ENDROOT
BRANCH   1   2
ATOM      2  C   UNL     1     103.257 105.836 232.040  1.00  0.00     0.000 C 
BRANCH   2   3
ATOM      3  C   UNL     1     103.747 106.028 233.485  1.00  0.00     0.000 C 
BRANCH   3   4
ATOM      4  C   UNL     1     105.276 105.910 233.613  1.00  0.00     0.000 C 
BRANCH   4   5
ATOM      5  C   UNL     1     105.927 105.367 232.324  1.00  0.00     0.000 C 
BRANCH   5   6
ATOM      6  C   UNL     1     106.692 104.047 232.528  1.00  0.00     0.006 C 
BRANCH   6   7
ATOM      7  C   UNL     1     105.991 102.845 231.885  1.00  0.00     0.053 C 
BRANCH   7   8
ATOM      8  C   UNL     1     106.977 102.003 231.139  1.00  0.00     0.041 C 
ATOM      9  O   UNL     1     106.902 100.747 231.185  1.00  0.00    -0.550 OA
ATOM     10  O   UNL     1     107.953 102.606 230.353  1.00  0.00    -0.550 OA
ENDBRANCH   7   8
ENDBRANCH   6   7
ENDBRANCH   5   6
ENDBRANCH   4   5
ENDBRANCH   3   4
ENDBRANCH   2   3
ENDBRANCH   1   2
BRANCH   1  11
ATOM     11  C   UNL     1     102.946 107.804 230.482  1.00  0.00     0.000 C 
BRANCH  11  12
ATOM     12  C   UNL     1     104.328 108.347 230.881  1.00  0.00    -0.000 C 
BRANCH  12  13
ATOM     13  C   UNL     1     105.382 108.151 229.781  1.00  0.00    -0.000 C 
BRANCH  13  14
ATOM     14  C   UNL     1     104.817 107.315 228.622  1.00  0.00    -0.000 C 
BRANCH  14  15
ATOM     15  C   UNL     1     105.340 105.864 228.636  1.00  0.00    -0.000 C 
BRANCH  15  16
ATOM     16  C   UNL     1     104.237 104.797 228.515  1.00  0.00    -0.000 C 
BRANCH  16  17
ATOM     17  C   UNL     1     103.108 105.165 227.532  1.00  0.00    -0.003 C 
ATOM     18  C   UNL     1     101.724 104.784 228.055  1.00  0.00     0.004 C 
ENDBRANCH  16  17
ENDBRANCH  15  16
ENDBRANCH  14  15
ENDBRANCH  13  14
ENDBRANCH  12  13
ENDBRANCH  11  12
ENDBRANCH   1  11
TORSDOF 14
ENDMDL
MODEL 3
REMARK VINA RESULT:    -5.145      1.859      3.145
REMARK INTER + INTRA:         -11.602
REMARK INTER:                  -9.183
REMARK INTRA:                  -2.419
REMARK UNBOUND:                -2.247
REMARK SMILES CCCCCCCCCCCCCCCC(=O)[O-]
REMARK SMILES IDX 9 1 10 2 11 3 12 4 13 5 14 6 15 7 16 8 17 9 18 10 8 11 7 12
REMARK SMILES IDX 6 13 5 14 4 15 3 16 2 17 1 18
REMARK H PARENT
REMARK Flexibility Score: inf
ROOT
ATOM      1  C   UNL     1     104.276 106.047 227.735  1.00  0.00     0.000 C 
ENDROOT
BRANCH   1   2
ATOM      2  C   UNL     1     103.042 105.204 227.382  1.00  0.00     0.000 C 
BRANCH   2   3
ATOM      3  C   UNL     1     102.039 105.104 228.542  1.00  0.00     0.000 C 
BRANCH   3   4
ATOM      4  C   UNL     1     101.777 103.651 228.978  1.00  0.00     0.000 C 
BRANCH   4   5
ATOM      5  C   UNL     1     101.585 103.528 230.504  1.00  0.00     0.000 C 
BRANCH   5   6
ATOM      6  C   UNL     1     102.776 102.870 231.223  1.00  0.00     0.006 C 
BRANCH   6   7
ATOM      7  C   UNL     1     103.782 102.236 230.255  1.00  0.00     0.053 C 
BRANCH   7   8
ATOM      8  C   UNL     1     105.010 101.801 230.990  1.00  0.00     0.041 C 
ATOM      9  O   UNL     1     105.671 102.630 231.669  1.00  0.00    -0.550 OA
ATOM     10  O   UNL     1     105.399 100.467 230.965  1.00  0.00    -0.550 OA
ENDBRANCH   7   8
ENDBRANCH   6   7
ENDBRANCH   5   6
ENDBRANCH   4   5
ENDBRANCH   3   4
ENDBRANCH   2   3
ENDBRANCH   1   2
BRANCH   1  11
ATOM     11  C   UNL     1     105.242 105.255 228.630  1.00  0.00     0.000 C 
BRANCH  11  12
ATOM     12  C   UNL     1     105.418 105.888 230.020  1.00  0.00    -0.000 C 
BRANCH  12  13
ATOM     13  C   UNL     1     104.725 107.254 230.140  1.00  0.00    -0.000 C 
BRANCH  13  14
ATOM     14  C   UNL     1     103.647 107.228 231.235  1.00  0.00    -0.000 C 
BRANCH  14  15
ATOM     15  C   UNL     1     103.902 106.126 232.284  1.00  0.00    -0.000 C 
BRANCH  15  16
ATOM     16  C   UNL     1     102.757 105.946 233.298  1.00  0.00    -0.000 C 
BRANCH  16  17
ATOM     17  C   UNL     1     101.402 106.509 232.825  1.00  0.00    -0.003 C 
ATOM     18  C   UNL     1     100.522 106.975 233.984  1.00  0.00     0.004 C 
ENDBRANCH  16  17
ENDBRANCH  15  16
ENDBRANCH  14  15
ENDBRANCH  13  14
ENDBRANCH  12  13
ENDBRANCH  11  12
ENDBRANCH   1  11
TORSDOF 14
ENDMDL
MODEL 4
REMARK VINA RESULT:    -5.130      2.177      4.129
REMARK INTER + INTRA:         -11.575
REMARK INTER:                  -9.193
REMARK INTRA:                  -2.383
REMARK UNBOUND:                -2.247
REMARK SMILES CCCCCCCCCCCCCCCC(=O)[O-]
REMARK SMILES IDX 9 1 10 2 11 3 12 4 13 5 14 6 15 7 16 8 17 9 18 10 8 11 7 12
REMARK SMILES IDX 6 13 5 14 4 15 3 16 2 17 1 18
REMARK H PARENT
REMARK Flexibility Score: inf
ROOT
ATOM      1  C   UNL     1     104.539 105.106 227.854  1.00  0.00     0.000 C 
ENDROOT
BRANCH   1   2
ATOM      2  C   UNL     1     105.190 106.343 228.489  1.00  0.00     0.000 C 
BRANCH   2   3
ATOM      3  C   UNL     1     105.691 106.083 229.918  1.00  0.00     0.000 C 
BRANCH   3   4
ATOM      4  C   UNL     1     104.831 106.786 230.985  1.00  0.00     0.000 C 
BRANCH   4   5
ATOM      5  C   UNL     1     103.792 107.739 230.358  1.00  0.00     0.000 C 
BRANCH   5   6
ATOM      6  C   UNL     1     102.384 107.597 230.962  1.00  0.00     0.006 C 
BRANCH   6   7
ATOM      7  C   UNL     1     102.321 106.567 232.095  1.00  0.00     0.053 C 
BRANCH   7   8
ATOM      8  C   UNL     1     100.906 106.365 232.539  1.00  0.00     0.041 C 
ATOM      9  O   UNL     1     100.444 107.024 233.507  1.00  0.00    -0.550 OA
ATOM     10  O   UNL     1     100.081 105.483 231.851  1.00  0.00    -0.550 OA
ENDBRANCH   7   8
ENDBRANCH   6   7
ENDBRANCH   5   6
ENDBRANCH   4   5
ENDBRANCH   3   4
ENDBRANCH   2   3
ENDBRANCH   1   2
BRANCH   1  11
ATOM     11  C   UNL     1     103.328 105.504 226.996  1.00  0.00     0.000 C 
BRANCH  11  12
ATOM     12  C   UNL     1     102.004 104.945 227.543  1.00  0.00    -0.000 C 
BRANCH  12  13
ATOM     13  C   UNL     1     102.086 104.576 229.032  1.00  0.00    -0.000 C 
BRANCH  13  14
ATOM     14  C   UNL     1     101.466 103.195 229.291  1.00  0.00    -0.000 C 
BRANCH  14  15
ATOM     15  C   UNL     1     102.165 102.444 230.443  1.00  0.00    -0.000 C 
BRANCH  15  16
ATOM     16  C   UNL     1     103.325 103.224 231.089  1.00  0.00    -0.000 C 
BRANCH  16  17
ATOM     17  C   UNL     1     104.725 102.707 230.701  1.00  0.00    -0.003 C 
ATOM     18  C   UNL     1     104.829 101.184 230.766  1.00  0.00     0.004 C 
ENDBRANCH  16  17
ENDBRANCH  15  16
ENDBRANCH  14  15
ENDBRANCH  13  14
ENDBRANCH  12  13
ENDBRANCH  11  12
ENDBRANCH   1  11
TORSDOF 14
ENDMDL
MODEL 5
REMARK VINA RESULT:    -5.116      1.969      3.217
REMARK INTER + INTRA:         -11.551
REMARK INTER:                  -9.140
REMARK INTRA:                  -2.411
REMARK UNBOUND:                -2.247
REMARK SMILES CCCCCCCCCCCCCCCC(=O)[O-]
REMARK SMILES IDX 9 1 10 2 11 3 12 4 13 5 14 6 15 7 16 8 17 9 18 10 8 11 7 12
REMARK SMILES IDX 6 13 5 14 4 15 3 16 2 17 1 18
REMARK H PARENT
REMARK Flexibility Score: inf
ROOT
ATOM      1  C   UNL     1     101.597 104.220 227.973  1.00  0.00     0.000 C 
ENDROOT
BRANCH   1   2
ATOM      2  C   UNL     1     102.327 105.487 227.505  1.00  0.00     0.000 C 
BRANCH   2   3
ATOM      3  C   UNL     1     103.795 105.223 227.133  1.00  0.00     0.000 C 
BRANCH   3   4
ATOM      4  C   UNL     1     104.748 105.382 228.332  1.00  0.00     0.000 C 
BRANCH   4   5
ATOM      5  C   UNL     1     105.237 104.021 228.869  1.00  0.00     0.000 C 
BRANCH   5   6
ATOM      6  C   UNL     1     104.686 103.673 230.263  1.00  0.00     0.006 C 
BRANCH   6   7
ATOM      7  C   UNL     1     104.261 102.206 230.388  1.00  0.00     0.053 C 
BRANCH   7   8
ATOM      8  C   UNL     1     105.360 101.394 230.996  1.00  0.00     0.041 C 
ATOM      9  O   UNL     1     105.360 100.140 230.885  1.00  0.00    -0.550 OA
ATOM     10  O   UNL     1     106.415 102.027 231.645  1.00  0.00    -0.550 OA
ENDBRANCH   7   8
ENDBRANCH   6   7
ENDBRANCH   5   6
ENDBRANCH   4   5
ENDBRANCH   3   4
ENDBRANCH   2   3
ENDBRANCH   1   2
BRANCH   1  11
ATOM     11  C   UNL     1     101.068 104.391 229.406  1.00  0.00     0.000 C 
BRANCH  11  12
ATOM     12  C   UNL     1     101.548 105.694 230.065  1.00  0.00    -0.000 C 
BRANCH  12  13
ATOM     13  C   UNL     1     101.301 105.717 231.580  1.00  0.00    -0.000 C 
BRANCH  13  14
ATOM     14  C   UNL     1     102.356 106.576 232.296  1.00  0.00    -0.000 C 
BRANCH  14  15
ATOM     15  C   UNL     1     103.499 107.006 231.354  1.00  0.00    -0.000 C 
BRANCH  15  16
ATOM     16  C   UNL     1     104.893 106.986 232.008  1.00  0.00    -0.000 C 
BRANCH  16  17
ATOM     17  C   UNL     1     104.972 106.147 233.299  1.00  0.00    -0.003 C 
ATOM     18  C   UNL     1     106.150 105.173 233.297  1.00  0.00     0.004 C 
ENDBRANCH  16  17
ENDBRANCH  15  16
ENDBRANCH  14  15
ENDBRANCH  13  14
ENDBRANCH  12  13
ENDBRANCH  11  12
ENDBRANCH   1  11
TORSDOF 14
ENDMDL
MODEL 6
REMARK VINA RESULT:    -5.073      1.687      4.063
REMARK INTER + INTRA:         -11.471
REMARK INTER:                  -9.438
REMARK INTRA:                  -2.033
REMARK UNBOUND:                -2.247
REMARK SMILES CCCCCCCCCCCCCCCC(=O)[O-]
REMARK SMILES IDX 9 1 10 2 11 3 12 4 13 5 14 6 15 7 16 8 17 9 18 10 8 11 7 12
REMARK SMILES IDX 6 13 5 14 4 15 3 16 2 17 1 18
REMARK H PARENT
REMARK Flexibility Score: inf
ROOT
ATOM      1  C   UNL     1     104.484 105.722 228.160  1.00  0.00     0.000 C 
ENDROOT
BRANCH   1   2
ATOM      2  C   UNL     1     104.682 107.202 228.518  1.00  0.00     0.000 C 
BRANCH   2   3
ATOM      3  C   UNL     1     105.602 107.400 229.733  1.00  0.00     0.000 C 
BRANCH   3   4
ATOM      4  C   UNL     1     104.834 107.826 230.997  1.00  0.00     0.000 C 
BRANCH   4   5
ATOM      5  C   UNL     1     104.908 106.760 232.109  1.00  0.00     0.000 C 
BRANCH   5   6
ATOM      6  C   UNL     1     105.559 105.441 231.656  1.00  0.00     0.006 C 
BRANCH   6   7
ATOM      7  C   UNL     1     104.549 104.298 231.504  1.00  0.00     0.053 C 
BRANCH   7   8
ATOM      8  C   UNL     1     105.229 102.976 231.667  1.00  0.00     0.041 C 
ATOM      9  O   UNL     1     106.312 102.893 232.303  1.00  0.00    -0.550 OA
ATOM     10  O   UNL     1     104.641 101.824 231.157  1.00  0.00    -0.550 OA
ENDBRANCH   7   8
ENDBRANCH   6   7
ENDBRANCH   5   6
ENDBRANCH   4   5
ENDBRANCH   3   4
ENDBRANCH   2   3
ENDBRANCH   1   2
BRANCH   1  11
ATOM     11  C   UNL     1     103.564 105.573 226.938  1.00  0.00     0.000 C 
BRANCH  11  12
ATOM     12  C   UNL     1     102.148 105.106 227.314  1.00  0.00    -0.000 C 
BRANCH  12  13
ATOM     13  C   UNL     1     101.986 104.860 228.821  1.00  0.00    -0.000 C 
BRANCH  13  14
ATOM     14  C   UNL     1     100.990 105.855 229.436  1.00  0.00    -0.000 C 
BRANCH  14  15
ATOM     15  C   UNL     1     101.472 106.406 230.793  1.00  0.00    -0.000 C 
BRANCH  15  16
ATOM     16  C   UNL     1     100.755 105.794 232.011  1.00  0.00    -0.000 C 
BRANCH  16  17
ATOM     17  C   UNL     1     100.850 106.645 233.293  1.00  0.00    -0.003 C 
ATOM     18  C   UNL     1     101.973 106.188 234.222  1.00  0.00     0.004 C 
ENDBRANCH  16  17
ENDBRANCH  15  16
ENDBRANCH  14  15
ENDBRANCH  13  14
ENDBRANCH  12  13
ENDBRANCH  11  12
ENDBRANCH   1  11
TORSDOF 14
ENDMDL
MODEL 7
REMARK VINA RESULT:    -5.039      2.208      4.120
REMARK INTER + INTRA:         -11.409
REMARK INTER:                  -8.877
REMARK INTRA:                  -2.532
REMARK UNBOUND:                -2.247
REMARK SMILES CCCCCCCCCCCCCCCC(=O)[O-]
REMARK SMILES IDX 9 1 10 2 11 3 12 4 13 5 14 6 15 7 16 8 17 9 18 10 8 11 7 12
REMARK SMILES IDX 6 13 5 14 4 15 3 16 2 17 1 18
REMARK H PARENT
REMARK Flexibility Score: inf
ROOT
ATOM      1  C   UNL     1     101.913 105.361 227.733  1.00  0.00     0.000 C 
ENDROOT
BRANCH   1   2
ATOM      2  C   UNL     1     101.270 104.025 228.134  1.00  0.00     0.000 C 
BRANCH   2   3
ATOM      3  C   UNL     1     101.203 103.832 229.657  1.00  0.00     0.000 C 
BRANCH   3   4
ATOM      4  C   UNL     1     101.850 102.513 230.117  1.00  0.00     0.000 C 
BRANCH   4   5
ATOM      5  C   UNL     1     103.164 102.749 230.890  1.00  0.00     0.000 C 
BRANCH   5   6
ATOM      6  C   UNL     1     104.410 102.204 230.171  1.00  0.00     0.006 C 
BRANCH   6   7
ATOM      7  C   UNL     1     105.279 101.318 231.071  1.00  0.00     0.053 C 
BRANCH   7   8
ATOM      8  C   UNL     1     106.503 102.060 231.506  1.00  0.00     0.041 C 
ATOM      9  O   UNL     1     106.472 102.789 232.532  1.00  0.00    -0.550 OA
ATOM     10  O   UNL     1     107.694 101.907 230.806  1.00  0.00    -0.550 OA
ENDBRANCH   7   8
ENDBRANCH   6   7
ENDBRANCH   5   6
ENDBRANCH   4   5
ENDBRANCH   3   4
ENDBRANCH   2   3
ENDBRANCH   1   2
BRANCH   1  11
ATOM     11  C   UNL     1     103.244 105.129 227.001  1.00  0.00     0.000 C 
BRANCH  11  12
ATOM     12  C   UNL     1     104.450 105.110 227.955  1.00  0.00    -0.000 C 
BRANCH  12  13
ATOM     13  C   UNL     1     104.459 106.303 228.922  1.00  0.00    -0.000 C 
BRANCH  13  14
ATOM     14  C   UNL     1     105.070 105.908 230.276  1.00  0.00    -0.000 C 
BRANCH  14  15
ATOM     15  C   UNL     1     104.157 106.281 231.462  1.00  0.00    -0.000 C 
BRANCH  15  16
ATOM     16  C   UNL     1     102.823 106.931 231.049  1.00  0.00    -0.000 C 
BRANCH  16  17
ATOM     17  C   UNL     1     101.664 106.669 232.032  1.00  0.00    -0.003 C 
ATOM     18  C   UNL     1     102.003 105.601 233.071  1.00  0.00     0.004 C 
ENDBRANCH  16  17
ENDBRANCH  15  16
ENDBRANCH  14  15
ENDBRANCH  13  14
ENDBRANCH  12  13
ENDBRANCH  11  12
ENDBRANCH   1  11
TORSDOF 14
ENDMDL
MODEL 8
REMARK VINA RESULT:    -5.031      2.067      4.586
REMARK INTER + INTRA:         -11.395
REMARK INTER:                  -8.968
REMARK INTRA:                  -2.427
REMARK UNBOUND:                -2.247
REMARK SMILES CCCCCCCCCCCCCCCC(=O)[O-]
REMARK SMILES IDX 9 1 10 2 11 3 12 4 13 5 14 6 15 7 16 8 17 9 18 10 8 11 7 12
REMARK SMILES IDX 6 13 5 14 4 15 3 16 2 17 1 18
REMARK H PARENT
REMARK Flexibility Score: inf
ROOT
ATOM      1  C   UNL     1     104.159 106.197 228.715  1.00  0.00     0.000 C 
ENDROOT
BRANCH   1   2
ATOM      2  C   UNL     1     104.952 107.508 228.617  1.00  0.00     0.000 C 
BRANCH   2   3
ATOM      3  C   UNL     1     105.298 108.097 229.994  1.00  0.00     0.000 C 
BRANCH   3   4
ATOM      4  C   UNL     1     104.259 107.738 231.071  1.00  0.00     0.000 C 
BRANCH   4   5
ATOM      5  C   UNL     1     104.902 107.040 232.288  1.00  0.00     0.000 C 
BRANCH   5   6
ATOM      6  C   UNL     1     103.966 106.043 232.993  1.00  0.00     0.006 C 
BRANCH   6   7
ATOM      7  C   UNL     1     102.721 105.706 232.164  1.00  0.00     0.053 C 
BRANCH   7   8
ATOM      8  C   UNL     1     101.479 105.998 232.946  1.00  0.00     0.041 C 
ATOM      9  O   UNL     1     101.550 106.265 234.174  1.00  0.00    -0.550 OA
ATOM     10  O   UNL     1     100.245 106.022 232.307  1.00  0.00    -0.550 OA
ENDBRANCH   7   8
ENDBRANCH   6   7
ENDBRANCH   5   6
ENDBRANCH   4   5
ENDBRANCH   3   4
ENDBRANCH   2   3
ENDBRANCH   1   2
BRANCH   1  11
ATOM     11  C   UNL     1     104.752 105.128 227.784  1.00  0.00     0.000 C 
BRANCH  11  12
ATOM     12  C   UNL     1     105.600 104.089 228.537  1.00  0.00    -0.000 C 
BRANCH  12  13
ATOM     13  C   UNL     1     105.618 104.327 230.054  1.00  0.00    -0.000 C 
BRANCH  13  14
ATOM     14  C   UNL     1     105.175 103.067 230.813  1.00  0.00    -0.000 C 
BRANCH  14  15
ATOM     15  C   UNL     1     103.989 102.357 230.129  1.00  0.00    -0.000 C 
BRANCH  15  16
ATOM     16  C   UNL     1     102.775 102.131 231.050  1.00  0.00    -0.000 C 
BRANCH  16  17
ATOM     17  C   UNL     1     101.434 102.599 230.451  1.00  0.00    -0.003 C 
ATOM     18  C   UNL     1     101.617 103.494 229.225  1.00  0.00     0.004 C 
ENDBRANCH  16  17
ENDBRANCH  15  16
ENDBRANCH  14  15
ENDBRANCH  13  14
ENDBRANCH  12  13
ENDBRANCH  11  12
ENDBRANCH   1  11
TORSDOF 14
ENDMDL
MODEL 9
REMARK VINA RESULT:    -4.959      2.335      4.544
REMARK INTER + INTRA:         -11.265
REMARK INTER:                  -8.796
REMARK INTRA:                  -2.468
REMARK UNBOUND:                -2.247
REMARK SMILES CCCCCCCCCCCCCCCC(=O)[O-]
REMARK SMILES IDX 9 1 10 2 11 3 12 4 13 5 14 6 15 7 16 8 17 9 18 10 8 11 7 12
REMARK SMILES IDX 6 13 5 14 4 15 3 16 2 17 1 18
REMARK H PARENT
REMARK Flexibility Score: inf
ROOT
ATOM      1  C   UNL     1     100.898 105.157 229.497  1.00  0.00     0.000 C 
ENDROOT
BRANCH   1   2
ATOM      2  C   UNL     1     101.221 103.678 229.244  1.00  0.00     0.000 C 
BRANCH   2   3
ATOM      3  C   UNL     1     100.870 102.780 230.441  1.00  0.00     0.000 C 
BRANCH   3   4
ATOM      4  C   UNL     1     102.045 101.886 230.876  1.00  0.00     0.000 C 
BRANCH   4   5
ATOM      5  C   UNL     1     103.363 102.677 230.997  1.00  0.00     0.000 C 
BRANCH   5   6
ATOM      6  C   UNL     1     104.577 101.950 230.393  1.00  0.00     0.006 C 
BRANCH   6   7
ATOM      7  C   UNL     1     105.708 101.734 231.405  1.00  0.00     0.053 C 
BRANCH   7   8
ATOM      8  C   UNL     1     106.509 102.986 231.568  1.00  0.00     0.041 C 
ATOM      9  O   UNL     1     106.604 103.537 232.696  1.00  0.00    -0.550 OA
ATOM     10  O   UNL     1     107.193 103.520 230.482  1.00  0.00    -0.550 OA
ENDBRANCH   7   8
ENDBRANCH   6   7
ENDBRANCH   5   6
ENDBRANCH   4   5
ENDBRANCH   3   4
ENDBRANCH   2   3
ENDBRANCH   1   2
BRANCH   1  11
ATOM     11  C   UNL     1     100.800 105.446 231.003  1.00  0.00     0.000 C 
BRANCH  11  12
ATOM     12  C   UNL     1     102.005 106.240 231.535  1.00  0.00    -0.000 C 
BRANCH  12  13
ATOM     13  C   UNL     1     102.388 107.415 230.623  1.00  0.00    -0.000 C 
BRANCH  13  14
ATOM     14  C   UNL     1     103.915 107.537 230.497  1.00  0.00    -0.000 C 
BRANCH  14  15
ATOM     15  C   UNL     1     104.601 106.166 230.329  1.00  0.00    -0.000 C 
BRANCH  15  16
ATOM     16  C   UNL     1     105.235 105.945 228.943  1.00  0.00    -0.000 C 
BRANCH  16  17
ATOM     17  C   UNL     1     104.558 104.838 228.110  1.00  0.00    -0.003 C 
ATOM     18  C   UNL     1     103.702 105.397 226.974  1.00  0.00     0.004 C 
ENDBRANCH  16  17
ENDBRANCH  15  16
ENDBRANCH  14  15
ENDBRANCH  13  14
ENDBRANCH  12  13
ENDBRANCH  11  12
ENDBRANCH   1  11
TORSDOF 14
ENDMDL
