MODEL 1
REMARK VINA RESULT:    -4.529      0.000      0.000
REMARK INTER + INTRA:          -5.768
REMARK INTER:                  -5.455
REMARK INTRA:                  -0.313
REMARK UNBOUND:                -0.313
REMARK SMILES O=c1c(O)c(-c2ccc(O)c(O)c2)oc2cc(O)cc(O)c12
REMARK SMILES IDX 5 1 3 2 2 3 1 4 22 5 20 6 19 7 17 8 16 9 15 10 14 11 6 12
REMARK SMILES IDX 7 13 8 14 9 15 13 16 11 17 10 18 12 20 4 22 21 24 18 26
REMARK H PARENT 10 19 12 21 4 23 21 25 18 27
REMARK Flexibility Score: inf
ROOT
ATOM      1  C   UNL     1     168.658  82.563  18.713  1.00  0.00     0.180 A 
ATOM      2  C   UNL     1     169.707  83.477  18.913  1.00  0.00     0.208 A 
ATOM      3  C   UNL     1     170.124  83.758  20.225  1.00  0.00     0.238 A 
ATOM      4  O   UNL     1     171.099  84.535  20.395  1.00  0.00    -0.285 OA
ATOM      5  C   UNL     1     169.478  83.133  21.318  1.00  0.00     0.111 A 
ATOM      6  C   UNL     1     169.792  83.373  22.689  1.00  0.00     0.134 A 
ATOM      7  C   UNL     1     169.178  82.602  23.684  1.00  0.00     0.093 A 
ATOM      8  C   UNL     1     168.213  81.645  23.360  1.00  0.00     0.123 A 
ATOM      9  C   UNL     1     167.857  81.446  22.029  1.00  0.00     0.094 A 
ATOM     10  C   UNL     1     168.478  82.173  21.012  1.00  0.00     0.146 A 
ATOM     11  O   UNL     1     168.116  81.944  19.755  1.00  0.00    -0.452 OA
ENDROOT
BRANCH   1  12
ATOM     12  C   UNL     1     168.145  82.235  17.362  1.00  0.00     0.025 A 
ATOM     13  C   UNL     1     168.626  81.124  16.647  1.00  0.00     0.016 A 
ATOM     14  C   UNL     1     168.144  80.848  15.364  1.00  0.00     0.051 A 
ATOM     15  C   UNL     1     167.189  81.685  14.773  1.00  0.00     0.157 A 
ATOM     16  C   UNL     1     167.203  83.082  16.756  1.00  0.00     0.062 A 
ATOM     17  C   UNL     1     166.718  82.808  15.473  1.00  0.00     0.158 A 
BRANCH  15  18
ATOM     18  O   UNL     1     166.709  81.405  13.494  1.00  0.00    -0.504 OA
ATOM     19  H   UNL     1     167.276  80.919  12.808  1.00  0.00     0.293 HD
ENDBRANCH  15  18
BRANCH  17  20
ATOM     20  O   UNL     1     165.772  83.664  14.908  1.00  0.00    -0.504 OA
ATOM     21  H   UNL     1     165.108  83.349  14.211  1.00  0.00     0.293 HD
ENDBRANCH  17  20
ENDBRANCH   1  12
BRANCH   2  22
ATOM     22  O   UNL     1     170.345  84.066  17.819  1.00  0.00    -0.502 OA
ATOM     23  H   UNL     1     171.288  83.822  17.541  1.00  0.00     0.293 HD
ENDBRANCH   2  22
BRANCH   6  24
ATOM     24  O   UNL     1     170.673  84.367  23.126  1.00  0.00    -0.507 OA
ATOM     25  H   UNL     1     171.676  84.266  23.174  1.00  0.00     0.293 HD
ENDBRANCH   6  24
BRANCH   8  26
ATOM     26  O   UNL     1     167.595  80.893  24.357  1.00  0.00    -0.508 OA
ATOM     27  H   UNL     1     167.213  81.328  25.188  1.00  0.00     0.293 HD
ENDBRANCH   8  26
TORSDOF 6
ENDMDL
MODEL 2
REMARK VINA RESULT:    -4.464      1.566      6.969
REMARK INTER + INTRA:          -5.690
REMARK INTER:                  -5.517
REMARK INTRA:                  -0.173
REMARK UNBOUND:                -0.313
REMARK SMILES O=c1c(O)c(-c2ccc(O)c(O)c2)oc2cc(O)cc(O)c12
REMARK SMILES IDX 5 1 3 2 2 3 1 4 22 5 20 6 19 7 17 8 16 9 15 10 14 11 6 12
REMARK SMILES IDX 7 13 8 14 9 15 13 16 11 17 10 18 12 20 4 22 21 24 18 26
REMARK H PARENT 10 19 12 21 4 23 21 25 18 27
REMARK Flexibility Score: inf
ROOT
ATOM      1  C   UNL     1     169.027  82.581  18.307  1.00  0.00     0.180 A 
ATOM      2  C   UNL     1     169.864  81.732  17.561  1.00  0.00     0.208 A 
ATOM      3  C   UNL     1     169.426  81.276  16.306  1.00  0.00     0.238 A 
ATOM      4  O   UNL     1     170.201  80.562  15.619  1.00  0.00    -0.285 OA
ATOM      5  C   UNL     1     168.153  81.662  15.822  1.00  0.00     0.111 A 
ATOM      6  C   UNL     1     167.593  81.228  14.583  1.00  0.00     0.134 A 
ATOM      7  C   UNL     1     166.381  81.776  14.143  1.00  0.00     0.093 A 
ATOM      8  C   UNL     1     165.678  82.692  14.929  1.00  0.00     0.123 A 
ATOM      9  C   UNL     1     166.188  83.076  16.166  1.00  0.00     0.094 A 
ATOM     10  C   UNL     1     167.412  82.575  16.616  1.00  0.00     0.146 A 
ATOM     11  O   UNL     1     167.867  82.976  17.797  1.00  0.00    -0.452 OA
ENDROOT
BRANCH   1  12
ATOM     12  C   UNL     1     169.408  83.081  19.648  1.00  0.00     0.025 A 
ATOM     13  C   UNL     1     170.495  83.957  19.822  1.00  0.00     0.016 A 
ATOM     14  C   UNL     1     170.849  84.398  21.099  1.00  0.00     0.051 A 
ATOM     15  C   UNL     1     170.135  83.960  22.222  1.00  0.00     0.157 A 
ATOM     16  C   UNL     1     168.708  82.630  20.779  1.00  0.00     0.062 A 
ATOM     17  C   UNL     1     169.060  83.070  22.060  1.00  0.00     0.158 A 
BRANCH  15  18
ATOM     18  O   UNL     1     170.490  84.404  23.495  1.00  0.00    -0.504 OA
ATOM     19  H   UNL     1     170.159  85.289  23.861  1.00  0.00     0.293 HD
ENDBRANCH  15  18
BRANCH  17  20
ATOM     20  O   UNL     1     168.333  82.611  23.158  1.00  0.00    -0.504 OA
ATOM     21  H   UNL     1     168.496  82.958  24.096  1.00  0.00     0.293 HD
ENDBRANCH  17  20
ENDBRANCH   1  12
BRANCH   2  22
ATOM     22  O   UNL     1     171.125  81.382  18.048  1.00  0.00    -0.502 OA
ATOM     23  H   UNL     1     171.292  80.524  18.561  1.00  0.00     0.293 HD
ENDBRANCH   2  22
BRANCH   6  24
ATOM     24  O   UNL     1     168.167  80.249  13.766  1.00  0.00    -0.507 OA
ATOM     25  H   UNL     1     168.696  79.458  14.103  1.00  0.00     0.293 HD
ENDBRANCH   6  24
BRANCH   8  26
ATOM     26  O   UNL     1     164.465  83.220  14.491  1.00  0.00    -0.508 OA
ATOM     27  H   UNL     1     163.675  83.322  15.116  1.00  0.00     0.293 HD
ENDBRANCH   8  26
TORSDOF 6
ENDMDL
MODEL 3
REMARK VINA RESULT:    -4.441     19.177     20.768
REMARK INTER + INTRA:          -5.662
REMARK INTER:                  -5.331
REMARK INTRA:                  -0.332
REMARK UNBOUND:                -0.313
REMARK SMILES O=c1c(O)c(-c2ccc(O)c(O)c2)oc2cc(O)cc(O)c12
REMARK SMILES IDX 5 1 3 2 2 3 1 4 22 5 20 6 19 7 17 8 16 9 15 10 14 11 6 12
REMARK SMILES IDX 7 13 8 14 9 15 13 16 11 17 10 18 12 20 4 22 21 24 18 26
REMARK H PARENT 10 19 12 21 4 23 21 25 18 27
REMARK Flexibility Score: inf
ROOT
ATOM      1  C   UNL     1     151.810  71.070  17.733  1.00  0.00     0.180 A 
ATOM      2  C   UNL     1     151.694  71.921  18.847  1.00  0.00     0.208 A 
ATOM      3  C   UNL     1     151.508  71.356  20.119  1.00  0.00     0.238 A 
ATOM      4  O   UNL     1     151.460  72.119  21.118  1.00  0.00    -0.285 OA
ATOM      5  C   UNL     1     151.425  69.950  20.260  1.00  0.00     0.111 A 
ATOM      6  C   UNL     1     151.198  69.271  21.495  1.00  0.00     0.134 A 
ATOM      7  C   UNL     1     151.265  67.872  21.537  1.00  0.00     0.093 A 
ATOM      8  C   UNL     1     151.485  67.127  20.377  1.00  0.00     0.123 A 
ATOM      9  C   UNL     1     151.648  67.778  19.157  1.00  0.00     0.094 A 
ATOM     10  C   UNL     1     151.623  69.173  19.089  1.00  0.00     0.146 A 
ATOM     11  O   UNL     1     151.793  69.753  17.907  1.00  0.00    -0.452 OA
ENDROOT
BRANCH   1  12
ATOM     12  C   UNL     1     151.982  71.591  16.358  1.00  0.00     0.025 A 
ATOM     13  C   UNL     1     150.875  71.948  15.567  1.00  0.00     0.016 A 
ATOM     14  C   UNL     1     151.061  72.416  14.263  1.00  0.00     0.051 A 
ATOM     15  C   UNL     1     152.350  72.520  13.726  1.00  0.00     0.157 A 
ATOM     16  C   UNL     1     153.271  71.678  15.807  1.00  0.00     0.062 A 
ATOM     17  C   UNL     1     153.460  72.147  14.502  1.00  0.00     0.158 A 
BRANCH  15  18
ATOM     18  O   UNL     1     152.532  72.988  12.425  1.00  0.00    -0.504 OA
ATOM     19  H   UNL     1     153.317  73.580  12.179  1.00  0.00     0.293 HD
ENDBRANCH  15  18
BRANCH  17  20
ATOM     20  O   UNL     1     154.756  72.233  13.994  1.00  0.00    -0.504 OA
ATOM     21  H   UNL     1     155.523  72.615  14.535  1.00  0.00     0.293 HD
ENDBRANCH  17  20
ENDBRANCH   1  12
BRANCH   2  22
ATOM     22  O   UNL     1     151.800  73.305  18.688  1.00  0.00    -0.502 OA
ATOM     23  H   UNL     1     151.094  73.947  19.025  1.00  0.00     0.293 HD
ENDBRANCH   2  22
BRANCH   6  24
ATOM     24  O   UNL     1     150.879  69.917  22.693  1.00  0.00    -0.507 OA
ATOM     25  H   UNL     1     151.502  70.003  23.483  1.00  0.00     0.293 HD
ENDBRANCH   6  24
BRANCH   8  26
ATOM     26  O   UNL     1     151.534  65.735  20.426  1.00  0.00    -0.508 OA
ATOM     27  H   UNL     1     150.953  65.163  19.825  1.00  0.00     0.293 HD
ENDBRANCH   8  26
TORSDOF 6
ENDMDL
MODEL 4
REMARK VINA RESULT:    -4.413     10.716     13.409
REMARK INTER + INTRA:          -5.629
REMARK INTER:                  -5.309
REMARK INTRA:                  -0.320
REMARK UNBOUND:                -0.313
REMARK SMILES O=c1c(O)c(-c2ccc(O)c(O)c2)oc2cc(O)cc(O)c12
REMARK SMILES IDX 5 1 3 2 2 3 1 4 22 5 20 6 19 7 17 8 16 9 15 10 14 11 6 12
REMARK SMILES IDX 7 13 8 14 9 15 13 16 11 17 10 18 12 20 4 22 21 24 18 26
REMARK H PARENT 10 19 12 21 4 23 21 25 18 27
REMARK Flexibility Score: inf
ROOT
ATOM      1  C   UNL     1     156.345  83.217  17.632  1.00  0.00     0.180 A 
ATOM      2  C   UNL     1     157.301  83.990  18.314  1.00  0.00     0.208 A 
ATOM      3  C   UNL     1     158.464  84.388  17.635  1.00  0.00     0.238 A 
ATOM      4  O   UNL     1     159.290  85.125  18.233  1.00  0.00    -0.285 OA
ATOM      5  C   UNL     1     158.664  83.995  16.289  1.00  0.00     0.111 A 
ATOM      6  C   UNL     1     159.822  84.308  15.517  1.00  0.00     0.134 A 
ATOM      7  C   UNL     1     159.855  83.980  14.156  1.00  0.00     0.093 A 
ATOM      8  C   UNL     1     158.798  83.292  13.555  1.00  0.00     0.123 A 
ATOM      9  C   UNL     1     157.689  82.930  14.315  1.00  0.00     0.094 A 
ATOM     10  C   UNL     1     157.611  83.275  15.666  1.00  0.00     0.146 A 
ATOM     11  O   UNL     1     156.530  82.920  16.351  1.00  0.00    -0.452 OA
ENDROOT
BRANCH   1  12
ATOM     12  C   UNL     1     155.106  82.737  18.287  1.00  0.00     0.025 A 
ATOM     13  C   UNL     1     155.029  81.455  18.859  1.00  0.00     0.016 A 
ATOM     14  C   UNL     1     153.842  81.016  19.451  1.00  0.00     0.051 A 
ATOM     15  C   UNL     1     152.713  81.843  19.469  1.00  0.00     0.157 A 
ATOM     16  C   UNL     1     153.964  83.555  18.290  1.00  0.00     0.062 A 
ATOM     17  C   UNL     1     152.774  83.119  18.883  1.00  0.00     0.158 A 
BRANCH  15  18
ATOM     18  O   UNL     1     151.530  81.403  20.063  1.00  0.00    -0.504 OA
ATOM     19  H   UNL     1     151.181  81.815  20.920  1.00  0.00     0.293 HD
ENDBRANCH  15  18
BRANCH  17  20
ATOM     20  O   UNL     1     151.665  83.964  18.879  1.00  0.00    -0.504 OA
ATOM     21  H   UNL     1     151.756  84.973  18.887  1.00  0.00     0.293 HD
ENDBRANCH  17  20
ENDBRANCH   1  12
BRANCH   2  22
ATOM     22  O   UNL     1     157.074  84.384  19.634  1.00  0.00    -0.502 OA
ATOM     23  H   UNL     1     157.448  83.875  20.426  1.00  0.00     0.293 HD
ENDBRANCH   2  22
BRANCH   6  24
ATOM     24  O   UNL     1     160.970  84.911  16.041  1.00  0.00    -0.507 OA
ATOM     25  H   UNL     1     161.812  84.417  16.299  1.00  0.00     0.293 HD
ENDBRANCH   6  24
BRANCH   8  26
ATOM     26  O   UNL     1     158.846  82.956  12.204  1.00  0.00    -0.508 OA
ATOM     27  H   UNL     1     159.638  82.465  11.808  1.00  0.00     0.293 HD
ENDBRANCH   8  26
TORSDOF 6
ENDMDL
MODEL 5
REMARK VINA RESULT:    -4.289     11.480     13.620
REMARK INTER + INTRA:          -5.480
REMARK INTER:                  -5.151
REMARK INTRA:                  -0.329
REMARK UNBOUND:                -0.313
REMARK SMILES O=c1c(O)c(-c2ccc(O)c(O)c2)oc2cc(O)cc(O)c12
REMARK SMILES IDX 5 1 3 2 2 3 1 4 22 5 20 6 19 7 17 8 16 9 15 10 14 11 6 12
REMARK SMILES IDX 7 13 8 14 9 15 13 16 11 17 10 18 12 20 4 22 21 24 18 26
REMARK H PARENT 10 19 12 21 4 23 21 25 18 27
REMARK Flexibility Score: inf
ROOT
ATOM      1  C   UNL     1     156.301  82.705  17.408  1.00  0.00     0.180 A 
ATOM      2  C   UNL     1     156.386  81.383  17.879  1.00  0.00     0.208 A 
ATOM      3  C   UNL     1     155.343  80.875  18.671  1.00  0.00     0.238 A 
ATOM      4  O   UNL     1     155.397  79.675  19.045  1.00  0.00    -0.285 OA
ATOM      5  C   UNL     1     154.238  81.699  18.994  1.00  0.00     0.111 A 
ATOM      6  C   UNL     1     153.144  81.301  19.820  1.00  0.00     0.134 A 
ATOM      7  C   UNL     1     152.042  82.153  19.965  1.00  0.00     0.093 A 
ATOM      8  C   UNL     1     152.023  83.415  19.367  1.00  0.00     0.123 A 
ATOM      9  C   UNL     1     153.112  83.836  18.607  1.00  0.00     0.094 A 
ATOM     10  C   UNL     1     154.209  82.994  18.414  1.00  0.00     0.146 A 
ATOM     11  O   UNL     1     155.222  83.431  17.673  1.00  0.00    -0.452 OA
ENDROOT
BRANCH   1  12
ATOM     12  C   UNL     1     157.372  83.319  16.590  1.00  0.00     0.025 A 
ATOM     13  C   UNL     1     158.493  83.925  17.186  1.00  0.00     0.016 A 
ATOM     14  C   UNL     1     159.479  84.519  16.395  1.00  0.00     0.051 A 
ATOM     15  C   UNL     1     159.355  84.530  15.000  1.00  0.00     0.157 A 
ATOM     16  C   UNL     1     157.243  83.351  15.192  1.00  0.00     0.062 A 
ATOM     17  C   UNL     1     158.229  83.944  14.397  1.00  0.00     0.158 A 
BRANCH  15  18
ATOM     18  O   UNL     1     160.342  85.122  14.213  1.00  0.00    -0.504 OA
ATOM     19  H   UNL     1     161.314  84.840  14.279  1.00  0.00     0.293 HD
ENDBRANCH  15  18
BRANCH  17  20
ATOM     20  O   UNL     1     158.073  83.945  13.010  1.00  0.00    -0.504 OA
ATOM     21  H   UNL     1     157.198  83.693  12.567  1.00  0.00     0.293 HD
ENDBRANCH  17  20
ENDBRANCH   1  12
BRANCH   2  22
ATOM     22  O   UNL     1     157.475  80.580  17.532  1.00  0.00    -0.502 OA
ATOM     23  H   UNL     1     157.703  80.359  16.570  1.00  0.00     0.293 HD
ENDBRANCH   2  22
BRANCH   6  24
ATOM     24  O   UNL     1     153.104  80.102  20.537  1.00  0.00    -0.507 OA
ATOM     25  H   UNL     1     152.279  79.725  20.980  1.00  0.00     0.293 HD
ENDBRANCH   6  24
BRANCH   8  26
ATOM     26  O   UNL     1     150.930  84.262  19.529  1.00  0.00    -0.508 OA
ATOM     27  H   UNL     1     150.099  84.171  18.957  1.00  0.00     0.293 HD
ENDBRANCH   8  26
TORSDOF 6
ENDMDL
MODEL 6
REMARK VINA RESULT:    -4.176     11.359     13.382
REMARK INTER + INTRA:          -5.344
REMARK INTER:                  -5.033
REMARK INTRA:                  -0.310
REMARK UNBOUND:                -0.313
REMARK SMILES O=c1c(O)c(-c2ccc(O)c(O)c2)oc2cc(O)cc(O)c12
REMARK SMILES IDX 5 1 3 2 2 3 1 4 22 5 20 6 19 7 17 8 16 9 15 10 14 11 6 12
REMARK SMILES IDX 7 13 8 14 9 15 13 16 11 17 10 18 12 20 4 22 21 24 18 26
REMARK H PARENT 10 19 12 21 4 23 21 25 18 27
REMARK Flexibility Score: inf
ROOT
ATOM      1  C   UNL     1     156.212  83.003  17.663  1.00  0.00     0.180 A 
ATOM      2  C   UNL     1     155.059  83.771  17.907  1.00  0.00     0.208 A 
ATOM      3  C   UNL     1     153.986  83.186  18.599  1.00  0.00     0.238 A 
ATOM      4  O   UNL     1     152.979  83.895  18.861  1.00  0.00    -0.285 OA
ATOM      5  C   UNL     1     154.072  81.839  19.024  1.00  0.00     0.111 A 
ATOM      6  C   UNL     1     153.029  81.135  19.698  1.00  0.00     0.134 A 
ATOM      7  C   UNL     1     153.272  79.845  20.189  1.00  0.00     0.093 A 
ATOM      8  C   UNL     1     154.498  79.211  19.972  1.00  0.00     0.123 A 
ATOM      9  C   UNL     1     155.500  79.868  19.264  1.00  0.00     0.094 A 
ATOM     10  C   UNL     1     155.301  81.168  18.794  1.00  0.00     0.146 A 
ATOM     11  O   UNL     1     156.287  81.762  18.132  1.00  0.00    -0.452 OA
ENDROOT
BRANCH   1  12
ATOM     12  C   UNL     1     157.374  83.540  16.918  1.00  0.00     0.025 A 
ATOM     13  C   UNL     1     158.474  84.104  17.587  1.00  0.00     0.016 A 
ATOM     14  C   UNL     1     159.549  84.626  16.862  1.00  0.00     0.051 A 
ATOM     15  C   UNL     1     159.534  84.605  15.462  1.00  0.00     0.157 A 
ATOM     16  C   UNL     1     157.354  83.540  15.514  1.00  0.00     0.062 A 
ATOM     17  C   UNL     1     158.430  84.061  14.785  1.00  0.00     0.158 A 
BRANCH  15  18
ATOM     18  O   UNL     1     160.609  85.125  14.742  1.00  0.00    -0.504 OA
ATOM     19  H   UNL     1     161.073  84.587  14.018  1.00  0.00     0.293 HD
ENDBRANCH  15  18
BRANCH  17  20
ATOM     20  O   UNL     1     158.381  84.031  13.391  1.00  0.00    -0.504 OA
ATOM     21  H   UNL     1     157.588  83.654  12.888  1.00  0.00     0.293 HD
ENDBRANCH  17  20
ENDBRANCH   1  12
BRANCH   2  22
ATOM     22  O   UNL     1     155.004  85.105  17.497  1.00  0.00    -0.502 OA
ATOM     23  H   UNL     1     154.763  85.374  16.550  1.00  0.00     0.293 HD
ENDBRANCH   2  22
BRANCH   6  24
ATOM     24  O   UNL     1     151.739  81.640  19.886  1.00  0.00    -0.507 OA
ATOM     25  H   UNL     1     150.923  81.336  19.376  1.00  0.00     0.293 HD
ENDBRANCH   6  24
BRANCH   8  26
ATOM     26  O   UNL     1     154.725  77.923  20.450  1.00  0.00    -0.508 OA
ATOM     27  H   UNL     1     154.233  77.123  20.072  1.00  0.00     0.293 HD
ENDBRANCH   8  26
TORSDOF 6
ENDMDL
MODEL 7
REMARK VINA RESULT:    -4.057      2.033      2.318
REMARK INTER + INTRA:          -5.200
REMARK INTER:                  -4.921
REMARK INTRA:                  -0.279
REMARK UNBOUND:                -0.313
REMARK SMILES O=c1c(O)c(-c2ccc(O)c(O)c2)oc2cc(O)cc(O)c12
REMARK SMILES IDX 5 1 3 2 2 3 1 4 22 5 20 6 19 7 17 8 16 9 15 10 14 11 6 12
REMARK SMILES IDX 7 13 8 14 9 15 13 16 11 17 10 18 12 20 4 22 21 24 18 26
REMARK H PARENT 10 19 12 21 4 23 21 25 18 27
REMARK Flexibility Score: inf
ROOT
ATOM      1  C   UNL     1     168.410  81.940  18.359  1.00  0.00     0.180 A 
ATOM      2  C   UNL     1     169.498  82.609  18.947  1.00  0.00     0.208 A 
ATOM      3  C   UNL     1     169.304  83.291  20.159  1.00  0.00     0.238 A 
ATOM      4  O   UNL     1     170.293  83.842  20.709  1.00  0.00    -0.285 OA
ATOM      5  C   UNL     1     168.022  83.307  20.760  1.00  0.00     0.111 A 
ATOM      6  C   UNL     1     167.702  83.999  21.967  1.00  0.00     0.134 A 
ATOM      7  C   UNL     1     166.434  83.839  22.540  1.00  0.00     0.093 A 
ATOM      8  C   UNL     1     165.453  83.065  21.914  1.00  0.00     0.123 A 
ATOM      9  C   UNL     1     165.738  82.435  20.705  1.00  0.00     0.094 A 
ATOM     10  C   UNL     1     167.005  82.546  20.128  1.00  0.00     0.146 A 
ATOM     11  O   UNL     1     167.237  81.920  18.980  1.00  0.00    -0.452 OA
ENDROOT
BRANCH   1  12
ATOM     12  C   UNL     1     168.531  81.222  17.069  1.00  0.00     0.025 A 
ATOM     13  C   UNL     1     168.661  79.823  17.020  1.00  0.00     0.016 A 
ATOM     14  C   UNL     1     168.796  79.169  15.793  1.00  0.00     0.051 A 
ATOM     15  C   UNL     1     168.819  79.903  14.600  1.00  0.00     0.157 A 
ATOM     16  C   UNL     1     168.574  81.954  15.872  1.00  0.00     0.062 A 
ATOM     17  C   UNL     1     168.709  81.302  14.641  1.00  0.00     0.158 A 
BRANCH  15  18
ATOM     18  O   UNL     1     168.952  79.247  13.376  1.00  0.00    -0.504 OA
ATOM     19  H   UNL     1     169.649  78.524  13.235  1.00  0.00     0.293 HD
ENDBRANCH  15  18
BRANCH  17  20
ATOM     20  O   UNL     1     168.734  82.062  13.471  1.00  0.00    -0.504 OA
ATOM     21  H   UNL     1     168.639  83.070  13.481  1.00  0.00     0.293 HD
ENDBRANCH  17  20
ENDBRANCH   1  12
BRANCH   2  22
ATOM     22  O   UNL     1     170.759  82.562  18.348  1.00  0.00    -0.502 OA
ATOM     23  H   UNL     1     171.462  83.276  18.500  1.00  0.00     0.293 HD
ENDBRANCH   2  22
BRANCH   6  24
ATOM     24  O   UNL     1     168.577  84.869  22.624  1.00  0.00    -0.507 OA
ATOM     25  H   UNL     1     169.583  84.839  22.548  1.00  0.00     0.293 HD
ENDBRANCH   6  24
BRANCH   8  26
ATOM     26  O   UNL     1     164.189  82.924  22.482  1.00  0.00    -0.508 OA
ATOM     27  H   UNL     1     163.943  82.109  23.030  1.00  0.00     0.293 HD
ENDBRANCH   8  26
TORSDOF 6
ENDMDL
MODEL 8
REMARK VINA RESULT:    -4.049     11.407     13.137
REMARK INTER + INTRA:          -5.190
REMARK INTER:                  -4.897
REMARK INTRA:                  -0.293
REMARK UNBOUND:                -0.313
REMARK SMILES O=c1c(O)c(-c2ccc(O)c(O)c2)oc2cc(O)cc(O)c12
REMARK SMILES IDX 5 1 3 2 2 3 1 4 22 5 20 6 19 7 17 8 16 9 15 10 14 11 6 12
REMARK SMILES IDX 7 13 8 14 9 15 13 16 11 17 10 18 12 20 4 22 21 24 18 26
REMARK H PARENT 10 19 12 21 4 23 21 25 18 27
REMARK Flexibility Score: inf
ROOT
ATOM      1  C   UNL     1     156.274  83.249  17.431  1.00  0.00     0.180 A 
ATOM      2  C   UNL     1     157.090  83.513  18.545  1.00  0.00     0.208 A 
ATOM      3  C   UNL     1     156.492  83.957  19.736  1.00  0.00     0.238 A 
ATOM      4  O   UNL     1     157.220  84.139  20.746  1.00  0.00    -0.285 OA
ATOM      5  C   UNL     1     155.091  84.147  19.793  1.00  0.00     0.111 A 
ATOM      6  C   UNL     1     154.384  84.631  20.934  1.00  0.00     0.134 A 
ATOM      7  C   UNL     1     152.983  84.655  20.921  1.00  0.00     0.093 A 
ATOM      8  C   UNL     1     152.267  84.274  19.783  1.00  0.00     0.123 A 
ATOM      9  C   UNL     1     152.951  83.857  18.644  1.00  0.00     0.094 A 
ATOM     10  C   UNL     1     154.345  83.787  18.639  1.00  0.00     0.146 A 
ATOM     11  O   UNL     1     154.956  83.374  17.535  1.00  0.00    -0.452 OA
ENDROOT
BRANCH   1  12
ATOM     12  C   UNL     1     156.833  82.802  16.134  1.00  0.00     0.025 A 
ATOM     13  C   UNL     1     156.843  81.444  15.770  1.00  0.00     0.016 A 
ATOM     14  C   UNL     1     157.396  81.044  14.551  1.00  0.00     0.051 A 
ATOM     15  C   UNL     1     157.961  81.990  13.686  1.00  0.00     0.157 A 
ATOM     16  C   UNL     1     157.418  83.744  15.272  1.00  0.00     0.062 A 
ATOM     17  C   UNL     1     157.973  83.347  14.050  1.00  0.00     0.158 A 
BRANCH  15  18
ATOM     18  O   UNL     1     158.511  81.587  12.469  1.00  0.00    -0.504 OA
ATOM     19  H   UNL     1     159.385  81.972  12.129  1.00  0.00     0.293 HD
ENDBRANCH  15  18
BRANCH  17  20
ATOM     20  O   UNL     1     158.533  84.313  13.214  1.00  0.00    -0.504 OA
ATOM     21  H   UNL     1     159.230  84.082  12.517  1.00  0.00     0.293 HD
ENDBRANCH  17  20
ENDBRANCH   1  12
BRANCH   2  22
ATOM     22  O   UNL     1     158.468  83.299  18.474  1.00  0.00    -0.502 OA
ATOM     23  H   UNL     1     158.870  82.468  18.057  1.00  0.00     0.293 HD
ENDBRANCH   2  22
BRANCH   6  24
ATOM     24  O   UNL     1     155.005  85.122  22.087  1.00  0.00    -0.507 OA
ATOM     25  H   UNL     1     155.191  84.577  22.915  1.00  0.00     0.293 HD
ENDBRANCH   6  24
BRANCH   8  26
ATOM     26  O   UNL     1     150.875  84.316  19.774  1.00  0.00    -0.508 OA
ATOM     27  H   UNL     1     150.370  85.179  19.932  1.00  0.00     0.293 HD
ENDBRANCH   8  26
TORSDOF 6
ENDMDL
