MODEL 1
REMARK VINA RESULT:    -4.329      0.000      0.000
REMARK INTER + INTRA:         -10.255
REMARK INTER:                  -8.124
REMARK INTRA:                  -2.130
REMARK UNBOUND:                -2.130
REMARK SMILES CCCCCCCCC=CCCCCCCCC(=O)[O-]
REMARK SMILES IDX 10 1 9 2 11 3 12 4 13 5 14 6 15 7 16 8 17 9 18 10 19 11
REMARK SMILES IDX 20 12 8 13 7 14 6 15 5 16 4 17 3 18 2 19 1 20
REMARK H PARENT
REMARK Flexibility Score: inf
ROOT
ATOM      1  C   UNL     1      26.915  12.634 -11.002  1.00  0.00    -0.031 C 
ATOM      2  C   UNL     1      28.140  12.121 -11.192  1.00  0.00    -0.031 C 
ENDROOT
BRANCH   1   3
ATOM      3  C   UNL     1      26.411  13.797 -11.814  1.00  0.00     0.027 C 
BRANCH   3   4
ATOM      4  C   UNL     1      27.180  15.099 -11.525  1.00  0.00     0.004 C 
BRANCH   4   5
ATOM      5  C   UNL     1      27.768  15.780 -12.778  1.00  0.00     0.000 C 
BRANCH   5   6
ATOM      6  C   UNL     1      28.675  14.881 -13.642  1.00  0.00     0.000 C 
BRANCH   6   7
ATOM      7  C   UNL     1      29.655  15.633 -14.560  1.00  0.00     0.000 C 
BRANCH   7   8
ATOM      8  C   UNL     1      30.372  14.709 -15.556  1.00  0.00     0.006 C 
BRANCH   8   9
ATOM      9  C   UNL     1      29.692  14.744 -16.928  1.00  0.00     0.053 C 
BRANCH   9  10
ATOM     10  C   UNL     1      29.159  13.392 -17.285  1.00  0.00     0.041 C 
ATOM     11  O   UNL     1      28.236  12.876 -16.602  1.00  0.00    -0.550 OA
ATOM     12  O   UNL     1      29.653  12.720 -18.396  1.00  0.00    -0.550 OA
ENDBRANCH   9  10
ENDBRANCH   8   9
ENDBRANCH   7   8
ENDBRANCH   6   7
ENDBRANCH   5   6
ENDBRANCH   4   5
ENDBRANCH   3   4
ENDBRANCH   1   3
BRANCH   2  13
ATOM     13  C   UNL     1      28.617  10.954 -10.370  1.00  0.00     0.027 C 
BRANCH  13  14
ATOM     14  C   UNL     1      30.102  11.074  -9.985  1.00  0.00     0.004 C 
BRANCH  14  15
ATOM     15  C   UNL     1      30.950   9.845 -10.363  1.00  0.00     0.000 C 
BRANCH  15  16
ATOM     16  C   UNL     1      30.171   8.827 -11.216  1.00  0.00     0.000 C 
BRANCH  16  17
ATOM     17  C   UNL     1      30.502   8.939 -12.714  1.00  0.00    -0.000 C 
BRANCH  17  18
ATOM     18  C   UNL     1      29.271   9.274 -13.569  1.00  0.00    -0.000 C 
BRANCH  18  19
ATOM     19  C   UNL     1      29.520  10.522 -14.425  1.00  0.00    -0.003 C 
ATOM     20  C   UNL     1      30.549  11.441 -13.775  1.00  0.00     0.004 C 
ENDBRANCH  18  19
ENDBRANCH  17  18
ENDBRANCH  16  17
ENDBRANCH  15  16
ENDBRANCH  14  15
ENDBRANCH  13  14
ENDBRANCH   2  13
TORSDOF 15
ENDMDL
MODEL 2
REMARK VINA RESULT:    -4.321      2.620      4.686
REMARK INTER + INTRA:         -10.239
REMARK INTER:                  -7.507
REMARK INTRA:                  -2.732
REMARK UNBOUND:                -2.130
REMARK SMILES CCCCCCCCC=CCCCCCCCC(=O)[O-]
REMARK SMILES IDX 10 1 9 2 11 3 12 4 13 5 14 6 15 7 16 8 17 9 18 10 19 11
REMARK SMILES IDX 20 12 8 13 7 14 6 15 5 16 4 17 3 18 2 19 1 20
REMARK H PARENT
REMARK Flexibility Score: inf
ROOT
ATOM      1  C   UNL     1      29.249  11.507 -14.757  1.00  0.00    -0.031 C 
ATOM      2  C   UNL     1      30.526  11.155 -14.547  1.00  0.00    -0.031 C 
ENDROOT
BRANCH   1   3
ATOM      3  C   UNL     1      28.879  12.881 -15.248  1.00  0.00     0.027 C 
BRANCH   3   4
ATOM      4  C   UNL     1      28.490  12.895 -16.737  1.00  0.00     0.004 C 
BRANCH   4   5
ATOM      5  C   UNL     1      29.508  13.606 -17.652  1.00  0.00     0.000 C 
BRANCH   5   6
ATOM      6  C   UNL     1      30.754  12.772 -18.012  1.00  0.00     0.000 C 
BRANCH   6   7
ATOM      7  C   UNL     1      30.459  11.399 -18.643  1.00  0.00     0.000 C 
BRANCH   7   8
ATOM      8  C   UNL     1      31.125  10.238 -17.889  1.00  0.00     0.006 C 
BRANCH   8   9
ATOM      9  C   UNL     1      30.741   8.889 -18.504  1.00  0.00     0.053 C 
BRANCH   9  10
ATOM     10  C   UNL     1      30.200   7.970 -17.455  1.00  0.00     0.041 C 
ATOM     11  O   UNL     1      30.969   7.180 -16.849  1.00  0.00    -0.550 OA
ATOM     12  O   UNL     1      28.853   8.016 -17.117  1.00  0.00    -0.550 OA
ENDBRANCH   9  10
ENDBRANCH   8   9
ENDBRANCH   7   8
ENDBRANCH   6   7
ENDBRANCH   5   6
ENDBRANCH   4   5
ENDBRANCH   3   4
ENDBRANCH   1   3
BRANCH   2  13
ATOM     13  C   UNL     1      30.869   9.772 -14.061  1.00  0.00     0.027 C 
BRANCH  13  14
ATOM     14  C   UNL     1      29.620   8.948 -13.703  1.00  0.00     0.004 C 
BRANCH  14  15
ATOM     15  C   UNL     1      29.724   8.201 -12.361  1.00  0.00     0.000 C 
BRANCH  15  16
ATOM     16  C   UNL     1      30.606   8.939 -11.338  1.00  0.00     0.000 C 
BRANCH  16  17
ATOM     17  C   UNL     1      29.842  10.045 -10.591  1.00  0.00    -0.000 C 
BRANCH  17  18
ATOM     18  C   UNL     1      30.519  11.419 -10.712  1.00  0.00    -0.000 C 
BRANCH  18  19
ATOM     19  C   UNL     1      29.518  12.486 -11.172  1.00  0.00    -0.003 C 
ATOM     20  C   UNL     1      28.102  11.923 -11.236  1.00  0.00     0.004 C 
ENDBRANCH  18  19
ENDBRANCH  17  18
ENDBRANCH  16  17
ENDBRANCH  15  16
ENDBRANCH  14  15
ENDBRANCH  13  14
ENDBRANCH   2  13
TORSDOF 15
ENDMDL
MODEL 3
REMARK VINA RESULT:    -4.301      2.279      5.141
REMARK INTER + INTRA:         -10.203
REMARK INTER:                  -7.635
REMARK INTRA:                  -2.568
REMARK UNBOUND:                -2.130
REMARK SMILES CCCCCCCCC=CCCCCCCCC(=O)[O-]
REMARK SMILES IDX 10 1 9 2 11 3 12 4 13 5 14 6 15 7 16 8 17 9 18 10 19 11
REMARK SMILES IDX 20 12 8 13 7 14 6 15 5 16 4 17 3 18 2 19 1 20
REMARK H PARENT
REMARK Flexibility Score: inf
ROOT
ATOM      1  C   UNL     1      29.290  13.315 -17.864  1.00  0.00    -0.031 C 
ATOM      2  C   UNL     1      30.428  12.624 -18.029  1.00  0.00    -0.031 C 
ENDROOT
BRANCH   1   3
ATOM      3  C   UNL     1      29.249  14.814 -17.996  1.00  0.00     0.027 C 
BRANCH   3   4
ATOM      4  C   UNL     1      30.051  15.528 -16.893  1.00  0.00     0.004 C 
BRANCH   4   5
ATOM      5  C   UNL     1      29.636  15.147 -15.458  1.00  0.00     0.000 C 
BRANCH   5   6
ATOM      6  C   UNL     1      30.629  14.233 -14.713  1.00  0.00     0.000 C 
BRANCH   6   7
ATOM      7  C   UNL     1      29.985  13.200 -13.771  1.00  0.00     0.000 C 
BRANCH   7   8
ATOM      8  C   UNL     1      28.457  13.135 -13.910  1.00  0.00     0.006 C 
BRANCH   8   9
ATOM      9  C   UNL     1      27.774  13.255 -12.544  1.00  0.00     0.053 C 
BRANCH   9  10
ATOM     10  C   UNL     1      27.013  14.540 -12.449  1.00  0.00     0.041 C 
ATOM     11  O   UNL     1      25.766  14.525 -12.282  1.00  0.00    -0.550 OA
ATOM     12  O   UNL     1      27.687  15.754 -12.502  1.00  0.00    -0.550 OA
ENDBRANCH   9  10
ENDBRANCH   8   9
ENDBRANCH   7   8
ENDBRANCH   6   7
ENDBRANCH   5   6
ENDBRANCH   4   5
ENDBRANCH   3   4
ENDBRANCH   1   3
BRANCH   2  13
ATOM     13  C   UNL     1      30.440  11.125 -17.896  1.00  0.00     0.027 C 
BRANCH  13  14
ATOM     14  C   UNL     1      30.588  10.665 -16.436  1.00  0.00     0.004 C 
BRANCH  14  15
ATOM     15  C   UNL     1      29.394   9.847 -15.912  1.00  0.00     0.000 C 
BRANCH  15  16
ATOM     16  C   UNL     1      29.523   9.501 -14.417  1.00  0.00     0.000 C 
BRANCH  16  17
ATOM     17  C   UNL     1      30.933   9.775 -13.869  1.00  0.00    -0.000 C 
BRANCH  17  18
ATOM     18  C   UNL     1      31.005   9.670 -12.338  1.00  0.00    -0.000 C 
BRANCH  18  19
ATOM     19  C   UNL     1      29.668  10.065 -11.698  1.00  0.00    -0.003 C 
ATOM     20  C   UNL     1      29.716   9.909 -10.182  1.00  0.00     0.004 C 
ENDBRANCH  18  19
ENDBRANCH  17  18
ENDBRANCH  16  17
ENDBRANCH  15  16
ENDBRANCH  14  15
ENDBRANCH  13  14
ENDBRANCH   2  13
TORSDOF 15
ENDMDL
MODEL 4
REMARK VINA RESULT:    -4.259      1.484      4.747
REMARK INTER + INTRA:         -10.124
REMARK INTER:                  -7.998
REMARK INTRA:                  -2.126
REMARK UNBOUND:                -2.130
REMARK SMILES CCCCCCCCC=CCCCCCCCC(=O)[O-]
REMARK SMILES IDX 10 1 9 2 11 3 12 4 13 5 14 6 15 7 16 8 17 9 18 10 19 11
REMARK SMILES IDX 20 12 8 13 7 14 6 15 5 16 4 17 3 18 2 19 1 20
REMARK H PARENT
REMARK Flexibility Score: inf
ROOT
ATOM      1  C   UNL     1      28.089  12.227 -11.257  1.00  0.00    -0.031 C 
ATOM      2  C   UNL     1      26.843  12.665 -11.021  1.00  0.00    -0.031 C 
ENDROOT
BRANCH   1   3
ATOM      3  C   UNL     1      28.637  10.998 -10.583  1.00  0.00     0.027 C 
BRANCH   3   4
ATOM      4  C   UNL     1      29.906  10.462 -11.267  1.00  0.00     0.004 C 
BRANCH   4   5
ATOM      5  C   UNL     1      30.650  11.502 -12.129  1.00  0.00     0.000 C 
BRANCH   5   6
ATOM      6  C   UNL     1      30.747  11.156 -13.629  1.00  0.00     0.000 C 
BRANCH   6   7
ATOM      7  C   UNL     1      29.453  10.606 -14.256  1.00  0.00     0.000 C 
BRANCH   7   8
ATOM      8  C   UNL     1      29.269  11.033 -15.720  1.00  0.00     0.006 C 
BRANCH   8   9
ATOM      9  C   UNL     1      30.600  10.998 -16.476  1.00  0.00     0.053 C 
BRANCH   9  10
ATOM     10  C   UNL     1      30.429  10.341 -17.809  1.00  0.00     0.041 C 
ATOM     11  O   UNL     1      30.674  10.980 -18.865  1.00  0.00    -0.550 OA
ATOM     12  O   UNL     1      30.040   9.009 -17.884  1.00  0.00    -0.550 OA
ENDBRANCH   9  10
ENDBRANCH   8   9
ENDBRANCH   7   8
ENDBRANCH   6   7
ENDBRANCH   5   6
ENDBRANCH   4   5
ENDBRANCH   3   4
ENDBRANCH   1   3
BRANCH   2  13
ATOM     13  C   UNL     1      26.318  13.894 -11.713  1.00  0.00     0.027 C 
BRANCH  13  14
ATOM     14  C   UNL     1      27.232  15.115 -11.515  1.00  0.00     0.004 C 
BRANCH  14  15
ATOM     15  C   UNL     1      27.769  15.716 -12.827  1.00  0.00     0.000 C 
BRANCH  15  16
ATOM     16  C   UNL     1      28.697  14.750 -13.586  1.00  0.00     0.000 C 
BRANCH  16  17
ATOM     17  C   UNL     1      29.602  15.475 -14.596  1.00  0.00    -0.000 C 
BRANCH  17  18
ATOM     18  C   UNL     1      30.624  14.538 -15.255  1.00  0.00    -0.000 C 
BRANCH  18  19
ATOM     19  C   UNL     1      30.643  14.729 -16.777  1.00  0.00    -0.003 C 
ATOM     20  C   UNL     1      29.304  14.343 -17.398  1.00  0.00     0.004 C 
ENDBRANCH  18  19
ENDBRANCH  17  18
ENDBRANCH  16  17
ENDBRANCH  15  16
ENDBRANCH  14  15
ENDBRANCH  13  14
ENDBRANCH   2  13
TORSDOF 15
ENDMDL
MODEL 5
REMARK VINA RESULT:    -4.258      2.546      4.988
REMARK INTER + INTRA:         -10.121
REMARK INTER:                  -7.970
REMARK INTRA:                  -2.151
REMARK UNBOUND:                -2.130
REMARK SMILES CCCCCCCCC=CCCCCCCCC(=O)[O-]
REMARK SMILES IDX 10 1 9 2 11 3 12 4 13 5 14 6 15 7 16 8 17 9 18 10 19 11
REMARK SMILES IDX 20 12 8 13 7 14 6 15 5 16 4 17 3 18 2 19 1 20
REMARK H PARENT
REMARK Flexibility Score: inf
ROOT
ATOM      1  C   UNL     1      29.027  11.705 -14.968  1.00  0.00    -0.031 C 
ATOM      2  C   UNL     1      30.210  12.074 -14.455  1.00  0.00    -0.031 C 
ENDROOT
BRANCH   1   3
ATOM      3  C   UNL     1      28.394  12.451 -16.111  1.00  0.00     0.027 C 
BRANCH   3   4
ATOM      4  C   UNL     1      29.240  13.648 -16.580  1.00  0.00     0.004 C 
BRANCH   4   5
ATOM      5  C   UNL     1      29.889  13.463 -17.966  1.00  0.00     0.000 C 
BRANCH   5   6
ATOM      6  C   UNL     1      31.100  12.509 -17.997  1.00  0.00     0.000 C 
BRANCH   6   7
ATOM      7  C   UNL     1      30.845  11.153 -18.680  1.00  0.00     0.000 C 
BRANCH   7   8
ATOM      8  C   UNL     1      31.025   9.960 -17.728  1.00  0.00     0.006 C 
BRANCH   8   9
ATOM      9  C   UNL     1      30.267   8.730 -18.236  1.00  0.00     0.053 C 
BRANCH   9  10
ATOM     10  C   UNL     1      29.392   8.171 -17.159  1.00  0.00     0.041 C 
ATOM     11  O   UNL     1      28.389   7.474 -17.458  1.00  0.00    -0.550 OA
ATOM     12  O   UNL     1      29.710   8.384 -15.823  1.00  0.00    -0.550 OA
ENDBRANCH   9  10
ENDBRANCH   8   9
ENDBRANCH   7   8
ENDBRANCH   6   7
ENDBRANCH   5   6
ENDBRANCH   4   5
ENDBRANCH   3   4
ENDBRANCH   1   3
BRANCH   2  13
ATOM     13  C   UNL     1      30.823  11.306 -13.314  1.00  0.00     0.027 C 
BRANCH  13  14
ATOM     14  C   UNL     1      29.915  10.169 -12.815  1.00  0.00     0.004 C 
BRANCH  14  15
ATOM     15  C   UNL     1      29.406  10.358 -11.375  1.00  0.00     0.000 C 
BRANCH  15  16
ATOM     16  C   UNL     1      29.216  11.840 -11.003  1.00  0.00     0.000 C 
BRANCH  16  17
ATOM     17  C   UNL     1      27.787  12.338 -11.278  1.00  0.00    -0.000 C 
BRANCH  17  18
ATOM     18  C   UNL     1      27.760  13.650 -12.075  1.00  0.00    -0.000 C 
BRANCH  18  19
ATOM     19  C   UNL     1      26.399  14.345 -11.943  1.00  0.00    -0.003 C 
ATOM     20  C   UNL     1      25.737  14.013 -10.610  1.00  0.00     0.004 C 
ENDBRANCH  18  19
ENDBRANCH  17  18
ENDBRANCH  16  17
ENDBRANCH  15  16
ENDBRANCH  14  15
ENDBRANCH  13  14
ENDBRANCH   2  13
TORSDOF 15
ENDMDL
MODEL 6
REMARK VINA RESULT:    -4.238      2.621      6.173
REMARK INTER + INTRA:         -10.085
REMARK INTER:                  -7.895
REMARK INTRA:                  -2.190
REMARK UNBOUND:                -2.130
REMARK SMILES CCCCCCCCC=CCCCCCCCC(=O)[O-]
REMARK SMILES IDX 10 1 9 2 11 3 12 4 13 5 14 6 15 7 16 8 17 9 18 10 19 11
REMARK SMILES IDX 20 12 8 13 7 14 6 15 5 16 4 17 3 18 2 19 1 20
REMARK H PARENT
REMARK Flexibility Score: inf
ROOT
ATOM      1  C   UNL     1      30.584  11.776 -14.429  1.00  0.00    -0.031 C 
ATOM      2  C   UNL     1      29.311  11.952 -14.813  1.00  0.00    -0.031 C 
ENDROOT
BRANCH   1   3
ATOM      3  C   UNL     1      31.043  10.502 -13.772  1.00  0.00     0.027 C 
BRANCH   3   4
ATOM      4  C   UNL     1      29.873   9.584 -13.377  1.00  0.00     0.004 C 
BRANCH   4   5
ATOM      5  C   UNL     1      29.841   9.204 -11.883  1.00  0.00     0.000 C 
BRANCH   5   6
ATOM      6  C   UNL     1      30.012  10.385 -10.907  1.00  0.00     0.000 C 
BRANCH   6   7
ATOM      7  C   UNL     1      28.699  10.982 -10.369  1.00  0.00     0.000 C 
BRANCH   7   8
ATOM      8  C   UNL     1      28.152  12.116 -11.250  1.00  0.00     0.006 C 
BRANCH   8   9
ATOM      9  C   UNL     1      26.696  12.435 -10.897  1.00  0.00     0.053 C 
BRANCH   9  10
ATOM     10  C   UNL     1      26.333  13.809 -11.364  1.00  0.00     0.041 C 
ATOM     11  O   UNL     1      25.253  14.337 -10.992  1.00  0.00    -0.550 OA
ATOM     12  O   UNL     1      27.206  14.523 -12.174  1.00  0.00    -0.550 OA
ENDBRANCH   9  10
ENDBRANCH   8   9
ENDBRANCH   7   8
ENDBRANCH   6   7
ENDBRANCH   5   6
ENDBRANCH   4   5
ENDBRANCH   3   4
ENDBRANCH   1   3
BRANCH   2  13
ATOM     13  C   UNL     1      28.880  13.235 -15.473  1.00  0.00     0.027 C 
BRANCH  13  14
ATOM     14  C   UNL     1      28.753  13.097 -17.000  1.00  0.00     0.004 C 
BRANCH  14  15
ATOM     15  C   UNL     1      30.087  13.238 -17.756  1.00  0.00     0.000 C 
BRANCH  15  16
ATOM     16  C   UNL     1      30.387  12.027 -18.658  1.00  0.00     0.000 C 
BRANCH  16  17
ATOM     17  C   UNL     1      31.114  10.899 -17.906  1.00  0.00    -0.000 C 
BRANCH  17  18
ATOM     18  C   UNL     1      30.918   9.526 -18.566  1.00  0.00    -0.000 C 
BRANCH  18  19
ATOM     19  C   UNL     1      30.644   8.445 -17.513  1.00  0.00    -0.003 C 
ATOM     20  C   UNL     1      29.283   8.648 -16.855  1.00  0.00     0.004 C 
ENDBRANCH  18  19
ENDBRANCH  17  18
ENDBRANCH  16  17
ENDBRANCH  15  16
ENDBRANCH  14  15
ENDBRANCH  13  14
ENDBRANCH   2  13
TORSDOF 15
ENDMDL
MODEL 7
REMARK VINA RESULT:    -4.199     15.768     17.576
REMARK INTER + INTRA:         -10.012
REMARK INTER:                  -7.408
REMARK INTRA:                  -2.603
REMARK UNBOUND:                -2.130
REMARK SMILES CCCCCCCCC=CCCCCCCCC(=O)[O-]
REMARK SMILES IDX 10 1 9 2 11 3 12 4 13 5 14 6 15 7 16 8 17 9 18 10 19 11
REMARK SMILES IDX 20 12 8 13 7 14 6 15 5 16 4 17 3 18 2 19 1 20
REMARK H PARENT
REMARK Flexibility Score: inf
ROOT
ATOM      1  C   UNL     1      16.114  -0.189 -11.639  1.00  0.00    -0.031 C 
ATOM      2  C   UNL     1      16.569  -1.449 -11.577  1.00  0.00    -0.031 C 
ENDROOT
BRANCH   1   3
ATOM      3  C   UNL     1      14.674   0.117 -11.949  1.00  0.00     0.027 C 
BRANCH   3   4
ATOM      4  C   UNL     1      14.067  -0.858 -12.973  1.00  0.00     0.004 C 
BRANCH   4   5
ATOM      5  C   UNL     1      14.505  -0.603 -14.429  1.00  0.00     0.000 C 
BRANCH   5   6
ATOM      6  C   UNL     1      15.508  -1.628 -14.997  1.00  0.00     0.000 C 
BRANCH   6   7
ATOM      7  C   UNL     1      16.821  -1.028 -15.531  1.00  0.00     0.000 C 
BRANCH   7   8
ATOM      8  C   UNL     1      16.922   0.488 -15.308  1.00  0.00     0.006 C 
BRANCH   8   9
ATOM      9  C   UNL     1      17.455   1.195 -16.558  1.00  0.00     0.053 C 
BRANCH   9  10
ATOM     10  C   UNL     1      16.367   1.978 -17.222  1.00  0.00     0.041 C 
ATOM     11  O   UNL     1      15.180   1.562 -17.192  1.00  0.00    -0.550 OA
ATOM     12  O   UNL     1      16.657   3.190 -17.837  1.00  0.00    -0.550 OA
ENDBRANCH   9  10
ENDBRANCH   8   9
ENDBRANCH   7   8
ENDBRANCH   6   7
ENDBRANCH   5   6
ENDBRANCH   4   5
ENDBRANCH   3   4
ENDBRANCH   1   3
BRANCH   2  13
ATOM     13  C   UNL     1      18.014  -1.728 -11.260  1.00  0.00     0.027 C 
BRANCH  13  14
ATOM     14  C   UNL     1      18.866  -1.923 -12.525  1.00  0.00     0.004 C 
BRANCH  14  15
ATOM     15  C   UNL     1      20.124  -1.037 -12.579  1.00  0.00     0.000 C 
BRANCH  15  16
ATOM     16  C   UNL     1      20.246  -0.260 -13.902  1.00  0.00     0.000 C 
BRANCH  16  17
ATOM     17  C   UNL     1      20.507  -1.183 -15.104  1.00  0.00    -0.000 C 
BRANCH  17  18
ATOM     18  C   UNL     1      20.849  -0.406 -16.384  1.00  0.00    -0.000 C 
BRANCH  18  19
ATOM     19  C   UNL     1      20.846  -1.333 -17.607  1.00  0.00    -0.003 C 
ATOM     20  C   UNL     1      19.478  -1.351 -18.281  1.00  0.00     0.004 C 
ENDBRANCH  18  19
ENDBRANCH  17  18
ENDBRANCH  16  17
ENDBRANCH  15  16
ENDBRANCH  14  15
ENDBRANCH  13  14
ENDBRANCH   2  13
TORSDOF 15
ENDMDL
MODEL 8
REMARK VINA RESULT:    -4.184      2.688      6.823
REMARK INTER + INTRA:          -9.983
REMARK INTER:                  -8.032
REMARK INTRA:                  -1.951
REMARK UNBOUND:                -2.130
REMARK SMILES CCCCCCCCC=CCCCCCCCC(=O)[O-]
REMARK SMILES IDX 10 1 9 2 11 3 12 4 13 5 14 6 15 7 16 8 17 9 18 10 19 11
REMARK SMILES IDX 20 12 8 13 7 14 6 15 5 16 4 17 3 18 2 19 1 20
REMARK H PARENT
REMARK Flexibility Score: inf
ROOT
ATOM      1  C   UNL     1      30.412  12.948 -17.560  1.00  0.00    -0.031 C 
ATOM      2  C   UNL     1      29.590  13.950 -17.906  1.00  0.00    -0.031 C 
ENDROOT
BRANCH   1   3
ATOM      3  C   UNL     1      30.366  11.612 -18.253  1.00  0.00     0.027 C 
BRANCH   3   4
ATOM      4  C   UNL     1      30.399  10.431 -17.267  1.00  0.00     0.004 C 
BRANCH   4   5
ATOM      5  C   UNL     1      29.565  10.648 -15.988  1.00  0.00     0.000 C 
BRANCH   5   6
ATOM      6  C   UNL     1      30.226  10.150 -14.687  1.00  0.00     0.000 C 
BRANCH   6   7
ATOM      7  C   UNL     1      29.348  10.255 -13.427  1.00  0.00     0.000 C 
BRANCH   7   8
ATOM      8  C   UNL     1      30.079   9.816 -12.149  1.00  0.00     0.006 C 
BRANCH   8   9
ATOM      9  C   UNL     1      29.386  10.368 -10.900  1.00  0.00     0.053 C 
BRANCH   9  10
ATOM     10  C   UNL     1      30.309  11.269 -10.143  1.00  0.00     0.041 C 
ATOM     11  O   UNL     1      30.604  12.403 -10.603  1.00  0.00    -0.550 OA
ATOM     12  O   UNL     1      30.810  10.875  -8.908  1.00  0.00    -0.550 OA
ENDBRANCH   9  10
ENDBRANCH   8   9
ENDBRANCH   7   8
ENDBRANCH   6   7
ENDBRANCH   5   6
ENDBRANCH   4   5
ENDBRANCH   3   4
ENDBRANCH   1   3
BRANCH   2  13
ATOM     13  C   UNL     1      29.661  15.277 -17.200  1.00  0.00     0.027 C 
BRANCH  13  14
ATOM     14  C   UNL     1      30.492  15.212 -15.907  1.00  0.00     0.004 C 
BRANCH  14  15
ATOM     15  C   UNL     1      29.650  15.226 -14.618  1.00  0.00     0.000 C 
BRANCH  15  16
ATOM     16  C   UNL     1      29.558  13.839 -13.955  1.00  0.00     0.000 C 
BRANCH  16  17
ATOM     17  C   UNL     1      28.139  13.518 -13.457  1.00  0.00    -0.000 C 
BRANCH  17  18
ATOM     18  C   UNL     1      27.880  14.033 -12.033  1.00  0.00    -0.000 C 
BRANCH  18  19
ATOM     19  C   UNL     1      26.853  13.154 -11.309  1.00  0.00    -0.003 C 
ATOM     20  C   UNL     1      25.722  13.993 -10.724  1.00  0.00     0.004 C 
ENDBRANCH  18  19
ENDBRANCH  17  18
ENDBRANCH  16  17
ENDBRANCH  15  16
ENDBRANCH  14  15
ENDBRANCH  13  14
ENDBRANCH   2  13
TORSDOF 15
ENDMDL
MODEL 9
REMARK VINA RESULT:    -4.130      2.524      6.511
REMARK INTER + INTRA:          -9.881
REMARK INTER:                  -8.145
REMARK INTRA:                  -1.736
REMARK UNBOUND:                -2.130
REMARK SMILES CCCCCCCCC=CCCCCCCCC(=O)[O-]
REMARK SMILES IDX 10 1 9 2 11 3 12 4 13 5 14 6 15 7 16 8 17 9 18 10 19 11
REMARK SMILES IDX 20 12 8 13 7 14 6 15 5 16 4 17 3 18 2 19 1 20
REMARK H PARENT
REMARK Flexibility Score: inf
ROOT
ATOM      1  C   UNL     1      29.639   9.698 -15.305  1.00  0.00    -0.031 C 
ATOM      2  C   UNL     1      30.490  10.234 -16.193  1.00  0.00    -0.031 C 
ENDROOT
BRANCH   1   3
ATOM      3  C   UNL     1      29.513  10.237 -13.906  1.00  0.00     0.027 C 
BRANCH   3   4
ATOM      4  C   UNL     1      29.234   9.135 -12.868  1.00  0.00     0.004 C 
BRANCH   4   5
ATOM      5  C   UNL     1      29.996   9.308 -11.539  1.00  0.00     0.000 C 
BRANCH   5   6
ATOM      6  C   UNL     1      29.262  10.143 -10.470  1.00  0.00     0.000 C 
BRANCH   6   7
ATOM      7  C   UNL     1      29.061  11.627 -10.827  1.00  0.00     0.000 C 
BRANCH   7   8
ATOM      8  C   UNL     1      27.581  12.010 -10.981  1.00  0.00     0.006 C 
BRANCH   8   9
ATOM      9  C   UNL     1      27.433  13.372 -11.667  1.00  0.00     0.053 C 
BRANCH   9  10
ATOM     10  C   UNL     1      26.092  13.964 -11.372  1.00  0.00     0.041 C 
ATOM     11  O   UNL     1      25.424  14.505 -12.291  1.00  0.00    -0.550 OA
ATOM     12  O   UNL     1      25.560  13.881 -10.091  1.00  0.00    -0.550 OA
ENDBRANCH   9  10
ENDBRANCH   8   9
ENDBRANCH   7   8
ENDBRANCH   6   7
ENDBRANCH   5   6
ENDBRANCH   4   5
ENDBRANCH   3   4
ENDBRANCH   1   3
BRANCH   2  13
ATOM     13  C   UNL     1      30.593   9.678 -17.588  1.00  0.00     0.027 C 
BRANCH  13  14
ATOM     14  C   UNL     1      30.711  10.781 -18.653  1.00  0.00     0.004 C 
BRANCH  14  15
ATOM     15  C   UNL     1      30.765  12.208 -18.076  1.00  0.00     0.000 C 
BRANCH  15  16
ATOM     16  C   UNL     1      29.636  13.107 -18.610  1.00  0.00     0.000 C 
BRANCH  16  17
ATOM     17  C   UNL     1      28.888  13.843 -17.485  1.00  0.00    -0.000 C 
BRANCH  17  18
ATOM     18  C   UNL     1      29.811  14.245 -16.325  1.00  0.00    -0.000 C 
BRANCH  18  19
ATOM     19  C   UNL     1      29.291  13.690 -14.993  1.00  0.00    -0.003 C 
ATOM     20  C   UNL     1      30.438  13.394 -14.032  1.00  0.00     0.004 C 
ENDBRANCH  18  19
ENDBRANCH  17  18
ENDBRANCH  16  17
ENDBRANCH  15  16
ENDBRANCH  14  15
ENDBRANCH  13  14
ENDBRANCH   2  13
TORSDOF 15
ENDMDL
