MODEL 1
REMARK VINA RESULT:    -5.482      0.000      0.000
REMARK INTER + INTRA:         -10.899
REMARK INTER:                  -9.327
REMARK INTRA:                  -1.572
REMARK UNBOUND:                -1.572
REMARK SMILES CCCCCCCCCCCCCC(=O)[O-]
REMARK SMILES IDX 8 1 9 2 10 3 11 4 12 5 13 6 14 7 15 8 16 9 7 10 6 11 5 12
REMARK SMILES IDX 4 13 3 14 2 15 1 16
REMARK H PARENT
REMARK Flexibility Score: inf
ROOT
ATOM      1  C   UNL     1      93.258  -4.026   7.966  1.00  0.00     0.000 C 
ENDROOT
BRANCH   1   2
ATOM      2  C   UNL     1      93.540  -2.518   7.850  1.00  0.00     0.000 C 
BRANCH   2   3
ATOM      3  C   UNL     1      92.750  -1.857   6.708  1.00  0.00     0.000 C 
BRANCH   3   4
ATOM      4  C   UNL     1      91.249  -2.200   6.740  1.00  0.00     0.000 C 
BRANCH   4   5
ATOM      5  C   UNL     1      90.652  -2.645   5.393  1.00  0.00     0.006 C 
BRANCH   5   6
ATOM      6  C   UNL     1      89.645  -3.795   5.533  1.00  0.00     0.053 C 
BRANCH   6   7
ATOM      7  C   UNL     1      90.349  -5.063   5.899  1.00  0.00     0.041 C 
ATOM      8  O   UNL     1      91.167  -5.587   5.098  1.00  0.00    -0.550 OA
ATOM      9  O   UNL     1      90.138  -5.641   7.144  1.00  0.00    -0.550 OA
ENDBRANCH   6   7
ENDBRANCH   5   6
ENDBRANCH   4   5
ENDBRANCH   3   4
ENDBRANCH   2   3
ENDBRANCH   1   2
BRANCH   1  10
ATOM     10  C   UNL     1      93.304  -4.527   9.418  1.00  0.00     0.000 C 
BRANCH  10  11
ATOM     11  C   UNL     1      94.293  -3.705  10.251  1.00  0.00    -0.000 C 
BRANCH  11  12
ATOM     12  C   UNL     1      95.351  -4.606  10.900  1.00  0.00    -0.000 C 
BRANCH  12  13
ATOM     13  C   UNL     1      96.767  -4.148  10.530  1.00  0.00    -0.000 C 
BRANCH  13  14
ATOM     14  C   UNL     1      96.726  -2.869   9.680  1.00  0.00    -0.000 C 
BRANCH  14  15
ATOM     15  C   UNL     1      97.431  -3.038   8.325  1.00  0.00    -0.003 C 
ATOM     16  C   UNL     1      96.917  -4.244   7.538  1.00  0.00     0.004 C 
ENDBRANCH  14  15
ENDBRANCH  13  14
ENDBRANCH  12  13
ENDBRANCH  11  12
ENDBRANCH  10  11
ENDBRANCH   1  10
TORSDOF 12
ENDMDL
MODEL 2
REMARK VINA RESULT:    -5.476     12.692     14.667
REMARK INTER + INTRA:         -10.889
REMARK INTER:                  -9.964
REMARK INTRA:                  -0.925
REMARK UNBOUND:                -1.572
REMARK SMILES CCCCCCCCCCCCCC(=O)[O-]
REMARK SMILES IDX 8 1 9 2 10 3 11 4 12 5 13 6 14 7 15 8 16 9 7 10 6 11 5 12
REMARK SMILES IDX 4 13 3 14 2 15 1 16
REMARK H PARENT
REMARK Flexibility Score: inf
ROOT
ATOM      1  C   UNL     1      94.118  -7.904  -3.759  1.00  0.00     0.000 C 
ENDROOT
BRANCH   1   2
ATOM      2  C   UNL     1      94.148  -8.366  -5.225  1.00  0.00     0.000 C 
BRANCH   2   3
ATOM      3  C   UNL     1      94.404  -7.208  -6.204  1.00  0.00     0.000 C 
BRANCH   3   4
ATOM      4  C   UNL     1      95.895  -7.033  -6.548  1.00  0.00     0.000 C 
BRANCH   4   5
ATOM      5  C   UNL     1      96.356  -5.576  -6.732  1.00  0.00     0.006 C 
BRANCH   5   6
ATOM      6  C   UNL     1      96.816  -4.922  -5.422  1.00  0.00     0.053 C 
BRANCH   6   7
ATOM      7  C   UNL     1      96.866  -3.434  -5.571  1.00  0.00     0.041 C 
ATOM      8  O   UNL     1      97.839  -2.784  -5.104  1.00  0.00    -0.550 OA
ATOM      9  O   UNL     1      95.865  -2.771  -6.267  1.00  0.00    -0.550 OA
ENDBRANCH   6   7
ENDBRANCH   5   6
ENDBRANCH   4   5
ENDBRANCH   3   4
ENDBRANCH   2   3
ENDBRANCH   1   2
BRANCH   1  10
ATOM     10  C   UNL     1      93.082  -8.666  -2.917  1.00  0.00     0.000 C 
BRANCH  10  11
ATOM     11  C   UNL     1      91.924  -9.161  -3.791  1.00  0.00    -0.000 C 
BRANCH  11  12
ATOM     12  C   UNL     1      90.574  -8.690  -3.237  1.00  0.00    -0.000 C 
BRANCH  12  13
ATOM     13  C   UNL     1      89.563  -8.464  -4.368  1.00  0.00    -0.000 C 
BRANCH  13  14
ATOM     14  C   UNL     1      90.229  -7.783  -5.573  1.00  0.00    -0.000 C 
BRANCH  14  15
ATOM     15  C   UNL     1      89.410  -6.598  -6.107  1.00  0.00    -0.003 C 
ATOM     16  C   UNL     1      88.554  -5.935  -5.027  1.00  0.00     0.004 C 
ENDBRANCH  14  15
ENDBRANCH  13  14
ENDBRANCH  12  13
ENDBRANCH  11  12
ENDBRANCH  10  11
ENDBRANCH   1  10
TORSDOF 12
ENDMDL
MODEL 3
REMARK VINA RESULT:    -5.456     12.425     13.763
REMARK INTER + INTRA:         -10.855
REMARK INTER:                 -10.207
REMARK INTRA:                  -0.648
REMARK UNBOUND:                -1.572
REMARK SMILES CCCCCCCCCCCCCC(=O)[O-]
REMARK SMILES IDX 8 1 9 2 10 3 11 4 12 5 13 6 14 7 15 8 16 9 7 10 6 11 5 12
REMARK SMILES IDX 4 13 3 14 2 15 1 16
REMARK H PARENT
REMARK Flexibility Score: inf
ROOT
ATOM      1  C   UNL     1      92.458  -8.628  -2.957  1.00  0.00     0.000 C 
ENDROOT
BRANCH   1   2
ATOM      2  C   UNL     1      91.566  -9.077  -4.127  1.00  0.00     0.000 C 
BRANCH   2   3
ATOM      3  C   UNL     1      90.073  -9.095  -3.758  1.00  0.00     0.000 C 
BRANCH   3   4
ATOM      4  C   UNL     1      89.162  -8.673  -4.926  1.00  0.00     0.000 C 
BRANCH   4   5
ATOM      5  C   UNL     1      89.614  -7.411  -5.683  1.00  0.00     0.006 C 
BRANCH   5   6
ATOM      6  C   UNL     1      88.446  -6.635  -6.306  1.00  0.00     0.053 C 
BRANCH   6   7
ATOM      7  C   UNL     1      88.503  -5.195  -5.904  1.00  0.00     0.041 C 
ATOM      8  O   UNL     1      88.405  -4.871  -4.691  1.00  0.00    -0.550 OA
ATOM      9  O   UNL     1      88.712  -4.214  -6.864  1.00  0.00    -0.550 OA
ENDBRANCH   6   7
ENDBRANCH   5   6
ENDBRANCH   4   5
ENDBRANCH   3   4
ENDBRANCH   2   3
ENDBRANCH   1   2
BRANCH   1  10
ATOM     10  C   UNL     1      93.936  -8.493  -3.355  1.00  0.00     0.000 C 
BRANCH  10  11
ATOM     11  C   UNL     1      94.071  -7.985  -4.795  1.00  0.00    -0.000 C 
BRANCH  11  12
ATOM     12  C   UNL     1      95.319  -7.108  -4.955  1.00  0.00    -0.000 C 
BRANCH  12  13
ATOM     13  C   UNL     1      95.604  -6.821  -6.435  1.00  0.00    -0.000 C 
BRANCH  13  14
ATOM     14  C   UNL     1      96.368  -5.499  -6.601  1.00  0.00    -0.000 C 
BRANCH  14  15
ATOM     15  C   UNL     1      96.826  -4.909  -5.258  1.00  0.00    -0.003 C 
ATOM     16  C   UNL     1      97.073  -3.402  -5.329  1.00  0.00     0.004 C 
ENDBRANCH  14  15
ENDBRANCH  13  14
ENDBRANCH  12  13
ENDBRANCH  11  12
ENDBRANCH  10  11
ENDBRANCH   1  10
TORSDOF 12
ENDMDL
MODEL 4
REMARK VINA RESULT:    -5.393     10.476     13.771
REMARK INTER + INTRA:         -10.748
REMARK INTER:                  -9.326
REMARK INTRA:                  -1.422
REMARK UNBOUND:                -1.572
REMARK SMILES CCCCCCCCCCCCCC(=O)[O-]
REMARK SMILES IDX 8 1 9 2 10 3 11 4 12 5 13 6 14 7 15 8 16 9 7 10 6 11 5 12
REMARK SMILES IDX 4 13 3 14 2 15 1 16
REMARK H PARENT
REMARK Flexibility Score: inf
ROOT
ATOM      1  C   UNL     1      81.855  -1.119   0.447  1.00  0.00     0.000 C 
ENDROOT
BRANCH   1   2
ATOM      2  C   UNL     1      83.274  -0.532   0.361  1.00  0.00     0.000 C 
BRANCH   2   3
ATOM      3  C   UNL     1      83.316   0.796  -0.414  1.00  0.00     0.000 C 
BRANCH   3   4
ATOM      4  C   UNL     1      81.942   1.486  -0.496  1.00  0.00     0.000 C 
BRANCH   4   5
ATOM      5  C   UNL     1      81.798   2.759   0.359  1.00  0.00     0.006 C 
BRANCH   5   6
ATOM      6  C   UNL     1      80.769   2.610   1.487  1.00  0.00     0.053 C 
BRANCH   6   7
ATOM      7  C   UNL     1      81.458   2.394   2.797  1.00  0.00     0.041 C 
ATOM      8  O   UNL     1      82.105   1.334   3.005  1.00  0.00    -0.550 OA
ATOM      9  O   UNL     1      81.425   3.383   3.771  1.00  0.00    -0.550 OA
ENDBRANCH   6   7
ENDBRANCH   5   6
ENDBRANCH   4   5
ENDBRANCH   3   4
ENDBRANCH   2   3
ENDBRANCH   1   2
BRANCH   1  10
ATOM     10  C   UNL     1      81.700  -2.416  -0.363  1.00  0.00     0.000 C 
BRANCH  10  11
ATOM     11  C   UNL     1      81.414  -3.607   0.558  1.00  0.00    -0.000 C 
BRANCH  11  12
ATOM     12  C   UNL     1      80.905  -3.136   1.926  1.00  0.00    -0.000 C 
BRANCH  12  13
ATOM     13  C   UNL     1      81.763  -3.711   3.060  1.00  0.00    -0.000 C 
BRANCH  13  14
ATOM     14  C   UNL     1      83.239  -3.794   2.645  1.00  0.00    -0.000 C 
BRANCH  14  15
ATOM     15  C   UNL     1      84.086  -2.662   3.246  1.00  0.00    -0.003 C 
ATOM     16  C   UNL     1      85.534  -2.684   2.757  1.00  0.00     0.004 C 
ENDBRANCH  14  15
ENDBRANCH  13  14
ENDBRANCH  12  13
ENDBRANCH  11  12
ENDBRANCH  10  11
ENDBRANCH   1  10
TORSDOF 12
ENDMDL
MODEL 5
REMARK VINA RESULT:    -5.368      2.915      6.918
REMARK INTER + INTRA:         -10.706
REMARK INTER:                  -9.644
REMARK INTRA:                  -1.062
REMARK UNBOUND:                -1.572
REMARK SMILES CCCCCCCCCCCCCC(=O)[O-]
REMARK SMILES IDX 8 1 9 2 10 3 11 4 12 5 13 6 14 7 15 8 16 9 7 10 6 11 5 12
REMARK SMILES IDX 4 13 3 14 2 15 1 16
REMARK H PARENT
REMARK Flexibility Score: inf
ROOT
ATOM      1  C   UNL     1      92.495  -2.532   7.371  1.00  0.00     0.000 C 
ENDROOT
BRANCH   1   2
ATOM      2  C   UNL     1      93.752  -3.047   8.092  1.00  0.00     0.000 C 
BRANCH   2   3
ATOM      3  C   UNL     1      93.435  -4.150   9.115  1.00  0.00     0.000 C 
BRANCH   3   4
ATOM      4  C   UNL     1      94.211  -3.984  10.435  1.00  0.00     0.000 C 
BRANCH   4   5
ATOM      5  C   UNL     1      95.316  -5.029  10.678  1.00  0.00     0.006 C 
BRANCH   5   6
ATOM      6  C   UNL     1      96.679  -4.398  10.992  1.00  0.00     0.053 C 
BRANCH   6   7
ATOM      7  C   UNL     1      96.993  -3.318  10.006  1.00  0.00     0.041 C 
ATOM      8  O   UNL     1      97.059  -2.117  10.381  1.00  0.00    -0.550 OA
ATOM      9  O   UNL     1      97.262  -3.641   8.682  1.00  0.00    -0.550 OA
ENDBRANCH   6   7
ENDBRANCH   5   6
ENDBRANCH   4   5
ENDBRANCH   3   4
ENDBRANCH   2   3
ENDBRANCH   1   2
BRANCH   1  10
ATOM     10  C   UNL     1      92.763  -1.267   6.540  1.00  0.00     0.000 C 
BRANCH  10  11
ATOM     11  C   UNL     1      91.468  -0.737   5.915  1.00  0.00    -0.000 C 
BRANCH  11  12
ATOM     12  C   UNL     1      90.745  -1.837   5.128  1.00  0.00    -0.000 C 
BRANCH  12  13
ATOM     13  C   UNL     1      89.256  -1.885   5.491  1.00  0.00    -0.000 C 
BRANCH  13  14
ATOM     14  C   UNL     1      88.839  -3.302   5.914  1.00  0.00    -0.000 C 
BRANCH  14  15
ATOM     15  C   UNL     1      89.917  -4.351   5.605  1.00  0.00    -0.003 C 
ATOM     16  C   UNL     1      90.109  -5.354   6.742  1.00  0.00     0.004 C 
ENDBRANCH  14  15
ENDBRANCH  13  14
ENDBRANCH  12  13
ENDBRANCH  11  12
ENDBRANCH  10  11
ENDBRANCH   1  10
TORSDOF 12
ENDMDL
MODEL 6
REMARK VINA RESULT:    -5.324      7.231      9.659
REMARK INTER + INTRA:         -10.631
REMARK INTER:                  -9.362
REMARK INTRA:                  -1.269
REMARK UNBOUND:                -1.572
REMARK SMILES CCCCCCCCCCCCCC(=O)[O-]
REMARK SMILES IDX 8 1 9 2 10 3 11 4 12 5 13 6 14 7 15 8 16 9 7 10 6 11 5 12
REMARK SMILES IDX 4 13 3 14 2 15 1 16
REMARK H PARENT
REMARK Flexibility Score: inf
ROOT
ATOM      1  C   UNL     1      87.250  -2.171   1.658  1.00  0.00     0.000 C 
ENDROOT
BRANCH   1   2
ATOM      2  C   UNL     1      86.273  -2.673   2.735  1.00  0.00     0.000 C 
BRANCH   2   3
ATOM      3  C   UNL     1      84.811  -2.316   2.418  1.00  0.00     0.000 C 
BRANCH   3   4
ATOM      4  C   UNL     1      83.804  -3.054   3.320  1.00  0.00     0.000 C 
BRANCH   4   5
ATOM      5  C   UNL     1      82.765  -3.912   2.575  1.00  0.00     0.006 C 
BRANCH   5   6
ATOM      6  C   UNL     1      81.391  -3.237   2.477  1.00  0.00     0.053 C 
BRANCH   6   7
ATOM      7  C   UNL     1      81.222  -2.586   1.140  1.00  0.00     0.041 C 
ATOM      8  O   UNL     1      81.346  -1.339   1.023  1.00  0.00    -0.550 OA
ATOM      9  O   UNL     1      80.976  -3.363   0.016  1.00  0.00    -0.550 OA
ENDBRANCH   6   7
ENDBRANCH   5   6
ENDBRANCH   4   5
ENDBRANCH   3   4
ENDBRANCH   2   3
ENDBRANCH   1   2
BRANCH   1  10
ATOM     10  C   UNL     1      88.698  -2.615   1.918  1.00  0.00     0.000 C 
BRANCH  10  11
ATOM     11  C   UNL     1      89.243  -1.981   3.203  1.00  0.00    -0.000 C 
BRANCH  11  12
ATOM     12  C   UNL     1      89.694  -3.055   4.200  1.00  0.00    -0.000 C 
BRANCH  12  13
ATOM     13  C   UNL     1      88.775  -3.090   5.427  1.00  0.00    -0.000 C 
BRANCH  13  14
ATOM     14  C   UNL     1      88.293  -1.678   5.792  1.00  0.00    -0.000 C 
BRANCH  14  15
ATOM     15  C   UNL     1      86.833  -1.658   6.272  1.00  0.00    -0.003 C 
ATOM     16  C   UNL     1      86.242  -3.060   6.424  1.00  0.00     0.004 C 
ENDBRANCH  14  15
ENDBRANCH  13  14
ENDBRANCH  12  13
ENDBRANCH  11  12
ENDBRANCH  10  11
ENDBRANCH   1  10
TORSDOF 12
ENDMDL
MODEL 7
REMARK VINA RESULT:    -5.308     12.417     14.190
REMARK INTER + INTRA:         -10.603
REMARK INTER:                  -9.220
REMARK INTRA:                  -1.383
REMARK UNBOUND:                -1.572
REMARK SMILES CCCCCCCCCCCCCC(=O)[O-]
REMARK SMILES IDX 8 1 9 2 10 3 11 4 12 5 13 6 14 7 15 8 16 9 7 10 6 11 5 12
REMARK SMILES IDX 4 13 3 14 2 15 1 16
REMARK H PARENT
REMARK Flexibility Score: inf
ROOT
ATOM      1  C   UNL     1      83.810  -0.048   0.389  1.00  0.00     0.000 C 
ENDROOT
BRANCH   1   2
ATOM      2  C   UNL     1      82.374   0.149  -0.122  1.00  0.00     0.000 C 
BRANCH   2   3
ATOM      3  C   UNL     1      82.014   1.633  -0.314  1.00  0.00     0.000 C 
BRANCH   3   4
ATOM      4  C   UNL     1      80.997   2.142   0.725  1.00  0.00     0.000 C 
BRANCH   4   5
ATOM      5  C   UNL     1      81.609   2.872   1.934  1.00  0.00     0.006 C 
BRANCH   5   6
ATOM      6  C   UNL     1      81.753   1.971   3.168  1.00  0.00     0.053 C 
BRANCH   6   7
ATOM      7  C   UNL     1      81.551   2.765   4.420  1.00  0.00     0.041 C 
ATOM      8  O   UNL     1      80.527   2.581   5.130  1.00  0.00    -0.550 OA
ATOM      9  O   UNL     1      82.517   3.675   4.830  1.00  0.00    -0.550 OA
ENDBRANCH   6   7
ENDBRANCH   5   6
ENDBRANCH   4   5
ENDBRANCH   3   4
ENDBRANCH   2   3
ENDBRANCH   1   2
BRANCH   1  10
ATOM     10  C   UNL     1      83.985  -1.356   1.177  1.00  0.00     0.000 C 
BRANCH  10  11
ATOM     11  C   UNL     1      82.975  -1.441   2.328  1.00  0.00    -0.000 C 
BRANCH  11  12
ATOM     12  C   UNL     1      82.876  -2.872   2.870  1.00  0.00    -0.000 C 
BRANCH  12  13
ATOM     13  C   UNL     1      81.420  -3.355   2.888  1.00  0.00    -0.000 C 
BRANCH  13  14
ATOM     14  C   UNL     1      80.735  -3.085   1.540  1.00  0.00    -0.000 C 
BRANCH  14  15
ATOM     15  C   UNL     1      81.268  -3.988   0.416  1.00  0.00    -0.003 C 
ATOM     16  C   UNL     1      81.614  -3.209  -0.853  1.00  0.00     0.004 C 
ENDBRANCH  14  15
ENDBRANCH  13  14
ENDBRANCH  12  13
ENDBRANCH  11  12
ENDBRANCH  10  11
ENDBRANCH   1  10
TORSDOF 12
ENDMDL
MODEL 8
REMARK VINA RESULT:    -5.297      6.863     11.852
REMARK INTER + INTRA:         -10.585
REMARK INTER:                  -9.315
REMARK INTRA:                  -1.271
REMARK UNBOUND:                -1.572
REMARK SMILES CCCCCCCCCCCCCC(=O)[O-]
REMARK SMILES IDX 8 1 9 2 10 3 11 4 12 5 13 6 14 7 15 8 16 9 7 10 6 11 5 12
REMARK SMILES IDX 4 13 3 14 2 15 1 16
REMARK H PARENT
REMARK Flexibility Score: inf
ROOT
ATOM      1  C   UNL     1      84.147  -3.416   2.703  1.00  0.00     0.000 C 
ENDROOT
BRANCH   1   2
ATOM      2  C   UNL     1      85.287  -2.557   3.276  1.00  0.00     0.000 C 
BRANCH   2   3
ATOM      3  C   UNL     1      86.519  -2.521   2.356  1.00  0.00     0.000 C 
BRANCH   3   4
ATOM      4  C   UNL     1      87.820  -2.189   3.109  1.00  0.00     0.000 C 
BRANCH   4   5
ATOM      5  C   UNL     1      87.954  -2.838   4.498  1.00  0.00     0.006 C 
BRANCH   5   6
ATOM      6  C   UNL     1      88.234  -1.820   5.612  1.00  0.00     0.053 C 
BRANCH   6   7
ATOM      7  C   UNL     1      86.986  -1.541   6.390  1.00  0.00     0.041 C 
ATOM      8  O   UNL     1      86.245  -2.490   6.759  1.00  0.00    -0.550 OA
ATOM      9  O   UNL     1      86.668  -0.238   6.748  1.00  0.00    -0.550 OA
ENDBRANCH   6   7
ENDBRANCH   5   6
ENDBRANCH   4   5
ENDBRANCH   3   4
ENDBRANCH   2   3
ENDBRANCH   1   2
BRANCH   1  10
ATOM     10  C   UNL     1      82.940  -3.508   3.651  1.00  0.00     0.000 C 
BRANCH  10  11
ATOM     11  C   UNL     1      81.626  -3.531   2.863  1.00  0.00    -0.000 C 
BRANCH  11  12
ATOM     12  C   UNL     1      81.801  -4.247   1.518  1.00  0.00    -0.000 C 
BRANCH  12  13
ATOM     13  C   UNL     1      81.250  -3.397   0.366  1.00  0.00    -0.000 C 
BRANCH  13  14
ATOM     14  C   UNL     1      81.147  -1.920   0.773  1.00  0.00    -0.000 C 
BRANCH  14  15
ATOM     15  C   UNL     1      82.171  -1.034   0.046  1.00  0.00    -0.003 C 
ATOM     16  C   UNL     1      83.164  -0.372   1.001  1.00  0.00     0.004 C 
ENDBRANCH  14  15
ENDBRANCH  13  14
ENDBRANCH  12  13
ENDBRANCH  11  12
ENDBRANCH  10  11
ENDBRANCH   1  10
TORSDOF 12
ENDMDL
MODEL 9
REMARK VINA RESULT:    -5.284      8.419     11.298
REMARK INTER + INTRA:         -10.563
REMARK INTER:                  -9.196
REMARK INTRA:                  -1.367
REMARK UNBOUND:                -1.572
REMARK SMILES CCCCCCCCCCCCCC(=O)[O-]
REMARK SMILES IDX 8 1 9 2 10 3 11 4 12 5 13 6 14 7 15 8 16 9 7 10 6 11 5 12
REMARK SMILES IDX 4 13 3 14 2 15 1 16
REMARK H PARENT
REMARK Flexibility Score: inf
ROOT
ATOM      1  C   UNL     1      83.520  -3.426   3.658  1.00  0.00     0.000 C 
ENDROOT
BRANCH   1   2
ATOM      2  C   UNL     1      82.710  -3.847   2.420  1.00  0.00     0.000 C 
BRANCH   2   3
ATOM      3  C   UNL     1      81.302  -3.227   2.398  1.00  0.00     0.000 C 
BRANCH   3   4
ATOM      4  C   UNL     1      80.985  -2.507   1.074  1.00  0.00     0.000 C 
BRANCH   4   5
ATOM      5  C   UNL     1      82.183  -1.802   0.411  1.00  0.00     0.006 C 
BRANCH   5   6
ATOM      6  C   UNL     1      82.470  -0.418   1.008  1.00  0.00     0.053 C 
BRANCH   6   7
ATOM      7  C   UNL     1      82.534   0.614  -0.073  1.00  0.00     0.041 C 
ATOM      8  O   UNL     1      82.535   0.264  -1.283  1.00  0.00    -0.550 OA
ATOM      9  O   UNL     1      82.545   1.963   0.254  1.00  0.00    -0.550 OA
ENDBRANCH   6   7
ENDBRANCH   5   6
ENDBRANCH   4   5
ENDBRANCH   3   4
ENDBRANCH   2   3
ENDBRANCH   1   2
BRANCH   1  10
ATOM     10  C   UNL     1      84.545  -2.324   3.348  1.00  0.00     0.000 C 
BRANCH  10  11
ATOM     11  C   UNL     1      85.580  -2.809   2.327  1.00  0.00    -0.000 C 
BRANCH  11  12
ATOM     12  C   UNL     1      86.989  -2.331   2.699  1.00  0.00    -0.000 C 
BRANCH  12  13
ATOM     13  C   UNL     1      87.410  -2.873   4.071  1.00  0.00    -0.000 C 
BRANCH  13  14
ATOM     14  C   UNL     1      87.736  -1.725   5.039  1.00  0.00    -0.000 C 
BRANCH  14  15
ATOM     15  C   UNL     1      86.843  -1.735   6.288  1.00  0.00    -0.003 C 
ATOM     16  C   UNL     1      86.244  -3.112   6.576  1.00  0.00     0.004 C 
ENDBRANCH  14  15
ENDBRANCH  13  14
ENDBRANCH  12  13
ENDBRANCH  11  12
ENDBRANCH  10  11
ENDBRANCH   1  10
TORSDOF 12
ENDMDL
