MODEL 1
REMARK VINA RESULT:    -3.143      0.000      0.000
REMARK INTER + INTRA:         -10.674
REMARK INTER:                  -6.819
REMARK INTRA:                  -3.855
REMARK UNBOUND:                -3.855
REMARK SMILES CCCCCCCCCCCCCCCCCCCCCC(=O)[O-]
REMARK SMILES IDX 12 1 11 2 10 3 9 4 8 5 7 6 6 7 5 8 4 9 3 10 2 11 1 12 13 13
REMARK SMILES IDX 14 14 15 15 16 16 17 17 18 18 19 19 20 20 21 21 22 22 23 23
REMARK SMILES IDX 24 24
REMARK H PARENT
REMARK Flexibility Score: inf
ROOT
ATOM      1  C   UNL     1      28.004  60.559  82.738  1.00  0.00     0.000 C 
ENDROOT
BRANCH   1   2
ATOM      2  C   UNL     1      27.238  61.369  83.795  1.00  0.00     0.000 C 
BRANCH   2   3
ATOM      3  C   UNL     1      25.789  60.876  83.987  1.00  0.00     0.000 C 
BRANCH   3   4
ATOM      4  C   UNL     1      24.725  61.967  83.762  1.00  0.00    -0.000 C 
BRANCH   4   5
ATOM      5  C   UNL     1      23.940  61.848  82.443  1.00  0.00    -0.000 C 
BRANCH   5   6
ATOM      6  C   UNL     1      24.427  62.768  81.304  1.00  0.00    -0.000 C 
BRANCH   6   7
ATOM      7  C   UNL     1      25.640  62.243  80.514  1.00  0.00    -0.000 C 
BRANCH   7   8
ATOM      8  C   UNL     1      25.373  60.891  79.835  1.00  0.00    -0.000 C 
BRANCH   8   9
ATOM      9  C   UNL     1      26.652  60.339  79.193  1.00  0.00    -0.000 C 
BRANCH   9  10
ATOM     10  C   UNL     1      27.692  61.451  78.993  1.00  0.00    -0.000 C 
BRANCH  10  11
ATOM     11  C   UNL     1      28.923  60.974  78.205  1.00  0.00    -0.003 C 
ATOM     12  C   UNL     1      28.839  59.500  77.810  1.00  0.00     0.004 C 
ENDBRANCH  10  11
ENDBRANCH   9  10
ENDBRANCH   8   9
ENDBRANCH   7   8
ENDBRANCH   6   7
ENDBRANCH   5   6
ENDBRANCH   4   5
ENDBRANCH   3   4
ENDBRANCH   2   3
ENDBRANCH   1   2
BRANCH   1  13
ATOM     13  C   UNL     1      27.420  59.145  82.599  1.00  0.00     0.000 C 
BRANCH  13  14
ATOM     14  C   UNL     1      28.329  58.181  81.811  1.00  0.00     0.000 C 
BRANCH  14  15
ATOM     15  C   UNL     1      29.668  58.776  81.325  1.00  0.00     0.000 C 
BRANCH  15  16
ATOM     16  C   UNL     1      30.924  58.036  81.840  1.00  0.00     0.000 C 
BRANCH  16  17
ATOM     17  C   UNL     1      30.653  57.116  83.042  1.00  0.00     0.000 C 
BRANCH  17  18
ATOM     18  C   UNL     1      31.008  57.768  84.387  1.00  0.00     0.000 C 
BRANCH  18  19
ATOM     19  C   UNL     1      29.895  57.600  85.435  1.00  0.00     0.000 C 
BRANCH  19  20
ATOM     20  C   UNL     1      29.330  58.948  85.916  1.00  0.00     0.006 C 
BRANCH  20  21
ATOM     21  C   UNL     1      27.896  58.817  86.446  1.00  0.00     0.053 C 
BRANCH  21  22
ATOM     22  C   UNL     1      27.628  59.778  87.565  1.00  0.00     0.041 C 
ATOM     23  O   UNL     1      26.965  59.411  88.570  1.00  0.00    -0.550 OA
ATOM     24  O   UNL     1      28.075  61.089  87.477  1.00  0.00    -0.550 OA
ENDBRANCH  21  22
ENDBRANCH  20  21
ENDBRANCH  19  20
ENDBRANCH  18  19
ENDBRANCH  17  18
ENDBRANCH  16  17
ENDBRANCH  15  16
ENDBRANCH  14  15
ENDBRANCH  13  14
ENDBRANCH   1  13
TORSDOF 20
ENDMDL
MODEL 2
REMARK VINA RESULT:    -3.082      1.287      2.310
REMARK INTER + INTRA:         -10.540
REMARK INTER:                  -7.203
REMARK INTRA:                  -3.338
REMARK UNBOUND:                -3.855
REMARK SMILES CCCCCCCCCCCCCCCCCCCCCC(=O)[O-]
REMARK SMILES IDX 12 1 11 2 10 3 9 4 8 5 7 6 6 7 5 8 4 9 3 10 2 11 1 12 13 13
REMARK SMILES IDX 14 14 15 15 16 16 17 17 18 18 19 19 20 20 21 21 22 22 23 23
REMARK SMILES IDX 24 24
REMARK H PARENT
REMARK Flexibility Score: inf
ROOT
ATOM      1  C   UNL     1      27.634  61.058  83.314  1.00  0.00     0.000 C 
ENDROOT
BRANCH   1   2
ATOM      2  C   UNL     1      27.287  61.900  82.076  1.00  0.00     0.000 C 
BRANCH   2   3
ATOM      3  C   UNL     1      25.973  61.452  81.401  1.00  0.00     0.000 C 
BRANCH   3   4
ATOM      4  C   UNL     1      25.349  62.520  80.485  1.00  0.00    -0.000 C 
BRANCH   4   5
ATOM      5  C   UNL     1      25.248  62.125  78.999  1.00  0.00    -0.000 C 
BRANCH   5   6
ATOM      6  C   UNL     1      26.206  61.001  78.553  1.00  0.00    -0.000 C 
BRANCH   6   7
ATOM      7  C   UNL     1      27.334  61.442  77.602  1.00  0.00    -0.000 C 
BRANCH   7   8
ATOM      8  C   UNL     1      28.724  60.983  78.067  1.00  0.00    -0.000 C 
BRANCH   8   9
ATOM      9  C   UNL     1      28.614  60.020  79.255  1.00  0.00    -0.000 C 
BRANCH   9  10
ATOM     10  C   UNL     1      29.623  58.870  79.128  1.00  0.00    -0.000 C 
BRANCH  10  11
ATOM     11  C   UNL     1      28.975  57.490  79.322  1.00  0.00    -0.003 C 
ATOM     12  C   UNL     1      27.465  57.570  79.543  1.00  0.00     0.004 C 
ENDBRANCH  10  11
ENDBRANCH   9  10
ENDBRANCH   8   9
ENDBRANCH   7   8
ENDBRANCH   6   7
ENDBRANCH   5   6
ENDBRANCH   4   5
ENDBRANCH   3   4
ENDBRANCH   2   3
ENDBRANCH   1   2
BRANCH   1  13
ATOM     13  C   UNL     1      27.132  59.615  83.155  1.00  0.00     0.000 C 
BRANCH  13  14
ATOM     14  C   UNL     1      28.269  58.581  83.033  1.00  0.00     0.000 C 
BRANCH  14  15
ATOM     15  C   UNL     1      29.668  59.162  82.733  1.00  0.00     0.000 C 
BRANCH  15  16
ATOM     16  C   UNL     1      30.840  58.204  83.046  1.00  0.00     0.000 C 
BRANCH  16  17
ATOM     17  C   UNL     1      30.551  57.223  84.193  1.00  0.00     0.000 C 
BRANCH  17  18
ATOM     18  C   UNL     1      30.818  57.827  85.581  1.00  0.00     0.000 C 
BRANCH  18  19
ATOM     19  C   UNL     1      29.956  57.185  86.680  1.00  0.00     0.000 C 
BRANCH  19  20
ATOM     20  C   UNL     1      28.678  57.991  86.973  1.00  0.00     0.006 C 
BRANCH  20  21
ATOM     21  C   UNL     1      28.845  59.480  86.640  1.00  0.00     0.053 C 
BRANCH  21  22
ATOM     22  C   UNL     1      27.986  60.344  87.512  1.00  0.00     0.041 C 
ATOM     23  O   UNL     1      27.092  59.827  88.233  1.00  0.00    -0.550 OA
ATOM     24  O   UNL     1      28.145  61.723  87.498  1.00  0.00    -0.550 OA
ENDBRANCH  21  22
ENDBRANCH  20  21
ENDBRANCH  19  20
ENDBRANCH  18  19
ENDBRANCH  17  18
ENDBRANCH  16  17
ENDBRANCH  15  16
ENDBRANCH  14  15
ENDBRANCH  13  14
ENDBRANCH   1  13
TORSDOF 20
ENDMDL
MODEL 3
REMARK VINA RESULT:    -3.048      2.600      6.166
REMARK INTER + INTRA:         -10.466
REMARK INTER:                  -7.148
REMARK INTRA:                  -3.318
REMARK UNBOUND:                -3.855
REMARK SMILES CCCCCCCCCCCCCCCCCCCCCC(=O)[O-]
REMARK SMILES IDX 12 1 11 2 10 3 9 4 8 5 7 6 6 7 5 8 4 9 3 10 2 11 1 12 13 13
REMARK SMILES IDX 14 14 15 15 16 16 17 17 18 18 19 19 20 20 21 21 22 22 23 23
REMARK SMILES IDX 24 24
REMARK H PARENT
REMARK Flexibility Score: inf
ROOT
ATOM      1  C   UNL     1      27.440  61.567  82.132  1.00  0.00     0.000 C 
ENDROOT
BRANCH   1   2
ATOM      2  C   UNL     1      27.156  61.386  83.632  1.00  0.00     0.000 C 
BRANCH   2   3
ATOM      3  C   UNL     1      25.740  60.839  83.907  1.00  0.00     0.000 C 
BRANCH   3   4
ATOM      4  C   UNL     1      25.723  59.400  84.452  1.00  0.00    -0.000 C 
BRANCH   4   5
ATOM      5  C   UNL     1      26.371  58.347  83.533  1.00  0.00    -0.000 C 
BRANCH   5   6
ATOM      6  C   UNL     1      26.766  57.026  84.226  1.00  0.00    -0.000 C 
BRANCH   6   7
ATOM      7  C   UNL     1      28.023  57.102  85.111  1.00  0.00    -0.000 C 
BRANCH   7   8
ATOM      8  C   UNL     1      27.696  57.220  86.607  1.00  0.00    -0.000 C 
BRANCH   8   9
ATOM      9  C   UNL     1      28.728  58.097  87.326  1.00  0.00    -0.000 C 
BRANCH   9  10
ATOM     10  C   UNL     1      28.696  59.537  86.791  1.00  0.00    -0.000 C 
BRANCH  10  11
ATOM     11  C   UNL     1      27.596  60.386  87.445  1.00  0.00    -0.003 C 
ATOM     12  C   UNL     1      28.024  61.835  87.676  1.00  0.00     0.004 C 
ENDBRANCH  10  11
ENDBRANCH   9  10
ENDBRANCH   8   9
ENDBRANCH   7   8
ENDBRANCH   6   7
ENDBRANCH   5   6
ENDBRANCH   4   5
ENDBRANCH   3   4
ENDBRANCH   2   3
ENDBRANCH   1   2
BRANCH   1  13
ATOM     13  C   UNL     1      26.177  61.305  81.298  1.00  0.00     0.000 C 
BRANCH  13  14
ATOM     14  C   UNL     1      26.477  60.806  79.871  1.00  0.00     0.000 C 
BRANCH  14  15
ATOM     15  C   UNL     1      27.433  61.693  79.043  1.00  0.00     0.000 C 
BRANCH  15  16
ATOM     16  C   UNL     1      28.680  60.958  78.501  1.00  0.00     0.000 C 
BRANCH  16  17
ATOM     17  C   UNL     1      28.466  59.452  78.279  1.00  0.00     0.000 C 
BRANCH  17  18
ATOM     18  C   UNL     1      29.458  58.583  79.067  1.00  0.00     0.000 C 
BRANCH  18  19
ATOM     19  C   UNL     1      28.846  58.010  80.356  1.00  0.00     0.000 C 
BRANCH  19  20
ATOM     20  C   UNL     1      29.524  58.557  81.624  1.00  0.00     0.006 C 
BRANCH  20  21
ATOM     21  C   UNL     1      30.409  57.504  82.306  1.00  0.00     0.053 C 
BRANCH  21  22
ATOM     22  C   UNL     1      31.861  57.873  82.240  1.00  0.00     0.041 C 
ATOM     23  O   UNL     1      32.264  58.715  81.394  1.00  0.00    -0.550 OA
ATOM     24  O   UNL     1      32.773  57.256  83.085  1.00  0.00    -0.550 OA
ENDBRANCH  21  22
ENDBRANCH  20  21
ENDBRANCH  19  20
ENDBRANCH  18  19
ENDBRANCH  17  18
ENDBRANCH  16  17
ENDBRANCH  15  16
ENDBRANCH  14  15
ENDBRANCH  13  14
ENDBRANCH   1  13
TORSDOF 20
ENDMDL
MODEL 4
REMARK VINA RESULT:    -3.035      3.766      8.067
REMARK INTER + INTRA:         -10.439
REMARK INTER:                  -7.220
REMARK INTRA:                  -3.219
REMARK UNBOUND:                -3.855
REMARK SMILES CCCCCCCCCCCCCCCCCCCCCC(=O)[O-]
REMARK SMILES IDX 12 1 11 2 10 3 9 4 8 5 7 6 6 7 5 8 4 9 3 10 2 11 1 12 13 13
REMARK SMILES IDX 14 14 15 15 16 16 17 17 18 18 19 19 20 20 21 21 22 22 23 23
REMARK SMILES IDX 24 24
REMARK H PARENT
REMARK Flexibility Score: inf
ROOT
ATOM      1  C   UNL     1      27.480  57.859  81.864  1.00  0.00     0.000 C 
ENDROOT
BRANCH   1   2
ATOM      2  C   UNL     1      28.805  58.167  81.150  1.00  0.00     0.000 C 
BRANCH   2   3
ATOM      3  C   UNL     1      29.824  58.874  82.068  1.00  0.00     0.000 C 
BRANCH   3   4
ATOM      4  C   UNL     1      31.283  58.443  81.826  1.00  0.00    -0.000 C 
BRANCH   4   5
ATOM      5  C   UNL     1      31.724  57.179  82.586  1.00  0.00    -0.000 C 
BRANCH   5   6
ATOM      6  C   UNL     1      30.946  56.891  83.887  1.00  0.00    -0.000 C 
BRANCH   6   7
ATOM      7  C   UNL     1      31.578  57.466  85.168  1.00  0.00    -0.000 C 
BRANCH   7   8
ATOM      8  C   UNL     1      30.771  57.137  86.434  1.00  0.00    -0.000 C 
BRANCH   8   9
ATOM      9  C   UNL     1      29.334  57.658  86.317  1.00  0.00    -0.000 C 
BRANCH   9  10
ATOM     10  C   UNL     1      29.291  59.189  86.434  1.00  0.00    -0.000 C 
BRANCH  10  11
ATOM     11  C   UNL     1      28.110  59.684  87.283  1.00  0.00    -0.003 C 
ATOM     12  C   UNL     1      28.053  61.208  87.388  1.00  0.00     0.004 C 
ENDBRANCH  10  11
ENDBRANCH   9  10
ENDBRANCH   8   9
ENDBRANCH   7   8
ENDBRANCH   6   7
ENDBRANCH   5   6
ENDBRANCH   4   5
ENDBRANCH   3   4
ENDBRANCH   2   3
ENDBRANCH   1   2
BRANCH   1  13
ATOM     13  C   UNL     1      27.467  58.454  83.280  1.00  0.00     0.000 C 
BRANCH  13  14
ATOM     14  C   UNL     1      26.459  59.607  83.452  1.00  0.00     0.000 C 
BRANCH  14  15
ATOM     15  C   UNL     1      27.062  60.959  83.891  1.00  0.00     0.000 C 
BRANCH  15  16
ATOM     16  C   UNL     1      27.621  61.818  82.734  1.00  0.00     0.000 C 
BRANCH  16  17
ATOM     17  C   UNL     1      26.777  61.757  81.451  1.00  0.00     0.000 C 
BRANCH  17  18
ATOM     18  C   UNL     1      27.623  61.845  80.172  1.00  0.00     0.000 C 
BRANCH  18  19
ATOM     19  C   UNL     1      27.239  60.776  79.136  1.00  0.00     0.000 C 
BRANCH  19  20
ATOM     20  C   UNL     1      28.392  60.449  78.171  1.00  0.00     0.006 C 
BRANCH  20  21
ATOM     21  C   UNL     1      28.018  59.341  77.178  1.00  0.00     0.053 C 
BRANCH  21  22
ATOM     22  C   UNL     1      28.965  59.292  76.017  1.00  0.00     0.041 C 
ATOM     23  O   UNL     1      30.203  59.429  76.203  1.00  0.00    -0.550 OA
ATOM     24  O   UNL     1      28.476  59.136  74.727  1.00  0.00    -0.550 OA
ENDBRANCH  21  22
ENDBRANCH  20  21
ENDBRANCH  19  20
ENDBRANCH  18  19
ENDBRANCH  17  18
ENDBRANCH  16  17
ENDBRANCH  15  16
ENDBRANCH  14  15
ENDBRANCH  13  14
ENDBRANCH   1  13
TORSDOF 20
ENDMDL
MODEL 5
REMARK VINA RESULT:    -2.974      4.062      7.806
REMARK INTER + INTRA:         -10.307
REMARK INTER:                  -6.855
REMARK INTRA:                  -3.451
REMARK UNBOUND:                -3.855
REMARK SMILES CCCCCCCCCCCCCCCCCCCCCC(=O)[O-]
REMARK SMILES IDX 12 1 11 2 10 3 9 4 8 5 7 6 6 7 5 8 4 9 3 10 2 11 1 12 13 13
REMARK SMILES IDX 14 14 15 15 16 16 17 17 18 18 19 19 20 20 21 21 22 22 23 23
REMARK SMILES IDX 24 24
REMARK H PARENT
REMARK Flexibility Score: inf
ROOT
ATOM      1  C   UNL     1      27.646  60.491  81.641  1.00  0.00     0.000 C 
ENDROOT
BRANCH   1   2
ATOM      2  C   UNL     1      26.654  59.430  81.139  1.00  0.00     0.000 C 
BRANCH   2   3
ATOM      3  C   UNL     1      26.349  58.353  82.201  1.00  0.00     0.000 C 
BRANCH   3   4
ATOM      4  C   UNL     1      26.665  58.792  83.642  1.00  0.00    -0.000 C 
BRANCH   4   5
ATOM      5  C   UNL     1      25.481  59.408  84.410  1.00  0.00    -0.000 C 
BRANCH   5   6
ATOM      6  C   UNL     1      25.687  60.866  84.874  1.00  0.00    -0.000 C 
BRANCH   6   7
ATOM      7  C   UNL     1      27.142  61.247  85.204  1.00  0.00    -0.000 C 
BRANCH   7   8
ATOM      8  C   UNL     1      27.402  61.369  86.713  1.00  0.00    -0.000 C 
BRANCH   8   9
ATOM      9  C   UNL     1      28.452  60.350  87.172  1.00  0.00    -0.000 C 
BRANCH   9  10
ATOM     10  C   UNL     1      27.824  58.963  87.371  1.00  0.00    -0.000 C 
BRANCH  10  11
ATOM     11  C   UNL     1      26.788  58.940  88.505  1.00  0.00    -0.003 C 
ATOM     12  C   UNL     1      25.415  58.452  88.045  1.00  0.00     0.004 C 
ENDBRANCH  10  11
ENDBRANCH   9  10
ENDBRANCH   8   9
ENDBRANCH   7   8
ENDBRANCH   6   7
ENDBRANCH   5   6
ENDBRANCH   4   5
ENDBRANCH   3   4
ENDBRANCH   2   3
ENDBRANCH   1   2
BRANCH   1  13
ATOM     13  C   UNL     1      27.137  61.908  81.336  1.00  0.00     0.000 C 
BRANCH  13  14
ATOM     14  C   UNL     1      25.599  62.019  81.332  1.00  0.00     0.000 C 
BRANCH  14  15
ATOM     15  C   UNL     1      24.985  62.723  80.102  1.00  0.00     0.000 C 
BRANCH  15  16
ATOM     16  C   UNL     1      24.926  61.850  78.827  1.00  0.00     0.000 C 
BRANCH  16  17
ATOM     17  C   UNL     1      25.440  62.559  77.565  1.00  0.00     0.000 C 
BRANCH  17  18
ATOM     18  C   UNL     1      26.745  61.952  77.026  1.00  0.00     0.000 C 
BRANCH  18  19
ATOM     19  C   UNL     1      27.185  60.706  77.813  1.00  0.00     0.000 C 
BRANCH  19  20
ATOM     20  C   UNL     1      28.685  60.725  78.154  1.00  0.00     0.006 C 
BRANCH  20  21
ATOM     21  C   UNL     1      29.295  59.316  78.153  1.00  0.00     0.053 C 
BRANCH  21  22
ATOM     22  C   UNL     1      29.446  58.778  76.762  1.00  0.00     0.041 C 
ATOM     23  O   UNL     1      29.966  59.486  75.861  1.00  0.00    -0.550 OA
ATOM     24  O   UNL     1      28.974  57.509  76.453  1.00  0.00    -0.550 OA
ENDBRANCH  21  22
ENDBRANCH  20  21
ENDBRANCH  19  20
ENDBRANCH  18  19
ENDBRANCH  17  18
ENDBRANCH  16  17
ENDBRANCH  15  16
ENDBRANCH  14  15
ENDBRANCH  13  14
ENDBRANCH   1  13
TORSDOF 20
ENDMDL
MODEL 6
REMARK VINA RESULT:    -2.966      2.967      7.623
REMARK INTER + INTRA:         -10.289
REMARK INTER:                  -6.779
REMARK INTRA:                  -3.509
REMARK UNBOUND:                -3.855
REMARK SMILES CCCCCCCCCCCCCCCCCCCCCC(=O)[O-]
REMARK SMILES IDX 12 1 11 2 10 3 9 4 8 5 7 6 6 7 5 8 4 9 3 10 2 11 1 12 13 13
REMARK SMILES IDX 14 14 15 15 16 16 17 17 18 18 19 19 20 20 21 21 22 22 23 23
REMARK SMILES IDX 24 24
REMARK H PARENT
REMARK Flexibility Score: inf
ROOT
ATOM      1  C   UNL     1      27.603  58.384  81.493  1.00  0.00     0.000 C 
ENDROOT
BRANCH   1   2
ATOM      2  C   UNL     1      28.857  57.497  81.555  1.00  0.00     0.000 C 
BRANCH   2   3
ATOM      3  C   UNL     1      30.099  58.181  80.946  1.00  0.00     0.000 C 
BRANCH   3   4
ATOM      4  C   UNL     1      31.297  58.265  81.909  1.00  0.00    -0.000 C 
BRANCH   4   5
ATOM      5  C   UNL     1      31.355  57.157  82.976  1.00  0.00    -0.000 C 
BRANCH   5   6
ATOM      6  C   UNL     1      31.768  57.625  84.387  1.00  0.00    -0.000 C 
BRANCH   6   7
ATOM      7  C   UNL     1      30.907  57.072  85.537  1.00  0.00    -0.000 C 
BRANCH   7   8
ATOM      8  C   UNL     1      29.450  57.557  85.482  1.00  0.00    -0.000 C 
BRANCH   8   9
ATOM      9  C   UNL     1      29.266  58.833  86.312  1.00  0.00    -0.000 C 
BRANCH   9  10
ATOM     10  C   UNL     1      28.174  58.647  87.375  1.00  0.00    -0.000 C 
BRANCH  10  11
ATOM     11  C   UNL     1      27.254  59.872  87.499  1.00  0.00    -0.003 C 
ATOM     12  C   UNL     1      28.023  61.193  87.499  1.00  0.00     0.004 C 
ENDBRANCH  10  11
ENDBRANCH   9  10
ENDBRANCH   8   9
ENDBRANCH   7   8
ENDBRANCH   6   7
ENDBRANCH   5   6
ENDBRANCH   4   5
ENDBRANCH   3   4
ENDBRANCH   2   3
ENDBRANCH   1   2
BRANCH   1  13
ATOM     13  C   UNL     1      27.273  58.966  82.876  1.00  0.00     0.000 C 
BRANCH  13  14
ATOM     14  C   UNL     1      28.058  60.252  83.202  1.00  0.00     0.000 C 
BRANCH  14  15
ATOM     15  C   UNL     1      27.246  61.370  83.893  1.00  0.00     0.000 C 
BRANCH  15  16
ATOM     16  C   UNL     1      25.733  61.080  84.016  1.00  0.00     0.000 C 
BRANCH  16  17
ATOM     17  C   UNL     1      24.882  61.750  82.925  1.00  0.00     0.000 C 
BRANCH  17  18
ATOM     18  C   UNL     1      24.295  60.745  81.921  1.00  0.00     0.000 C 
BRANCH  18  19
ATOM     19  C   UNL     1      24.790  60.988  80.486  1.00  0.00     0.000 C 
BRANCH  19  20
ATOM     20  C   UNL     1      25.749  62.187  80.388  1.00  0.00     0.006 C 
BRANCH  20  21
ATOM     21  C   UNL     1      27.188  61.752  80.076  1.00  0.00     0.053 C 
BRANCH  21  22
ATOM     22  C   UNL     1      27.338  61.315  78.650  1.00  0.00     0.041 C 
ATOM     23  O   UNL     1      26.884  62.028  77.717  1.00  0.00    -0.550 OA
ATOM     24  O   UNL     1      27.944  60.101  78.355  1.00  0.00    -0.550 OA
ENDBRANCH  21  22
ENDBRANCH  20  21
ENDBRANCH  19  20
ENDBRANCH  18  19
ENDBRANCH  17  18
ENDBRANCH  16  17
ENDBRANCH  15  16
ENDBRANCH  14  15
ENDBRANCH  13  14
ENDBRANCH   1  13
TORSDOF 20
ENDMDL
MODEL 7
REMARK VINA RESULT:    -2.940      3.596      5.336
REMARK INTER + INTRA:         -10.232
REMARK INTER:                  -8.358
REMARK INTRA:                  -1.874
REMARK UNBOUND:                -3.855
REMARK SMILES CCCCCCCCCCCCCCCCCCCCCC(=O)[O-]
REMARK SMILES IDX 12 1 11 2 10 3 9 4 8 5 7 6 6 7 5 8 4 9 3 10 2 11 1 12 13 13
REMARK SMILES IDX 14 14 15 15 16 16 17 17 18 18 19 19 20 20 21 21 22 22 23 23
REMARK SMILES IDX 24 24
REMARK H PARENT
REMARK Flexibility Score: inf
ROOT
ATOM      1  C   UNL     1      27.623  61.251  82.841  1.00  0.00     0.000 C 
ENDROOT
BRANCH   1   2
ATOM      2  C   UNL     1      26.941  60.802  81.539  1.00  0.00     0.000 C 
BRANCH   2   3
ATOM      3  C   UNL     1      27.308  61.697  80.337  1.00  0.00     0.000 C 
BRANCH   3   4
ATOM      4  C   UNL     1      27.642  60.912  79.055  1.00  0.00    -0.000 C 
BRANCH   4   5
ATOM      5  C   UNL     1      27.469  61.701  77.744  1.00  0.00    -0.000 C 
BRANCH   5   6
ATOM      6  C   UNL     1      26.022  62.127  77.421  1.00  0.00    -0.000 C 
BRANCH   6   7
ATOM      7  C   UNL     1      25.727  62.361  75.928  1.00  0.00    -0.000 C 
BRANCH   7   8
ATOM      8  C   UNL     1      24.730  63.504  75.685  1.00  0.00    -0.000 C 
BRANCH   8   9
ATOM      9  C   UNL     1      24.394  64.224  76.997  1.00  0.00    -0.000 C 
BRANCH   9  10
ATOM     10  C   UNL     1      24.520  65.747  76.838  1.00  0.00    -0.000 C 
BRANCH  10  11
ATOM     11  C   UNL     1      25.695  66.152  75.934  1.00  0.00    -0.003 C 
ATOM     12  C   UNL     1      25.905  67.665  75.878  1.00  0.00     0.004 C 
ENDBRANCH  10  11
ENDBRANCH   9  10
ENDBRANCH   8   9
ENDBRANCH   7   8
ENDBRANCH   6   7
ENDBRANCH   5   6
ENDBRANCH   4   5
ENDBRANCH   3   4
ENDBRANCH   2   3
ENDBRANCH   1   2
BRANCH   1  13
ATOM     13  C   UNL     1      27.008  60.543  84.057  1.00  0.00     0.000 C 
BRANCH  13  14
ATOM     14  C   UNL     1      26.839  61.463  85.282  1.00  0.00     0.000 C 
BRANCH  14  15
ATOM     15  C   UNL     1      27.587  61.018  86.557  1.00  0.00     0.000 C 
BRANCH  15  16
ATOM     16  C   UNL     1      27.094  59.681  87.156  1.00  0.00     0.000 C 
BRANCH  16  17
ATOM     17  C   UNL     1      28.188  58.607  87.265  1.00  0.00     0.000 C 
BRANCH  17  18
ATOM     18  C   UNL     1      29.400  58.892  86.363  1.00  0.00     0.000 C 
BRANCH  18  19
ATOM     19  C   UNL     1      29.436  57.987  85.121  1.00  0.00     0.000 C 
BRANCH  19  20
ATOM     20  C   UNL     1      30.232  58.610  83.961  1.00  0.00     0.006 C 
BRANCH  20  21
ATOM     21  C   UNL     1      29.723  58.136  82.592  1.00  0.00     0.053 C 
BRANCH  21  22
ATOM     22  C   UNL     1      30.672  58.501  81.491  1.00  0.00     0.041 C 
ATOM     23  O   UNL     1      31.909  58.570  81.717  1.00  0.00    -0.550 OA
ATOM     24  O   UNL     1      30.186  58.803  80.226  1.00  0.00    -0.550 OA
ENDBRANCH  21  22
ENDBRANCH  20  21
ENDBRANCH  19  20
ENDBRANCH  18  19
ENDBRANCH  17  18
ENDBRANCH  16  17
ENDBRANCH  15  16
ENDBRANCH  14  15
ENDBRANCH  13  14
ENDBRANCH   1  13
TORSDOF 20
ENDMDL
MODEL 8
REMARK VINA RESULT:    -2.938      1.434      4.845
REMARK INTER + INTRA:         -10.229
REMARK INTER:                  -6.851
REMARK INTRA:                  -3.378
REMARK UNBOUND:                -3.855
REMARK SMILES CCCCCCCCCCCCCCCCCCCCCC(=O)[O-]
REMARK SMILES IDX 12 1 11 2 10 3 9 4 8 5 7 6 6 7 5 8 4 9 3 10 2 11 1 12 13 13
REMARK SMILES IDX 14 14 15 15 16 16 17 17 18 18 19 19 20 20 21 21 22 22 23 23
REMARK SMILES IDX 24 24
REMARK H PARENT
REMARK Flexibility Score: inf
ROOT
ATOM      1  C   UNL     1      27.402  58.750  82.245  1.00  0.00     0.000 C 
ENDROOT
BRANCH   1   2
ATOM      2  C   UNL     1      28.757  59.354  82.642  1.00  0.00     0.000 C 
BRANCH   2   3
ATOM      3  C   UNL     1      29.898  58.316  82.628  1.00  0.00     0.000 C 
BRANCH   3   4
ATOM      4  C   UNL     1      30.930  58.539  81.507  1.00  0.00    -0.000 C 
BRANCH   4   5
ATOM      5  C   UNL     1      30.331  58.776  80.109  1.00  0.00    -0.000 C 
BRANCH   5   6
ATOM      6  C   UNL     1      29.573  57.574  79.507  1.00  0.00    -0.000 C 
BRANCH   6   7
ATOM      7  C   UNL     1      28.994  57.805  78.099  1.00  0.00    -0.000 C 
BRANCH   7   8
ATOM      8  C   UNL     1      28.924  59.291  77.717  1.00  0.00    -0.000 C 
BRANCH   8   9
ATOM      9  C   UNL     1      28.574  59.458  76.233  1.00  0.00    -0.000 C 
BRANCH   9  10
ATOM     10  C   UNL     1      27.122  59.929  76.059  1.00  0.00    -0.000 C 
BRANCH  10  11
ATOM     11  C   UNL     1      26.593  60.680  77.291  1.00  0.00    -0.003 C 
ATOM     12  C   UNL     1      26.529  62.193  77.081  1.00  0.00     0.004 C 
ENDBRANCH  10  11
ENDBRANCH   9  10
ENDBRANCH   8   9
ENDBRANCH   7   8
ENDBRANCH   6   7
ENDBRANCH   5   6
ENDBRANCH   4   5
ENDBRANCH   3   4
ENDBRANCH   2   3
ENDBRANCH   1   2
BRANCH   1  13
ATOM     13  C   UNL     1      26.762  59.541  81.095  1.00  0.00     0.000 C 
BRANCH  13  14
ATOM     14  C   UNL     1      27.483  60.869  80.789  1.00  0.00     0.000 C 
BRANCH  14  15
ATOM     15  C   UNL     1      26.662  62.149  81.053  1.00  0.00     0.000 C 
BRANCH  15  16
ATOM     16  C   UNL     1      25.134  61.925  81.133  1.00  0.00     0.000 C 
BRANCH  16  17
ATOM     17  C   UNL     1      24.518  62.325  82.483  1.00  0.00     0.000 C 
BRANCH  17  18
ATOM     18  C   UNL     1      24.655  61.230  83.553  1.00  0.00     0.000 C 
BRANCH  18  19
ATOM     19  C   UNL     1      25.834  61.481  84.507  1.00  0.00     0.000 C 
BRANCH  19  20
ATOM     20  C   UNL     1      26.150  60.260  85.387  1.00  0.00     0.006 C 
BRANCH  20  21
ATOM     21  C   UNL     1      27.588  60.292  85.925  1.00  0.00     0.053 C 
BRANCH  21  22
ATOM     22  C   UNL     1      27.630  60.679  87.372  1.00  0.00     0.041 C 
ATOM     23  O   UNL     1      28.067  61.810  87.714  1.00  0.00    -0.550 OA
ATOM     24  O   UNL     1      27.227  59.774  88.345  1.00  0.00    -0.550 OA
ENDBRANCH  21  22
ENDBRANCH  20  21
ENDBRANCH  19  20
ENDBRANCH  18  19
ENDBRANCH  17  18
ENDBRANCH  16  17
ENDBRANCH  15  16
ENDBRANCH  14  15
ENDBRANCH  13  14
ENDBRANCH   1  13
TORSDOF 20
ENDMDL
MODEL 9
REMARK VINA RESULT:    -2.894      3.273      7.778
REMARK INTER + INTRA:         -10.132
REMARK INTER:                  -7.189
REMARK INTRA:                  -2.943
REMARK UNBOUND:                -3.855
REMARK SMILES CCCCCCCCCCCCCCCCCCCCCC(=O)[O-]
REMARK SMILES IDX 12 1 11 2 10 3 9 4 8 5 7 6 6 7 5 8 4 9 3 10 2 11 1 12 13 13
REMARK SMILES IDX 14 14 15 15 16 16 17 17 18 18 19 19 20 20 21 21 22 22 23 23
REMARK SMILES IDX 24 24
REMARK H PARENT
REMARK Flexibility Score: inf
ROOT
ATOM      1  C   UNL     1      30.279  58.544  81.501  1.00  0.00     0.000 C 
ENDROOT
BRANCH   1   2
ATOM      2  C   UNL     1      31.740  58.256  81.881  1.00  0.00     0.000 C 
BRANCH   2   3
ATOM      3  C   UNL     1      31.901  56.933  82.659  1.00  0.00     0.000 C 
BRANCH   3   4
ATOM      4  C   UNL     1      32.945  56.998  83.789  1.00  0.00    -0.000 C 
BRANCH   4   5
ATOM      5  C   UNL     1      32.369  56.903  85.214  1.00  0.00    -0.000 C 
BRANCH   5   6
ATOM      6  C   UNL     1      30.831  56.988  85.307  1.00  0.00    -0.000 C 
BRANCH   6   7
ATOM      7  C   UNL     1      30.266  58.406  85.507  1.00  0.00    -0.000 C 
BRANCH   7   8
ATOM      8  C   UNL     1      29.110  58.454  86.517  1.00  0.00    -0.000 C 
BRANCH   8   9
ATOM      9  C   UNL     1      28.723  59.903  86.838  1.00  0.00    -0.000 C 
BRANCH   9  10
ATOM     10  C   UNL     1      27.214  60.025  87.098  1.00  0.00    -0.000 C 
BRANCH  10  11
ATOM     11  C   UNL     1      26.460  58.713  86.833  1.00  0.00    -0.003 C 
ATOM     12  C   UNL     1      24.976  58.800  87.188  1.00  0.00     0.004 C 
ENDBRANCH  10  11
ENDBRANCH   9  10
ENDBRANCH   8   9
ENDBRANCH   7   8
ENDBRANCH   6   7
ENDBRANCH   5   6
ENDBRANCH   4   5
ENDBRANCH   3   4
ENDBRANCH   2   3
ENDBRANCH   1   2
BRANCH   1  13
ATOM     13  C   UNL     1      29.410  57.288  81.662  1.00  0.00     0.000 C 
BRANCH  13  14
ATOM     14  C   UNL     1      28.309  57.437  82.730  1.00  0.00     0.000 C 
BRANCH  14  15
ATOM     15  C   UNL     1      27.184  58.439  82.392  1.00  0.00     0.000 C 
BRANCH  15  16
ATOM     16  C   UNL     1      27.118  59.667  83.328  1.00  0.00     0.000 C 
BRANCH  16  17
ATOM     17  C   UNL     1      27.592  60.974  82.671  1.00  0.00     0.000 C 
BRANCH  17  18
ATOM     18  C   UNL     1      26.614  61.501  81.610  1.00  0.00     0.000 C 
BRANCH  18  19
ATOM     19  C   UNL     1      27.315  61.859  80.289  1.00  0.00     0.000 C 
BRANCH  19  20
ATOM     20  C   UNL     1      27.944  60.633  79.605  1.00  0.00     0.006 C 
BRANCH  20  21
ATOM     21  C   UNL     1      28.425  60.948  78.181  1.00  0.00     0.053 C 
BRANCH  21  22
ATOM     22  C   UNL     1      29.131  59.780  77.562  1.00  0.00     0.041 C 
ATOM     23  O   UNL     1      29.685  59.898  76.437  1.00  0.00    -0.550 OA
ATOM     24  O   UNL     1      29.141  58.552  78.208  1.00  0.00    -0.550 OA
ENDBRANCH  21  22
ENDBRANCH  20  21
ENDBRANCH  19  20
ENDBRANCH  18  19
ENDBRANCH  17  18
ENDBRANCH  16  17
ENDBRANCH  15  16
ENDBRANCH  14  15
ENDBRANCH  13  14
ENDBRANCH   1  13
TORSDOF 20
ENDMDL
