MODEL 1
REMARK VINA RESULT:    19.411      0.000      0.000
REMARK INTER + INTRA:          36.573
REMARK INTER:                  37.568
REMARK INTRA:                  -0.995
REMARK UNBOUND:                -0.995
REMARK SMILES CCCCCCCCCCCCCCCCCC(=O)[O-]
REMARK SMILES IDX 10 1 11 2 12 3 13 4 14 5 15 6 16 7 17 8 18 9 19 10 20 11
REMARK SMILES IDX 9 12 8 13 7 14 6 15 5 16 4 17 3 18 2 19 1 20
REMARK H PARENT
REMARK Flexibility Score: inf
ROOT
ATOM      1  C   UNL     1     -39.496  24.677 -13.914  1.00  0.00     0.000 C 
ENDROOT
BRANCH   1   2
ATOM      2  C   UNL     1     -40.038  24.082 -12.604  1.00  0.00     0.000 C 
BRANCH   2   3
ATOM      3  C   UNL     1     -40.089  25.110 -11.464  1.00  0.00     0.000 C 
BRANCH   3   4
ATOM      4  C   UNL     1     -41.423  25.029 -10.711  1.00  0.00     0.000 C 
BRANCH   4   5
ATOM      5  C   UNL     1     -42.472  24.256 -11.524  1.00  0.00     0.000 C 
BRANCH   5   6
ATOM      6  C   UNL     1     -43.822  24.141 -10.782  1.00  0.00     0.000 C 
BRANCH   6   7
ATOM      7  C   UNL     1     -43.922  25.049  -9.542  1.00  0.00     0.006 C 
BRANCH   7   8
ATOM      8  C   UNL     1     -45.326  25.621  -9.297  1.00  0.00     0.053 C 
BRANCH   8   9
ATOM      9  C   UNL     1     -45.582  25.865  -7.840  1.00  0.00     0.041 C 
ATOM     10  O   UNL     1     -46.659  26.405  -7.469  1.00  0.00    -0.550 OA
ATOM     11  O   UNL     1     -44.642  25.485  -6.892  1.00  0.00    -0.550 OA
ENDBRANCH   8   9
ENDBRANCH   7   8
ENDBRANCH   6   7
ENDBRANCH   5   6
ENDBRANCH   4   5
ENDBRANCH   3   4
ENDBRANCH   2   3
ENDBRANCH   1   2
BRANCH   1  12
ATOM     12  C   UNL     1     -40.593  24.847 -14.981  1.00  0.00     0.000 C 
BRANCH  12  13
ATOM     13  C   UNL     1     -41.927  24.209 -14.565  1.00  0.00    -0.000 C 
BRANCH  13  14
ATOM     14  C   UNL     1     -42.626  23.483 -15.727  1.00  0.00    -0.000 C 
BRANCH  14  15
ATOM     15  C   UNL     1     -41.820  23.554 -17.035  1.00  0.00    -0.000 C 
BRANCH  15  16
ATOM     16  C   UNL     1     -41.929  22.265 -17.869  1.00  0.00    -0.000 C 
BRANCH  16  17
ATOM     17  C   UNL     1     -40.589  21.861 -18.506  1.00  0.00    -0.000 C 
BRANCH  17  18
ATOM     18  C   UNL     1     -39.478  22.888 -18.246  1.00  0.00    -0.000 C 
BRANCH  18  19
ATOM     19  C   UNL     1     -38.273  22.637 -19.160  1.00  0.00    -0.003 C 
ATOM     20  C   UNL     1     -37.711  21.232 -18.959  1.00  0.00     0.004 C 
ENDBRANCH  18  19
ENDBRANCH  17  18
ENDBRANCH  16  17
ENDBRANCH  15  16
ENDBRANCH  14  15
ENDBRANCH  13  14
ENDBRANCH  12  13
ENDBRANCH   1  12
TORSDOF 16
ENDMDL
MODEL 2
REMARK VINA RESULT:    20.285      1.519      3.078
REMARK INTER + INTRA:          38.263
REMARK INTER:                  38.991
REMARK INTRA:                  -0.729
REMARK UNBOUND:                -0.995
REMARK SMILES CCCCCCCCCCCCCCCCCC(=O)[O-]
REMARK SMILES IDX 10 1 11 2 12 3 13 4 14 5 15 6 16 7 17 8 18 9 19 10 20 11
REMARK SMILES IDX 9 12 8 13 7 14 6 15 5 16 4 17 3 18 2 19 1 20
REMARK H PARENT
REMARK Flexibility Score: inf
ROOT
ATOM      1  C   UNL     1     -41.987  23.917 -16.109  1.00  0.00     0.000 C 
ENDROOT
BRANCH   1   2
ATOM      2  C   UNL     1     -42.595  23.493 -14.761  1.00  0.00     0.000 C 
BRANCH   2   3
ATOM      3  C   UNL     1     -42.417  24.559 -13.671  1.00  0.00     0.000 C 
BRANCH   3   4
ATOM      4  C   UNL     1     -41.686  23.982 -12.452  1.00  0.00     0.000 C 
BRANCH   4   5
ATOM      5  C   UNL     1     -42.173  24.639 -11.152  1.00  0.00     0.000 C 
BRANCH   5   6
ATOM      6  C   UNL     1     -43.670  24.370 -10.884  1.00  0.00     0.000 C 
BRANCH   6   7
ATOM      7  C   UNL     1     -44.309  25.371  -9.903  1.00  0.00     0.006 C 
BRANCH   7   8
ATOM      8  C   UNL     1     -45.087  24.714  -8.755  1.00  0.00     0.053 C 
BRANCH   8   9
ATOM      9  C   UNL     1     -45.523  25.717  -7.730  1.00  0.00     0.041 C 
ATOM     10  O   UNL     1     -44.866  25.860  -6.665  1.00  0.00    -0.550 OA
ATOM     11  O   UNL     1     -46.646  26.503  -7.955  1.00  0.00    -0.550 OA
ENDBRANCH   8   9
ENDBRANCH   7   8
ENDBRANCH   6   7
ENDBRANCH   5   6
ENDBRANCH   4   5
ENDBRANCH   3   4
ENDBRANCH   2   3
ENDBRANCH   1   2
BRANCH   1  12
ATOM     12  C   UNL     1     -42.131  22.828 -17.188  1.00  0.00     0.000 C 
BRANCH  12  13
ATOM     13  C   UNL     1     -40.942  22.798 -18.160  1.00  0.00    -0.000 C 
BRANCH  13  14
ATOM     14  C   UNL     1     -40.537  21.368 -18.559  1.00  0.00    -0.000 C 
BRANCH  14  15
ATOM     15  C   UNL     1     -39.038  21.249 -18.880  1.00  0.00    -0.000 C 
BRANCH  15  16
ATOM     16  C   UNL     1     -38.246  22.509 -18.488  1.00  0.00    -0.000 C 
BRANCH  16  17
ATOM     17  C   UNL     1     -37.373  23.038 -19.639  1.00  0.00    -0.000 C 
BRANCH  17  18
ATOM     18  C   UNL     1     -38.136  23.992 -20.569  1.00  0.00    -0.000 C 
BRANCH  18  19
ATOM     19  C   UNL     1     -37.418  25.343 -20.679  1.00  0.00    -0.003 C 
ATOM     20  C   UNL     1     -38.072  26.231 -21.733  1.00  0.00     0.004 C 
ENDBRANCH  18  19
ENDBRANCH  17  18
ENDBRANCH  16  17
ENDBRANCH  15  16
ENDBRANCH  14  15
ENDBRANCH  13  14
ENDBRANCH  12  13
ENDBRANCH   1  12
TORSDOF 16
ENDMDL
MODEL 3
REMARK VINA RESULT:    20.573      7.000     10.152
REMARK INTER + INTRA:          38.821
REMARK INTER:                  39.484
REMARK INTRA:                  -0.664
REMARK UNBOUND:                -0.995
REMARK SMILES CCCCCCCCCCCCCCCCCC(=O)[O-]
REMARK SMILES IDX 10 1 11 2 12 3 13 4 14 5 15 6 16 7 17 8 18 9 19 10 20 11
REMARK SMILES IDX 9 12 8 13 7 14 6 15 5 16 4 17 3 18 2 19 1 20
REMARK H PARENT
REMARK Flexibility Score: inf
ROOT
ATOM      1  C   UNL     1     -37.971  25.911 -21.459  1.00  0.00     0.000 C 
ENDROOT
BRANCH   1   2
ATOM      2  C   UNL     1     -37.504  27.363 -21.267  1.00  0.00     0.000 C 
BRANCH   2   3
ATOM      3  C   UNL     1     -38.063  28.311 -22.339  1.00  0.00     0.000 C 
BRANCH   3   4
ATOM      4  C   UNL     1     -38.558  29.620 -21.711  1.00  0.00     0.000 C 
BRANCH   4   5
ATOM      5  C   UNL     1     -39.868  29.404 -20.940  1.00  0.00     0.000 C 
BRANCH   5   6
ATOM      6  C   UNL     1     -41.077  29.206 -21.880  1.00  0.00     0.000 C 
BRANCH   6   7
ATOM      7  C   UNL     1     -41.664  30.527 -22.413  1.00  0.00     0.006 C 
BRANCH   7   8
ATOM      8  C   UNL     1     -43.192  30.519 -22.561  1.00  0.00     0.053 C 
BRANCH   8   9
ATOM      9  C   UNL     1     -43.838  31.593 -21.739  1.00  0.00     0.041 C 
ATOM     10  O   UNL     1     -43.625  31.656 -20.499  1.00  0.00    -0.550 OA
ATOM     11  O   UNL     1     -44.663  32.534 -22.343  1.00  0.00    -0.550 OA
ENDBRANCH   8   9
ENDBRANCH   7   8
ENDBRANCH   6   7
ENDBRANCH   5   6
ENDBRANCH   4   5
ENDBRANCH   3   4
ENDBRANCH   2   3
ENDBRANCH   1   2
BRANCH   1  12
ATOM     12  C   UNL     1     -37.424  24.969 -20.371  1.00  0.00     0.000 C 
BRANCH  12  13
ATOM     13  C   UNL     1     -38.181  23.633 -20.310  1.00  0.00    -0.000 C 
BRANCH  13  14
ATOM     14  C   UNL     1     -38.126  22.982 -18.917  1.00  0.00    -0.000 C 
BRANCH  14  15
ATOM     15  C   UNL     1     -38.680  21.548 -18.914  1.00  0.00    -0.000 C 
BRANCH  15  16
ATOM     16  C   UNL     1     -40.166  21.488 -18.514  1.00  0.00    -0.000 C 
BRANCH  16  17
ATOM     17  C   UNL     1     -40.738  22.871 -18.162  1.00  0.00    -0.000 C 
BRANCH  17  18
ATOM     18  C   UNL     1     -42.010  22.783 -17.306  1.00  0.00    -0.000 C 
BRANCH  18  19
ATOM     19  C   UNL     1     -42.014  23.863 -16.217  1.00  0.00    -0.003 C 
ATOM     20  C   UNL     1     -42.830  23.421 -15.005  1.00  0.00     0.004 C 
ENDBRANCH  18  19
ENDBRANCH  17  18
ENDBRANCH  16  17
ENDBRANCH  15  16
ENDBRANCH  14  15
ENDBRANCH  13  14
ENDBRANCH  12  13
ENDBRANCH   1  12
TORSDOF 16
ENDMDL
MODEL 4
REMARK VINA RESULT:    20.709      5.077      7.674
REMARK INTER + INTRA:          39.085
REMARK INTER:                  39.742
REMARK INTRA:                  -0.657
REMARK UNBOUND:                -0.995
REMARK SMILES CCCCCCCCCCCCCCCCCC(=O)[O-]
REMARK SMILES IDX 10 1 11 2 12 3 13 4 14 5 15 6 16 7 17 8 18 9 19 10 20 11
REMARK SMILES IDX 9 12 8 13 7 14 6 15 5 16 4 17 3 18 2 19 1 20
REMARK H PARENT
REMARK Flexibility Score: inf
ROOT
ATOM      1  C   UNL     1     -37.407  23.658 -20.069  1.00  0.00     0.000 C 
ENDROOT
BRANCH   1   2
ATOM      2  C   UNL     1     -38.253  22.679 -19.239  1.00  0.00     0.000 C 
BRANCH   2   3
ATOM      3  C   UNL     1     -39.450  23.361 -18.560  1.00  0.00     0.000 C 
BRANCH   3   4
ATOM      4  C   UNL     1     -40.498  22.328 -18.126  1.00  0.00     0.000 C 
BRANCH   4   5
ATOM      5  C   UNL     1     -41.851  22.997 -17.847  1.00  0.00     0.000 C 
BRANCH   5   6
ATOM      6  C   UNL     1     -42.268  22.883 -16.364  1.00  0.00     0.000 C 
BRANCH   6   7
ATOM      7  C   UNL     1     -41.894  24.119 -15.523  1.00  0.00     0.006 C 
BRANCH   7   8
ATOM      8  C   UNL     1     -42.696  24.256 -14.220  1.00  0.00     0.053 C 
BRANCH   8   9
ATOM      9  C   UNL     1     -41.804  24.269 -13.015  1.00  0.00     0.041 C 
ATOM     10  O   UNL     1     -42.301  24.204 -11.859  1.00  0.00    -0.550 OA
ATOM     11  O   UNL     1     -40.425  24.338 -13.167  1.00  0.00    -0.550 OA
ENDBRANCH   8   9
ENDBRANCH   7   8
ENDBRANCH   6   7
ENDBRANCH   5   6
ENDBRANCH   4   5
ENDBRANCH   3   4
ENDBRANCH   2   3
ENDBRANCH   1   2
BRANCH   1  12
ATOM     12  C   UNL     1     -38.271  24.652 -20.867  1.00  0.00     0.000 C 
BRANCH  12  13
ATOM     13  C   UNL     1     -37.493  25.909 -21.285  1.00  0.00    -0.000 C 
BRANCH  13  14
ATOM     14  C   UNL     1     -38.355  26.901 -22.087  1.00  0.00    -0.000 C 
BRANCH  14  15
ATOM     15  C   UNL     1     -37.857  28.350 -21.959  1.00  0.00    -0.000 C 
BRANCH  15  16
ATOM     16  C   UNL     1     -38.865  29.262 -21.237  1.00  0.00    -0.000 C 
BRANCH  16  17
ATOM     17  C   UNL     1     -40.285  29.142 -21.813  1.00  0.00    -0.000 C 
BRANCH  17  18
ATOM     18  C   UNL     1     -41.220  30.254 -21.315  1.00  0.00    -0.000 C 
BRANCH  18  19
ATOM     19  C   UNL     1     -42.317  30.552 -22.345  1.00  0.00    -0.003 C 
ATOM     20  C   UNL     1     -43.499  31.269 -21.700  1.00  0.00     0.004 C 
ENDBRANCH  18  19
ENDBRANCH  17  18
ENDBRANCH  16  17
ENDBRANCH  15  16
ENDBRANCH  14  15
ENDBRANCH  13  14
ENDBRANCH  12  13
ENDBRANCH   1  12
TORSDOF 16
ENDMDL
MODEL 5
REMARK VINA RESULT:    20.722      6.834     10.111
REMARK INTER + INTRA:          39.109
REMARK INTER:                  39.369
REMARK INTRA:                  -0.260
REMARK UNBOUND:                -0.995
REMARK SMILES CCCCCCCCCCCCCCCCCC(=O)[O-]
REMARK SMILES IDX 10 1 11 2 12 3 13 4 14 5 15 6 16 7 17 8 18 9 19 10 20 11
REMARK SMILES IDX 9 12 8 13 7 14 6 15 5 16 4 17 3 18 2 19 1 20
REMARK H PARENT
REMARK Flexibility Score: inf
ROOT
ATOM      1  C   UNL     1     -37.496  24.833 -20.465  1.00  0.00     0.000 C 
ENDROOT
BRANCH   1   2
ATOM      2  C   UNL     1     -38.042  25.755 -21.568  1.00  0.00     0.000 C 
BRANCH   2   3
ATOM      3  C   UNL     1     -37.569  27.208 -21.411  1.00  0.00     0.000 C 
BRANCH   3   4
ATOM      4  C   UNL     1     -38.443  28.163 -22.236  1.00  0.00     0.000 C 
BRANCH   4   5
ATOM      5  C   UNL     1     -38.841  29.396 -21.413  1.00  0.00     0.000 C 
BRANCH   5   6
ATOM      6  C   UNL     1     -40.362  29.460 -21.149  1.00  0.00     0.000 C 
BRANCH   6   7
ATOM      7  C   UNL     1     -41.139  30.254 -22.216  1.00  0.00     0.006 C 
BRANCH   7   8
ATOM      8  C   UNL     1     -42.665  30.148 -22.087  1.00  0.00     0.053 C 
BRANCH   8   9
ATOM      9  C   UNL     1     -43.305  31.493 -21.917  1.00  0.00     0.041 C 
ATOM     10  O   UNL     1     -44.010  31.735 -20.901  1.00  0.00    -0.550 OA
ATOM     11  O   UNL     1     -43.113  32.484 -22.872  1.00  0.00    -0.550 OA
ENDBRANCH   8   9
ENDBRANCH   7   8
ENDBRANCH   6   7
ENDBRANCH   5   6
ENDBRANCH   4   5
ENDBRANCH   3   4
ENDBRANCH   2   3
ENDBRANCH   1   2
BRANCH   1  12
ATOM     12  C   UNL     1     -38.402  23.614 -20.216  1.00  0.00     0.000 C 
BRANCH  12  13
ATOM     13  C   UNL     1     -38.067  22.886 -18.905  1.00  0.00    -0.000 C 
BRANCH  13  14
ATOM     14  C   UNL     1     -38.657  21.466 -18.847  1.00  0.00    -0.000 C 
BRANCH  14  15
ATOM     15  C   UNL     1     -40.158  21.465 -18.514  1.00  0.00    -0.000 C 
BRANCH  15  16
ATOM     16  C   UNL     1     -40.701  22.875 -18.223  1.00  0.00    -0.000 C 
BRANCH  16  17
ATOM     17  C   UNL     1     -41.949  22.853 -17.325  1.00  0.00    -0.000 C 
BRANCH  17  18
ATOM     18  C   UNL     1     -41.857  23.849 -16.160  1.00  0.00    -0.000 C 
BRANCH  18  19
ATOM     19  C   UNL     1     -42.865  23.501 -15.059  1.00  0.00    -0.003 C 
ATOM     20  C   UNL     1     -42.320  23.857 -13.679  1.00  0.00     0.004 C 
ENDBRANCH  18  19
ENDBRANCH  17  18
ENDBRANCH  16  17
ENDBRANCH  15  16
ENDBRANCH  14  15
ENDBRANCH  13  14
ENDBRANCH  12  13
ENDBRANCH   1  12
TORSDOF 16
ENDMDL
MODEL 6
REMARK VINA RESULT:    20.846      4.382      6.780
REMARK INTER + INTRA:          39.350
REMARK INTER:                  40.070
REMARK INTRA:                  -0.720
REMARK UNBOUND:                -0.995
REMARK SMILES CCCCCCCCCCCCCCCCCC(=O)[O-]
REMARK SMILES IDX 10 1 11 2 12 3 13 4 14 5 15 6 16 7 17 8 18 9 19 10 20 11
REMARK SMILES IDX 9 12 8 13 7 14 6 15 5 16 4 17 3 18 2 19 1 20
REMARK H PARENT
REMARK Flexibility Score: inf
ROOT
ATOM      1  C   UNL     1     -39.366  22.870 -18.206  1.00  0.00     0.000 C 
ENDROOT
BRANCH   1   2
ATOM      2  C   UNL     1     -40.636  22.008 -18.301  1.00  0.00     0.000 C 
BRANCH   2   3
ATOM      3  C   UNL     1     -41.889  22.745 -17.806  1.00  0.00     0.000 C 
BRANCH   3   4
ATOM      4  C   UNL     1     -41.570  23.608 -16.578  1.00  0.00     0.000 C 
BRANCH   4   5
ATOM      5  C   UNL     1     -42.643  23.442 -15.493  1.00  0.00     0.000 C 
BRANCH   5   6
ATOM      6  C   UNL     1     -42.412  24.382 -14.289  1.00  0.00     0.000 C 
BRANCH   6   7
ATOM      7  C   UNL     1     -41.925  23.652 -13.023  1.00  0.00     0.006 C 
BRANCH   7   8
ATOM      8  C   UNL     1     -40.816  24.392 -12.261  1.00  0.00     0.053 C 
BRANCH   8   9
ATOM      9  C   UNL     1     -39.496  24.299 -12.965  1.00  0.00     0.041 C 
ATOM     10  O   UNL     1     -38.571  23.591 -12.485  1.00  0.00    -0.550 OA
ATOM     11  O   UNL     1     -39.291  24.980 -14.158  1.00  0.00    -0.550 OA
ENDBRANCH   8   9
ENDBRANCH   7   8
ENDBRANCH   6   7
ENDBRANCH   5   6
ENDBRANCH   4   5
ENDBRANCH   3   4
ENDBRANCH   2   3
ENDBRANCH   1   2
BRANCH   1  12
ATOM     12  C   UNL     1     -38.159  22.217 -18.904  1.00  0.00     0.000 C 
BRANCH  12  13
ATOM     13  C   UNL     1     -37.749  22.954 -20.189  1.00  0.00    -0.000 C 
BRANCH  13  14
ATOM     14  C   UNL     1     -38.176  24.432 -20.188  1.00  0.00    -0.000 C 
BRANCH  14  15
ATOM     15  C   UNL     1     -37.613  25.208 -21.391  1.00  0.00    -0.000 C 
BRANCH  15  16
ATOM     16  C   UNL     1     -37.334  26.686 -21.064  1.00  0.00    -0.000 C 
BRANCH  16  17
ATOM     17  C   UNL     1     -37.858  27.639 -22.151  1.00  0.00    -0.000 C 
BRANCH  17  18
ATOM     18  C   UNL     1     -38.222  29.024 -21.596  1.00  0.00    -0.000 C 
BRANCH  18  19
ATOM     19  C   UNL     1     -39.716  29.316 -21.787  1.00  0.00    -0.003 C 
ATOM     20  C   UNL     1     -40.366  29.741 -20.473  1.00  0.00     0.004 C 
ENDBRANCH  18  19
ENDBRANCH  17  18
ENDBRANCH  16  17
ENDBRANCH  15  16
ENDBRANCH  14  15
ENDBRANCH  13  14
ENDBRANCH  12  13
ENDBRANCH   1  12
TORSDOF 16
ENDMDL
MODEL 7
REMARK VINA RESULT:    20.941      5.870      8.831
REMARK INTER + INTRA:          39.533
REMARK INTER:                  40.405
REMARK INTRA:                  -0.871
REMARK UNBOUND:                -0.995
REMARK SMILES CCCCCCCCCCCCCCCCCC(=O)[O-]
REMARK SMILES IDX 10 1 11 2 12 3 13 4 14 5 15 6 16 7 17 8 18 9 19 10 20 11
REMARK SMILES IDX 9 12 8 13 7 14 6 15 5 16 4 17 3 18 2 19 1 20
REMARK H PARENT
REMARK Flexibility Score: inf
ROOT
ATOM      1  C   UNL     1     -37.362  25.524 -20.875  1.00  0.00     0.000 C 
ENDROOT
BRANCH   1   2
ATOM      2  C   UNL     1     -38.163  24.238 -20.609  1.00  0.00     0.000 C 
BRANCH   2   3
ATOM      3  C   UNL     1     -37.405  23.244 -19.716  1.00  0.00     0.000 C 
BRANCH   3   4
ATOM      4  C   UNL     1     -38.349  22.164 -19.171  1.00  0.00     0.000 C 
BRANCH   4   5
ATOM      5  C   UNL     1     -39.320  22.750 -18.136  1.00  0.00     0.000 C 
BRANCH   5   6
ATOM      6  C   UNL     1     -40.736  22.144 -18.250  1.00  0.00     0.000 C 
BRANCH   6   7
ATOM      7  C   UNL     1     -41.857  23.122 -17.851  1.00  0.00     0.006 C 
BRANCH   7   8
ATOM      8  C   UNL     1     -42.577  22.752 -16.546  1.00  0.00     0.053 C 
BRANCH   8   9
ATOM      9  C   UNL     1     -42.259  23.712 -15.441  1.00  0.00     0.041 C 
ATOM     10  O   UNL     1     -42.847  23.617 -14.330  1.00  0.00    -0.550 OA
ATOM     11  O   UNL     1     -41.305  24.704 -15.629  1.00  0.00    -0.550 OA
ENDBRANCH   8   9
ENDBRANCH   7   8
ENDBRANCH   6   7
ENDBRANCH   5   6
ENDBRANCH   4   5
ENDBRANCH   3   4
ENDBRANCH   2   3
ENDBRANCH   1   2
BRANCH   1  12
ATOM     12  C   UNL     1     -38.049  26.442 -21.903  1.00  0.00     0.000 C 
BRANCH  12  13
ATOM     13  C   UNL     1     -37.430  27.848 -21.947  1.00  0.00    -0.000 C 
BRANCH  13  14
ATOM     14  C   UNL     1     -38.483  28.955 -22.127  1.00  0.00    -0.000 C 
BRANCH  14  15
ATOM     15  C   UNL     1     -38.719  29.758 -20.837  1.00  0.00    -0.000 C 
BRANCH  15  16
ATOM     16  C   UNL     1     -40.213  29.973 -20.538  1.00  0.00    -0.000 C 
BRANCH  16  17
ATOM     17  C   UNL     1     -41.123  29.387 -21.630  1.00  0.00    -0.000 C 
BRANCH  17  18
ATOM     18  C   UNL     1     -41.997  30.454 -22.305  1.00  0.00    -0.000 C 
BRANCH  18  19
ATOM     19  C   UNL     1     -43.372  30.544 -21.632  1.00  0.00    -0.003 C 
ATOM     20  C   UNL     1     -44.073  31.854 -21.982  1.00  0.00     0.004 C 
ENDBRANCH  18  19
ENDBRANCH  17  18
ENDBRANCH  16  17
ENDBRANCH  15  16
ENDBRANCH  14  15
ENDBRANCH  13  14
ENDBRANCH  12  13
ENDBRANCH   1  12
TORSDOF 16
ENDMDL
MODEL 8
REMARK VINA RESULT:    20.970      4.470      7.164
REMARK INTER + INTRA:          39.589
REMARK INTER:                  40.405
REMARK INTRA:                  -0.816
REMARK UNBOUND:                -0.995
REMARK SMILES CCCCCCCCCCCCCCCCCC(=O)[O-]
REMARK SMILES IDX 10 1 11 2 12 3 13 4 14 5 15 6 16 7 17 8 18 9 19 10 20 11
REMARK SMILES IDX 9 12 8 13 7 14 6 15 5 16 4 17 3 18 2 19 1 20
REMARK H PARENT
REMARK Flexibility Score: inf
ROOT
ATOM      1  C   UNL     1     -38.050  22.762 -18.798  1.00  0.00     0.000 C 
ENDROOT
BRANCH   1   2
ATOM      2  C   UNL     1     -38.756  21.403 -18.944  1.00  0.00     0.000 C 
BRANCH   2   3
ATOM      3  C   UNL     1     -40.236  21.459 -18.536  1.00  0.00     0.000 C 
BRANCH   3   4
ATOM      4  C   UNL     1     -40.654  22.892 -18.180  1.00  0.00     0.000 C 
BRANCH   4   5
ATOM      5  C   UNL     1     -41.977  22.903 -17.402  1.00  0.00     0.000 C 
BRANCH   5   6
ATOM      6  C   UNL     1     -41.981  23.951 -16.266  1.00  0.00     0.000 C 
BRANCH   6   7
ATOM      7  C   UNL     1     -42.511  23.404 -14.927  1.00  0.00     0.006 C 
BRANCH   7   8
ATOM      8  C   UNL     1     -42.759  24.483 -13.864  1.00  0.00     0.053 C 
BRANCH   8   9
ATOM      9  C   UNL     1     -41.864  24.310 -12.674  1.00  0.00     0.041 C 
ATOM     10  O   UNL     1     -40.630  24.110 -12.833  1.00  0.00    -0.550 OA
ATOM     11  O   UNL     1     -42.387  24.384 -11.389  1.00  0.00    -0.550 OA
ENDBRANCH   8   9
ENDBRANCH   7   8
ENDBRANCH   6   7
ENDBRANCH   5   6
ENDBRANCH   4   5
ENDBRANCH   3   4
ENDBRANCH   2   3
ENDBRANCH   1   2
BRANCH   1  12
ATOM     12  C   UNL     1     -37.596  23.338 -20.152  1.00  0.00     0.000 C 
BRANCH  12  13
ATOM     13  C   UNL     1     -38.362  24.612 -20.540  1.00  0.00    -0.000 C 
BRANCH  13  14
ATOM     14  C   UNL     1     -37.466  25.658 -21.224  1.00  0.00    -0.000 C 
BRANCH  14  15
ATOM     15  C   UNL     1     -38.277  26.738 -21.960  1.00  0.00    -0.000 C 
BRANCH  15  16
ATOM     16  C   UNL     1     -37.679  28.146 -21.792  1.00  0.00    -0.000 C 
BRANCH  16  17
ATOM     17  C   UNL     1     -38.758  29.227 -21.614  1.00  0.00    -0.000 C 
BRANCH  17  18
ATOM     18  C   UNL     1     -40.172  28.702 -21.902  1.00  0.00    -0.000 C 
BRANCH  18  19
ATOM     19  C   UNL     1     -41.233  29.595 -21.247  1.00  0.00    -0.003 C 
ATOM     20  C   UNL     1     -41.865  30.540 -22.265  1.00  0.00     0.004 C 
ENDBRANCH  18  19
ENDBRANCH  17  18
ENDBRANCH  16  17
ENDBRANCH  15  16
ENDBRANCH  14  15
ENDBRANCH  13  14
ENDBRANCH  12  13
ENDBRANCH   1  12
TORSDOF 16
ENDMDL
MODEL 9
REMARK VINA RESULT:    21.163      6.561     10.083
REMARK INTER + INTRA:          39.962
REMARK INTER:                  40.696
REMARK INTRA:                  -0.734
REMARK UNBOUND:                -0.995
REMARK SMILES CCCCCCCCCCCCCCCCCC(=O)[O-]
REMARK SMILES IDX 10 1 11 2 12 3 13 4 14 5 15 6 16 7 17 8 18 9 19 10 20 11
REMARK SMILES IDX 9 12 8 13 7 14 6 15 5 16 4 17 3 18 2 19 1 20
REMARK H PARENT
REMARK Flexibility Score: inf
ROOT
ATOM      1  C   UNL     1     -37.946  23.974 -19.532  1.00  0.00     0.000 C 
ENDROOT
BRANCH   1   2
ATOM      2  C   UNL     1     -38.169  24.485 -20.966  1.00  0.00     0.000 C 
BRANCH   2   3
ATOM      3  C   UNL     1     -37.485  25.836 -21.224  1.00  0.00     0.000 C 
BRANCH   3   4
ATOM      4  C   UNL     1     -38.399  26.771 -22.027  1.00  0.00     0.000 C 
BRANCH   4   5
ATOM      5  C   UNL     1     -37.848  28.203 -22.044  1.00  0.00     0.000 C 
BRANCH   5   6
ATOM      6  C   UNL     1     -38.818  29.214 -21.393  1.00  0.00     0.000 C 
BRANCH   6   7
ATOM      7  C   UNL     1     -40.285  29.022 -21.820  1.00  0.00     0.006 C 
BRANCH   7   8
ATOM      8  C   UNL     1     -41.262  30.010 -21.168  1.00  0.00     0.053 C 
BRANCH   8   9
ATOM      9  C   UNL     1     -42.214  30.595 -22.168  1.00  0.00     0.041 C 
ATOM     10  O   UNL     1     -41.958  30.529 -23.400  1.00  0.00    -0.550 OA
ATOM     11  O   UNL     1     -43.391  31.198 -21.742  1.00  0.00    -0.550 OA
ENDBRANCH   8   9
ENDBRANCH   7   8
ENDBRANCH   6   7
ENDBRANCH   5   6
ENDBRANCH   4   5
ENDBRANCH   3   4
ENDBRANCH   2   3
ENDBRANCH   1   2
BRANCH   1  12
ATOM     12  C   UNL     1     -38.053  22.442 -19.432  1.00  0.00     0.000 C 
BRANCH  12  13
ATOM     13  C   UNL     1     -39.253  21.986 -18.587  1.00  0.00    -0.000 C 
BRANCH  13  14
ATOM     14  C   UNL     1     -40.385  23.027 -18.554  1.00  0.00    -0.000 C 
BRANCH  14  15
ATOM     15  C   UNL     1     -41.352  22.808 -17.378  1.00  0.00    -0.000 C 
BRANCH  15  16
ATOM     16  C   UNL     1     -41.903  24.128 -16.809  1.00  0.00    -0.000 C 
BRANCH  16  17
ATOM     17  C   UNL     1     -41.445  24.383 -15.363  1.00  0.00    -0.000 C 
BRANCH  17  18
ATOM     18  C   UNL     1     -42.454  23.871 -14.326  1.00  0.00    -0.000 C 
BRANCH  18  19
ATOM     19  C   UNL     1     -41.916  24.052 -12.901  1.00  0.00    -0.003 C 
ATOM     20  C   UNL     1     -40.400  24.230 -12.902  1.00  0.00     0.004 C 
ENDBRANCH  18  19
ENDBRANCH  17  18
ENDBRANCH  16  17
ENDBRANCH  15  16
ENDBRANCH  14  15
ENDBRANCH  13  14
ENDBRANCH  12  13
ENDBRANCH   1  12
TORSDOF 16
ENDMDL
