MODEL 1
REMARK VINA RESULT:    -4.126      0.000      0.000
REMARK INTER + INTRA:         -13.760
REMARK INTER:                 -10.396
REMARK INTRA:                  -3.364
REMARK UNBOUND:                -3.364
REMARK SMILES CCCCCCCCCCCCCCCCCCCCCCCCCCCC(=O)[O-]
REMARK SMILES IDX 15 1 16 2 17 3 18 4 19 5 20 6 21 7 22 8 23 9 24 10 25 11
REMARK SMILES IDX 26 12 27 13 28 14 29 15 30 16 14 17 13 18 12 19 11 20 10 21
REMARK SMILES IDX 9 22 8 23 7 24 6 25 5 26 4 27 3 28 2 29 1 30
REMARK H PARENT
REMARK Flexibility Score: inf
ROOT
ATOM      1  C   UNL     1      41.013  64.365  46.439  1.00  0.00     0.000 C 
ENDROOT
BRANCH   1   2
ATOM      2  C   UNL     1      40.342  65.152  47.580  1.00  0.00     0.000 C 
BRANCH   2   3
ATOM      3  C   UNL     1      40.453  66.673  47.392  1.00  0.00     0.000 C 
BRANCH   3   4
ATOM      4  C   UNL     1      40.274  67.446  48.708  1.00  0.00     0.000 C 
BRANCH   4   5
ATOM      5  C   UNL     1      41.634  67.763  49.341  1.00  0.00     0.000 C 
BRANCH   5   6
ATOM      6  C   UNL     1      42.751  67.779  48.287  1.00  0.00     0.000 C 
BRANCH   6   7
ATOM      7  C   UNL     1      43.961  66.912  48.682  1.00  0.00     0.000 C 
BRANCH   7   8
ATOM      8  C   UNL     1      44.354  67.035  50.169  1.00  0.00     0.000 C 
BRANCH   8   9
ATOM      9  C   UNL     1      45.209  65.847  50.645  1.00  0.00     0.000 C 
BRANCH   9  10
ATOM     10  C   UNL     1      44.791  65.334  52.032  1.00  0.00     0.000 C 
BRANCH  10  11
ATOM     11  C   UNL     1      43.808  66.277  52.742  1.00  0.00     0.000 C 
BRANCH  11  12
ATOM     12  C   UNL     1      42.895  65.494  53.697  1.00  0.00     0.006 C 
BRANCH  12  13
ATOM     13  C   UNL     1      43.615  64.305  54.347  1.00  0.00     0.053 C 
BRANCH  13  14
ATOM     14  C   UNL     1      43.484  64.317  55.839  1.00  0.00     0.041 C 
ATOM     15  O   UNL     1      43.918  63.351  56.523  1.00  0.00    -0.550 OA
ATOM     16  O   UNL     1      42.882  65.396  56.477  1.00  0.00    -0.550 OA
ENDBRANCH  13  14
ENDBRANCH  12  13
ENDBRANCH  11  12
ENDBRANCH  10  11
ENDBRANCH   9  10
ENDBRANCH   8   9
ENDBRANCH   7   8
ENDBRANCH   6   7
ENDBRANCH   5   6
ENDBRANCH   4   5
ENDBRANCH   3   4
ENDBRANCH   2   3
ENDBRANCH   1   2
BRANCH   1  17
ATOM     17  C   UNL     1      42.461  64.814  46.185  1.00  0.00     0.000 C 
BRANCH  17  18
ATOM     18  C   UNL     1      42.704  65.232  44.725  1.00  0.00     0.000 C 
BRANCH  18  19
ATOM     19  C   UNL     1      42.790  66.757  44.555  1.00  0.00     0.000 C 
BRANCH  19  20
ATOM     20  C   UNL     1      44.232  67.250  44.342  1.00  0.00     0.000 C 
BRANCH  20  21
ATOM     21  C   UNL     1      45.203  66.105  44.009  1.00  0.00     0.000 C 
BRANCH  21  22
ATOM     22  C   UNL     1      46.462  66.595  43.273  1.00  0.00    -0.000 C 
BRANCH  22  23
ATOM     23  C   UNL     1      46.984  65.573  42.250  1.00  0.00    -0.000 C 
BRANCH  23  24
ATOM     24  C   UNL     1      46.000  65.336  41.092  1.00  0.00    -0.000 C 
BRANCH  24  25
ATOM     25  C   UNL     1      45.354  66.639  40.592  1.00  0.00    -0.000 C 
BRANCH  25  26
ATOM     26  C   UNL     1      43.818  66.554  40.545  1.00  0.00    -0.000 C 
BRANCH  26  27
ATOM     27  C   UNL     1      43.282  65.178  40.979  1.00  0.00    -0.000 C 
BRANCH  27  28
ATOM     28  C   UNL     1      41.759  65.003  40.838  1.00  0.00    -0.000 C 
BRANCH  28  29
ATOM     29  C   UNL     1      41.371  64.051  39.697  1.00  0.00    -0.003 C 
ATOM     30  C   UNL     1      42.550  63.171  39.290  1.00  0.00     0.004 C 
ENDBRANCH  28  29
ENDBRANCH  27  28
ENDBRANCH  26  27
ENDBRANCH  25  26
ENDBRANCH  24  25
ENDBRANCH  23  24
ENDBRANCH  22  23
ENDBRANCH  21  22
ENDBRANCH  20  21
ENDBRANCH  19  20
ENDBRANCH  18  19
ENDBRANCH  17  18
ENDBRANCH   1  17
TORSDOF 26
ENDMDL
MODEL 2
REMARK VINA RESULT:    -4.032      4.985     11.072
REMARK INTER + INTRA:         -13.525
REMARK INTER:                 -10.440
REMARK INTRA:                  -3.086
REMARK UNBOUND:                -3.364
REMARK SMILES CCCCCCCCCCCCCCCCCCCCCCCCCCCC(=O)[O-]
REMARK SMILES IDX 15 1 16 2 17 3 18 4 19 5 20 6 21 7 22 8 23 9 24 10 25 11
REMARK SMILES IDX 26 12 27 13 28 14 29 15 30 16 14 17 13 18 12 19 11 20 10 21
REMARK SMILES IDX 9 22 8 23 7 24 6 25 5 26 4 27 3 28 2 29 1 30
REMARK H PARENT
REMARK Flexibility Score: inf
ROOT
ATOM      1  C   UNL     1      41.492  67.728  49.788  1.00  0.00     0.000 C 
ENDROOT
BRANCH   1   2
ATOM      2  C   UNL     1      40.423  67.945  48.700  1.00  0.00     0.000 C 
BRANCH   2   3
ATOM      3  C   UNL     1      39.938  66.628  48.077  1.00  0.00     0.000 C 
BRANCH   3   4
ATOM      4  C   UNL     1      40.669  66.287  46.769  1.00  0.00     0.000 C 
BRANCH   4   5
ATOM      5  C   UNL     1      41.194  64.846  46.800  1.00  0.00     0.000 C 
BRANCH   5   6
ATOM      6  C   UNL     1      42.519  64.717  46.035  1.00  0.00     0.000 C 
BRANCH   6   7
ATOM      7  C   UNL     1      43.622  65.641  46.584  1.00  0.00     0.000 C 
BRANCH   7   8
ATOM      8  C   UNL     1      44.308  66.499  45.501  1.00  0.00     0.000 C 
BRANCH   8   9
ATOM      9  C   UNL     1      43.541  67.805  45.224  1.00  0.00     0.000 C 
BRANCH   9  10
ATOM     10  C   UNL     1      43.183  67.978  43.739  1.00  0.00     0.000 C 
BRANCH  10  11
ATOM     11  C   UNL     1      41.684  67.783  43.464  1.00  0.00     0.000 C 
BRANCH  11  12
ATOM     12  C   UNL     1      41.394  66.340  43.029  1.00  0.00     0.006 C 
BRANCH  12  13
ATOM     13  C   UNL     1      42.590  65.695  42.315  1.00  0.00     0.053 C 
BRANCH  13  14
ATOM     14  C   UNL     1      42.359  65.565  40.840  1.00  0.00     0.041 C 
ATOM     15  O   UNL     1      41.691  66.439  40.223  1.00  0.00    -0.550 OA
ATOM     16  O   UNL     1      42.882  64.480  40.146  1.00  0.00    -0.550 OA
ENDBRANCH  13  14
ENDBRANCH  12  13
ENDBRANCH  11  12
ENDBRANCH  10  11
ENDBRANCH   9  10
ENDBRANCH   8   9
ENDBRANCH   7   8
ENDBRANCH   6   7
ENDBRANCH   5   6
ENDBRANCH   4   5
ENDBRANCH   3   4
ENDBRANCH   2   3
ENDBRANCH   1   2
BRANCH   1  17
ATOM     17  C   UNL     1      42.923  67.874  49.245  1.00  0.00     0.000 C 
BRANCH  17  18
ATOM     18  C   UNL     1      43.993  67.550  50.302  1.00  0.00     0.000 C 
BRANCH  18  19
ATOM     19  C   UNL     1      44.760  66.256  49.986  1.00  0.00     0.000 C 
BRANCH  19  20
ATOM     20  C   UNL     1      45.164  65.482  51.253  1.00  0.00     0.000 C 
BRANCH  20  21
ATOM     21  C   UNL     1      44.607  66.119  52.537  1.00  0.00     0.000 C 
BRANCH  21  22
ATOM     22  C   UNL     1      43.625  65.193  53.276  1.00  0.00    -0.000 C 
BRANCH  22  23
ATOM     23  C   UNL     1      42.355  65.926  53.736  1.00  0.00    -0.000 C 
BRANCH  23  24
ATOM     24  C   UNL     1      41.189  64.966  54.030  1.00  0.00    -0.000 C 
BRANCH  24  25
ATOM     25  C   UNL     1      40.595  65.173  55.433  1.00  0.00    -0.000 C 
BRANCH  25  26
ATOM     26  C   UNL     1      39.168  64.611  55.556  1.00  0.00    -0.000 C 
BRANCH  26  27
ATOM     27  C   UNL     1      39.068  63.448  56.560  1.00  0.00    -0.000 C 
BRANCH  27  28
ATOM     28  C   UNL     1      38.327  62.204  56.036  1.00  0.00    -0.000 C 
BRANCH  28  29
ATOM     29  C   UNL     1      36.801  62.378  56.026  1.00  0.00    -0.003 C 
ATOM     30  C   UNL     1      36.309  62.990  57.335  1.00  0.00     0.004 C 
ENDBRANCH  28  29
ENDBRANCH  27  28
ENDBRANCH  26  27
ENDBRANCH  25  26
ENDBRANCH  24  25
ENDBRANCH  23  24
ENDBRANCH  22  23
ENDBRANCH  21  22
ENDBRANCH  20  21
ENDBRANCH  19  20
ENDBRANCH  18  19
ENDBRANCH  17  18
ENDBRANCH   1  17
TORSDOF 26
ENDMDL
MODEL 3
REMARK VINA RESULT:    -3.984      5.164     11.461
REMARK INTER + INTRA:         -13.402
REMARK INTER:                 -11.337
REMARK INTRA:                  -2.066
REMARK UNBOUND:                -3.364
REMARK SMILES CCCCCCCCCCCCCCCCCCCCCCCCCCCC(=O)[O-]
REMARK SMILES IDX 15 1 16 2 17 3 18 4 19 5 20 6 21 7 22 8 23 9 24 10 25 11
REMARK SMILES IDX 26 12 27 13 28 14 29 15 30 16 14 17 13 18 12 19 11 20 10 21
REMARK SMILES IDX 9 22 8 23 7 24 6 25 5 26 4 27 3 28 2 29 1 30
REMARK H PARENT
REMARK Flexibility Score: inf
ROOT
ATOM      1  C   UNL     1      43.401  67.568  49.761  1.00  0.00     0.000 C 
ENDROOT
BRANCH   1   2
ATOM      2  C   UNL     1      42.365  67.946  48.686  1.00  0.00     0.000 C 
BRANCH   2   3
ATOM      3  C   UNL     1      40.919  67.722  49.155  1.00  0.00     0.000 C 
BRANCH   3   4
ATOM      4  C   UNL     1      40.138  66.774  48.232  1.00  0.00     0.000 C 
BRANCH   4   5
ATOM      5  C   UNL     1      40.961  66.432  46.984  1.00  0.00     0.000 C 
BRANCH   5   6
ATOM      6  C   UNL     1      41.205  64.920  46.872  1.00  0.00     0.000 C 
BRANCH   6   7
ATOM      7  C   UNL     1      42.312  64.564  45.862  1.00  0.00     0.000 C 
BRANCH   7   8
ATOM      8  C   UNL     1      43.681  65.193  46.195  1.00  0.00     0.000 C 
BRANCH   8   9
ATOM      9  C   UNL     1      44.105  66.246  45.155  1.00  0.00     0.000 C 
BRANCH   9  10
ATOM     10  C   UNL     1      44.692  65.618  43.881  1.00  0.00     0.000 C 
BRANCH  10  11
ATOM     11  C   UNL     1      43.750  65.738  42.674  1.00  0.00     0.000 C 
BRANCH  11  12
ATOM     12  C   UNL     1      44.549  65.949  41.380  1.00  0.00     0.006 C 
BRANCH  12  13
ATOM     13  C   UNL     1      45.122  64.637  40.827  1.00  0.00     0.053 C 
BRANCH  13  14
ATOM     14  C   UNL     1      46.599  64.725  40.592  1.00  0.00     0.041 C 
ATOM     15  O   UNL     1      47.385  64.914  41.560  1.00  0.00    -0.550 OA
ATOM     16  O   UNL     1      47.109  64.597  39.305  1.00  0.00    -0.550 OA
ENDBRANCH  13  14
ENDBRANCH  12  13
ENDBRANCH  11  12
ENDBRANCH  10  11
ENDBRANCH   9  10
ENDBRANCH   8   9
ENDBRANCH   7   8
ENDBRANCH   6   7
ENDBRANCH   5   6
ENDBRANCH   4   5
ENDBRANCH   3   4
ENDBRANCH   2   3
ENDBRANCH   1   2
BRANCH   1  17
ATOM     17  C   UNL     1      44.422  66.534  49.258  1.00  0.00     0.000 C 
BRANCH  17  18
ATOM     18  C   UNL     1      45.359  66.038  50.372  1.00  0.00     0.000 C 
BRANCH  18  19
ATOM     19  C   UNL     1      44.893  66.472  51.771  1.00  0.00     0.000 C 
BRANCH  19  20
ATOM     20  C   UNL     1      44.388  65.292  52.621  1.00  0.00     0.000 C 
BRANCH  20  21
ATOM     21  C   UNL     1      43.171  65.666  53.484  1.00  0.00     0.000 C 
BRANCH  21  22
ATOM     22  C   UNL     1      43.099  64.849  54.786  1.00  0.00    -0.000 C 
BRANCH  22  23
ATOM     23  C   UNL     1      41.774  65.055  55.539  1.00  0.00    -0.000 C 
BRANCH  23  24
ATOM     24  C   UNL     1      40.542  64.786  54.657  1.00  0.00    -0.000 C 
BRANCH  24  25
ATOM     25  C   UNL     1      39.240  64.721  55.471  1.00  0.00    -0.000 C 
BRANCH  25  26
ATOM     26  C   UNL     1      39.336  63.746  56.658  1.00  0.00    -0.000 C 
BRANCH  26  27
ATOM     27  C   UNL     1      38.443  62.503  56.485  1.00  0.00    -0.000 C 
BRANCH  27  28
ATOM     28  C   UNL     1      37.056  62.783  55.878  1.00  0.00    -0.000 C 
BRANCH  28  29
ATOM     29  C   UNL     1      36.288  61.499  55.528  1.00  0.00    -0.003 C 
ATOM     30  C   UNL     1      37.190  60.272  55.637  1.00  0.00     0.004 C 
ENDBRANCH  28  29
ENDBRANCH  27  28
ENDBRANCH  26  27
ENDBRANCH  25  26
ENDBRANCH  24  25
ENDBRANCH  23  24
ENDBRANCH  22  23
ENDBRANCH  21  22
ENDBRANCH  20  21
ENDBRANCH  19  20
ENDBRANCH  18  19
ENDBRANCH  17  18
ENDBRANCH   1  17
TORSDOF 26
ENDMDL
MODEL 4
REMARK VINA RESULT:    -3.975      4.843     11.552
REMARK INTER + INTRA:         -13.380
REMARK INTER:                 -11.115
REMARK INTRA:                  -2.266
REMARK UNBOUND:                -3.364
REMARK SMILES CCCCCCCCCCCCCCCCCCCCCCCCCCCC(=O)[O-]
REMARK SMILES IDX 15 1 16 2 17 3 18 4 19 5 20 6 21 7 22 8 23 9 24 10 25 11
REMARK SMILES IDX 26 12 27 13 28 14 29 15 30 16 14 17 13 18 12 19 11 20 10 21
REMARK SMILES IDX 9 22 8 23 7 24 6 25 5 26 4 27 3 28 2 29 1 30
REMARK H PARENT
REMARK Flexibility Score: inf
ROOT
ATOM      1  C   UNL     1      45.095  66.050  50.959  1.00  0.00     0.000 C 
ENDROOT
BRANCH   1   2
ATOM      2  C   UNL     1      44.647  67.512  51.141  1.00  0.00     0.000 C 
BRANCH   2   3
ATOM      3  C   UNL     1      43.444  67.876  50.257  1.00  0.00     0.000 C 
BRANCH   3   4
ATOM      4  C   UNL     1      43.470  67.157  48.898  1.00  0.00     0.000 C 
BRANCH   4   5
ATOM      5  C   UNL     1      42.582  67.886  47.882  1.00  0.00     0.000 C 
BRANCH   5   6
ATOM      6  C   UNL     1      41.093  67.705  48.209  1.00  0.00     0.000 C 
BRANCH   6   7
ATOM      7  C   UNL     1      40.523  66.370  47.693  1.00  0.00     0.000 C 
BRANCH   7   8
ATOM      8  C   UNL     1      41.045  65.971  46.297  1.00  0.00     0.000 C 
BRANCH   8   9
ATOM      9  C   UNL     1      41.739  64.597  46.307  1.00  0.00     0.000 C 
BRANCH   9  10
ATOM     10  C   UNL     1      43.202  64.668  45.843  1.00  0.00     0.000 C 
BRANCH  10  11
ATOM     11  C   UNL     1      43.512  65.949  45.054  1.00  0.00     0.000 C 
BRANCH  11  12
ATOM     12  C   UNL     1      44.334  65.628  43.797  1.00  0.00     0.006 C 
BRANCH  12  13
ATOM     13  C   UNL     1      43.446  65.331  42.581  1.00  0.00     0.053 C 
BRANCH  13  14
ATOM     14  C   UNL     1      42.452  66.424  42.331  1.00  0.00     0.041 C 
ATOM     15  O   UNL     1      42.768  67.420  41.625  1.00  0.00    -0.550 OA
ATOM     16  O   UNL     1      41.177  66.343  42.878  1.00  0.00    -0.550 OA
ENDBRANCH  13  14
ENDBRANCH  12  13
ENDBRANCH  11  12
ENDBRANCH  10  11
ENDBRANCH   9  10
ENDBRANCH   8   9
ENDBRANCH   7   8
ENDBRANCH   6   7
ENDBRANCH   5   6
ENDBRANCH   4   5
ENDBRANCH   3   4
ENDBRANCH   2   3
ENDBRANCH   1   2
BRANCH   1  17
ATOM     17  C   UNL     1      44.721  65.165  52.159  1.00  0.00     0.000 C 
BRANCH  17  18
ATOM     18  C   UNL     1      43.719  65.845  53.107  1.00  0.00     0.000 C 
BRANCH  18  19
ATOM     19  C   UNL     1      42.959  64.836  53.983  1.00  0.00     0.000 C 
BRANCH  19  20
ATOM     20  C   UNL     1      43.893  64.019  54.893  1.00  0.00     0.000 C 
BRANCH  20  21
ATOM     21  C   UNL     1      43.408  63.979  56.352  1.00  0.00     0.000 C 
BRANCH  21  22
ATOM     22  C   UNL     1      42.637  65.249  56.752  1.00  0.00    -0.000 C 
BRANCH  22  23
ATOM     23  C   UNL     1      41.231  64.942  57.292  1.00  0.00    -0.000 C 
BRANCH  23  24
ATOM     24  C   UNL     1      40.120  65.628  56.479  1.00  0.00    -0.000 C 
BRANCH  24  25
ATOM     25  C   UNL     1      39.145  64.621  55.847  1.00  0.00    -0.000 C 
BRANCH  25  26
ATOM     26  C   UNL     1      37.760  65.233  55.575  1.00  0.00    -0.000 C 
BRANCH  26  27
ATOM     27  C   UNL     1      36.704  64.179  55.195  1.00  0.00    -0.000 C 
BRANCH  27  28
ATOM     28  C   UNL     1      36.426  63.122  56.279  1.00  0.00    -0.000 C 
BRANCH  28  29
ATOM     29  C   UNL     1      36.259  61.707  55.705  1.00  0.00    -0.003 C 
ATOM     30  C   UNL     1      37.568  60.926  55.779  1.00  0.00     0.004 C 
ENDBRANCH  28  29
ENDBRANCH  27  28
ENDBRANCH  26  27
ENDBRANCH  25  26
ENDBRANCH  24  25
ENDBRANCH  23  24
ENDBRANCH  22  23
ENDBRANCH  21  22
ENDBRANCH  20  21
ENDBRANCH  19  20
ENDBRANCH  18  19
ENDBRANCH  17  18
ENDBRANCH   1  17
TORSDOF 26
ENDMDL
MODEL 5
REMARK VINA RESULT:    -3.891      5.394     12.171
REMARK INTER + INTRA:         -13.168
REMARK INTER:                 -10.980
REMARK INTRA:                  -2.189
REMARK UNBOUND:                -3.364
REMARK SMILES CCCCCCCCCCCCCCCCCCCCCCCCCCCC(=O)[O-]
REMARK SMILES IDX 15 1 16 2 17 3 18 4 19 5 20 6 21 7 22 8 23 9 24 10 25 11
REMARK SMILES IDX 26 12 27 13 28 14 29 15 30 16 14 17 13 18 12 19 11 20 10 21
REMARK SMILES IDX 9 22 8 23 7 24 6 25 5 26 4 27 3 28 2 29 1 30
REMARK H PARENT
REMARK Flexibility Score: inf
ROOT
ATOM      1  C   UNL     1      45.147  65.877  50.614  1.00  0.00     0.000 C 
ENDROOT
BRANCH   1   2
ATOM      2  C   UNL     1      44.375  67.155  50.234  1.00  0.00     0.000 C 
BRANCH   2   3
ATOM      3  C   UNL     1      43.540  66.982  48.955  1.00  0.00     0.000 C 
BRANCH   3   4
ATOM      4  C   UNL     1      44.378  66.494  47.763  1.00  0.00     0.000 C 
BRANCH   4   5
ATOM      5  C   UNL     1      43.492  65.786  46.731  1.00  0.00     0.000 C 
BRANCH   5   6
ATOM      6  C   UNL     1      42.013  65.823  47.143  1.00  0.00     0.000 C 
BRANCH   6   7
ATOM      7  C   UNL     1      41.123  66.555  46.122  1.00  0.00     0.000 C 
BRANCH   7   8
ATOM      8  C   UNL     1      41.869  67.635  45.311  1.00  0.00     0.000 C 
BRANCH   8   9
ATOM      9  C   UNL     1      41.562  67.546  43.805  1.00  0.00     0.000 C 
BRANCH   9  10
ATOM     10  C   UNL     1      41.570  66.100  43.282  1.00  0.00     0.000 C 
BRANCH  10  11
ATOM     11  C   UNL     1      42.991  65.556  43.069  1.00  0.00     0.000 C 
BRANCH  11  12
ATOM     12  C   UNL     1      43.399  65.661  41.593  1.00  0.00     0.006 C 
BRANCH  12  13
ATOM     13  C   UNL     1      42.257  65.271  40.644  1.00  0.00     0.053 C 
BRANCH  13  14
ATOM     14  C   UNL     1      42.505  63.950  39.981  1.00  0.00     0.041 C 
ATOM     15  O   UNL     1      43.677  63.495  39.892  1.00  0.00    -0.550 OA
ATOM     16  O   UNL     1      41.441  63.221  39.463  1.00  0.00    -0.550 OA
ENDBRANCH  13  14
ENDBRANCH  12  13
ENDBRANCH  11  12
ENDBRANCH  10  11
ENDBRANCH   9  10
ENDBRANCH   8   9
ENDBRANCH   7   8
ENDBRANCH   6   7
ENDBRANCH   5   6
ENDBRANCH   4   5
ENDBRANCH   3   4
ENDBRANCH   2   3
ENDBRANCH   1   2
BRANCH   1  17
ATOM     17  C   UNL     1      44.749  65.339  51.998  1.00  0.00     0.000 C 
BRANCH  17  18
ATOM     18  C   UNL     1      43.740  66.249  52.720  1.00  0.00     0.000 C 
BRANCH  18  19
ATOM     19  C   UNL     1      42.998  65.523  53.853  1.00  0.00     0.000 C 
BRANCH  19  20
ATOM     20  C   UNL     1      43.722  64.245  54.314  1.00  0.00     0.000 C 
BRANCH  20  21
ATOM     21  C   UNL     1      43.608  64.018  55.831  1.00  0.00     0.000 C 
BRANCH  21  22
ATOM     22  C   UNL     1      42.780  65.110  56.530  1.00  0.00    -0.000 C 
BRANCH  22  23
ATOM     23  C   UNL     1      41.475  64.566  57.132  1.00  0.00    -0.000 C 
BRANCH  23  24
ATOM     24  C   UNL     1      40.227  65.025  56.358  1.00  0.00    -0.000 C 
BRANCH  24  25
ATOM     25  C   UNL     1      38.924  64.476  56.962  1.00  0.00    -0.000 C 
BRANCH  25  26
ATOM     26  C   UNL     1      38.530  63.112  56.368  1.00  0.00    -0.000 C 
BRANCH  26  27
ATOM     27  C   UNL     1      37.044  62.772  56.587  1.00  0.00    -0.000 C 
BRANCH  27  28
ATOM     28  C   UNL     1      36.165  62.873  55.327  1.00  0.00    -0.000 C 
BRANCH  28  29
ATOM     29  C   UNL     1      36.101  64.297  54.756  1.00  0.00    -0.003 C 
ATOM     30  C   UNL     1      35.164  65.177  55.578  1.00  0.00     0.004 C 
ENDBRANCH  28  29
ENDBRANCH  27  28
ENDBRANCH  26  27
ENDBRANCH  25  26
ENDBRANCH  24  25
ENDBRANCH  23  24
ENDBRANCH  22  23
ENDBRANCH  21  22
ENDBRANCH  20  21
ENDBRANCH  19  20
ENDBRANCH  18  19
ENDBRANCH  17  18
ENDBRANCH   1  17
TORSDOF 26
ENDMDL
MODEL 6
REMARK VINA RESULT:    -3.891     12.367     16.566
REMARK INTER + INTRA:         -13.168
REMARK INTER:                 -10.806
REMARK INTRA:                  -2.362
REMARK UNBOUND:                -3.364
REMARK SMILES CCCCCCCCCCCCCCCCCCCCCCCCCCCC(=O)[O-]
REMARK SMILES IDX 15 1 16 2 17 3 18 4 19 5 20 6 21 7 22 8 23 9 24 10 25 11
REMARK SMILES IDX 26 12 27 13 28 14 29 15 30 16 14 17 13 18 12 19 11 20 10 21
REMARK SMILES IDX 9 22 8 23 7 24 6 25 5 26 4 27 3 28 2 29 1 30
REMARK H PARENT
REMARK Flexibility Score: inf
ROOT
ATOM      1  C   UNL     1      37.238  59.486  55.210  1.00  0.00     0.000 C 
ENDROOT
BRANCH   1   2
ATOM      2  C   UNL     1      37.260  58.026  55.699  1.00  0.00     0.000 C 
BRANCH   2   3
ATOM      3  C   UNL     1      37.635  57.906  57.184  1.00  0.00     0.000 C 
BRANCH   3   4
ATOM      4  C   UNL     1      37.385  56.498  57.746  1.00  0.00     0.000 C 
BRANCH   4   5
ATOM      5  C   UNL     1      36.870  55.560  56.647  1.00  0.00     0.000 C 
BRANCH   5   6
ATOM      6  C   UNL     1      35.674  54.730  57.135  1.00  0.00     0.000 C 
BRANCH   6   7
ATOM      7  C   UNL     1      35.148  53.750  56.070  1.00  0.00     0.000 C 
BRANCH   7   8
ATOM      8  C   UNL     1      35.097  52.284  56.547  1.00  0.00     0.000 C 
BRANCH   8   9
ATOM      9  C   UNL     1      34.184  51.416  55.662  1.00  0.00     0.000 C 
BRANCH   9  10
ATOM     10  C   UNL     1      33.259  52.253  54.764  1.00  0.00     0.000 C 
BRANCH  10  11
ATOM     11  C   UNL     1      33.491  51.992  53.268  1.00  0.00     0.000 C 
BRANCH  11  12
ATOM     12  C   UNL     1      32.191  51.537  52.588  1.00  0.00     0.006 C 
BRANCH  12  13
ATOM     13  C   UNL     1      32.343  50.178  51.890  1.00  0.00     0.053 C 
BRANCH  13  14
ATOM     14  C   UNL     1      31.797  50.200  50.495  1.00  0.00     0.041 C 
ATOM     15  O   UNL     1      30.879  49.403  50.161  1.00  0.00    -0.550 OA
ATOM     16  O   UNL     1      32.302  51.099  49.564  1.00  0.00    -0.550 OA
ENDBRANCH  13  14
ENDBRANCH  12  13
ENDBRANCH  11  12
ENDBRANCH  10  11
ENDBRANCH   9  10
ENDBRANCH   8   9
ENDBRANCH   7   8
ENDBRANCH   6   7
ENDBRANCH   5   6
ENDBRANCH   4   5
ENDBRANCH   3   4
ENDBRANCH   2   3
ENDBRANCH   1   2
BRANCH   1  17
ATOM     17  C   UNL     1      36.127  60.315  55.877  1.00  0.00     0.000 C 
BRANCH  17  18
ATOM     18  C   UNL     1      36.554  61.767  56.148  1.00  0.00     0.000 C 
BRANCH  18  19
ATOM     19  C   UNL     1      37.360  61.911  57.449  1.00  0.00     0.000 C 
BRANCH  19  20
ATOM     20  C   UNL     1      38.721  62.595  57.229  1.00  0.00     0.000 C 
BRANCH  20  21
ATOM     21  C   UNL     1      38.800  63.334  55.883  1.00  0.00     0.000 C 
BRANCH  21  22
ATOM     22  C   UNL     1      38.377  64.809  55.994  1.00  0.00    -0.000 C 
BRANCH  22  23
ATOM     23  C   UNL     1      38.444  65.335  57.436  1.00  0.00    -0.000 C 
BRANCH  23  24
ATOM     24  C   UNL     1      37.170  66.091  57.853  1.00  0.00    -0.000 C 
BRANCH  24  25
ATOM     25  C   UNL     1      35.905  65.228  57.724  1.00  0.00    -0.000 C 
BRANCH  25  26
ATOM     26  C   UNL     1      34.760  65.964  57.006  1.00  0.00    -0.000 C 
BRANCH  26  27
ATOM     27  C   UNL     1      34.641  65.578  55.520  1.00  0.00    -0.000 C 
BRANCH  27  28
ATOM     28  C   UNL     1      35.393  66.506  54.549  1.00  0.00    -0.000 C 
BRANCH  28  29
ATOM     29  C   UNL     1      34.503  67.027  53.411  1.00  0.00    -0.003 C 
ATOM     30  C   UNL     1      33.063  67.212  53.880  1.00  0.00     0.004 C 
ENDBRANCH  28  29
ENDBRANCH  27  28
ENDBRANCH  26  27
ENDBRANCH  25  26
ENDBRANCH  24  25
ENDBRANCH  23  24
ENDBRANCH  22  23
ENDBRANCH  21  22
ENDBRANCH  20  21
ENDBRANCH  19  20
ENDBRANCH  18  19
ENDBRANCH  17  18
ENDBRANCH   1  17
TORSDOF 26
ENDMDL
MODEL 7
REMARK VINA RESULT:    -3.886      1.755      3.876
REMARK INTER + INTRA:         -13.155
REMARK INTER:                  -9.672
REMARK INTRA:                  -3.483
REMARK UNBOUND:                -3.364
REMARK SMILES CCCCCCCCCCCCCCCCCCCCCCCCCCCC(=O)[O-]
REMARK SMILES IDX 15 1 16 2 17 3 18 4 19 5 20 6 21 7 22 8 23 9 24 10 25 11
REMARK SMILES IDX 26 12 27 13 28 14 29 15 30 16 14 17 13 18 12 19 11 20 10 21
REMARK SMILES IDX 9 22 8 23 7 24 6 25 5 26 4 27 3 28 2 29 1 30
REMARK H PARENT
REMARK Flexibility Score: inf
ROOT
ATOM      1  C   UNL     1      41.602  67.395  48.709  1.00  0.00     0.000 C 
ENDROOT
BRANCH   1   2
ATOM      2  C   UNL     1      42.937  68.063  48.329  1.00  0.00     0.000 C 
BRANCH   2   3
ATOM      3  C   UNL     1      44.021  67.867  49.400  1.00  0.00     0.000 C 
BRANCH   3   4
ATOM      4  C   UNL     1      44.358  66.387  49.638  1.00  0.00     0.000 C 
BRANCH   4   5
ATOM      5  C   UNL     1      45.394  66.239  50.759  1.00  0.00     0.000 C 
BRANCH   5   6
ATOM      6  C   UNL     1      44.770  65.621  52.019  1.00  0.00     0.000 C 
BRANCH   6   7
ATOM      7  C   UNL     1      43.615  66.461  52.592  1.00  0.00     0.000 C 
BRANCH   7   8
ATOM      8  C   UNL     1      42.958  65.842  53.843  1.00  0.00     0.000 C 
BRANCH   8   9
ATOM      9  C   UNL     1      43.450  64.408  54.108  1.00  0.00     0.000 C 
BRANCH   9  10
ATOM     10  C   UNL     1      43.586  64.095  55.607  1.00  0.00     0.000 C 
BRANCH  10  11
ATOM     11  C   UNL     1      42.736  65.025  56.485  1.00  0.00     0.000 C 
BRANCH  11  12
ATOM     12  C   UNL     1      41.793  64.213  57.385  1.00  0.00     0.006 C 
BRANCH  12  13
ATOM     13  C   UNL     1      40.351  64.737  57.341  1.00  0.00     0.053 C 
BRANCH  13  14
ATOM     14  C   UNL     1      39.606  64.229  56.144  1.00  0.00     0.041 C 
ATOM     15  O   UNL     1      39.497  64.947  55.113  1.00  0.00    -0.550 OA
ATOM     16  O   UNL     1      39.032  62.963  56.166  1.00  0.00    -0.550 OA
ENDBRANCH  13  14
ENDBRANCH  12  13
ENDBRANCH  11  12
ENDBRANCH  10  11
ENDBRANCH   9  10
ENDBRANCH   8   9
ENDBRANCH   7   8
ENDBRANCH   6   7
ENDBRANCH   5   6
ENDBRANCH   4   5
ENDBRANCH   3   4
ENDBRANCH   2   3
ENDBRANCH   1   2
BRANCH   1  17
ATOM     17  C   UNL     1      40.801  66.938  47.479  1.00  0.00     0.000 C 
BRANCH  17  18
ATOM     18  C   UNL     1      40.888  65.420  47.247  1.00  0.00     0.000 C 
BRANCH  18  19
ATOM     19  C   UNL     1      41.357  65.067  45.826  1.00  0.00     0.000 C 
BRANCH  19  20
ATOM     20  C   UNL     1      42.746  64.405  45.807  1.00  0.00     0.000 C 
BRANCH  20  21
ATOM     21  C   UNL     1      43.879  65.405  46.089  1.00  0.00     0.000 C 
BRANCH  21  22
ATOM     22  C   UNL     1      44.355  66.131  44.818  1.00  0.00    -0.000 C 
BRANCH  22  23
ATOM     23  C   UNL     1      44.121  67.648  44.882  1.00  0.00    -0.000 C 
BRANCH  23  24
ATOM     24  C   UNL     1      42.688  68.045  44.486  1.00  0.00    -0.000 C 
BRANCH  24  25
ATOM     25  C   UNL     1      42.425  67.876  42.981  1.00  0.00    -0.000 C 
BRANCH  25  26
ATOM     26  C   UNL     1      41.402  66.765  42.684  1.00  0.00    -0.000 C 
BRANCH  26  27
ATOM     27  C   UNL     1      41.901  65.762  41.627  1.00  0.00    -0.000 C 
BRANCH  27  28
ATOM     28  C   UNL     1      43.346  65.273  41.831  1.00  0.00    -0.000 C 
BRANCH  28  29
ATOM     29  C   UNL     1      44.206  65.409  40.565  1.00  0.00    -0.003 C 
ATOM     30  C   UNL     1      45.001  66.712  40.577  1.00  0.00     0.004 C 
ENDBRANCH  28  29
ENDBRANCH  27  28
ENDBRANCH  26  27
ENDBRANCH  25  26
ENDBRANCH  24  25
ENDBRANCH  23  24
ENDBRANCH  22  23
ENDBRANCH  21  22
ENDBRANCH  20  21
ENDBRANCH  19  20
ENDBRANCH  18  19
ENDBRANCH  17  18
ENDBRANCH   1  17
TORSDOF 26
ENDMDL
MODEL 8
REMARK VINA RESULT:    -3.883      8.250     11.887
REMARK INTER + INTRA:         -13.148
REMARK INTER:                 -11.672
REMARK INTRA:                  -1.476
REMARK UNBOUND:                -3.364
REMARK SMILES CCCCCCCCCCCCCCCCCCCCCCCCCCCC(=O)[O-]
REMARK SMILES IDX 15 1 16 2 17 3 18 4 19 5 20 6 21 7 22 8 23 9 24 10 25 11
REMARK SMILES IDX 26 12 27 13 28 14 29 15 30 16 14 17 13 18 12 19 11 20 10 21
REMARK SMILES IDX 9 22 8 23 7 24 6 25 5 26 4 27 3 28 2 29 1 30
REMARK H PARENT
REMARK Flexibility Score: inf
ROOT
ATOM      1  C   UNL     1      38.205  64.282  56.369  1.00  0.00     0.000 C 
ENDROOT
BRANCH   1   2
ATOM      2  C   UNL     1      38.409  62.867  56.941  1.00  0.00     0.000 C 
BRANCH   2   3
ATOM      3  C   UNL     1      38.078  61.764  55.924  1.00  0.00     0.000 C 
BRANCH   3   4
ATOM      4  C   UNL     1      36.574  61.455  55.856  1.00  0.00     0.000 C 
BRANCH   4   5
ATOM      5  C   UNL     1      36.322  59.950  56.017  1.00  0.00     0.000 C 
BRANCH   5   6
ATOM      6  C   UNL     1      36.404  59.523  57.489  1.00  0.00     0.000 C 
BRANCH   6   7
ATOM      7  C   UNL     1      37.628  58.640  57.792  1.00  0.00     0.000 C 
BRANCH   7   8
ATOM      8  C   UNL     1      37.679  57.344  56.956  1.00  0.00     0.000 C 
BRANCH   8   9
ATOM      9  C   UNL     1      36.860  56.208  57.595  1.00  0.00     0.000 C 
BRANCH   9  10
ATOM     10  C   UNL     1      36.947  54.895  56.801  1.00  0.00     0.000 C 
BRANCH  10  11
ATOM     11  C   UNL     1      35.667  54.053  56.906  1.00  0.00     0.000 C 
BRANCH  11  12
ATOM     12  C   UNL     1      34.799  54.223  55.651  1.00  0.00     0.006 C 
BRANCH  12  13
ATOM     13  C   UNL     1      33.469  53.463  55.754  1.00  0.00     0.053 C 
BRANCH  13  14
ATOM     14  C   UNL     1      33.452  52.242  54.887  1.00  0.00     0.041 C 
ATOM     15  O   UNL     1      32.414  51.938  54.239  1.00  0.00    -0.550 OA
ATOM     16  O   UNL     1      34.583  51.439  54.792  1.00  0.00    -0.550 OA
ENDBRANCH  13  14
ENDBRANCH  12  13
ENDBRANCH  11  12
ENDBRANCH  10  11
ENDBRANCH   9  10
ENDBRANCH   8   9
ENDBRANCH   7   8
ENDBRANCH   6   7
ENDBRANCH   5   6
ENDBRANCH   4   5
ENDBRANCH   3   4
ENDBRANCH   2   3
ENDBRANCH   1   2
BRANCH   1  17
ATOM     17  C   UNL     1      39.400  64.754  55.524  1.00  0.00     0.000 C 
BRANCH  17  18
ATOM     18  C   UNL     1      40.718  64.764  56.316  1.00  0.00     0.000 C 
BRANCH  18  19
ATOM     19  C   UNL     1      41.841  65.514  55.582  1.00  0.00     0.000 C 
BRANCH  19  20
ATOM     20  C   UNL     1      43.114  64.665  55.420  1.00  0.00     0.000 C 
BRANCH  20  21
ATOM     21  C   UNL     1      43.615  64.625  53.967  1.00  0.00     0.000 C 
BRANCH  21  22
ATOM     22  C   UNL     1      43.251  65.897  53.182  1.00  0.00    -0.000 C 
BRANCH  22  23
ATOM     23  C   UNL     1      44.443  66.470  52.399  1.00  0.00    -0.000 C 
BRANCH  23  24
ATOM     24  C   UNL     1      45.122  65.422  51.500  1.00  0.00    -0.000 C 
BRANCH  24  25
ATOM     25  C   UNL     1      45.195  65.867  50.030  1.00  0.00    -0.000 C 
BRANCH  25  26
ATOM     26  C   UNL     1      44.230  67.023  49.716  1.00  0.00    -0.000 C 
BRANCH  26  27
ATOM     27  C   UNL     1      43.394  66.776  48.447  1.00  0.00    -0.000 C 
BRANCH  27  28
ATOM     28  C   UNL     1      44.149  66.076  47.302  1.00  0.00    -0.000 C 
BRANCH  28  29
ATOM     29  C   UNL     1      43.250  65.767  46.095  1.00  0.00    -0.003 C 
ATOM     30  C   UNL     1      43.578  64.400  45.502  1.00  0.00     0.004 C 
ENDBRANCH  28  29
ENDBRANCH  27  28
ENDBRANCH  26  27
ENDBRANCH  25  26
ENDBRANCH  24  25
ENDBRANCH  23  24
ENDBRANCH  22  23
ENDBRANCH  21  22
ENDBRANCH  20  21
ENDBRANCH  19  20
ENDBRANCH  18  19
ENDBRANCH  17  18
ENDBRANCH   1  17
TORSDOF 26
ENDMDL
MODEL 9
REMARK VINA RESULT:    -3.873     12.623     16.529
REMARK INTER + INTRA:         -13.124
REMARK INTER:                 -11.556
REMARK INTRA:                  -1.567
REMARK UNBOUND:                -3.364
REMARK SMILES CCCCCCCCCCCCCCCCCCCCCCCCCCCC(=O)[O-]
REMARK SMILES IDX 15 1 16 2 17 3 18 4 19 5 20 6 21 7 22 8 23 9 24 10 25 11
REMARK SMILES IDX 26 12 27 13 28 14 29 15 30 16 14 17 13 18 12 19 11 20 10 21
REMARK SMILES IDX 9 22 8 23 7 24 6 25 5 26 4 27 3 28 2 29 1 30
REMARK H PARENT
REMARK Flexibility Score: inf
ROOT
ATOM      1  C   UNL     1      37.311  55.757  56.613  1.00  0.00     0.000 C 
ENDROOT
BRANCH   1   2
ATOM      2  C   UNL     1      37.182  56.580  57.908  1.00  0.00     0.000 C 
BRANCH   2   3
ATOM      3  C   UNL     1      37.650  58.033  57.734  1.00  0.00     0.000 C 
BRANCH   3   4
ATOM      4  C   UNL     1      36.588  58.920  57.065  1.00  0.00     0.000 C 
BRANCH   4   5
ATOM      5  C   UNL     1      37.079  59.420  55.701  1.00  0.00     0.000 C 
BRANCH   5   6
ATOM      6  C   UNL     1      37.582  60.869  55.784  1.00  0.00     0.000 C 
BRANCH   6   7
ATOM      7  C   UNL     1      36.440  61.902  55.770  1.00  0.00     0.000 C 
BRANCH   7   8
ATOM      8  C   UNL     1      36.767  63.197  56.542  1.00  0.00     0.000 C 
BRANCH   8   9
ATOM      9  C   UNL     1      37.169  64.348  55.602  1.00  0.00     0.000 C 
BRANCH   9  10
ATOM     10  C   UNL     1      36.084  64.670  54.561  1.00  0.00     0.000 C 
BRANCH  10  11
ATOM     11  C   UNL     1      35.074  65.714  55.060  1.00  0.00     0.000 C 
BRANCH  11  12
ATOM     12  C   UNL     1      34.945  66.869  54.058  1.00  0.00     0.006 C 
BRANCH  12  13
ATOM     13  C   UNL     1      33.481  67.234  53.774  1.00  0.00     0.053 C 
BRANCH  13  14
ATOM     14  C   UNL     1      32.604  67.001  54.966  1.00  0.00     0.041 C 
ATOM     15  O   UNL     1      31.870  65.978  55.024  1.00  0.00    -0.550 OA
ATOM     16  O   UNL     1      32.598  67.914  56.014  1.00  0.00    -0.550 OA
ENDBRANCH  13  14
ENDBRANCH  12  13
ENDBRANCH  11  12
ENDBRANCH  10  11
ENDBRANCH   9  10
ENDBRANCH   8   9
ENDBRANCH   7   8
ENDBRANCH   6   7
ENDBRANCH   5   6
ENDBRANCH   4   5
ENDBRANCH   3   4
ENDBRANCH   2   3
ENDBRANCH   1   2
BRANCH   1  17
ATOM     17  C   UNL     1      36.034  54.963  56.290  1.00  0.00     0.000 C 
BRANCH  17  18
ATOM     18  C   UNL     1      35.213  54.626  57.546  1.00  0.00     0.000 C 
BRANCH  18  19
ATOM     19  C   UNL     1      34.614  53.212  57.496  1.00  0.00     0.000 C 
BRANCH  19  20
ATOM     20  C   UNL     1      35.463  52.237  56.662  1.00  0.00     0.000 C 
BRANCH  20  21
ATOM     21  C   UNL     1      34.628  51.464  55.627  1.00  0.00     0.000 C 
BRANCH  21  22
ATOM     22  C   UNL     1      33.823  52.396  54.705  1.00  0.00    -0.000 C 
BRANCH  22  23
ATOM     23  C   UNL     1      32.449  51.816  54.333  1.00  0.00    -0.000 C 
BRANCH  23  24
ATOM     24  C   UNL     1      32.512  50.877  53.115  1.00  0.00    -0.000 C 
BRANCH  24  25
ATOM     25  C   UNL     1      32.330  51.626  51.785  1.00  0.00    -0.000 C 
BRANCH  25  26
ATOM     26  C   UNL     1      31.990  50.680  50.619  1.00  0.00    -0.000 C 
BRANCH  26  27
ATOM     27  C   UNL     1      32.101  49.193  51.004  1.00  0.00    -0.000 C 
BRANCH  27  28
ATOM     28  C   UNL     1      33.002  48.352  50.081  1.00  0.00    -0.000 C 
BRANCH  28  29
ATOM     29  C   UNL     1      33.171  48.971  48.686  1.00  0.00    -0.003 C 
ATOM     30  C   UNL     1      34.620  48.882  48.216  1.00  0.00     0.004 C 
ENDBRANCH  28  29
ENDBRANCH  27  28
ENDBRANCH  26  27
ENDBRANCH  25  26
ENDBRANCH  24  25
ENDBRANCH  23  24
ENDBRANCH  22  23
ENDBRANCH  21  22
ENDBRANCH  20  21
ENDBRANCH  19  20
ENDBRANCH  18  19
ENDBRANCH  17  18
ENDBRANCH   1  17
TORSDOF 26
ENDMDL
