MODEL 1
REMARK VINA RESULT:    -4.985      0.000      0.000
REMARK INTER + INTRA:         -11.498
REMARK INTER:                  -9.648
REMARK INTRA:                  -1.850
REMARK UNBOUND:                -1.850
REMARK SMILES CCCCCCCCCCCCCCCCCC(=O)[O-]
REMARK SMILES IDX 10 1 11 2 12 3 13 4 14 5 15 6 16 7 17 8 18 9 19 10 20 11
REMARK SMILES IDX 9 12 8 13 7 14 6 15 5 16 4 17 3 18 2 19 1 20
REMARK H PARENT
REMARK Flexibility Score: inf
ROOT
ATOM      1  C   UNL     1       5.044   3.159  13.045  1.00  0.00     0.000 C 
ENDROOT
BRANCH   1   2
ATOM      2  C   UNL     1       4.952   1.629  12.875  1.00  0.00     0.000 C 
BRANCH   2   3
ATOM      3  C   UNL     1       6.256   0.856  13.160  1.00  0.00     0.000 C 
BRANCH   3   4
ATOM      4  C   UNL     1       6.068  -0.522  13.818  1.00  0.00     0.000 C 
BRANCH   4   5
ATOM      5  C   UNL     1       5.289  -1.506  12.932  1.00  0.00     0.000 C 
BRANCH   5   6
ATOM      6  C   UNL     1       4.044  -2.079  13.632  1.00  0.00     0.000 C 
BRANCH   6   7
ATOM      7  C   UNL     1       3.727  -1.400  14.982  1.00  0.00     0.006 C 
BRANCH   7   8
ATOM      8  C   UNL     1       2.268  -1.616  15.407  1.00  0.00     0.053 C 
BRANCH   8   9
ATOM      9  C   UNL     1       1.447  -0.405  15.099  1.00  0.00     0.041 C 
ATOM     10  O   UNL     1       0.772  -0.352  14.037  1.00  0.00    -0.550 OA
ATOM     11  O   UNL     1       1.393   0.648  16.003  1.00  0.00    -0.550 OA
ENDBRANCH   8   9
ENDBRANCH   7   8
ENDBRANCH   6   7
ENDBRANCH   5   6
ENDBRANCH   4   5
ENDBRANCH   3   4
ENDBRANCH   2   3
ENDBRANCH   1   2
BRANCH   1  12
ATOM     12  C   UNL     1       3.701   3.873  13.282  1.00  0.00     0.000 C 
BRANCH  12  13
ATOM     13  C   UNL     1       3.242   3.805  14.749  1.00  0.00    -0.000 C 
BRANCH  13  14
ATOM     14  C   UNL     1       4.404   3.558  15.728  1.00  0.00    -0.000 C 
BRANCH  14  15
ATOM     15  C   UNL     1       4.485   2.131  16.310  1.00  0.00    -0.000 C 
BRANCH  15  16
ATOM     16  C   UNL     1       4.126   2.007  17.801  1.00  0.00    -0.000 C 
BRANCH  16  17
ATOM     17  C   UNL     1       4.777   0.786  18.474  1.00  0.00    -0.000 C 
BRANCH  17  18
ATOM     18  C   UNL     1       5.706   0.015  17.523  1.00  0.00    -0.000 C 
BRANCH  18  19
ATOM     19  C   UNL     1       5.832  -1.470  17.892  1.00  0.00    -0.003 C 
ATOM     20  C   UNL     1       6.599  -1.647  19.200  1.00  0.00     0.004 C 
ENDBRANCH  18  19
ENDBRANCH  17  18
ENDBRANCH  16  17
ENDBRANCH  15  16
ENDBRANCH  14  15
ENDBRANCH  13  14
ENDBRANCH  12  13
ENDBRANCH   1  12
TORSDOF 16
ENDMDL
MODEL 2
REMARK VINA RESULT:    -4.654      1.167      3.498
REMARK INTER + INTRA:         -10.858
REMARK INTER:                  -8.807
REMARK INTRA:                  -2.050
REMARK UNBOUND:                -1.850
REMARK SMILES CCCCCCCCCCCCCCCCCC(=O)[O-]
REMARK SMILES IDX 10 1 11 2 12 3 13 4 14 5 15 6 16 7 17 8 18 9 19 10 20 11
REMARK SMILES IDX 9 12 8 13 7 14 6 15 5 16 4 17 3 18 2 19 1 20
REMARK H PARENT
REMARK Flexibility Score: inf
ROOT
ATOM      1  C   UNL     1       5.428   3.391  13.000  1.00  0.00     0.000 C 
ENDROOT
BRANCH   1   2
ATOM      2  C   UNL     1       3.923   3.702  13.128  1.00  0.00     0.000 C 
BRANCH   2   3
ATOM      3  C   UNL     1       3.405   3.858  14.572  1.00  0.00     0.000 C 
BRANCH   3   4
ATOM      4  C   UNL     1       4.484   3.772  15.667  1.00  0.00     0.000 C 
BRANCH   4   5
ATOM      5  C   UNL     1       4.602   2.368  16.280  1.00  0.00     0.000 C 
BRANCH   5   6
ATOM      6  C   UNL     1       3.258   1.832  16.804  1.00  0.00     0.000 C 
BRANCH   6   7
ATOM      7  C   UNL     1       2.368   1.214  15.703  1.00  0.00     0.006 C 
BRANCH   7   8
ATOM      8  C   UNL     1       2.508  -0.312  15.638  1.00  0.00     0.053 C 
BRANCH   8   9
ATOM      9  C   UNL     1       1.451  -0.899  14.758  1.00  0.00     0.041 C 
ATOM     10  O   UNL     1       1.684  -1.950  14.104  1.00  0.00    -0.550 OA
ATOM     11  O   UNL     1       0.195  -0.311  14.692  1.00  0.00    -0.550 OA
ENDBRANCH   8   9
ENDBRANCH   7   8
ENDBRANCH   6   7
ENDBRANCH   5   6
ENDBRANCH   4   5
ENDBRANCH   3   4
ENDBRANCH   2   3
ENDBRANCH   1   2
BRANCH   1  12
ATOM     12  C   UNL     1       5.779   1.897  12.875  1.00  0.00     0.000 C 
BRANCH  12  13
ATOM     13  C   UNL     1       4.541   0.987  12.935  1.00  0.00    -0.000 C 
BRANCH  13  14
ATOM     14  C   UNL     1       4.901  -0.505  13.060  1.00  0.00    -0.000 C 
BRANCH  14  15
ATOM     15  C   UNL     1       6.411  -0.814  13.148  1.00  0.00    -0.000 C 
BRANCH  15  16
ATOM     16  C   UNL     1       6.827  -1.736  14.309  1.00  0.00    -0.000 C 
BRANCH  16  17
ATOM     17  C   UNL     1       5.749  -1.845  15.401  1.00  0.00    -0.000 C 
BRANCH  17  18
ATOM     18  C   UNL     1       6.142  -1.113  16.694  1.00  0.00    -0.000 C 
BRANCH  18  19
ATOM     19  C   UNL     1       5.187  -1.411  17.858  1.00  0.00    -0.003 C 
ATOM     20  C   UNL     1       5.347  -0.385  18.976  1.00  0.00     0.004 C 
ENDBRANCH  18  19
ENDBRANCH  17  18
ENDBRANCH  16  17
ENDBRANCH  15  16
ENDBRANCH  14  15
ENDBRANCH  13  14
ENDBRANCH  12  13
ENDBRANCH   1  12
TORSDOF 16
ENDMDL
MODEL 3
REMARK VINA RESULT:    -4.562      1.125      4.250
REMARK INTER + INTRA:         -10.679
REMARK INTER:                  -8.322
REMARK INTRA:                  -2.357
REMARK UNBOUND:                -1.850
REMARK SMILES CCCCCCCCCCCCCCCCCC(=O)[O-]
REMARK SMILES IDX 10 1 11 2 12 3 13 4 14 5 15 6 16 7 17 8 18 9 19 10 20 11
REMARK SMILES IDX 9 12 8 13 7 14 6 15 5 16 4 17 3 18 2 19 1 20
REMARK H PARENT
REMARK Flexibility Score: inf
ROOT
ATOM      1  C   UNL     1       5.443  -1.539  16.689  1.00  0.00     0.000 C 
ENDROOT
BRANCH   1   2
ATOM      2  C   UNL     1       6.608  -2.125  15.865  1.00  0.00     0.000 C 
BRANCH   2   3
ATOM      3  C   UNL     1       6.612  -1.745  14.370  1.00  0.00     0.000 C 
BRANCH   3   4
ATOM      4  C   UNL     1       6.625  -0.233  14.081  1.00  0.00     0.000 C 
BRANCH   4   5
ATOM      5  C   UNL     1       5.436   0.221  13.221  1.00  0.00     0.000 C 
BRANCH   5   6
ATOM      6  C   UNL     1       4.435  -0.914  12.942  1.00  0.00     0.000 C 
BRANCH   6   7
ATOM      7  C   UNL     1       2.997  -0.597  13.405  1.00  0.00     0.006 C 
BRANCH   7   8
ATOM      8  C   UNL     1       2.963  -0.005  14.820  1.00  0.00     0.053 C 
BRANCH   8   9
ATOM      9  C   UNL     1       1.554   0.249  15.250  1.00  0.00     0.041 C 
ATOM     10  O   UNL     1       1.321   0.897  16.304  1.00  0.00    -0.550 OA
ATOM     11  O   UNL     1       0.497  -0.194  14.465  1.00  0.00    -0.550 OA
ENDBRANCH   8   9
ENDBRANCH   7   8
ENDBRANCH   6   7
ENDBRANCH   5   6
ENDBRANCH   4   5
ENDBRANCH   3   4
ENDBRANCH   2   3
ENDBRANCH   1   2
BRANCH   1  12
ATOM     12  C   UNL     1       5.639  -1.572  18.216  1.00  0.00     0.000 C 
BRANCH  12  13
ATOM     13  C   UNL     1       5.964  -0.189  18.805  1.00  0.00    -0.000 C 
BRANCH  13  14
ATOM     14  C   UNL     1       4.726   0.516  19.390  1.00  0.00    -0.000 C 
BRANCH  14  15
ATOM     15  C   UNL     1       4.144   1.655  18.526  1.00  0.00    -0.000 C 
BRANCH  15  16
ATOM     16  C   UNL     1       4.784   1.818  17.134  1.00  0.00    -0.000 C 
BRANCH  16  17
ATOM     17  C   UNL     1       4.281   3.065  16.388  1.00  0.00    -0.000 C 
BRANCH  17  18
ATOM     18  C   UNL     1       4.954   3.244  15.018  1.00  0.00    -0.000 C 
BRANCH  18  19
ATOM     19  C   UNL     1       3.941   3.444  13.881  1.00  0.00    -0.003 C 
ATOM     20  C   UNL     1       2.611   3.967  14.417  1.00  0.00     0.004 C 
ENDBRANCH  18  19
ENDBRANCH  17  18
ENDBRANCH  16  17
ENDBRANCH  15  16
ENDBRANCH  14  15
ENDBRANCH  13  14
ENDBRANCH  12  13
ENDBRANCH   1  12
TORSDOF 16
ENDMDL
MODEL 4
REMARK VINA RESULT:    -4.325      1.611      3.843
REMARK INTER + INTRA:         -10.220
REMARK INTER:                  -8.492
REMARK INTRA:                  -1.728
REMARK UNBOUND:                -1.850
REMARK SMILES CCCCCCCCCCCCCCCCCC(=O)[O-]
REMARK SMILES IDX 10 1 11 2 12 3 13 4 14 5 15 6 16 7 17 8 18 9 19 10 20 11
REMARK SMILES IDX 9 12 8 13 7 14 6 15 5 16 4 17 3 18 2 19 1 20
REMARK H PARENT
REMARK Flexibility Score: inf
ROOT
ATOM      1  C   UNL     1       3.452  -1.785  15.540  1.00  0.00     0.000 C 
ENDROOT
BRANCH   1   2
ATOM      2  C   UNL     1       4.750  -1.986  14.734  1.00  0.00     0.000 C 
BRANCH   2   3
ATOM      3  C   UNL     1       4.779  -1.299  13.353  1.00  0.00     0.000 C 
BRANCH   3   4
ATOM      4  C   UNL     1       6.172  -0.850  12.875  1.00  0.00     0.000 C 
BRANCH   4   5
ATOM      5  C   UNL     1       6.395   0.663  13.026  1.00  0.00     0.000 C 
BRANCH   5   6
ATOM      6  C   UNL     1       5.094   1.473  12.891  1.00  0.00     0.000 C 
BRANCH   6   7
ATOM      7  C   UNL     1       5.287   2.990  13.106  1.00  0.00     0.006 C 
BRANCH   7   8
ATOM      8  C   UNL     1       3.955   3.752  13.065  1.00  0.00     0.053 C 
BRANCH   8   9
ATOM      9  C   UNL     1       3.507   4.100  14.449  1.00  0.00     0.041 C 
ATOM     10  O   UNL     1       2.280   4.219  14.705  1.00  0.00    -0.550 OA
ATOM     11  O   UNL     1       4.441   4.253  15.465  1.00  0.00    -0.550 OA
ENDBRANCH   8   9
ENDBRANCH   7   8
ENDBRANCH   6   7
ENDBRANCH   5   6
ENDBRANCH   4   5
ENDBRANCH   3   4
ENDBRANCH   2   3
ENDBRANCH   1   2
BRANCH   1  12
ATOM     12  C   UNL     1       2.157  -1.788  14.707  1.00  0.00     0.000 C 
BRANCH  12  13
ATOM     13  C   UNL     1       1.320  -0.511  14.903  1.00  0.00    -0.000 C 
BRANCH  13  14
ATOM     14  C   UNL     1       2.177   0.769  14.906  1.00  0.00    -0.000 C 
BRANCH  14  15
ATOM     15  C   UNL     1       2.509   1.337  16.302  1.00  0.00    -0.000 C 
BRANCH  15  16
ATOM     16  C   UNL     1       3.988   1.233  16.719  1.00  0.00    -0.000 C 
BRANCH  16  17
ATOM     17  C   UNL     1       4.227   1.651  18.180  1.00  0.00    -0.000 C 
BRANCH  17  18
ATOM     18  C   UNL     1       4.892   0.540  19.010  1.00  0.00    -0.000 C 
BRANCH  18  19
ATOM     19  C   UNL     1       5.374  -0.636  18.147  1.00  0.00    -0.003 C 
ATOM     20  C   UNL     1       6.354  -1.516  18.918  1.00  0.00     0.004 C 
ENDBRANCH  18  19
ENDBRANCH  17  18
ENDBRANCH  16  17
ENDBRANCH  15  16
ENDBRANCH  14  15
ENDBRANCH  13  14
ENDBRANCH  12  13
ENDBRANCH   1  12
TORSDOF 16
ENDMDL
MODEL 5
REMARK VINA RESULT:    -4.300      0.918      2.033
REMARK INTER + INTRA:         -10.172
REMARK INTER:                  -8.002
REMARK INTRA:                  -2.169
REMARK UNBOUND:                -1.850
REMARK SMILES CCCCCCCCCCCCCCCCCC(=O)[O-]
REMARK SMILES IDX 10 1 11 2 12 3 13 4 14 5 15 6 16 7 17 8 18 9 19 10 20 11
REMARK SMILES IDX 9 12 8 13 7 14 6 15 5 16 4 17 3 18 2 19 1 20
REMARK H PARENT
REMARK Flexibility Score: inf
ROOT
ATOM      1  C   UNL     1       3.877   4.122  14.231  1.00  0.00     0.000 C 
ENDROOT
BRANCH   1   2
ATOM      2  C   UNL     1       4.945   3.474  13.327  1.00  0.00     0.000 C 
BRANCH   2   3
ATOM      3  C   UNL     1       4.636   2.031  12.875  1.00  0.00     0.000 C 
BRANCH   3   4
ATOM      4  C   UNL     1       5.782   1.024  13.077  1.00  0.00     0.000 C 
BRANCH   4   5
ATOM      5  C   UNL     1       5.282  -0.414  13.288  1.00  0.00     0.000 C 
BRANCH   5   6
ATOM      6  C   UNL     1       3.752  -0.497  13.432  1.00  0.00     0.000 C 
BRANCH   6   7
ATOM      7  C   UNL     1       3.268  -1.778  14.146  1.00  0.00     0.006 C 
BRANCH   7   8
ATOM      8  C   UNL     1       2.573  -1.468  15.478  1.00  0.00     0.053 C 
BRANCH   8   9
ATOM      9  C   UNL     1       1.410  -0.552  15.262  1.00  0.00     0.041 C 
ATOM     10  O   UNL     1       1.360   0.557  15.856  1.00  0.00    -0.550 OA
ATOM     11  O   UNL     1       0.402  -0.905  14.374  1.00  0.00    -0.550 OA
ENDBRANCH   8   9
ENDBRANCH   7   8
ENDBRANCH   6   7
ENDBRANCH   5   6
ENDBRANCH   4   5
ENDBRANCH   3   4
ENDBRANCH   2   3
ENDBRANCH   1   2
BRANCH   1  12
ATOM     12  C   UNL     1       3.205   3.169  15.237  1.00  0.00     0.000 C 
BRANCH  12  13
ATOM     13  C   UNL     1       4.108   2.839  16.438  1.00  0.00    -0.000 C 
BRANCH  13  14
ATOM     14  C   UNL     1       4.399   1.333  16.570  1.00  0.00    -0.000 C 
BRANCH  14  15
ATOM     15  C   UNL     1       5.892   0.943  16.538  1.00  0.00    -0.000 C 
BRANCH  15  16
ATOM     16  C   UNL     1       6.176  -0.568  16.461  1.00  0.00    -0.000 C 
BRANCH  16  17
ATOM     17  C   UNL     1       5.413  -1.374  17.526  1.00  0.00    -0.000 C 
BRANCH  17  18
ATOM     18  C   UNL     1       6.282  -1.703  18.751  1.00  0.00    -0.000 C 
BRANCH  18  19
ATOM     19  C   UNL     1       6.284  -0.578  19.796  1.00  0.00    -0.003 C 
ATOM     20  C   UNL     1       4.931   0.127  19.845  1.00  0.00     0.004 C 
ENDBRANCH  18  19
ENDBRANCH  17  18
ENDBRANCH  16  17
ENDBRANCH  15  16
ENDBRANCH  14  15
ENDBRANCH  13  14
ENDBRANCH  12  13
ENDBRANCH   1  12
TORSDOF 16
ENDMDL
MODEL 6
REMARK VINA RESULT:    -4.227      2.145      4.901
REMARK INTER + INTRA:         -10.030
REMARK INTER:                  -8.876
REMARK INTRA:                  -1.154
REMARK UNBOUND:                -1.850
REMARK SMILES CCCCCCCCCCCCCCCCCC(=O)[O-]
REMARK SMILES IDX 10 1 11 2 12 3 13 4 14 5 15 6 16 7 17 8 18 9 19 10 20 11
REMARK SMILES IDX 9 12 8 13 7 14 6 15 5 16 4 17 3 18 2 19 1 20
REMARK H PARENT
REMARK Flexibility Score: inf
ROOT
ATOM      1  C   UNL     1       4.747   3.306  14.393  1.00  0.00     0.000 C 
ENDROOT
BRANCH   1   2
ATOM      2  C   UNL     1       3.262   3.341  14.804  1.00  0.00     0.000 C 
BRANCH   2   3
ATOM      3  C   UNL     1       2.825   2.231  15.783  1.00  0.00     0.000 C 
BRANCH   3   4
ATOM      4  C   UNL     1       3.714   2.074  17.030  1.00  0.00     0.000 C 
BRANCH   4   5
ATOM      5  C   UNL     1       5.210   1.983  16.689  1.00  0.00     0.000 C 
BRANCH   5   6
ATOM      6  C   UNL     1       5.677   0.538  16.440  1.00  0.00     0.000 C 
BRANCH   6   7
ATOM      7  C   UNL     1       4.734  -0.528  17.039  1.00  0.00     0.006 C 
BRANCH   7   8
ATOM      8  C   UNL     1       5.428  -1.371  18.117  1.00  0.00     0.053 C 
BRANCH   8   9
ATOM      9  C   UNL     1       5.545  -0.600  19.393  1.00  0.00     0.041 C 
ATOM     10  O   UNL     1       4.557   0.043  19.836  1.00  0.00    -0.550 OA
ATOM     11  O   UNL     1       6.730  -0.626  20.115  1.00  0.00    -0.550 OA
ENDBRANCH   8   9
ENDBRANCH   7   8
ENDBRANCH   6   7
ENDBRANCH   5   6
ENDBRANCH   4   5
ENDBRANCH   3   4
ENDBRANCH   2   3
ENDBRANCH   1   2
BRANCH   1  12
ATOM     12  C   UNL     1       5.021   2.780  12.972  1.00  0.00     0.000 C 
BRANCH  12  13
ATOM     13  C   UNL     1       4.924   1.247  12.875  1.00  0.00    -0.000 C 
BRANCH  13  14
ATOM     14  C   UNL     1       6.269   0.546  13.138  1.00  0.00    -0.000 C 
BRANCH  14  15
ATOM     15  C   UNL     1       6.251  -0.991  13.001  1.00  0.00    -0.000 C 
BRANCH  15  16
ATOM     16  C   UNL     1       4.853  -1.624  12.877  1.00  0.00    -0.000 C 
BRANCH  16  17
ATOM     17  C   UNL     1       4.279  -2.076  14.230  1.00  0.00    -0.000 C 
BRANCH  17  18
ATOM     18  C   UNL     1       2.744  -2.006  14.273  1.00  0.00    -0.000 C 
BRANCH  18  19
ATOM     19  C   UNL     1       2.209  -0.583  14.062  1.00  0.00    -0.003 C 
ATOM     20  C   UNL     1       0.921  -0.358  14.850  1.00  0.00     0.004 C 
ENDBRANCH  18  19
ENDBRANCH  17  18
ENDBRANCH  16  17
ENDBRANCH  15  16
ENDBRANCH  14  15
ENDBRANCH  13  14
ENDBRANCH  12  13
ENDBRANCH   1  12
TORSDOF 16
ENDMDL
MODEL 7
REMARK VINA RESULT:    -4.002      0.930      4.011
REMARK INTER + INTRA:          -9.595
REMARK INTER:                  -8.228
REMARK INTRA:                  -1.367
REMARK UNBOUND:                -1.850
REMARK SMILES CCCCCCCCCCCCCCCCCC(=O)[O-]
REMARK SMILES IDX 10 1 11 2 12 3 13 4 14 5 15 6 16 7 17 8 18 9 19 10 20 11
REMARK SMILES IDX 9 12 8 13 7 14 6 15 5 16 4 17 3 18 2 19 1 20
REMARK H PARENT
REMARK Flexibility Score: inf
ROOT
ATOM      1  C   UNL     1       4.769   1.945  17.703  1.00  0.00     0.000 C 
ENDROOT
BRANCH   1   2
ATOM      2  C   UNL     1       4.191   1.266  18.962  1.00  0.00     0.000 C 
BRANCH   2   3
ATOM      3  C   UNL     1       4.905  -0.031  19.395  1.00  0.00     0.000 C 
BRANCH   3   4
ATOM      4  C   UNL     1       6.150  -0.399  18.568  1.00  0.00     0.000 C 
BRANCH   4   5
ATOM      5  C   UNL     1       5.874  -1.503  17.535  1.00  0.00     0.000 C 
BRANCH   5   6
ATOM      6  C   UNL     1       4.375  -1.677  17.236  1.00  0.00     0.000 C 
BRANCH   6   7
ATOM      7  C   UNL     1       3.930  -1.026  15.908  1.00  0.00     0.006 C 
BRANCH   7   8
ATOM      8  C   UNL     1       2.570  -1.555  15.433  1.00  0.00     0.053 C 
BRANCH   8   9
ATOM      9  C   UNL     1       1.603  -0.429  15.254  1.00  0.00     0.041 C 
ATOM     10  O   UNL     1       1.773   0.655  15.870  1.00  0.00    -0.550 OA
ATOM     11  O   UNL     1       0.537  -0.562  14.374  1.00  0.00    -0.550 OA
ENDBRANCH   8   9
ENDBRANCH   7   8
ENDBRANCH   6   7
ENDBRANCH   5   6
ENDBRANCH   4   5
ENDBRANCH   3   4
ENDBRANCH   2   3
ENDBRANCH   1   2
BRANCH   1  12
ATOM     12  C   UNL     1       3.722   2.510  16.726  1.00  0.00     0.000 C 
BRANCH  12  13
ATOM     13  C   UNL     1       4.336   3.446  15.671  1.00  0.00    -0.000 C 
BRANCH  13  14
ATOM     14  C   UNL     1       3.582   3.411  14.329  1.00  0.00    -0.000 C 
BRANCH  14  15
ATOM     15  C   UNL     1       4.453   3.632  13.075  1.00  0.00    -0.000 C 
BRANCH  15  16
ATOM     16  C   UNL     1       5.590   2.613  12.875  1.00  0.00    -0.000 C 
BRANCH  16  17
ATOM     17  C   UNL     1       5.255   1.225  13.448  1.00  0.00    -0.000 C 
BRANCH  17  18
ATOM     18  C   UNL     1       6.479   0.296  13.499  1.00  0.00    -0.000 C 
BRANCH  18  19
ATOM     19  C   UNL     1       6.128  -1.165  13.184  1.00  0.00    -0.003 C 
ATOM     20  C   UNL     1       7.000  -2.124  13.990  1.00  0.00     0.004 C 
ENDBRANCH  18  19
ENDBRANCH  17  18
ENDBRANCH  16  17
ENDBRANCH  15  16
ENDBRANCH  14  15
ENDBRANCH  13  14
ENDBRANCH  12  13
ENDBRANCH   1  12
TORSDOF 16
ENDMDL
MODEL 8
REMARK VINA RESULT:    -3.923      1.362      5.278
REMARK INTER + INTRA:          -9.442
REMARK INTER:                  -7.835
REMARK INTRA:                  -1.608
REMARK UNBOUND:                -1.850
REMARK SMILES CCCCCCCCCCCCCCCCCC(=O)[O-]
REMARK SMILES IDX 10 1 11 2 12 3 13 4 14 5 15 6 16 7 17 8 18 9 19 10 20 11
REMARK SMILES IDX 9 12 8 13 7 14 6 15 5 16 4 17 3 18 2 19 1 20
REMARK H PARENT
REMARK Flexibility Score: inf
ROOT
ATOM      1  C   UNL     1       4.972  -1.419  18.129  1.00  0.00     0.000 C 
ENDROOT
BRANCH   1   2
ATOM      2  C   UNL     1       5.340  -0.244  19.057  1.00  0.00     0.000 C 
BRANCH   2   3
ATOM      3  C   UNL     1       4.558   1.062  18.805  1.00  0.00     0.000 C 
BRANCH   3   4
ATOM      4  C   UNL     1       4.813   1.723  17.438  1.00  0.00     0.000 C 
BRANCH   4   5
ATOM      5  C   UNL     1       3.519   2.000  16.658  1.00  0.00     0.000 C 
BRANCH   5   6
ATOM      6  C   UNL     1       2.768   0.713  16.274  1.00  0.00     0.000 C 
BRANCH   6   7
ATOM      7  C   UNL     1       1.766   0.906  15.115  1.00  0.00     0.006 C 
BRANCH   7   8
ATOM      8  C   UNL     1       1.033  -0.396  14.764  1.00  0.00     0.053 C 
BRANCH   8   9
ATOM      9  C   UNL     1       1.988  -1.547  14.743  1.00  0.00     0.041 C 
ATOM     10  O   UNL     1       2.444  -1.970  13.648  1.00  0.00    -0.550 OA
ATOM     11  O   UNL     1       2.407  -2.125  15.934  1.00  0.00    -0.550 OA
ENDBRANCH   8   9
ENDBRANCH   7   8
ENDBRANCH   6   7
ENDBRANCH   5   6
ENDBRANCH   4   5
ENDBRANCH   3   4
ENDBRANCH   2   3
ENDBRANCH   1   2
BRANCH   1  12
ATOM     12  C   UNL     1       6.007  -1.739  17.035  1.00  0.00     0.000 C 
BRANCH  12  13
ATOM     13  C   UNL     1       5.796  -0.911  15.755  1.00  0.00    -0.000 C 
BRANCH  13  14
ATOM     14  C   UNL     1       5.896  -1.758  14.473  1.00  0.00    -0.000 C 
BRANCH  14  15
ATOM     15  C   UNL     1       5.906  -0.959  13.153  1.00  0.00    -0.000 C 
BRANCH  15  16
ATOM     16  C   UNL     1       6.154   0.553  13.301  1.00  0.00    -0.000 C 
BRANCH  16  17
ATOM     17  C   UNL     1       4.895   1.395  13.031  1.00  0.00    -0.000 C 
BRANCH  17  18
ATOM     18  C   UNL     1       5.103   2.885  13.348  1.00  0.00    -0.000 C 
BRANCH  18  19
ATOM     19  C   UNL     1       3.846   3.727  13.086  1.00  0.00    -0.003 C 
ATOM     20  C   UNL     1       3.233   4.220  14.394  1.00  0.00     0.004 C 
ENDBRANCH  18  19
ENDBRANCH  17  18
ENDBRANCH  16  17
ENDBRANCH  15  16
ENDBRANCH  14  15
ENDBRANCH  13  14
ENDBRANCH  12  13
ENDBRANCH   1  12
TORSDOF 16
ENDMDL
MODEL 9
REMARK VINA RESULT:    -3.914      1.623      5.033
REMARK INTER + INTRA:          -9.426
REMARK INTER:                  -7.875
REMARK INTRA:                  -1.551
REMARK UNBOUND:                -1.850
REMARK SMILES CCCCCCCCCCCCCCCCCC(=O)[O-]
REMARK SMILES IDX 10 1 11 2 12 3 13 4 14 5 15 6 16 7 17 8 18 9 19 10 20 11
REMARK SMILES IDX 9 12 8 13 7 14 6 15 5 16 4 17 3 18 2 19 1 20
REMARK H PARENT
REMARK Flexibility Score: inf
ROOT
ATOM      1  C   UNL     1       4.369   1.614  19.125  1.00  0.00     0.000 C 
ENDROOT
BRANCH   1   2
ATOM      2  C   UNL     1       3.992   2.033  17.690  1.00  0.00     0.000 C 
BRANCH   2   3
ATOM      3  C   UNL     1       4.558   1.131  16.573  1.00  0.00     0.000 C 
BRANCH   3   4
ATOM      4  C   UNL     1       5.826   1.664  15.883  1.00  0.00     0.000 C 
BRANCH   4   5
ATOM      5  C   UNL     1       6.189   0.880  14.612  1.00  0.00     0.000 C 
BRANCH   5   6
ATOM      6  C   UNL     1       5.806   1.627  13.323  1.00  0.00     0.000 C 
BRANCH   6   7
ATOM      7  C   UNL     1       4.307   1.988  13.240  1.00  0.00     0.006 C 
BRANCH   7   8
ATOM      8  C   UNL     1       4.078   3.505  13.258  1.00  0.00     0.053 C 
BRANCH   8   9
ATOM      9  C   UNL     1       3.385   3.916  14.518  1.00  0.00     0.041 C 
ATOM     10  O   UNL     1       2.191   3.572  14.725  1.00  0.00    -0.550 OA
ATOM     11  O   UNL     1       4.069   4.644  15.483  1.00  0.00    -0.550 OA
ENDBRANCH   8   9
ENDBRANCH   7   8
ENDBRANCH   6   7
ENDBRANCH   5   6
ENDBRANCH   4   5
ENDBRANCH   3   4
ENDBRANCH   2   3
ENDBRANCH   1   2
BRANCH   1  12
ATOM     12  C   UNL     1       4.566   0.101  19.335  1.00  0.00     0.000 C 
BRANCH  12  13
ATOM     13  C   UNL     1       5.992  -0.366  18.996  1.00  0.00    -0.000 C 
BRANCH  13  14
ATOM     14  C   UNL     1       6.027  -1.779  18.385  1.00  0.00    -0.000 C 
BRANCH  14  15
ATOM     15  C   UNL     1       5.904  -1.838  16.848  1.00  0.00    -0.000 C 
BRANCH  15  16
ATOM     16  C   UNL     1       4.464  -1.819  16.302  1.00  0.00    -0.000 C 
BRANCH  16  17
ATOM     17  C   UNL     1       4.397  -2.071  14.786  1.00  0.00    -0.000 C 
BRANCH  17  18
ATOM     18  C   UNL     1       3.164  -1.425  14.135  1.00  0.00    -0.000 C 
BRANCH  18  19
ATOM     19  C   UNL     1       1.973  -1.314  15.099  1.00  0.00    -0.003 C 
ATOM     20  C   UNL     1       1.393   0.098  15.094  1.00  0.00     0.004 C 
ENDBRANCH  18  19
ENDBRANCH  17  18
ENDBRANCH  16  17
ENDBRANCH  15  16
ENDBRANCH  14  15
ENDBRANCH  13  14
ENDBRANCH  12  13
ENDBRANCH   1  12
TORSDOF 16
ENDMDL
