MODEL 1
REMARK VINA RESULT:    -4.304      0.000      0.000
REMARK INTER + INTRA:          -5.462
REMARK INTER:                  -5.185
REMARK INTRA:                  -0.277
REMARK UNBOUND:                -0.277
REMARK SMILES O=c1c(O)c(-c2ccc(O)c(O)c2)oc2cc(O)cc(O)c12
REMARK SMILES IDX 5 1 3 2 2 3 1 4 22 5 20 6 19 7 17 8 16 9 15 10 14 11 6 12
REMARK SMILES IDX 7 13 8 14 9 15 13 16 11 17 10 18 12 20 4 22 21 24 18 26
REMARK H PARENT 10 19 12 21 4 23 21 25 18 27
REMARK Flexibility Score: inf
ROOT
ATOM      1  C   UNL     1     156.333 158.320 144.621  1.00  0.00     0.180 A 
ATOM      2  C   UNL     1     157.734 158.217 144.564  1.00  0.00     0.208 A 
ATOM      3  C   UNL     1     158.457 158.096 145.762  1.00  0.00     0.238 A 
ATOM      4  O   UNL     1     159.714 158.058 145.709  1.00  0.00    -0.285 OA
ATOM      5  C   UNL     1     157.770 158.063 147.000  1.00  0.00     0.111 A 
ATOM      6  C   UNL     1     158.397 157.903 148.271  1.00  0.00     0.134 A 
ATOM      7  C   UNL     1     157.632 158.017 149.439  1.00  0.00     0.093 A 
ATOM      8  C   UNL     1     156.251 158.219 149.377  1.00  0.00     0.123 A 
ATOM      9  C   UNL     1     155.620 158.317 148.140  1.00  0.00     0.094 A 
ATOM     10  C   UNL     1     156.362 158.244 146.958  1.00  0.00     0.146 A 
ATOM     11  O   UNL     1     155.723 158.353 145.800  1.00  0.00    -0.452 OA
ENDROOT
BRANCH   1  12
ATOM     12  C   UNL     1     155.502 158.425 143.400  1.00  0.00     0.025 A 
ATOM     13  C   UNL     1     154.979 159.658 142.975  1.00  0.00     0.016 A 
ATOM     14  C   UNL     1     154.217 159.736 141.806  1.00  0.00     0.051 A 
ATOM     15  C   UNL     1     153.976 158.588 141.039  1.00  0.00     0.157 A 
ATOM     16  C   UNL     1     155.276 157.281 142.617  1.00  0.00     0.062 A 
ATOM     17  C   UNL     1     154.511 157.355 141.447  1.00  0.00     0.158 A 
BRANCH  15  18
ATOM     18  O   UNL     1     153.214 158.670 139.875  1.00  0.00    -0.504 OA
ATOM     19  H   UNL     1     152.201 158.691 139.905  1.00  0.00     0.293 HD
ENDBRANCH  15  18
BRANCH  17  20
ATOM     20  O   UNL     1     154.297 156.195 140.703  1.00  0.00    -0.504 OA
ATOM     21  H   UNL     1     154.821 155.992 139.861  1.00  0.00     0.293 HD
ENDBRANCH  17  20
ENDBRANCH   1  12
BRANCH   2  22
ATOM     22  O   UNL     1     158.395 158.272 143.334  1.00  0.00    -0.502 OA
ATOM     23  H   UNL     1     157.976 158.687 142.510  1.00  0.00     0.293 HD
ENDBRANCH   2  22
BRANCH   6  24
ATOM     24  O   UNL     1     159.753 157.607 148.441  1.00  0.00    -0.507 OA
ATOM     25  H   UNL     1     160.511 158.211 148.164  1.00  0.00     0.293 HD
ENDBRANCH   6  24
BRANCH   8  26
ATOM     26  O   UNL     1     155.494 158.315 150.543  1.00  0.00    -0.508 OA
ATOM     27  H   UNL     1     155.117 159.201 150.859  1.00  0.00     0.293 HD
ENDBRANCH   8  26
TORSDOF 6
ENDMDL
MODEL 2
REMARK VINA RESULT:    -4.039      1.554      6.988
REMARK INTER + INTRA:          -5.142
REMARK INTER:                  -4.867
REMARK INTRA:                  -0.275
REMARK UNBOUND:                -0.277
REMARK SMILES O=c1c(O)c(-c2ccc(O)c(O)c2)oc2cc(O)cc(O)c12
REMARK SMILES IDX 5 1 3 2 2 3 1 4 22 5 20 6 19 7 17 8 16 9 15 10 14 11 6 12
REMARK SMILES IDX 7 13 8 14 9 15 13 16 11 17 10 18 12 20 4 22 21 24 18 26
REMARK H PARENT 10 19 12 21 4 23 21 25 18 27
REMARK Flexibility Score: inf
ROOT
ATOM      1  C   UNL     1     156.647 157.335 144.517  1.00  0.00     0.180 A 
ATOM      2  C   UNL     1     156.584 156.017 144.034  1.00  0.00     0.208 A 
ATOM      3  C   UNL     1     155.870 155.759 142.852  1.00  0.00     0.238 A 
ATOM      4  O   UNL     1     155.772 154.569 142.453  1.00  0.00    -0.285 OA
ATOM      5  C   UNL     1     155.244 156.823 142.160  1.00  0.00     0.111 A 
ATOM      6  C   UNL     1     154.530 156.683 140.932  1.00  0.00     0.134 A 
ATOM      7  C   UNL     1     153.839 157.781 140.405  1.00  0.00     0.093 A 
ATOM      8  C   UNL     1     153.892 159.031 141.027  1.00  0.00     0.123 A 
ATOM      9  C   UNL     1     154.636 159.193 142.194  1.00  0.00     0.094 A 
ATOM     10  C   UNL     1     155.305 158.107 142.764  1.00  0.00     0.146 A 
ATOM     11  O   UNL     1     155.994 158.301 143.881  1.00  0.00    -0.452 OA
ENDROOT
BRANCH   1  12
ATOM     12  C   UNL     1     157.400 157.690 145.742  1.00  0.00     0.025 A 
ATOM     13  C   UNL     1     158.805 157.735 145.749  1.00  0.00     0.016 A 
ATOM     14  C   UNL     1     159.494 158.096 146.911  1.00  0.00     0.051 A 
ATOM     15  C   UNL     1     158.790 158.428 148.076  1.00  0.00     0.157 A 
ATOM     16  C   UNL     1     156.700 158.044 146.906  1.00  0.00     0.062 A 
ATOM     17  C   UNL     1     157.386 158.404 148.071  1.00  0.00     0.158 A 
BRANCH  15  18
ATOM     18  O   UNL     1     159.481 158.785 149.234  1.00  0.00    -0.504 OA
ATOM     19  H   UNL     1     158.993 159.056 150.079  1.00  0.00     0.293 HD
ENDBRANCH  15  18
BRANCH  17  20
ATOM     20  O   UNL     1     156.656 158.737 149.213  1.00  0.00    -0.504 OA
ATOM     21  H   UNL     1     156.060 159.555 149.251  1.00  0.00     0.293 HD
ENDBRANCH  17  20
ENDBRANCH   1  12
BRANCH   2  22
ATOM     22  O   UNL     1     157.191 154.977 144.743  1.00  0.00    -0.502 OA
ATOM     23  H   UNL     1     157.650 154.201 144.283  1.00  0.00     0.293 HD
ENDBRANCH   2  22
BRANCH   6  24
ATOM     24  O   UNL     1     154.489 155.503 140.184  1.00  0.00    -0.507 OA
ATOM     25  H   UNL     1     153.664 155.136 139.734  1.00  0.00     0.293 HD
ENDBRANCH   6  24
BRANCH   8  26
ATOM     26  O   UNL     1     153.216 160.123 140.488  1.00  0.00    -0.508 OA
ATOM     27  H   UNL     1     153.651 161.036 140.421  1.00  0.00     0.293 HD
ENDBRANCH   8  26
TORSDOF 6
ENDMDL
MODEL 3
REMARK VINA RESULT:    -4.030     14.295     15.019
REMARK INTER + INTRA:          -5.132
REMARK INTER:                  -4.811
REMARK INTRA:                  -0.321
REMARK UNBOUND:                -0.277
REMARK SMILES O=c1c(O)c(-c2ccc(O)c(O)c2)oc2cc(O)cc(O)c12
REMARK SMILES IDX 5 1 3 2 2 3 1 4 22 5 20 6 19 7 17 8 16 9 15 10 14 11 6 12
REMARK SMILES IDX 7 13 8 14 9 15 13 16 11 17 10 18 12 20 4 22 21 24 18 26
REMARK H PARENT 10 19 12 21 4 23 21 25 18 27
REMARK Flexibility Score: inf
ROOT
ATOM      1  C   UNL     1     157.949 143.533 144.500  1.00  0.00     0.180 A 
ATOM      2  C   UNL     1     157.994 142.130 144.428  1.00  0.00     0.208 A 
ATOM      3  C   UNL     1     157.708 141.379 145.581  1.00  0.00     0.238 A 
ATOM      4  O   UNL     1     157.802 140.126 145.524  1.00  0.00    -0.285 OA
ATOM      5  C   UNL     1     157.366 142.041 146.785  1.00  0.00     0.111 A 
ATOM      6  C   UNL     1     157.018 141.380 148.001  1.00  0.00     0.134 A 
ATOM      7  C   UNL     1     156.825 142.134 149.166  1.00  0.00     0.093 A 
ATOM      8  C   UNL     1     156.903 143.529 149.142  1.00  0.00     0.123 A 
ATOM      9  C   UNL     1     157.182 144.186 147.946  1.00  0.00     0.094 A 
ATOM     10  C   UNL     1     157.416 143.459 146.776  1.00  0.00     0.146 A 
ATOM     11  O   UNL     1     157.689 144.124 145.661  1.00  0.00    -0.452 OA
ENDROOT
BRANCH   1  12
ATOM     12  C   UNL     1     158.213 144.390 143.322  1.00  0.00     0.025 A 
ATOM     13  C   UNL     1     159.519 144.782 142.980  1.00  0.00     0.016 A 
ATOM     14  C   UNL     1     159.746 145.571 141.849  1.00  0.00     0.051 A 
ATOM     15  C   UNL     1     158.675 145.971 141.038  1.00  0.00     0.157 A 
ATOM     16  C   UNL     1     157.145 144.776 142.495  1.00  0.00     0.062 A 
ATOM     17  C   UNL     1     157.369 145.568 141.363  1.00  0.00     0.158 A 
BRANCH  15  18
ATOM     18  O   UNL     1     158.905 146.761 139.913  1.00  0.00    -0.504 OA
ATOM     19  H   UNL     1     158.251 146.784 139.139  1.00  0.00     0.293 HD
ENDBRANCH  15  18
BRANCH  17  20
ATOM     20  O   UNL     1     156.282 145.943 140.573  1.00  0.00    -0.504 OA
ATOM     21  H   UNL     1     155.595 145.273 140.250  1.00  0.00     0.293 HD
ENDBRANCH  17  20
ENDBRANCH   1  12
BRANCH   2  22
ATOM     22  O   UNL     1     158.354 141.497 143.235  1.00  0.00    -0.502 OA
ATOM     23  H   UNL     1     158.900 141.959 142.518  1.00  0.00     0.293 HD
ENDBRANCH   2  22
BRANCH   6  24
ATOM     24  O   UNL     1     156.826 140.000 148.113  1.00  0.00    -0.507 OA
ATOM     25  H   UNL     1     157.046 139.330 147.392  1.00  0.00     0.293 HD
ENDBRANCH   6  24
BRANCH   8  26
ATOM     26  O   UNL     1     156.693 144.272 150.301  1.00  0.00    -0.508 OA
ATOM     27  H   UNL     1     157.466 144.595 150.871  1.00  0.00     0.293 HD
ENDBRANCH   8  26
TORSDOF 6
ENDMDL
MODEL 4
REMARK VINA RESULT:    -4.005      1.976      2.529
REMARK INTER + INTRA:          -5.102
REMARK INTER:                  -4.778
REMARK INTRA:                  -0.324
REMARK UNBOUND:                -0.277
REMARK SMILES O=c1c(O)c(-c2ccc(O)c(O)c2)oc2cc(O)cc(O)c12
REMARK SMILES IDX 5 1 3 2 2 3 1 4 22 5 20 6 19 7 17 8 16 9 15 10 14 11 6 12
REMARK SMILES IDX 7 13 8 14 9 15 13 16 11 17 10 18 12 20 4 22 21 24 18 26
REMARK H PARENT 10 19 12 21 4 23 21 25 18 27
REMARK Flexibility Score: inf
ROOT
ATOM      1  C   UNL     1     156.116 157.868 144.104  1.00  0.00     0.180 A 
ATOM      2  C   UNL     1     156.853 156.818 143.529  1.00  0.00     0.208 A 
ATOM      3  C   UNL     1     157.957 156.300 144.225  1.00  0.00     0.238 A 
ATOM      4  O   UNL     1     158.645 155.396 143.681  1.00  0.00    -0.285 OA
ATOM      5  C   UNL     1     158.301 156.826 145.493  1.00  0.00     0.111 A 
ATOM      6  C   UNL     1     159.374 156.350 146.304  1.00  0.00     0.134 A 
ATOM      7  C   UNL     1     159.705 157.031 147.482  1.00  0.00     0.093 A 
ATOM      8  C   UNL     1     158.959 158.132 147.911  1.00  0.00     0.123 A 
ATOM      9  C   UNL     1     157.872 158.567 147.157  1.00  0.00     0.094 A 
ATOM     10  C   UNL     1     157.540 157.931 145.958  1.00  0.00     0.146 A 
ATOM     11  O   UNL     1     156.503 158.384 145.265  1.00  0.00    -0.452 OA
ENDROOT
BRANCH   1  12
ATOM     12  C   UNL     1     154.926 158.449 143.443  1.00  0.00     0.025 A 
ATOM     13  C   UNL     1     155.037 159.534 142.556  1.00  0.00     0.016 A 
ATOM     14  C   UNL     1     153.902 160.049 141.925  1.00  0.00     0.051 A 
ATOM     15  C   UNL     1     152.642 159.483 142.161  1.00  0.00     0.157 A 
ATOM     16  C   UNL     1     153.664 157.872 143.661  1.00  0.00     0.062 A 
ATOM     17  C   UNL     1     152.525 158.387 143.032  1.00  0.00     0.158 A 
BRANCH  15  18
ATOM     18  O   UNL     1     151.511 160.002 141.532  1.00  0.00    -0.504 OA
ATOM     19  H   UNL     1     150.608 159.548 141.606  1.00  0.00     0.293 HD
ENDBRANCH  15  18
BRANCH  17  20
ATOM     20  O   UNL     1     151.286 157.796 143.283  1.00  0.00    -0.504 OA
ATOM     21  H   UNL     1     150.588 158.237 143.869  1.00  0.00     0.293 HD
ENDBRANCH  17  20
ENDBRANCH   1  12
BRANCH   2  22
ATOM     22  O   UNL     1     156.510 156.327 142.266  1.00  0.00    -0.502 OA
ATOM     23  H   UNL     1     156.962 155.520 141.855  1.00  0.00     0.293 HD
ENDBRANCH   2  22
BRANCH   6  24
ATOM     24  O   UNL     1     160.124 155.206 146.014  1.00  0.00    -0.507 OA
ATOM     25  H   UNL     1     160.610 155.043 145.145  1.00  0.00     0.293 HD
ENDBRANCH   6  24
BRANCH   8  26
ATOM     26  O   UNL     1     159.284 158.794 149.093  1.00  0.00    -0.508 OA
ATOM     27  H   UNL     1     158.701 159.536 149.462  1.00  0.00     0.293 HD
ENDBRANCH   8  26
TORSDOF 6
ENDMDL
MODEL 5
REMARK VINA RESULT:    -3.985     14.123     15.247
REMARK INTER + INTRA:          -5.078
REMARK INTER:                  -4.755
REMARK INTRA:                  -0.323
REMARK UNBOUND:                -0.277
REMARK SMILES O=c1c(O)c(-c2ccc(O)c(O)c2)oc2cc(O)cc(O)c12
REMARK SMILES IDX 5 1 3 2 2 3 1 4 22 5 20 6 19 7 17 8 16 9 15 10 14 11 6 12
REMARK SMILES IDX 7 13 8 14 9 15 13 16 11 17 10 18 12 20 4 22 21 24 18 26
REMARK H PARENT 10 19 12 21 4 23 21 25 18 27
REMARK Flexibility Score: inf
ROOT
ATOM      1  C   UNL     1     157.628 143.952 143.897  1.00  0.00     0.180 A 
ATOM      2  C   UNL     1     156.506 143.318 143.335  1.00  0.00     0.208 A 
ATOM      3  C   UNL     1     155.974 142.185 143.972  1.00  0.00     0.238 A 
ATOM      4  O   UNL     1     155.004 141.589 143.435  1.00  0.00    -0.285 OA
ATOM      5  C   UNL     1     156.560 141.710 145.170  1.00  0.00     0.111 A 
ATOM      6  C   UNL     1     156.080 140.596 145.921  1.00  0.00     0.134 A 
ATOM      7  C   UNL     1     156.816 140.134 147.020  1.00  0.00     0.093 A 
ATOM      8  C   UNL     1     157.979 140.788 147.433  1.00  0.00     0.123 A 
ATOM      9  C   UNL     1     158.423 141.913 146.743  1.00  0.00     0.094 A 
ATOM     10  C   UNL     1     157.731 142.375 145.621  1.00  0.00     0.146 A 
ATOM     11  O   UNL     1     158.194 143.444 144.985  1.00  0.00    -0.452 OA
ENDROOT
BRANCH   1  12
ATOM     12  C   UNL     1     158.228 145.166 143.298  1.00  0.00     0.025 A 
ATOM     13  C   UNL     1     159.263 145.079 142.351  1.00  0.00     0.016 A 
ATOM     14  C   UNL     1     159.798 146.238 141.781  1.00  0.00     0.051 A 
ATOM     15  C   UNL     1     159.299 147.497 142.139  1.00  0.00     0.157 A 
ATOM     16  C   UNL     1     157.718 146.430 143.638  1.00  0.00     0.062 A 
ATOM     17  C   UNL     1     158.252 147.592 143.070  1.00  0.00     0.158 A 
BRANCH  15  18
ATOM     18  O   UNL     1     159.837 148.651 141.570  1.00  0.00    -0.504 OA
ATOM     19  H   UNL     1     160.037 149.473 142.127  1.00  0.00     0.293 HD
ENDBRANCH  15  18
BRANCH  17  20
ATOM     20  O   UNL     1     157.729 148.830 143.442  1.00  0.00    -0.504 OA
ATOM     21  H   UNL     1     157.762 149.163 144.398  1.00  0.00     0.293 HD
ENDBRANCH  17  20
ENDBRANCH   1  12
BRANCH   2  22
ATOM     22  O   UNL     1     155.956 143.790 142.140  1.00  0.00    -0.502 OA
ATOM     23  H   UNL     1     155.811 143.194 141.335  1.00  0.00     0.293 HD
ENDBRANCH   2  22
BRANCH   6  24
ATOM     24  O   UNL     1     154.882 139.928 145.647  1.00  0.00    -0.507 OA
ATOM     25  H   UNL     1     154.815 139.040 145.174  1.00  0.00     0.293 HD
ENDBRANCH   6  24
BRANCH   8  26
ATOM     26  O   UNL     1     158.696 140.332 148.537  1.00  0.00    -0.508 OA
ATOM     27  H   UNL     1     159.269 139.498 148.490  1.00  0.00     0.293 HD
ENDBRANCH   8  26
TORSDOF 6
ENDMDL
MODEL 6
REMARK VINA RESULT:    -3.983      1.671      7.166
REMARK INTER + INTRA:          -5.074
REMARK INTER:                  -4.847
REMARK INTRA:                  -0.228
REMARK UNBOUND:                -0.277
REMARK SMILES O=c1c(O)c(-c2ccc(O)c(O)c2)oc2cc(O)cc(O)c12
REMARK SMILES IDX 5 1 3 2 2 3 1 4 22 5 20 6 19 7 17 8 16 9 15 10 14 11 6 12
REMARK SMILES IDX 7 13 8 14 9 15 13 16 11 17 10 18 12 20 4 22 21 24 18 26
REMARK H PARENT 10 19 12 21 4 23 21 25 18 27
REMARK Flexibility Score: inf
ROOT
ATOM      1  C   UNL     1     156.332 157.790 144.124  1.00  0.00     0.180 A 
ATOM      2  C   UNL     1     155.604 158.835 143.530  1.00  0.00     0.208 A 
ATOM      3  C   UNL     1     154.873 158.576 142.359  1.00  0.00     0.238 A 
ATOM      4  O   UNL     1     154.267 159.527 141.801  1.00  0.00    -0.285 OA
ATOM      5  C   UNL     1     154.865 157.272 141.808  1.00  0.00     0.111 A 
ATOM      6  C   UNL     1     154.127 156.886 140.649  1.00  0.00     0.134 A 
ATOM      7  C   UNL     1     154.297 155.602 140.116  1.00  0.00     0.093 A 
ATOM      8  C   UNL     1     155.129 154.669 140.740  1.00  0.00     0.123 A 
ATOM      9  C   UNL     1     155.807 155.016 141.906  1.00  0.00     0.094 A 
ATOM     10  C   UNL     1     155.686 156.302 142.440  1.00  0.00     0.146 A 
ATOM     11  O   UNL     1     156.358 156.594 143.547  1.00  0.00    -0.452 OA
ENDROOT
BRANCH   1  12
ATOM     12  C   UNL     1     157.106 157.980 145.372  1.00  0.00     0.025 A 
ATOM     13  C   UNL     1     158.511 158.026 145.362  1.00  0.00     0.016 A 
ATOM     14  C   UNL     1     159.219 158.232 146.549  1.00  0.00     0.051 A 
ATOM     15  C   UNL     1     158.536 158.405 147.760  1.00  0.00     0.157 A 
ATOM     16  C   UNL     1     156.425 158.176 146.585  1.00  0.00     0.062 A 
ATOM     17  C   UNL     1     157.132 158.379 147.776  1.00  0.00     0.158 A 
BRANCH  15  18
ATOM     18  O   UNL     1     159.246 158.607 148.943  1.00  0.00    -0.504 OA
ATOM     19  H   UNL     1     159.889 157.910 149.301  1.00  0.00     0.293 HD
ENDBRANCH  15  18
BRANCH  17  20
ATOM     20  O   UNL     1     156.421 158.556 148.963  1.00  0.00    -0.504 OA
ATOM     21  H   UNL     1     155.716 157.898 149.272  1.00  0.00     0.293 HD
ENDBRANCH  17  20
ENDBRANCH   1  12
BRANCH   2  22
ATOM     22  O   UNL     1     155.642 160.120 144.078  1.00  0.00    -0.502 OA
ATOM     23  H   UNL     1     155.455 160.951 143.530  1.00  0.00     0.293 HD
ENDBRANCH   2  22
BRANCH   6  24
ATOM     24  O   UNL     1     153.201 157.711 140.003  1.00  0.00    -0.507 OA
ATOM     25  H   UNL     1     152.212 157.728 140.198  1.00  0.00     0.293 HD
ENDBRANCH   6  24
BRANCH   8  26
ATOM     26  O   UNL     1     155.280 153.388 140.214  1.00  0.00    -0.508 OA
ATOM     27  H   UNL     1     154.925 153.147 139.296  1.00  0.00     0.293 HD
ENDBRANCH   8  26
TORSDOF 6
ENDMDL
MODEL 7
REMARK VINA RESULT:    -3.958     12.680     14.604
REMARK INTER + INTRA:          -5.045
REMARK INTER:                  -4.723
REMARK INTRA:                  -0.321
REMARK UNBOUND:                -0.277
REMARK SMILES O=c1c(O)c(-c2ccc(O)c(O)c2)oc2cc(O)cc(O)c12
REMARK SMILES IDX 5 1 3 2 2 3 1 4 22 5 20 6 19 7 17 8 16 9 15 10 14 11 6 12
REMARK SMILES IDX 7 13 8 14 9 15 13 16 11 17 10 18 12 20 4 22 21 24 18 26
REMARK H PARENT 10 19 12 21 4 23 21 25 18 27
REMARK Flexibility Score: inf
ROOT
ATOM      1  C   UNL     1     142.299 155.685 143.611  1.00  0.00     0.180 A 
ATOM      2  C   UNL     1     143.399 156.365 143.059  1.00  0.00     0.208 A 
ATOM      3  C   UNL     1     143.879 157.518 143.702  1.00  0.00     0.238 A 
ATOM      4  O   UNL     1     144.829 158.153 143.174  1.00  0.00    -0.285 OA
ATOM      5  C   UNL     1     143.264 157.967 144.895  1.00  0.00     0.111 A 
ATOM      6  C   UNL     1     143.692 159.098 145.652  1.00  0.00     0.134 A 
ATOM      7  C   UNL     1     142.930 159.528 146.745  1.00  0.00     0.093 A 
ATOM      8  C   UNL     1     141.790 158.827 147.148  1.00  0.00     0.123 A 
ATOM      9  C   UNL     1     141.398 157.686 146.452  1.00  0.00     0.094 A 
ATOM     10  C   UNL     1     142.118 157.254 145.335  1.00  0.00     0.146 A 
ATOM     11  O   UNL     1     141.703 156.168 144.695  1.00  0.00    -0.452 OA
ENDROOT
BRANCH   1  12
ATOM     12  C   UNL     1     141.753 154.449 143.005  1.00  0.00     0.025 A 
ATOM     13  C   UNL     1     140.712 154.495 142.061  1.00  0.00     0.016 A 
ATOM     14  C   UNL     1     140.230 153.316 141.485  1.00  0.00     0.051 A 
ATOM     15  C   UNL     1     140.787 152.079 141.833  1.00  0.00     0.157 A 
ATOM     16  C   UNL     1     142.323 153.208 143.334  1.00  0.00     0.062 A 
ATOM     17  C   UNL     1     141.841 152.026 142.760  1.00  0.00     0.158 A 
BRANCH  15  18
ATOM     18  O   UNL     1     140.302 150.905 141.257  1.00  0.00    -0.504 OA
ATOM     19  H   UNL     1     140.798 150.026 141.346  1.00  0.00     0.293 HD
ENDBRANCH  15  18
BRANCH  17  20
ATOM     20  O   UNL     1     142.422 150.811 143.122  1.00  0.00    -0.504 OA
ATOM     21  H   UNL     1     142.020 150.213 143.834  1.00  0.00     0.293 HD
ENDBRANCH  17  20
ENDBRANCH   1  12
BRANCH   2  22
ATOM     22  O   UNL     1     143.978 155.917 141.869  1.00  0.00    -0.502 OA
ATOM     23  H   UNL     1     143.697 155.056 141.417  1.00  0.00     0.293 HD
ENDBRANCH   2  22
BRANCH   6  24
ATOM     24  O   UNL     1     144.865 159.814 145.390  1.00  0.00    -0.507 OA
ATOM     25  H   UNL     1     145.765 159.611 145.796  1.00  0.00     0.293 HD
ENDBRANCH   6  24
BRANCH   8  26
ATOM     26  O   UNL     1     141.046 159.251 148.246  1.00  0.00    -0.508 OA
ATOM     27  H   UNL     1     140.833 158.627 149.015  1.00  0.00     0.293 HD
ENDBRANCH   8  26
TORSDOF 6
ENDMDL
MODEL 8
REMARK VINA RESULT:    -3.949     13.783     15.730
REMARK INTER + INTRA:          -5.033
REMARK INTER:                  -4.715
REMARK INTRA:                  -0.318
REMARK UNBOUND:                -0.277
REMARK SMILES O=c1c(O)c(-c2ccc(O)c(O)c2)oc2cc(O)cc(O)c12
REMARK SMILES IDX 5 1 3 2 2 3 1 4 22 5 20 6 19 7 17 8 16 9 15 10 14 11 6 12
REMARK SMILES IDX 7 13 8 14 9 15 13 16 11 17 10 18 12 20 4 22 21 24 18 26
REMARK H PARENT 10 19 12 21 4 23 21 25 18 27
REMARK Flexibility Score: inf
ROOT
ATOM      1  C   UNL     1     157.706 143.611 143.729  1.00  0.00     0.180 A 
ATOM      2  C   UNL     1     158.921 144.180 143.310  1.00  0.00     0.208 A 
ATOM      3  C   UNL     1     158.908 145.124 142.270  1.00  0.00     0.238 A 
ATOM      4  O   UNL     1     160.004 145.589 141.862  1.00  0.00    -0.285 OA
ATOM      5  C   UNL     1     157.679 145.499 141.675  1.00  0.00     0.111 A 
ATOM      6  C   UNL     1     157.544 146.475 140.642  1.00  0.00     0.134 A 
ATOM      7  C   UNL     1     156.296 146.672 140.036  1.00  0.00     0.093 A 
ATOM      8  C   UNL     1     155.167 145.974 140.472  1.00  0.00     0.123 A 
ATOM      9  C   UNL     1     155.277 145.063 141.520  1.00  0.00     0.094 A 
ATOM     10  C   UNL     1     156.515 144.819 142.119  1.00  0.00     0.146 A 
ATOM     11  O   UNL     1     156.578 143.935 143.107  1.00  0.00    -0.452 OA
ENDROOT
BRANCH   1  12
ATOM     12  C   UNL     1     157.637 142.629 144.835  1.00  0.00     0.025 A 
ATOM     13  C   UNL     1     157.684 141.246 144.590  1.00  0.00     0.016 A 
ATOM     14  C   UNL     1     157.641 140.339 145.652  1.00  0.00     0.051 A 
ATOM     15  C   UNL     1     157.564 140.799 146.974  1.00  0.00     0.157 A 
ATOM     16  C   UNL     1     157.580 143.086 146.163  1.00  0.00     0.062 A 
ATOM     17  C   UNL     1     157.536 142.180 147.228  1.00  0.00     0.158 A 
BRANCH  15  18
ATOM     18  O   UNL     1     157.520 139.890 148.030  1.00  0.00    -0.504 OA
ATOM     19  H   UNL     1     156.639 139.570 148.417  1.00  0.00     0.293 HD
ENDBRANCH  15  18
BRANCH  17  20
ATOM     20  O   UNL     1     157.467 142.670 148.532  1.00  0.00    -0.504 OA
ATOM     21  H   UNL     1     157.609 143.650 148.747  1.00  0.00     0.293 HD
ENDBRANCH  17  20
ENDBRANCH   1  12
BRANCH   2  22
ATOM     22  O   UNL     1     160.125 143.780 143.896  1.00  0.00    -0.502 OA
ATOM     23  H   UNL     1     160.400 142.808 143.964  1.00  0.00     0.293 HD
ENDBRANCH   2  22
BRANCH   6  24
ATOM     24  O   UNL     1     158.589 147.290 140.196  1.00  0.00    -0.507 OA
ATOM     25  H   UNL     1     158.711 147.597 139.244  1.00  0.00     0.293 HD
ENDBRANCH   6  24
BRANCH   8  26
ATOM     26  O   UNL     1     153.926 146.188 139.876  1.00  0.00    -0.508 OA
ATOM     27  H   UNL     1     153.072 146.207 140.421  1.00  0.00     0.293 HD
ENDBRANCH   8  26
TORSDOF 6
ENDMDL
MODEL 9
REMARK VINA RESULT:    -3.944     17.340     19.832
REMARK INTER + INTRA:          -5.028
REMARK INTER:                  -4.751
REMARK INTRA:                  -0.277
REMARK UNBOUND:                -0.277
REMARK SMILES O=c1c(O)c(-c2ccc(O)c(O)c2)oc2cc(O)cc(O)c12
REMARK SMILES IDX 5 1 3 2 2 3 1 4 22 5 20 6 19 7 17 8 16 9 15 10 14 11 6 12
REMARK SMILES IDX 7 13 8 14 9 15 13 16 11 17 10 18 12 20 4 22 21 24 18 26
REMARK H PARENT 10 19 12 21 4 23 21 25 18 27
REMARK Flexibility Score: inf
ROOT
ATOM      1  C   UNL     1     156.121 142.299 156.017  1.00  0.00     0.180 A 
ATOM      2  C   UNL     1     156.830 143.409 156.509  1.00  0.00     0.208 A 
ATOM      3  C   UNL     1     157.940 143.882 155.790  1.00  0.00     0.238 A 
ATOM      4  O   UNL     1     158.602 144.842 156.263  1.00  0.00    -0.285 OA
ATOM      5  C   UNL     1     158.317 143.249 154.581  1.00  0.00     0.111 A 
ATOM      6  C   UNL     1     159.398 143.669 153.749  1.00  0.00     0.134 A 
ATOM      7  C   UNL     1     159.764 142.891 152.644  1.00  0.00     0.093 A 
ATOM      8  C   UNL     1     159.043 141.743 152.303  1.00  0.00     0.123 A 
ATOM      9  C   UNL     1     157.948 141.358 153.073  1.00  0.00     0.094 A 
ATOM     10  C   UNL     1     157.583 142.094 154.203  1.00  0.00     0.146 A 
ATOM     11  O   UNL     1     156.540 141.687 154.915  1.00  0.00    -0.452 OA
ENDROOT
BRANCH   1  12
ATOM     12  C   UNL     1     154.927 141.759 156.706  1.00  0.00     0.025 A 
ATOM     13  C   UNL     1     155.002 140.605 157.505  1.00  0.00     0.016 A 
ATOM     14  C   UNL     1     153.866 140.128 158.165  1.00  0.00     0.051 A 
ATOM     15  C   UNL     1     152.643 140.802 158.046  1.00  0.00     0.157 A 
ATOM     16  C   UNL     1     153.704 142.442 156.607  1.00  0.00     0.062 A 
ATOM     17  C   UNL     1     152.564 141.966 157.265  1.00  0.00     0.158 A 
BRANCH  15  18
ATOM     18  O   UNL     1     151.512 140.322 158.704  1.00  0.00    -0.504 OA
ATOM     19  H   UNL     1     151.524 140.111 159.695  1.00  0.00     0.293 HD
ENDBRANCH  15  18
BRANCH  17  20
ATOM     20  O   UNL     1     151.364 142.664 157.132  1.00  0.00    -0.504 OA
ATOM     21  H   UNL     1     151.325 143.598 156.742  1.00  0.00     0.293 HD
ENDBRANCH  17  20
ENDBRANCH   1  12
BRANCH   2  22
ATOM     22  O   UNL     1     156.454 144.005 157.716  1.00  0.00    -0.502 OA
ATOM     23  H   UNL     1     155.671 144.643 157.786  1.00  0.00     0.293 HD
ENDBRANCH   2  22
BRANCH   6  24
ATOM     24  O   UNL     1     160.124 144.847 153.950  1.00  0.00    -0.507 OA
ATOM     25  H   UNL     1     160.031 145.450 154.753  1.00  0.00     0.293 HD
ENDBRANCH   6  24
BRANCH   8  26
ATOM     26  O   UNL     1     159.402 140.983 151.192  1.00  0.00    -0.508 OA
ATOM     27  H   UNL     1     159.379 139.970 151.213  1.00  0.00     0.293 HD
ENDBRANCH   8  26
TORSDOF 6
ENDMDL
