MODEL 1
REMARK VINA RESULT:    -5.723      0.000      0.000
REMARK INTER + INTRA:          -9.140
REMARK INTER:                  -7.563
REMARK INTRA:                  -1.577
REMARK UNBOUND:                -1.577
REMARK SMILES CC[C@@H](C=C[C@H](C)[C@H]1CC[C@H]2[C@H]3CC=C4C[C@H](O)CC[C@]4(C)[C@H]3CC[C@@]12C)C(C)C
REMARK SMILES IDX 6 1 7 2 5 3 4 4 3 5 2 6 1 7 28 8 29 9 30 10 8 11 9 12 26 13
REMARK SMILES IDX 10 14 11 15 25 16 27 17 12 18 24 19 23 20 13 21 21 22 14 23
REMARK SMILES IDX 15 24 20 25 22 26 16 27 19 28 17 29 18 30
REMARK H PARENT 18 31
REMARK Flexibility Score: inf
ROOT
ATOM      1  C   UNL     1      18.740 -17.646  40.500  1.00  0.00     0.012 C 
ATOM      2  C   UNL     1      19.132 -19.139  40.512  1.00  0.00     0.012 C 
ENDROOT
BRANCH   1   3
ATOM      3  C   UNL     1      17.228 -17.537  40.359  1.00  0.00    -0.028 C 
ATOM      4  C   UNL     1      16.589 -17.228  39.209  1.00  0.00    -0.027 C 
BRANCH   4   5
ATOM      5  C   UNL     1      17.267 -16.935  37.879  1.00  0.00     0.014 C 
BRANCH   5   6
ATOM      6  C   UNL     1      17.533 -15.412  37.762  1.00  0.00     0.004 C 
ATOM      7  C   UNL     1      19.009 -15.073  37.555  1.00  0.00     0.004 C 
ENDBRANCH   5   6
BRANCH   5   8
ATOM      8  C   UNL     1      16.443 -17.576  36.710  1.00  0.00    -0.011 C 
ATOM      9  C   UNL     1      14.932 -17.287  36.752  1.00  0.00     0.008 C 
ATOM     10  C   UNL     1      17.019 -17.213  35.329  1.00  0.00     0.008 C 
ENDBRANCH   5   8
ENDBRANCH   4   5
ENDBRANCH   1   3
BRANCH   1  11
ATOM     11  C   UNL     1      19.359 -16.940  41.769  1.00  0.00     0.002 C 
ATOM     12  C   UNL     1      20.313 -17.891  42.530  1.00  0.00     0.005 C 
ATOM     13  C   UNL     1      20.143 -15.595  41.627  1.00  0.00    -0.026 C 
ATOM     14  C   UNL     1      21.447 -17.034  43.086  1.00  0.00     0.005 C 
ATOM     15  C   UNL     1      20.958 -15.592  42.941  1.00  0.00    -0.001 C 
ATOM     16  C   UNL     1      21.102 -15.616  40.390  1.00  0.00     0.007 C 
ATOM     17  C   UNL     1      19.182 -14.363  41.587  1.00  0.00     0.012 C 
ATOM     18  C   UNL     1      22.035 -14.469  43.058  1.00  0.00     0.000 C 
ATOM     19  C   UNL     1      22.441 -14.854  40.561  1.00  0.00     0.005 C 
ATOM     20  C   UNL     1      22.452 -13.815  41.704  1.00  0.00     0.003 C 
ATOM     21  C   UNL     1      23.259 -14.864  43.883  1.00  0.00     0.031 C 
ATOM     22  C   UNL     1      23.794 -12.927  41.791  1.00  0.00    -0.008 C 
ATOM     23  C   UNL     1      24.049 -13.627  44.184  1.00  0.00    -0.027 C 
ATOM     24  C   UNL     1      24.225 -12.672  43.253  1.00  0.00    -0.065 C 
ATOM     25  C   UNL     1      23.525 -11.561  41.080  1.00  0.00     0.014 C 
ATOM     26  C   UNL     1      25.003 -13.624  41.106  1.00  0.00     0.016 C 
ATOM     27  C   UNL     1      25.124 -11.499  43.597  1.00  0.00     0.063 C 
ATOM     28  C   UNL     1      24.585 -10.480  41.364  1.00  0.00     0.033 C 
ATOM     29  C   UNL     1      24.709 -10.213  42.866  1.00  0.00     0.118 C 
BRANCH  29  30
ATOM     30  O   UNL     1      23.492  -9.702  43.355  1.00  0.00    -0.393 OA
ATOM     31  H   UNL     1      23.568  -8.706  43.393  1.00  0.00     0.210 HD
ENDBRANCH  29  30
ENDBRANCH   1  11
TORSDOF 6
ENDMDL
MODEL 2
REMARK VINA RESULT:    -5.655      3.827      9.133
REMARK INTER + INTRA:          -9.050
REMARK INTER:                  -7.590
REMARK INTRA:                  -1.460
REMARK UNBOUND:                -1.577
REMARK SMILES CC[C@@H](C=C[C@H](C)[C@H]1CC[C@H]2[C@H]3CC=C4C[C@H](O)CC[C@]4(C)[C@H]3CC[C@@]12C)C(C)C
REMARK SMILES IDX 6 1 7 2 5 3 4 4 3 5 2 6 1 7 28 8 29 9 30 10 8 11 9 12 26 13
REMARK SMILES IDX 10 14 11 15 25 16 27 17 12 18 24 19 23 20 13 21 21 22 14 23
REMARK SMILES IDX 15 24 20 25 22 26 16 27 19 28 17 29 18 30
REMARK H PARENT 18 31
REMARK Flexibility Score: inf
ROOT
ATOM      1  C   UNL     1      21.341 -14.835  41.380  1.00  0.00     0.012 C 
ATOM      2  C   UNL     1      20.911 -13.357  41.250  1.00  0.00     0.012 C 
ENDROOT
BRANCH   1   3
ATOM      3  C   UNL     1      22.861 -14.901  41.435  1.00  0.00    -0.028 C 
ATOM      4  C   UNL     1      23.607 -14.458  42.471  1.00  0.00    -0.027 C 
BRANCH   4   5
ATOM      5  C   UNL     1      23.059 -13.821  43.739  1.00  0.00     0.014 C 
BRANCH   5   6
ATOM      6  C   UNL     1      23.560 -12.357  43.836  1.00  0.00     0.004 C 
ATOM      7  C   UNL     1      24.610 -12.008  42.783  1.00  0.00     0.004 C 
ENDBRANCH   5   6
BRANCH   5   8
ATOM      8  C   UNL     1      23.376 -14.735  44.973  1.00  0.00    -0.011 C 
ATOM      9  C   UNL     1      24.409 -14.154  45.956  1.00  0.00     0.008 C 
ATOM     10  C   UNL     1      22.101 -15.156  45.724  1.00  0.00     0.008 C 
ENDBRANCH   5   8
ENDBRANCH   4   5
ENDBRANCH   1   3
BRANCH   1  11
ATOM     11  C   UNL     1      20.586 -15.484  42.604  1.00  0.00     0.002 C 
ATOM     12  C   UNL     1      19.369 -14.629  43.032  1.00  0.00     0.005 C 
ATOM     13  C   UNL     1      20.050 -16.951  42.521  1.00  0.00    -0.026 C 
ATOM     14  C   UNL     1      18.282 -15.597  43.492  1.00  0.00     0.005 C 
ATOM     15  C   UNL     1      18.994 -16.942  43.650  1.00  0.00    -0.001 C 
ATOM     16  C   UNL     1      19.370 -17.236  41.139  1.00  0.00     0.007 C 
ATOM     17  C   UNL     1      21.167 -17.997  42.837  1.00  0.00     0.012 C 
ATOM     18  C   UNL     1      18.091 -18.211  43.731  1.00  0.00     0.000 C 
ATOM     19  C   UNL     1      18.149 -18.191  41.173  1.00  0.00     0.005 C 
ATOM     20  C   UNL     1      18.057 -19.078  42.435  1.00  0.00     0.003 C 
ATOM     21  C   UNL     1      16.680 -17.938  44.253  1.00  0.00     0.031 C 
ATOM     22  C   UNL     1      16.867 -20.166  42.404  1.00  0.00    -0.008 C 
ATOM     23  C   UNL     1      16.033 -19.249  44.583  1.00  0.00    -0.027 C 
ATOM     24  C   UNL     1      16.191 -20.321  43.785  1.00  0.00    -0.065 C 
ATOM     25  C   UNL     1      17.471 -21.539  41.962  1.00  0.00     0.014 C 
ATOM     26  C   UNL     1      15.735 -19.769  41.417  1.00  0.00     0.016 C 
ATOM     27  C   UNL     1      15.420 -21.582  44.128  1.00  0.00     0.063 C 
ATOM     28  C   UNL     1      16.543 -22.744  42.203  1.00  0.00     0.033 C 
ATOM     29  C   UNL     1      16.157 -22.854  43.681  1.00  0.00     0.118 C 
BRANCH  29  30
ATOM     30  O   UNL     1      17.310 -23.090  44.452  1.00  0.00    -0.393 OA
ATOM     31  H   UNL     1      18.081 -23.205  43.827  1.00  0.00     0.210 HD
ENDBRANCH  29  30
ENDBRANCH   1  11
TORSDOF 6
ENDMDL
MODEL 3
REMARK VINA RESULT:    -5.505      3.277      5.798
REMARK INTER + INTRA:          -8.852
REMARK INTER:                  -6.960
REMARK INTRA:                  -1.892
REMARK UNBOUND:                -1.577
REMARK SMILES CC[C@@H](C=C[C@H](C)[C@H]1CC[C@H]2[C@H]3CC=C4C[C@H](O)CC[C@]4(C)[C@H]3CC[C@@]12C)C(C)C
REMARK SMILES IDX 6 1 7 2 5 3 4 4 3 5 2 6 1 7 28 8 29 9 30 10 8 11 9 12 26 13
REMARK SMILES IDX 10 14 11 15 25 16 27 17 12 18 24 19 23 20 13 21 21 22 14 23
REMARK SMILES IDX 15 24 20 25 22 26 16 27 19 28 17 29 18 30
REMARK H PARENT 18 31
REMARK Flexibility Score: inf
ROOT
ATOM      1  C   UNL     1      15.339 -19.202  41.106  1.00  0.00     0.012 C 
ATOM      2  C   UNL     1      14.309 -18.550  40.158  1.00  0.00     0.012 C 
ENDROOT
BRANCH   1   3
ATOM      3  C   UNL     1      15.021 -20.685  41.233  1.00  0.00    -0.028 C 
ATOM      4  C   UNL     1      15.150 -21.398  42.373  1.00  0.00    -0.027 C 
BRANCH   4   5
ATOM      5  C   UNL     1      15.635 -20.846  43.705  1.00  0.00     0.014 C 
BRANCH   5   6
ATOM      6  C   UNL     1      16.585 -21.873  44.373  1.00  0.00     0.004 C 
ATOM      7  C   UNL     1      16.810 -23.125  43.526  1.00  0.00     0.004 C 
ENDBRANCH   5   6
BRANCH   5   8
ATOM      8  C   UNL     1      14.410 -20.387  44.568  1.00  0.00    -0.011 C 
ATOM      9  C   UNL     1      14.088 -18.884  44.484  1.00  0.00     0.008 C 
ATOM     10  C   UNL     1      13.150 -21.221  44.275  1.00  0.00     0.008 C 
ENDBRANCH   5   8
ENDBRANCH   4   5
ENDBRANCH   1   3
BRANCH   1  11
ATOM     11  C   UNL     1      16.793 -18.857  40.601  1.00  0.00     0.002 C 
ATOM     12  C   UNL     1      16.756 -17.857  39.421  1.00  0.00     0.005 C 
ATOM     13  C   UNL     1      17.865 -18.289  41.589  1.00  0.00    -0.026 C 
ATOM     14  C   UNL     1      17.974 -16.949  39.565  1.00  0.00     0.005 C 
ATOM     15  C   UNL     1      18.862 -17.643  40.599  1.00  0.00    -0.001 C 
ATOM     16  C   UNL     1      17.254 -17.201  42.536  1.00  0.00     0.007 C 
ATOM     17  C   UNL     1      18.569 -19.425  42.399  1.00  0.00     0.012 C 
ATOM     18  C   UNL     1      19.989 -16.784  41.251  1.00  0.00     0.000 C 
ATOM     19  C   UNL     1      18.198 -16.032  42.917  1.00  0.00     0.005 C 
ATOM     20  C   UNL     1      19.702 -16.323  42.713  1.00  0.00     0.003 C 
ATOM     21  C   UNL     1      20.460 -15.616  40.384  1.00  0.00     0.031 C 
ATOM     22  C   UNL     1      20.686 -15.160  43.240  1.00  0.00    -0.008 C 
ATOM     23  C   UNL     1      21.732 -15.077  40.963  1.00  0.00    -0.027 C 
ATOM     24  C   UNL     1      21.890 -14.951  42.294  1.00  0.00    -0.065 C 
ATOM     25  C   UNL     1      21.203 -15.562  44.660  1.00  0.00     0.014 C 
ATOM     26  C   UNL     1      19.972 -13.783  43.332  1.00  0.00     0.016 C 
ATOM     27  C   UNL     1      23.164 -14.299  42.801  1.00  0.00     0.063 C 
ATOM     28  C   UNL     1      22.401 -14.731  45.156  1.00  0.00     0.033 C 
ATOM     29  C   UNL     1      23.578 -14.828  44.182  1.00  0.00     0.118 C 
BRANCH  29  30
ATOM     30  O   UNL     1      24.029 -16.160  44.119  1.00  0.00    -0.393 OA
ATOM     31  H   UNL     1      23.366 -16.733  44.600  1.00  0.00     0.210 HD
ENDBRANCH  29  30
ENDBRANCH   1  11
TORSDOF 6
ENDMDL
MODEL 4
REMARK VINA RESULT:    -5.457      3.608      8.738
REMARK INTER + INTRA:          -8.788
REMARK INTER:                  -7.411
REMARK INTRA:                  -1.377
REMARK UNBOUND:                -1.577
REMARK SMILES CC[C@@H](C=C[C@H](C)[C@H]1CC[C@H]2[C@H]3CC=C4C[C@H](O)CC[C@]4(C)[C@H]3CC[C@@]12C)C(C)C
REMARK SMILES IDX 6 1 7 2 5 3 4 4 3 5 2 6 1 7 28 8 29 9 30 10 8 11 9 12 26 13
REMARK SMILES IDX 10 14 11 15 25 16 27 17 12 18 24 19 23 20 13 21 21 22 14 23
REMARK SMILES IDX 15 24 20 25 22 26 16 27 19 28 17 29 18 30
REMARK H PARENT 18 31
REMARK Flexibility Score: inf
ROOT
ATOM      1  C   UNL     1      23.779  -9.314  43.094  1.00  0.00     0.012 C 
ATOM      2  C   UNL     1      25.098  -8.514  43.031  1.00  0.00     0.012 C 
ENDROOT
BRANCH   1   3
ATOM      3  C   UNL     1      22.720  -8.580  42.283  1.00  0.00    -0.028 C 
ATOM      4  C   UNL     1      21.721  -7.845  42.820  1.00  0.00    -0.027 C 
BRANCH   4   5
ATOM      5  C   UNL     1      21.488  -7.635  44.308  1.00  0.00     0.014 C 
BRANCH   5   6
ATOM      6  C   UNL     1      20.123  -8.253  44.708  1.00  0.00     0.004 C 
ATOM      7  C   UNL     1      20.222  -9.224  45.883  1.00  0.00     0.004 C 
ENDBRANCH   5   6
BRANCH   5   8
ATOM      8  C   UNL     1      21.685  -6.122  44.670  1.00  0.00    -0.011 C 
ATOM      9  C   UNL     1      21.616  -5.159  43.470  1.00  0.00     0.008 C 
ATOM     10  C   UNL     1      20.723  -5.663  45.781  1.00  0.00     0.008 C 
ENDBRANCH   5   8
ENDBRANCH   4   5
ENDBRANCH   1   3
BRANCH   1  11
ATOM     11  C   UNL     1      24.060 -10.804  42.657  1.00  0.00     0.002 C 
ATOM     12  C   UNL     1      25.099 -11.475  43.587  1.00  0.00     0.005 C 
ATOM     13  C   UNL     1      22.888 -11.833  42.539  1.00  0.00    -0.026 C 
ATOM     14  C   UNL     1      24.697 -12.941  43.723  1.00  0.00     0.005 C 
ATOM     15  C   UNL     1      23.662 -13.169  42.619  1.00  0.00    -0.001 C 
ATOM     16  C   UNL     1      21.890 -11.707  43.738  1.00  0.00     0.007 C 
ATOM     17  C   UNL     1      22.151 -11.720  41.165  1.00  0.00     0.012 C 
ATOM     18  C   UNL     1      22.777 -14.448  42.737  1.00  0.00     0.000 C 
ATOM     19  C   UNL     1      21.253 -13.033  44.228  1.00  0.00     0.005 C 
ATOM     20  C   UNL     1      21.313 -14.193  43.209  1.00  0.00     0.003 C 
ATOM     21  C   UNL     1      23.426 -15.583  43.531  1.00  0.00     0.031 C 
ATOM     22  C   UNL     1      20.529 -15.526  43.665  1.00  0.00    -0.008 C 
ATOM     23  C   UNL     1      22.636 -16.835  43.302  1.00  0.00    -0.027 C 
ATOM     24  C   UNL     1      21.291 -16.810  43.265  1.00  0.00    -0.065 C 
ATOM     25  C   UNL     1      19.121 -15.523  42.986  1.00  0.00     0.014 C 
ATOM     26  C   UNL     1      20.348 -15.602  45.207  1.00  0.00     0.016 C 
ATOM     27  C   UNL     1      20.558 -18.132  43.136  1.00  0.00     0.063 C 
ATOM     28  C   UNL     1      18.384 -16.874  43.051  1.00  0.00     0.033 C 
ATOM     29  C   UNL     1      19.216 -17.985  42.403  1.00  0.00     0.118 C 
BRANCH  29  30
ATOM     30  O   UNL     1      19.394 -17.703  41.036  1.00  0.00    -0.393 OA
ATOM     31  H   UNL     1      18.581 -18.018  40.548  1.00  0.00     0.210 HD
ENDBRANCH  29  30
ENDBRANCH   1  11
TORSDOF 6
ENDMDL
MODEL 5
REMARK VINA RESULT:    -5.422      4.741      9.940
REMARK INTER + INTRA:          -8.743
REMARK INTER:                  -7.019
REMARK INTRA:                  -1.724
REMARK UNBOUND:                -1.577
REMARK SMILES CC[C@@H](C=C[C@H](C)[C@H]1CC[C@H]2[C@H]3CC=C4C[C@H](O)CC[C@]4(C)[C@H]3CC[C@@]12C)C(C)C
REMARK SMILES IDX 6 1 7 2 5 3 4 4 3 5 2 6 1 7 28 8 29 9 30 10 8 11 9 12 26 13
REMARK SMILES IDX 10 14 11 15 25 16 27 17 12 18 24 19 23 20 13 21 21 22 14 23
REMARK SMILES IDX 15 24 20 25 22 26 16 27 19 28 17 29 18 30
REMARK H PARENT 18 31
REMARK Flexibility Score: inf
ROOT
ATOM      1  C   UNL     1      19.253 -16.254  40.706  1.00  0.00     0.012 C 
ATOM      2  C   UNL     1      19.828 -16.359  39.277  1.00  0.00     0.012 C 
ENDROOT
BRANCH   1   3
ATOM      3  C   UNL     1      19.591 -14.882  41.272  1.00  0.00    -0.028 C 
ATOM      4  C   UNL     1      19.974 -14.656  42.548  1.00  0.00    -0.027 C 
BRANCH   4   5
ATOM      5  C   UNL     1      20.125 -15.723  43.621  1.00  0.00     0.014 C 
BRANCH   5   6
ATOM      6  C   UNL     1      19.738 -15.125  44.999  1.00  0.00     0.004 C 
ATOM      7  C   UNL     1      20.819 -15.314  46.063  1.00  0.00     0.004 C 
ENDBRANCH   5   6
BRANCH   5   8
ATOM      8  C   UNL     1      21.551 -16.368  43.534  1.00  0.00    -0.011 C 
ATOM      9  C   UNL     1      21.593 -17.748  42.853  1.00  0.00     0.008 C 
ATOM     10  C   UNL     1      22.577 -15.420  42.886  1.00  0.00     0.008 C 
ENDBRANCH   5   8
ENDBRANCH   4   5
ENDBRANCH   1   3
BRANCH   1  11
ATOM     11  C   UNL     1      17.718 -16.618  40.672  1.00  0.00     0.002 C 
ATOM     12  C   UNL     1      17.273 -17.044  39.252  1.00  0.00     0.005 C 
ATOM     13  C   UNL     1      17.137 -17.710  41.630  1.00  0.00    -0.026 C 
ATOM     14  C   UNL     1      16.217 -18.132  39.421  1.00  0.00     0.005 C 
ATOM     15  C   UNL     1      15.824 -18.072  40.898  1.00  0.00    -0.001 C 
ATOM     16  C   UNL     1      18.078 -18.959  41.714  1.00  0.00     0.007 C 
ATOM     17  C   UNL     1      16.823 -17.131  43.047  1.00  0.00     0.012 C 
ATOM     18  C   UNL     1      15.056 -19.302  41.474  1.00  0.00     0.000 C 
ATOM     19  C   UNL     1      17.367 -20.328  41.866  1.00  0.00     0.005 C 
ATOM     20  C   UNL     1      15.910 -20.248  42.373  1.00  0.00     0.003 C 
ATOM     21  C   UNL     1      14.273 -20.092  40.425  1.00  0.00     0.031 C 
ATOM     22  C   UNL     1      15.222 -21.677  42.662  1.00  0.00    -0.008 C 
ATOM     23  C   UNL     1      13.344 -21.030  41.133  1.00  0.00    -0.027 C 
ATOM     24  C   UNL     1      13.738 -21.701  42.231  1.00  0.00    -0.065 C 
ATOM     25  C   UNL     1      15.325 -21.969  44.194  1.00  0.00     0.014 C 
ATOM     26  C   UNL     1      15.911 -22.829  41.879  1.00  0.00     0.016 C 
ATOM     27  C   UNL     1      12.778 -22.711  42.831  1.00  0.00     0.063 C 
ATOM     28  C   UNL     1      14.429 -23.125  44.679  1.00  0.00     0.033 C 
ATOM     29  C   UNL     1      12.958 -22.856  44.349  1.00  0.00     0.118 C 
BRANCH  29  30
ATOM     30  O   UNL     1      12.523 -21.710  45.040  1.00  0.00    -0.393 OA
ATOM     31  H   UNL     1      11.554 -21.575  44.835  1.00  0.00     0.210 HD
ENDBRANCH  29  30
ENDBRANCH   1  11
TORSDOF 6
ENDMDL
MODEL 6
REMARK VINA RESULT:    -5.408     11.783     15.432
REMARK INTER + INTRA:          -8.724
REMARK INTER:                  -7.192
REMARK INTRA:                  -1.531
REMARK UNBOUND:                -1.577
REMARK SMILES CC[C@@H](C=C[C@H](C)[C@H]1CC[C@H]2[C@H]3CC=C4C[C@H](O)CC[C@]4(C)[C@H]3CC[C@@]12C)C(C)C
REMARK SMILES IDX 6 1 7 2 5 3 4 4 3 5 2 6 1 7 28 8 29 9 30 10 8 11 9 12 26 13
REMARK SMILES IDX 10 14 11 15 25 16 27 17 12 18 24 19 23 20 13 21 21 22 14 23
REMARK SMILES IDX 15 24 20 25 22 26 16 27 19 28 17 29 18 30
REMARK H PARENT 18 31
REMARK Flexibility Score: inf
ROOT
ATOM      1  C   UNL     1      11.479  -4.500  43.523  1.00  0.00     0.012 C 
ATOM      2  C   UNL     1      10.357  -3.510  43.903  1.00  0.00     0.012 C 
ENDROOT
BRANCH   1   3
ATOM      3  C   UNL     1      12.786  -4.022  44.141  1.00  0.00    -0.028 C 
ATOM      4  C   UNL     1      13.998  -4.552  43.866  1.00  0.00    -0.027 C 
BRANCH   4   5
ATOM      5  C   UNL     1      14.256  -5.705  42.909  1.00  0.00     0.014 C 
BRANCH   5   6
ATOM      6  C   UNL     1      14.944  -6.865  43.674  1.00  0.00     0.004 C 
ATOM      7  C   UNL     1      14.089  -7.427  44.810  1.00  0.00     0.004 C 
ENDBRANCH   5   6
BRANCH   5   8
ATOM      8  C   UNL     1      15.012  -5.183  41.638  1.00  0.00    -0.011 C 
ATOM      9  C   UNL     1      16.469  -4.750  41.888  1.00  0.00     0.008 C 
ATOM     10  C   UNL     1      14.945  -6.185  40.472  1.00  0.00     0.008 C 
ENDBRANCH   5   8
ENDBRANCH   4   5
ENDBRANCH   1   3
BRANCH   1  11
ATOM     11  C   UNL     1      11.033  -5.961  43.918  1.00  0.00     0.002 C 
ATOM     12  C   UNL     1      10.027  -5.943  45.093  1.00  0.00     0.005 C 
ATOM     13  C   UNL     1      10.403  -6.916  42.851  1.00  0.00    -0.026 C 
ATOM     14  C   UNL     1       9.040  -7.082  44.856  1.00  0.00     0.005 C 
ATOM     15  C   UNL     1       9.683  -7.937  43.762  1.00  0.00    -0.001 C 
ATOM     16  C   UNL     1       9.368  -6.165  41.948  1.00  0.00     0.007 C 
ATOM     17  C   UNL     1      11.496  -7.634  41.996  1.00  0.00     0.012 C 
ATOM     18  C   UNL     1       8.756  -8.952  43.025  1.00  0.00     0.000 C 
ATOM     19  C   UNL     1       8.141  -6.998  41.493  1.00  0.00     0.005 C 
ATOM     20  C   UNL     1       8.328  -8.528  41.587  1.00  0.00     0.003 C 
ATOM     21  C   UNL     1       7.551  -9.406  43.850  1.00  0.00     0.031 C 
ATOM     22  C   UNL     1       7.107  -9.390  40.984  1.00  0.00    -0.008 C 
ATOM     23  C   UNL     1       6.933 -10.593  43.176  1.00  0.00    -0.027 C 
ATOM     24  C   UNL     1       6.808 -10.644  41.837  1.00  0.00    -0.065 C 
ATOM     25  C   UNL     1       7.486  -9.827  39.531  1.00  0.00     0.014 C 
ATOM     26  C   UNL     1       5.782  -8.579  40.939  1.00  0.00     0.016 C 
ATOM     27  C   UNL     1       6.077 -11.829  41.235  1.00  0.00     0.063 C 
ATOM     28  C   UNL     1       6.580 -10.927  38.944  1.00  0.00     0.033 C 
ATOM     29  C   UNL     1       6.589 -12.176  39.829  1.00  0.00     0.118 C 
BRANCH  29  30
ATOM     30  O   UNL     1       7.887 -12.719  39.864  1.00  0.00    -0.393 OA
ATOM     31  H   UNL     1       8.480 -12.137  39.309  1.00  0.00     0.210 HD
ENDBRANCH  29  30
ENDBRANCH   1  11
TORSDOF 6
ENDMDL
MODEL 7
REMARK VINA RESULT:    -5.403      1.551      3.240
REMARK INTER + INTRA:          -8.717
REMARK INTER:                  -7.496
REMARK INTRA:                  -1.221
REMARK UNBOUND:                -1.577
REMARK SMILES CC[C@@H](C=C[C@H](C)[C@H]1CC[C@H]2[C@H]3CC=C4C[C@H](O)CC[C@]4(C)[C@H]3CC[C@@]12C)C(C)C
REMARK SMILES IDX 6 1 7 2 5 3 4 4 3 5 2 6 1 7 28 8 29 9 30 10 8 11 9 12 26 13
REMARK SMILES IDX 10 14 11 15 25 16 27 17 12 18 24 19 23 20 13 21 21 22 14 23
REMARK SMILES IDX 15 24 20 25 22 26 16 27 19 28 17 29 18 30
REMARK H PARENT 18 31
REMARK Flexibility Score: inf
ROOT
ATOM      1  C   UNL     1      20.494 -16.509  42.591  1.00  0.00     0.012 C 
ATOM      2  C   UNL     1      20.646 -17.928  43.182  1.00  0.00     0.012 C 
ENDROOT
BRANCH   1   3
ATOM      3  C   UNL     1      19.013 -16.171  42.501  1.00  0.00    -0.028 C 
ATOM      4  C   UNL     1      18.206 -16.541  41.482  1.00  0.00    -0.027 C 
BRANCH   4   5
ATOM      5  C   UNL     1      18.640 -17.344  40.266  1.00  0.00     0.014 C 
BRANCH   5   6
ATOM      6  C   UNL     1      18.455 -16.484  38.989  1.00  0.00     0.004 C 
ATOM      7  C   UNL     1      17.208 -16.857  38.187  1.00  0.00     0.004 C 
ENDBRANCH   5   6
BRANCH   5   8
ATOM      8  C   UNL     1      17.920 -18.736  40.262  1.00  0.00    -0.011 C 
ATOM      9  C   UNL     1      18.839 -19.938  40.544  1.00  0.00     0.008 C 
ATOM     10  C   UNL     1      16.702 -18.760  41.204  1.00  0.00     0.008 C 
ENDBRANCH   5   8
ENDBRANCH   4   5
ENDBRANCH   1   3
BRANCH   1  11
ATOM     11  C   UNL     1      21.373 -15.504  43.433  1.00  0.00     0.002 C 
ATOM     12  C   UNL     1      22.844 -15.978  43.515  1.00  0.00     0.005 C 
ATOM     13  C   UNL     1      21.448 -13.992  43.041  1.00  0.00    -0.026 C 
ATOM     14  C   UNL     1      23.718 -14.726  43.500  1.00  0.00     0.005 C 
ATOM     15  C   UNL     1      22.751 -13.569  43.757  1.00  0.00    -0.001 C 
ATOM     16  C   UNL     1      21.590 -13.806  41.493  1.00  0.00     0.007 C 
ATOM     17  C   UNL     1      20.236 -13.184  43.608  1.00  0.00     0.012 C 
ATOM     18  C   UNL     1      23.264 -12.135  43.418  1.00  0.00     0.000 C 
ATOM     19  C   UNL     1      22.464 -12.611  41.035  1.00  0.00     0.005 C 
ATOM     20  C   UNL     1      22.683 -11.521  42.108  1.00  0.00     0.003 C 
ATOM     21  C   UNL     1      24.786 -11.990  43.471  1.00  0.00     0.031 C 
ATOM     22  C   UNL     1      23.474 -10.217  41.587  1.00  0.00    -0.008 C 
ATOM     23  C   UNL     1      25.125 -10.531  43.446  1.00  0.00    -0.027 C 
ATOM     24  C   UNL     1      24.459  -9.677  42.648  1.00  0.00    -0.065 C 
ATOM     25  C   UNL     1      22.423  -9.112  41.241  1.00  0.00     0.014 C 
ATOM     26  C   UNL     1      24.329 -10.515  40.324  1.00  0.00     0.016 C 
ATOM     27  C   UNL     1      24.929  -8.235  42.599  1.00  0.00     0.063 C 
ATOM     28  C   UNL     1      23.023  -7.706  41.050  1.00  0.00     0.033 C 
ATOM     29  C   UNL     1      23.782  -7.258  42.302  1.00  0.00     0.118 C 
BRANCH  29  30
ATOM     30  O   UNL     1      22.888  -7.156  43.383  1.00  0.00    -0.393 OA
ATOM     31  H   UNL     1      23.391  -6.792  44.167  1.00  0.00     0.210 HD
ENDBRANCH  29  30
ENDBRANCH   1  11
TORSDOF 6
ENDMDL
MODEL 8
REMARK VINA RESULT:    -5.316      1.773      3.415
REMARK INTER + INTRA:          -8.602
REMARK INTER:                  -7.304
REMARK INTRA:                  -1.298
REMARK UNBOUND:                -1.577
REMARK SMILES CC[C@@H](C=C[C@H](C)[C@H]1CC[C@H]2[C@H]3CC=C4C[C@H](O)CC[C@]4(C)[C@H]3CC[C@@]12C)C(C)C
REMARK SMILES IDX 6 1 7 2 5 3 4 4 3 5 2 6 1 7 28 8 29 9 30 10 8 11 9 12 26 13
REMARK SMILES IDX 10 14 11 15 25 16 27 17 12 18 24 19 23 20 13 21 21 22 14 23
REMARK SMILES IDX 15 24 20 25 22 26 16 27 19 28 17 29 18 30
REMARK H PARENT 18 31
REMARK Flexibility Score: inf
ROOT
ATOM      1  C   UNL     1      18.719 -17.752  40.536  1.00  0.00     0.012 C 
ATOM      2  C   UNL     1      19.118 -19.243  40.496  1.00  0.00     0.012 C 
ENDROOT
BRANCH   1   3
ATOM      3  C   UNL     1      17.203 -17.647  40.438  1.00  0.00    -0.028 C 
ATOM      4  C   UNL     1      16.339 -18.308  41.239  1.00  0.00    -0.027 C 
BRANCH   4   5
ATOM      5  C   UNL     1      16.731 -19.262  42.356  1.00  0.00     0.014 C 
BRANCH   5   6
ATOM      6  C   UNL     1      16.038 -20.631  42.132  1.00  0.00     0.004 C 
ATOM      7  C   UNL     1      16.858 -21.813  42.647  1.00  0.00     0.004 C 
ENDBRANCH   5   6
BRANCH   5   8
ATOM      8  C   UNL     1      16.473 -18.586  43.747  1.00  0.00    -0.011 C 
ATOM      9  C   UNL     1      17.601 -18.782  44.777  1.00  0.00     0.008 C 
ATOM     10  C   UNL     1      16.127 -17.093  43.610  1.00  0.00     0.008 C 
ENDBRANCH   5   8
ENDBRANCH   4   5
ENDBRANCH   1   3
BRANCH   1  11
ATOM     11  C   UNL     1      19.367 -17.080  41.808  1.00  0.00     0.002 C 
ATOM     12  C   UNL     1      20.354 -18.042  42.511  1.00  0.00     0.005 C 
ATOM     13  C   UNL     1      20.132 -15.721  41.687  1.00  0.00    -0.026 C 
ATOM     14  C   UNL     1      21.494 -17.190  43.061  1.00  0.00     0.005 C 
ATOM     15  C   UNL     1      20.986 -15.750  42.976  1.00  0.00    -0.001 C 
ATOM     16  C   UNL     1      21.055 -15.693  40.421  1.00  0.00     0.007 C 
ATOM     17  C   UNL     1      19.157 -14.500  41.713  1.00  0.00     0.012 C 
ATOM     18  C   UNL     1      22.053 -14.618  43.096  1.00  0.00     0.000 C 
ATOM     19  C   UNL     1      22.390 -14.920  40.578  1.00  0.00     0.005 C 
ATOM     20  C   UNL     1      22.423 -13.918  41.752  1.00  0.00     0.003 C 
ATOM     21  C   UNL     1      23.305 -15.025  43.873  1.00  0.00     0.031 C 
ATOM     22  C   UNL     1      23.758 -13.018  41.828  1.00  0.00    -0.008 C 
ATOM     23  C   UNL     1      24.090 -13.788  44.190  1.00  0.00    -0.027 C 
ATOM     24  C   UNL     1      24.228 -12.802  43.284  1.00  0.00    -0.065 C 
ATOM     25  C   UNL     1      23.453 -11.633  41.169  1.00  0.00     0.014 C 
ATOM     26  C   UNL     1      24.954 -13.679  41.087  1.00  0.00     0.016 C 
ATOM     27  C   UNL     1      25.124 -11.630  43.639  1.00  0.00     0.063 C 
ATOM     28  C   UNL     1      24.509 -10.549  41.456  1.00  0.00     0.033 C 
ATOM     29  C   UNL     1      24.674 -10.327  42.961  1.00  0.00     0.118 C 
BRANCH  29  30
ATOM     30  O   UNL     1      23.467  -9.846  43.501  1.00  0.00    -0.393 OA
ATOM     31  H   UNL     1      23.427 -10.121  44.461  1.00  0.00     0.210 HD
ENDBRANCH  29  30
ENDBRANCH   1  11
TORSDOF 6
ENDMDL
