MODEL 1
REMARK VINA RESULT:    -4.262      0.000      0.000
REMARK INTER + INTRA:         -10.998
REMARK INTER:                  -8.248
REMARK INTRA:                  -2.749
REMARK UNBOUND:                -2.749
REMARK SMILES CCCCCCCCCCCCCCCCCC(=O)[O-]
REMARK SMILES IDX 10 1 11 2 12 3 13 4 14 5 15 6 16 7 17 8 18 9 19 10 20 11
REMARK SMILES IDX 9 12 8 13 7 14 6 15 5 16 4 17 3 18 2 19 1 20
REMARK H PARENT
REMARK Flexibility Score: inf
ROOT
ATOM      1  C   UNL     1     -19.899  45.751  -7.193  1.00  0.00     0.000 C 
ENDROOT
BRANCH   1   2
ATOM      2  C   UNL     1     -19.321  46.846  -6.280  1.00  0.00     0.000 C 
BRANCH   2   3
ATOM      3  C   UNL     1     -18.331  47.763  -7.014  1.00  0.00     0.000 C 
BRANCH   3   4
ATOM      4  C   UNL     1     -17.638  47.059  -8.194  1.00  0.00     0.000 C 
BRANCH   4   5
ATOM      5  C   UNL     1     -16.659  47.981  -8.937  1.00  0.00     0.000 C 
BRANCH   5   6
ATOM      6  C   UNL     1     -15.188  47.632  -8.650  1.00  0.00     0.000 C 
BRANCH   6   7
ATOM      7  C   UNL     1     -15.036  46.535  -7.581  1.00  0.00     0.006 C 
BRANCH   7   8
ATOM      8  C   UNL     1     -14.051  46.884  -6.454  1.00  0.00     0.053 C 
BRANCH   8   9
ATOM      9  C   UNL     1     -14.645  46.658  -5.098  1.00  0.00     0.041 C 
ATOM     10  O   UNL     1     -15.831  47.007  -4.860  1.00  0.00    -0.550 OA
ATOM     11  O   UNL     1     -13.876  46.098  -4.085  1.00  0.00    -0.550 OA
ENDBRANCH   8   9
ENDBRANCH   7   8
ENDBRANCH   6   7
ENDBRANCH   5   6
ENDBRANCH   4   5
ENDBRANCH   3   4
ENDBRANCH   2   3
ENDBRANCH   1   2
BRANCH   1  12
ATOM     12  C   UNL     1     -19.757  44.344  -6.589  1.00  0.00     0.000 C 
BRANCH  12  13
ATOM     13  C   UNL     1     -18.602  44.253  -5.576  1.00  0.00    -0.000 C 
BRANCH  13  14
ATOM     14  C   UNL     1     -17.247  43.984  -6.250  1.00  0.00    -0.000 C 
BRANCH  14  15
ATOM     15  C   UNL     1     -17.379  43.115  -7.512  1.00  0.00    -0.000 C 
BRANCH  15  16
ATOM     16  C   UNL     1     -16.333  43.461  -8.586  1.00  0.00    -0.000 C 
BRANCH  16  17
ATOM     17  C   UNL     1     -16.912  43.519 -10.015  1.00  0.00    -0.000 C 
BRANCH  17  18
ATOM     18  C   UNL     1     -18.339  44.094 -10.041  1.00  0.00    -0.000 C 
BRANCH  18  19
ATOM     19  C   UNL     1     -19.340  43.160 -10.737  1.00  0.00    -0.003 C 
ATOM     20  C   UNL     1     -20.217  42.392  -9.751  1.00  0.00     0.004 C 
ENDBRANCH  18  19
ENDBRANCH  17  18
ENDBRANCH  16  17
ENDBRANCH  15  16
ENDBRANCH  14  15
ENDBRANCH  13  14
ENDBRANCH  12  13
ENDBRANCH   1  12
TORSDOF 16
ENDMDL
MODEL 2
REMARK VINA RESULT:    -4.130      2.639      5.572
REMARK INTER + INTRA:         -10.742
REMARK INTER:                  -7.863
REMARK INTRA:                  -2.879
REMARK UNBOUND:                -2.749
REMARK SMILES CCCCCCCCCCCCCCCCCC(=O)[O-]
REMARK SMILES IDX 10 1 11 2 12 3 13 4 14 5 15 6 16 7 17 8 18 9 19 10 20 11
REMARK SMILES IDX 9 12 8 13 7 14 6 15 5 16 4 17 3 18 2 19 1 20
REMARK H PARENT
REMARK Flexibility Score: inf
ROOT
ATOM      1  C   UNL     1     -19.401  45.413  -6.275  1.00  0.00     0.000 C 
ENDROOT
BRANCH   1   2
ATOM      2  C   UNL     1     -18.687  44.253  -5.558  1.00  0.00     0.000 C 
BRANCH   2   3
ATOM      3  C   UNL     1     -17.275  44.001  -6.109  1.00  0.00     0.000 C 
BRANCH   3   4
ATOM      4  C   UNL     1     -17.257  42.938  -7.221  1.00  0.00     0.000 C 
BRANCH   4   5
ATOM      5  C   UNL     1     -16.127  43.169  -8.237  1.00  0.00     0.000 C 
BRANCH   5   6
ATOM      6  C   UNL     1     -16.655  43.581  -9.622  1.00  0.00     0.000 C 
BRANCH   6   7
ATOM      7  C   UNL     1     -18.136  43.216  -9.826  1.00  0.00     0.006 C 
BRANCH   7   8
ATOM      8  C   UNL     1     -18.888  44.145 -10.793  1.00  0.00     0.053 C 
BRANCH   8   9
ATOM      9  C   UNL     1     -20.233  44.538 -10.263  1.00  0.00     0.041 C 
ATOM     10  O   UNL     1     -20.932  45.386 -10.877  1.00  0.00    -0.550 OA
ATOM     11  O   UNL     1     -20.697  43.996  -9.071  1.00  0.00    -0.550 OA
ENDBRANCH   8   9
ENDBRANCH   7   8
ENDBRANCH   6   7
ENDBRANCH   5   6
ENDBRANCH   4   5
ENDBRANCH   3   4
ENDBRANCH   2   3
ENDBRANCH   1   2
BRANCH   1  12
ATOM     12  C   UNL     1     -18.852  46.788  -5.862  1.00  0.00     0.000 C 
BRANCH  12  13
ATOM     13  C   UNL     1     -18.394  47.626  -7.069  1.00  0.00    -0.000 C 
BRANCH  13  14
ATOM     14  C   UNL     1     -18.001  46.756  -8.273  1.00  0.00    -0.000 C 
BRANCH  14  15
ATOM     15  C   UNL     1     -17.193  47.536  -9.324  1.00  0.00    -0.000 C 
BRANCH  15  16
ATOM     16  C   UNL     1     -15.716  47.713  -8.928  1.00  0.00    -0.000 C 
BRANCH  16  17
ATOM     17  C   UNL     1     -15.164  46.554  -8.071  1.00  0.00    -0.000 C 
BRANCH  17  18
ATOM     18  C   UNL     1     -14.145  47.039  -7.026  1.00  0.00    -0.000 C 
BRANCH  18  19
ATOM     19  C   UNL     1     -14.280  46.304  -5.684  1.00  0.00    -0.003 C 
ATOM     20  C   UNL     1     -15.347  46.917  -4.779  1.00  0.00     0.004 C 
ENDBRANCH  18  19
ENDBRANCH  17  18
ENDBRANCH  16  17
ENDBRANCH  15  16
ENDBRANCH  14  15
ENDBRANCH  13  14
ENDBRANCH  12  13
ENDBRANCH   1  12
TORSDOF 16
ENDMDL
MODEL 3
REMARK VINA RESULT:    -4.026      1.990      3.428
REMARK INTER + INTRA:         -10.540
REMARK INTER:                  -8.022
REMARK INTRA:                  -2.518
REMARK UNBOUND:                -2.749
REMARK SMILES CCCCCCCCCCCCCCCCCC(=O)[O-]
REMARK SMILES IDX 10 1 11 2 12 3 13 4 14 5 15 6 16 7 17 8 18 9 19 10 20 11
REMARK SMILES IDX 9 12 8 13 7 14 6 15 5 16 4 17 3 18 2 19 1 20
REMARK H PARENT
REMARK Flexibility Score: inf
ROOT
ATOM      1  C   UNL     1     -18.646  45.967  -6.526  1.00  0.00     0.000 C 
ENDROOT
BRANCH   1   2
ATOM      2  C   UNL     1     -18.311  47.064  -5.501  1.00  0.00     0.000 C 
BRANCH   2   3
ATOM      3  C   UNL     1     -16.824  47.073  -5.113  1.00  0.00     0.000 C 
BRANCH   3   4
ATOM      4  C   UNL     1     -16.000  46.047  -5.910  1.00  0.00     0.000 C 
BRANCH   4   5
ATOM      5  C   UNL     1     -14.488  46.302  -5.810  1.00  0.00     0.000 C 
BRANCH   5   6
ATOM      6  C   UNL     1     -13.941  47.083  -7.018  1.00  0.00     0.000 C 
BRANCH   6   7
ATOM      7  C   UNL     1     -14.662  46.728  -8.330  1.00  0.00     0.006 C 
BRANCH   7   8
ATOM      8  C   UNL     1     -14.656  47.854  -9.378  1.00  0.00     0.053 C 
BRANCH   8   9
ATOM      9  C   UNL     1     -15.982  48.544  -9.469  1.00  0.00     0.041 C 
ATOM     10  O   UNL     1     -16.097  49.611 -10.128  1.00  0.00    -0.550 OA
ATOM     11  O   UNL     1     -17.083  48.029  -8.796  1.00  0.00    -0.550 OA
ENDBRANCH   8   9
ENDBRANCH   7   8
ENDBRANCH   6   7
ENDBRANCH   5   6
ENDBRANCH   4   5
ENDBRANCH   3   4
ENDBRANCH   2   3
ENDBRANCH   1   2
BRANCH   1  12
ATOM     12  C   UNL     1     -19.511  44.845  -5.927  1.00  0.00     0.000 C 
BRANCH  12  13
ATOM     13  C   UNL     1     -20.679  44.449  -6.846  1.00  0.00    -0.000 C 
BRANCH  13  14
ATOM     14  C   UNL     1     -20.799  45.365  -8.074  1.00  0.00    -0.000 C 
BRANCH  14  15
ATOM     15  C   UNL     1     -20.341  44.676  -9.370  1.00  0.00    -0.000 C 
BRANCH  15  16
ATOM     16  C   UNL     1     -20.323  43.142  -9.256  1.00  0.00    -0.000 C 
BRANCH  16  17
ATOM     17  C   UNL     1     -18.917  42.527  -9.416  1.00  0.00    -0.000 C 
BRANCH  17  18
ATOM     18  C   UNL     1     -17.861  43.582  -9.792  1.00  0.00    -0.000 C 
BRANCH  18  19
ATOM     19  C   UNL     1     -16.707  43.649  -8.780  1.00  0.00    -0.003 C 
ATOM     20  C   UNL     1     -16.950  42.781  -7.546  1.00  0.00     0.004 C 
ENDBRANCH  18  19
ENDBRANCH  17  18
ENDBRANCH  16  17
ENDBRANCH  15  16
ENDBRANCH  14  15
ENDBRANCH  13  14
ENDBRANCH  12  13
ENDBRANCH   1  12
TORSDOF 16
ENDMDL
MODEL 4
REMARK VINA RESULT:    -4.020      2.077      4.699
REMARK INTER + INTRA:         -10.529
REMARK INTER:                  -7.847
REMARK INTRA:                  -2.682
REMARK UNBOUND:                -2.749
REMARK SMILES CCCCCCCCCCCCCCCCCC(=O)[O-]
REMARK SMILES IDX 10 1 11 2 12 3 13 4 14 5 15 6 16 7 17 8 18 9 19 10 20 11
REMARK SMILES IDX 9 12 8 13 7 14 6 15 5 16 4 17 3 18 2 19 1 20
REMARK H PARENT
REMARK Flexibility Score: inf
ROOT
ATOM      1  C   UNL     1     -18.903  46.534  -6.160  1.00  0.00     0.000 C 
ENDROOT
BRANCH   1   2
ATOM      2  C   UNL     1     -19.270  45.059  -5.919  1.00  0.00     0.000 C 
BRANCH   2   3
ATOM      3  C   UNL     1     -20.446  44.596  -6.792  1.00  0.00     0.000 C 
BRANCH   3   4
ATOM      4  C   UNL     1     -20.639  45.476  -8.039  1.00  0.00     0.000 C 
BRANCH   4   5
ATOM      5  C   UNL     1     -20.380  44.708  -9.345  1.00  0.00     0.000 C 
BRANCH   5   6
ATOM      6  C   UNL     1     -20.550  43.188  -9.179  1.00  0.00     0.000 C 
BRANCH   6   7
ATOM      7  C   UNL     1     -19.249  42.412  -9.449  1.00  0.00     0.006 C 
BRANCH   7   8
ATOM      8  C   UNL     1     -18.059  43.298  -9.854  1.00  0.00     0.053 C 
BRANCH   8   9
ATOM      9  C   UNL     1     -16.949  43.241  -8.850  1.00  0.00     0.041 C 
ATOM     10  O   UNL     1     -15.789  43.614  -9.167  1.00  0.00    -0.550 OA
ATOM     11  O   UNL     1     -17.187  42.742  -7.575  1.00  0.00    -0.550 OA
ENDBRANCH   8   9
ENDBRANCH   7   8
ENDBRANCH   6   7
ENDBRANCH   5   6
ENDBRANCH   4   5
ENDBRANCH   3   4
ENDBRANCH   2   3
ENDBRANCH   1   2
BRANCH   1  12
ATOM     12  C   UNL     1     -17.512  46.893  -5.613  1.00  0.00     0.000 C 
BRANCH  12  13
ATOM     13  C   UNL     1     -16.441  45.860  -6.005  1.00  0.00    -0.000 C 
BRANCH  13  14
ATOM     14  C   UNL     1     -15.026  46.290  -5.586  1.00  0.00    -0.000 C 
BRANCH  14  15
ATOM     15  C   UNL     1     -14.263  46.989  -6.723  1.00  0.00    -0.000 C 
BRANCH  15  16
ATOM     16  C   UNL     1     -14.877  46.721  -8.108  1.00  0.00    -0.000 C 
BRANCH  16  17
ATOM     17  C   UNL     1     -15.132  48.003  -8.929  1.00  0.00    -0.000 C 
BRANCH  17  18
ATOM     18  C   UNL     1     -16.632  48.269  -9.141  1.00  0.00    -0.000 C 
BRANCH  18  19
ATOM     19  C   UNL     1     -17.421  46.989  -9.451  1.00  0.00    -0.003 C 
ATOM     20  C   UNL     1     -17.591  46.747 -10.950  1.00  0.00     0.004 C 
ENDBRANCH  18  19
ENDBRANCH  17  18
ENDBRANCH  16  17
ENDBRANCH  15  16
ENDBRANCH  14  15
ENDBRANCH  13  14
ENDBRANCH  12  13
ENDBRANCH   1  12
TORSDOF 16
ENDMDL
MODEL 5
REMARK VINA RESULT:    -4.017      0.775      2.264
REMARK INTER + INTRA:         -10.524
REMARK INTER:                  -7.851
REMARK INTRA:                  -2.672
REMARK UNBOUND:                -2.749
REMARK SMILES CCCCCCCCCCCCCCCCCC(=O)[O-]
REMARK SMILES IDX 10 1 11 2 12 3 13 4 14 5 15 6 16 7 17 8 18 9 19 10 20 11
REMARK SMILES IDX 9 12 8 13 7 14 6 15 5 16 4 17 3 18 2 19 1 20
REMARK H PARENT
REMARK Flexibility Score: inf
ROOT
ATOM      1  C   UNL     1     -18.738  45.281  -6.137  1.00  0.00     0.000 C 
ENDROOT
BRANCH   1   2
ATOM      2  C   UNL     1     -19.125  46.762  -5.989  1.00  0.00     0.000 C 
BRANCH   2   3
ATOM      3  C   UNL     1     -18.478  47.651  -7.062  1.00  0.00     0.000 C 
BRANCH   3   4
ATOM      4  C   UNL     1     -17.708  46.836  -8.116  1.00  0.00     0.000 C 
BRANCH   4   5
ATOM      5  C   UNL     1     -16.701  47.692  -8.900  1.00  0.00     0.000 C 
BRANCH   5   6
ATOM      6  C   UNL     1     -15.256  47.185  -8.752  1.00  0.00     0.000 C 
BRANCH   6   7
ATOM      7  C   UNL     1     -15.063  46.297  -7.510  1.00  0.00     0.006 C 
BRANCH   7   8
ATOM      8  C   UNL     1     -14.142  46.902  -6.438  1.00  0.00     0.053 C 
BRANCH   8   9
ATOM      9  C   UNL     1     -14.661  46.666  -5.052  1.00  0.00     0.041 C 
ATOM     10  O   UNL     1     -14.018  45.940  -4.250  1.00  0.00    -0.550 OA
ATOM     11  O   UNL     1     -15.875  47.218  -4.660  1.00  0.00    -0.550 OA
ENDBRANCH   8   9
ENDBRANCH   7   8
ENDBRANCH   6   7
ENDBRANCH   5   6
ENDBRANCH   4   5
ENDBRANCH   3   4
ENDBRANCH   2   3
ENDBRANCH   1   2
BRANCH   1  12
ATOM     12  C   UNL     1     -19.944  44.385  -6.461  1.00  0.00     0.000 C 
BRANCH  12  13
ATOM     13  C   UNL     1     -20.945  45.067  -7.411  1.00  0.00    -0.000 C 
BRANCH  13  14
ATOM     14  C   UNL     1     -20.608  44.827  -8.891  1.00  0.00    -0.000 C 
BRANCH  14  15
ATOM     15  C   UNL     1     -20.585  43.334  -9.256  1.00  0.00    -0.000 C 
BRANCH  15  16
ATOM     16  C   UNL     1     -19.562  43.005 -10.357  1.00  0.00    -0.000 C 
BRANCH  16  17
ATOM     17  C   UNL     1     -18.420  44.037 -10.466  1.00  0.00    -0.000 C 
BRANCH  17  18
ATOM     18  C   UNL     1     -17.123  43.540  -9.804  1.00  0.00    -0.000 C 
BRANCH  18  19
ATOM     19  C   UNL     1     -17.388  42.654  -8.577  1.00  0.00    -0.003 C 
ATOM     20  C   UNL     1     -16.480  42.993  -7.396  1.00  0.00     0.004 C 
ENDBRANCH  18  19
ENDBRANCH  17  18
ENDBRANCH  16  17
ENDBRANCH  15  16
ENDBRANCH  14  15
ENDBRANCH  13  14
ENDBRANCH  12  13
ENDBRANCH   1  12
TORSDOF 16
ENDMDL
MODEL 6
REMARK VINA RESULT:    -3.953      1.110      2.538
REMARK INTER + INTRA:         -10.400
REMARK INTER:                  -7.698
REMARK INTRA:                  -2.702
REMARK UNBOUND:                -2.749
REMARK SMILES CCCCCCCCCCCCCCCCCC(=O)[O-]
REMARK SMILES IDX 10 1 11 2 12 3 13 4 14 5 15 6 16 7 17 8 18 9 19 10 20 11
REMARK SMILES IDX 9 12 8 13 7 14 6 15 5 16 4 17 3 18 2 19 1 20
REMARK H PARENT
REMARK Flexibility Score: inf
ROOT
ATOM      1  C   UNL     1     -16.456  44.887  -8.413  1.00  0.00     0.000 C 
ENDROOT
BRANCH   1   2
ATOM      2  C   UNL     1     -16.830  45.476  -9.784  1.00  0.00     0.000 C 
BRANCH   2   3
ATOM      3  C   UNL     1     -17.306  46.934  -9.688  1.00  0.00     0.000 C 
BRANCH   3   4
ATOM      4  C   UNL     1     -16.426  47.782  -8.754  1.00  0.00     0.000 C 
BRANCH   4   5
ATOM      5  C   UNL     1     -15.141  48.272  -9.441  1.00  0.00     0.000 C 
BRANCH   5   6
ATOM      6  C   UNL     1     -13.890  48.059  -8.570  1.00  0.00     0.000 C 
BRANCH   6   7
ATOM      7  C   UNL     1     -14.122  47.046  -7.435  1.00  0.00     0.006 C 
BRANCH   7   8
ATOM      8  C   UNL     1     -13.973  47.636  -6.023  1.00  0.00     0.053 C 
BRANCH   8   9
ATOM      9  C   UNL     1     -14.758  46.865  -5.006  1.00  0.00     0.041 C 
ATOM     10  O   UNL     1     -15.948  47.185  -4.749  1.00  0.00    -0.550 OA
ATOM     11  O   UNL     1     -14.162  45.816  -4.316  1.00  0.00    -0.550 OA
ENDBRANCH   8   9
ENDBRANCH   7   8
ENDBRANCH   6   7
ENDBRANCH   5   6
ENDBRANCH   4   5
ENDBRANCH   3   4
ENDBRANCH   2   3
ENDBRANCH   1   2
BRANCH   1  12
ATOM     12  C   UNL     1     -16.790  43.391  -8.303  1.00  0.00     0.000 C 
BRANCH  12  13
ATOM     13  C   UNL     1     -17.193  42.981  -6.876  1.00  0.00    -0.000 C 
BRANCH  13  14
ATOM     14  C   UNL     1     -17.477  44.192  -5.973  1.00  0.00    -0.000 C 
BRANCH  14  15
ATOM     15  C   UNL     1     -18.982  44.443  -5.781  1.00  0.00    -0.000 C 
BRANCH  15  16
ATOM     16  C   UNL     1     -19.448  45.773  -6.399  1.00  0.00    -0.000 C 
BRANCH  16  17
ATOM     17  C   UNL     1     -20.135  45.608  -7.771  1.00  0.00    -0.000 C 
BRANCH  17  18
ATOM     18  C   UNL     1     -20.504  44.144  -8.065  1.00  0.00    -0.000 C 
BRANCH  18  19
ATOM     19  C   UNL     1     -20.290  43.764  -9.538  1.00  0.00    -0.003 C 
ATOM     20  C   UNL     1     -19.952  42.287  -9.725  1.00  0.00     0.004 C 
ENDBRANCH  18  19
ENDBRANCH  17  18
ENDBRANCH  16  17
ENDBRANCH  15  16
ENDBRANCH  14  15
ENDBRANCH  13  14
ENDBRANCH  12  13
ENDBRANCH   1  12
TORSDOF 16
ENDMDL
MODEL 7
REMARK VINA RESULT:    -3.869      1.859      3.857
REMARK INTER + INTRA:         -10.237
REMARK INTER:                  -7.422
REMARK INTRA:                  -2.815
REMARK UNBOUND:                -2.749
REMARK SMILES CCCCCCCCCCCCCCCCCC(=O)[O-]
REMARK SMILES IDX 10 1 11 2 12 3 13 4 14 5 15 6 16 7 17 8 18 9 19 10 20 11
REMARK SMILES IDX 9 12 8 13 7 14 6 15 5 16 4 17 3 18 2 19 1 20
REMARK H PARENT
REMARK Flexibility Score: inf
ROOT
ATOM      1  C   UNL     1     -17.233  44.069  -6.024  1.00  0.00     0.000 C 
ENDROOT
BRANCH   1   2
ATOM      2  C   UNL     1     -17.263  43.029  -7.157  1.00  0.00     0.000 C 
BRANCH   2   3
ATOM      3  C   UNL     1     -16.167  43.269  -8.206  1.00  0.00     0.000 C 
BRANCH   3   4
ATOM      4  C   UNL     1     -16.740  43.524  -9.611  1.00  0.00     0.000 C 
BRANCH   4   5
ATOM      5  C   UNL     1     -16.463  44.951 -10.110  1.00  0.00     0.000 C 
BRANCH   5   6
ATOM      6  C   UNL     1     -17.648  45.901  -9.864  1.00  0.00     0.000 C 
BRANCH   6   7
ATOM      7  C   UNL     1     -17.265  47.383 -10.026  1.00  0.00     0.006 C 
BRANCH   7   8
ATOM      8  C   UNL     1     -15.786  47.617 -10.375  1.00  0.00     0.053 C 
BRANCH   8   9
ATOM      9  C   UNL     1     -15.054  48.325  -9.277  1.00  0.00     0.041 C 
ATOM     10  O   UNL     1     -14.897  49.573  -9.323  1.00  0.00    -0.550 OA
ATOM     11  O   UNL     1     -14.513  47.602  -8.221  1.00  0.00    -0.550 OA
ENDBRANCH   8   9
ENDBRANCH   7   8
ENDBRANCH   6   7
ENDBRANCH   5   6
ENDBRANCH   4   5
ENDBRANCH   3   4
ENDBRANCH   2   3
ENDBRANCH   1   2
BRANCH   1  12
ATOM     12  C   UNL     1     -16.336  45.274  -6.353  1.00  0.00     0.000 C 
BRANCH  12  13
ATOM     13  C   UNL     1     -16.799  46.562  -5.650  1.00  0.00    -0.000 C 
BRANCH  13  14
ATOM     14  C   UNL     1     -17.941  47.264  -6.400  1.00  0.00    -0.000 C 
BRANCH  14  15
ATOM     15  C   UNL     1     -19.310  46.620  -6.126  1.00  0.00    -0.000 C 
BRANCH  15  16
ATOM     16  C   UNL     1     -20.045  46.209  -7.414  1.00  0.00    -0.000 C 
BRANCH  16  17
ATOM     17  C   UNL     1     -20.472  44.726  -7.434  1.00  0.00    -0.000 C 
BRANCH  17  18
ATOM     18  C   UNL     1     -20.819  44.241  -8.852  1.00  0.00    -0.000 C 
BRANCH  18  19
ATOM     19  C   UNL     1     -20.262  42.840  -9.150  1.00  0.00    -0.003 C 
ATOM     20  C   UNL     1     -20.126  42.564 -10.646  1.00  0.00     0.004 C 
ENDBRANCH  18  19
ENDBRANCH  17  18
ENDBRANCH  16  17
ENDBRANCH  15  16
ENDBRANCH  14  15
ENDBRANCH  13  14
ENDBRANCH  12  13
ENDBRANCH   1  12
TORSDOF 16
ENDMDL
MODEL 8
REMARK VINA RESULT:    -3.853      2.603      3.873
REMARK INTER + INTRA:         -10.206
REMARK INTER:                  -7.670
REMARK INTRA:                  -2.536
REMARK UNBOUND:                -2.749
REMARK SMILES CCCCCCCCCCCCCCCCCC(=O)[O-]
REMARK SMILES IDX 10 1 11 2 12 3 13 4 14 5 15 6 16 7 17 8 18 9 19 10 20 11
REMARK SMILES IDX 9 12 8 13 7 14 6 15 5 16 4 17 3 18 2 19 1 20
REMARK H PARENT
REMARK Flexibility Score: inf
ROOT
ATOM      1  C   UNL     1     -17.654  47.115  -5.537  1.00  0.00     0.000 C 
ENDROOT
BRANCH   1   2
ATOM      2  C   UNL     1     -16.511  46.126  -5.822  1.00  0.00     0.000 C 
BRANCH   2   3
ATOM      3  C   UNL     1     -15.522  46.655  -6.872  1.00  0.00     0.000 C 
BRANCH   3   4
ATOM      4  C   UNL     1     -15.646  45.924  -8.220  1.00  0.00     0.000 C 
BRANCH   4   5
ATOM      5  C   UNL     1     -16.757  46.508  -9.107  1.00  0.00     0.000 C 
BRANCH   5   6
ATOM      6  C   UNL     1     -16.743  48.047  -9.131  1.00  0.00     0.000 C 
BRANCH   6   7
ATOM      7  C   UNL     1     -15.648  48.617 -10.049  1.00  0.00     0.006 C 
BRANCH   7   8
ATOM      8  C   UNL     1     -14.614  49.497  -9.327  1.00  0.00     0.053 C 
BRANCH   8   9
ATOM      9  C   UNL     1     -14.859  50.957  -9.559  1.00  0.00     0.041 C 
ATOM     10  O   UNL     1     -14.670  51.786  -8.630  1.00  0.00    -0.550 OA
ATOM     11  O   UNL     1     -15.333  51.397 -10.789  1.00  0.00    -0.550 OA
ENDBRANCH   8   9
ENDBRANCH   7   8
ENDBRANCH   6   7
ENDBRANCH   5   6
ENDBRANCH   4   5
ENDBRANCH   3   4
ENDBRANCH   2   3
ENDBRANCH   1   2
BRANCH   1  12
ATOM     12  C   UNL     1     -19.009  46.619  -6.069  1.00  0.00     0.000 C 
BRANCH  12  13
ATOM     13  C   UNL     1     -19.038  45.095  -6.275  1.00  0.00    -0.000 C 
BRANCH  13  14
ATOM     14  C   UNL     1     -20.412  44.590  -6.743  1.00  0.00    -0.000 C 
BRANCH  14  15
ATOM     15  C   UNL     1     -20.872  45.260  -8.049  1.00  0.00    -0.000 C 
BRANCH  15  16
ATOM     16  C   UNL     1     -20.035  44.832  -9.266  1.00  0.00    -0.000 C 
BRANCH  16  17
ATOM     17  C   UNL     1     -20.372  43.415  -9.779  1.00  0.00    -0.000 C 
BRANCH  17  18
ATOM     18  C   UNL     1     -19.306  42.382  -9.376  1.00  0.00    -0.000 C 
BRANCH  18  19
ATOM     19  C   UNL     1     -17.904  42.997  -9.252  1.00  0.00    -0.003 C 
ATOM     20  C   UNL     1     -17.161  42.531  -8.002  1.00  0.00     0.004 C 
ENDBRANCH  18  19
ENDBRANCH  17  18
ENDBRANCH  16  17
ENDBRANCH  15  16
ENDBRANCH  14  15
ENDBRANCH  13  14
ENDBRANCH  12  13
ENDBRANCH   1  12
TORSDOF 16
ENDMDL
MODEL 9
REMARK VINA RESULT:    -3.720      1.385      3.705
REMARK INTER + INTRA:          -9.950
REMARK INTER:                  -7.393
REMARK INTRA:                  -2.556
REMARK UNBOUND:                -2.749
REMARK SMILES CCCCCCCCCCCCCCCCCC(=O)[O-]
REMARK SMILES IDX 10 1 11 2 12 3 13 4 14 5 15 6 16 7 17 8 18 9 19 10 20 11
REMARK SMILES IDX 9 12 8 13 7 14 6 15 5 16 4 17 3 18 2 19 1 20
REMARK H PARENT
REMARK Flexibility Score: inf
ROOT
ATOM      1  C   UNL     1     -17.697  42.580  -8.345  1.00  0.00     0.000 C 
ENDROOT
BRANCH   1   2
ATOM      2  C   UNL     1     -16.668  43.673  -8.680  1.00  0.00     0.000 C 
BRANCH   2   3
ATOM      3  C   UNL     1     -16.918  44.315 -10.053  1.00  0.00     0.000 C 
BRANCH   3   4
ATOM      4  C   UNL     1     -16.897  45.853  -9.998  1.00  0.00     0.000 C 
BRANCH   4   5
ATOM      5  C   UNL     1     -15.540  46.438 -10.419  1.00  0.00     0.000 C 
BRANCH   5   6
ATOM      6  C   UNL     1     -14.559  46.558  -9.239  1.00  0.00     0.000 C 
BRANCH   6   7
ATOM      7  C   UNL     1     -15.232  47.082  -7.958  1.00  0.00     0.006 C 
BRANCH   7   8
ATOM      8  C   UNL     1     -14.336  47.034  -6.710  1.00  0.00     0.053 C 
BRANCH   8   9
ATOM      9  C   UNL     1     -15.043  46.435  -5.533  1.00  0.00     0.041 C 
ATOM     10  O   UNL     1     -15.711  45.376  -5.666  1.00  0.00    -0.550 OA
ATOM     11  O   UNL     1     -14.995  47.068  -4.297  1.00  0.00    -0.550 OA
ENDBRANCH   8   9
ENDBRANCH   7   8
ENDBRANCH   6   7
ENDBRANCH   5   6
ENDBRANCH   4   5
ENDBRANCH   3   4
ENDBRANCH   2   3
ENDBRANCH   1   2
BRANCH   1  12
ATOM     12  C   UNL     1     -18.638  42.275  -9.522  1.00  0.00     0.000 C 
BRANCH  12  13
ATOM     13  C   UNL     1     -20.073  42.769  -9.271  1.00  0.00    -0.000 C 
BRANCH  13  14
ATOM     14  C   UNL     1     -20.488  43.888 -10.240  1.00  0.00    -0.000 C 
BRANCH  14  15
ATOM     15  C   UNL     1     -20.528  45.268  -9.564  1.00  0.00    -0.000 C 
BRANCH  15  16
ATOM     16  C   UNL     1     -20.538  45.180  -8.028  1.00  0.00    -0.000 C 
BRANCH  16  17
ATOM     17  C   UNL     1     -19.548  46.149  -7.347  1.00  0.00    -0.000 C 
BRANCH  17  18
ATOM     18  C   UNL     1     -19.157  45.683  -5.934  1.00  0.00    -0.000 C 
BRANCH  18  19
ATOM     19  C   UNL     1     -19.382  44.178  -5.725  1.00  0.00    -0.003 C 
ATOM     20  C   UNL     1     -20.527  43.879  -4.760  1.00  0.00     0.004 C 
ENDBRANCH  18  19
ENDBRANCH  17  18
ENDBRANCH  16  17
ENDBRANCH  15  16
ENDBRANCH  14  15
ENDBRANCH  13  14
ENDBRANCH  12  13
ENDBRANCH   1  12
TORSDOF 16
ENDMDL
