MODEL 1
REMARK VINA RESULT:    -5.444      0.000      0.000
REMARK INTER + INTRA:          -7.050
REMARK INTER:                  -6.717
REMARK INTRA:                  -0.333
REMARK UNBOUND:                -0.333
REMARK SMILES Oc1cc(O)c2cc(O)c(-c3cc(O)c(O)c(O)c3)[o+]c2c1
REMARK SMILES IDX 10 1 20 2 21 3 22 4 2 5 3 6 4 7 6 8 7 9 8 10 11 11 12 12
REMARK SMILES IDX 13 13 19 14 15 15 17 16 14 17 16 19 18 21 9 23 1 25 5 27
REMARK H PARENT 14 18 16 20 18 22 9 24 1 26 5 28
REMARK Flexibility Score: inf
ROOT
ATOM      1  C   UNL     1      17.799  13.158  23.963  1.00  0.00     0.402 A 
ATOM      2  O   UNL     1      17.790  11.905  24.407  1.00  0.00    -0.202 OA
ATOM      3  C   UNL     1      18.202  10.870  23.682  1.00  0.00     0.368 A 
ATOM      4  C   UNL     1      18.158   9.589  24.238  1.00  0.00     0.162 A 
ATOM      5  C   UNL     1      18.586   8.485  23.500  1.00  0.00     0.128 A 
ATOM      6  C   UNL     1      19.064   8.661  22.196  1.00  0.00     0.093 A 
ATOM      7  C   UNL     1      19.119   9.934  21.616  1.00  0.00     0.136 A 
ATOM      8  C   UNL     1      18.681  11.060  22.363  1.00  0.00     0.125 A 
ATOM      9  C   UNL     1      18.687  12.370  21.859  1.00  0.00     0.078 A 
ATOM     10  C   UNL     1      18.235  13.428  22.653  1.00  0.00     0.223 A 
ENDROOT
BRANCH   1  11
ATOM     11  C   UNL     1      17.323  14.226  24.871  1.00  0.00     0.091 A 
ATOM     12  C   UNL     1      18.220  15.121  25.480  1.00  0.00     0.068 A 
ATOM     13  C   UNL     1      17.753  16.112  26.356  1.00  0.00     0.162 A 
ATOM     14  C   UNL     1      15.957  14.314  25.178  1.00  0.00     0.068 A 
ATOM     15  C   UNL     1      16.380  16.206  26.639  1.00  0.00     0.200 A 
ATOM     16  C   UNL     1      15.482  15.301  26.049  1.00  0.00     0.162 A 
BRANCH  13  17
ATOM     17  O   UNL     1      18.650  16.998  26.950  1.00  0.00    -0.504 OA
ATOM     18  H   UNL     1      19.352  17.487  26.407  1.00  0.00     0.293 HD
ENDBRANCH  13  17
BRANCH  15  19
ATOM     19  O   UNL     1      15.897  17.189  27.505  1.00  0.00    -0.502 OA
ATOM     20  H   UNL     1      16.509  17.863  27.950  1.00  0.00     0.293 HD
ENDBRANCH  15  19
BRANCH  16  21
ATOM     21  O   UNL     1      14.115  15.363  26.316  1.00  0.00    -0.504 OA
ATOM     22  H   UNL     1      13.423  15.413  25.579  1.00  0.00     0.293 HD
ENDBRANCH  16  21
ENDBRANCH   1  11
BRANCH  10  23
ATOM     23  O   UNL     1      18.195  14.723  22.135  1.00  0.00    -0.500 OA
ATOM     24  H   UNL     1      17.620  14.960  21.336  1.00  0.00     0.294 HD
ENDBRANCH  10  23
BRANCH   5  25
ATOM     25  O   UNL     1      18.534   7.215  24.070  1.00  0.00    -0.507 OA
ATOM     26  H   UNL     1      18.644   6.377  23.511  1.00  0.00     0.293 HD
ENDBRANCH   5  25
BRANCH   7  27
ATOM     27  O   UNL     1      19.612  10.027  20.311  1.00  0.00    -0.507 OA
ATOM     28  H   UNL     1      19.059   9.873  19.480  1.00  0.00     0.293 HD
ENDBRANCH   7  27
TORSDOF 7
ENDMDL
MODEL 2
REMARK VINA RESULT:    -5.416      0.078      1.796
REMARK INTER + INTRA:          -7.016
REMARK INTER:                  -6.711
REMARK INTRA:                  -0.305
REMARK UNBOUND:                -0.333
REMARK SMILES Oc1cc(O)c2cc(O)c(-c3cc(O)c(O)c(O)c3)[o+]c2c1
REMARK SMILES IDX 10 1 20 2 21 3 22 4 2 5 3 6 4 7 6 8 7 9 8 10 11 11 12 12
REMARK SMILES IDX 13 13 19 14 15 15 17 16 14 17 16 19 18 21 9 23 1 25 5 27
REMARK H PARENT 14 18 16 20 18 22 9 24 1 26 5 28
REMARK Flexibility Score: inf
ROOT
ATOM      1  C   UNL     1      17.762  13.086  24.010  1.00  0.00     0.402 A 
ATOM      2  O   UNL     1      17.784  11.828  24.440  1.00  0.00    -0.202 OA
ATOM      3  C   UNL     1      18.220  10.812  23.703  1.00  0.00     0.368 A 
ATOM      4  C   UNL     1      18.208   9.524  24.244  1.00  0.00     0.162 A 
ATOM      5  C   UNL     1      18.663   8.439  23.494  1.00  0.00     0.128 A 
ATOM      6  C   UNL     1      19.134   8.641  22.192  1.00  0.00     0.093 A 
ATOM      7  C   UNL     1      19.158   9.921  21.626  1.00  0.00     0.136 A 
ATOM      8  C   UNL     1      18.693  11.027  22.386  1.00  0.00     0.125 A 
ATOM      9  C   UNL     1      18.667  12.343  21.896  1.00  0.00     0.078 A 
ATOM     10  C   UNL     1      18.191  13.381  22.702  1.00  0.00     0.223 A 
ENDROOT
BRANCH   1  11
ATOM     11  C   UNL     1      17.261  14.132  24.930  1.00  0.00     0.091 A 
ATOM     12  C   UNL     1      15.890  14.260  25.215  1.00  0.00     0.068 A 
ATOM     13  C   UNL     1      15.432  15.271  26.071  1.00  0.00     0.162 A 
ATOM     14  C   UNL     1      18.162  15.052  25.486  1.00  0.00     0.068 A 
ATOM     15  C   UNL     1      16.345  16.173  26.642  1.00  0.00     0.200 A 
ATOM     16  C   UNL     1      17.714  16.062  26.344  1.00  0.00     0.162 A 
BRANCH  13  17
ATOM     17  O   UNL     1      14.071  15.384  26.352  1.00  0.00    -0.504 OA
ATOM     18  H   UNL     1      13.376  14.862  25.832  1.00  0.00     0.293 HD
ENDBRANCH  13  17
BRANCH  15  19
ATOM     19  O   UNL     1      15.907  17.183  27.500  1.00  0.00    -0.502 OA
ATOM     20  H   UNL     1      16.548  17.828  27.946  1.00  0.00     0.293 HD
ENDBRANCH  15  19
BRANCH  16  21
ATOM     21  O   UNL     1      18.644  16.948  26.888  1.00  0.00    -0.504 OA
ATOM     22  H   UNL     1      18.464  17.941  26.961  1.00  0.00     0.293 HD
ENDBRANCH  16  21
ENDBRANCH   1  11
BRANCH  10  23
ATOM     23  O   UNL     1      18.118  14.680  22.200  1.00  0.00    -0.500 OA
ATOM     24  H   UNL     1      18.524  15.467  22.693  1.00  0.00     0.294 HD
ENDBRANCH  10  23
BRANCH   5  25
ATOM     25  O   UNL     1      18.642   7.162  24.051  1.00  0.00    -0.507 OA
ATOM     26  H   UNL     1      19.497   6.647  24.230  1.00  0.00     0.293 HD
ENDBRANCH   5  25
BRANCH   7  27
ATOM     27  O   UNL     1      19.647  10.041  20.322  1.00  0.00    -0.507 OA
ATOM     28  H   UNL     1      20.338  10.718  20.032  1.00  0.00     0.293 HD
ENDBRANCH   7  27
TORSDOF 7
ENDMDL
MODEL 3
REMARK VINA RESULT:    -5.346     12.305     17.184
REMARK INTER + INTRA:          -6.930
REMARK INTER:                  -7.263
REMARK INTRA:                   0.333
REMARK UNBOUND:                -0.333
REMARK SMILES Oc1cc(O)c2cc(O)c(-c3cc(O)c(O)c(O)c3)[o+]c2c1
REMARK SMILES IDX 10 1 20 2 21 3 22 4 2 5 3 6 4 7 6 8 7 9 8 10 11 11 12 12
REMARK SMILES IDX 13 13 19 14 15 15 17 16 14 17 16 19 18 21 9 23 1 25 5 27
REMARK H PARENT 14 18 16 20 18 22 9 24 1 26 5 28
REMARK Flexibility Score: inf
ROOT
ATOM      1  C   UNL     1       8.302  21.733  33.626  1.00  0.00     0.402 A 
ATOM      2  O   UNL     1       7.261  20.908  33.694  1.00  0.00    -0.202 OA
ATOM      3  C   UNL     1       6.170  21.166  34.407  1.00  0.00     0.368 A 
ATOM      4  C   UNL     1       5.125  20.238  34.413  1.00  0.00     0.162 A 
ATOM      5  C   UNL     1       3.967  20.484  35.151  1.00  0.00     0.128 A 
ATOM      6  C   UNL     1       3.850  21.668  35.889  1.00  0.00     0.093 A 
ATOM      7  C   UNL     1       4.881  22.614  35.899  1.00  0.00     0.136 A 
ATOM      8  C   UNL     1       6.062  22.366  35.152  1.00  0.00     0.125 A 
ATOM      9  C   UNL     1       7.152  23.251  35.114  1.00  0.00     0.078 A 
ATOM     10  C   UNL     1       8.285  22.935  34.358  1.00  0.00     0.223 A 
ENDROOT
BRANCH   1  11
ATOM     11  C   UNL     1       9.457  21.336  32.789  1.00  0.00     0.091 A 
ATOM     12  C   UNL     1      10.711  21.953  32.934  1.00  0.00     0.068 A 
ATOM     13  C   UNL     1      11.788  21.580  32.116  1.00  0.00     0.162 A 
ATOM     14  C   UNL     1       9.284  20.367  31.790  1.00  0.00     0.068 A 
ATOM     15  C   UNL     1      11.611  20.591  31.134  1.00  0.00     0.200 A 
ATOM     16  C   UNL     1      10.353  19.986  30.971  1.00  0.00     0.162 A 
BRANCH  13  17
ATOM     17  O   UNL     1      13.029  22.193  32.273  1.00  0.00    -0.504 OA
ATOM     18  H   UNL     1      13.870  21.656  32.445  1.00  0.00     0.293 HD
ENDBRANCH  13  17
BRANCH  15  19
ATOM     19  O   UNL     1      12.672  20.204  30.314  1.00  0.00    -0.502 OA
ATOM     20  H   UNL     1      12.815  20.601  29.393  1.00  0.00     0.293 HD
ENDBRANCH  15  19
BRANCH  16  21
ATOM     21  O   UNL     1      10.144  19.008  30.000  1.00  0.00    -0.504 OA
ATOM     22  H   UNL     1       9.218  18.681  29.753  1.00  0.00     0.293 HD
ENDBRANCH  16  21
ENDBRANCH   1  11
BRANCH  10  23
ATOM     23  O   UNL     1       9.387  23.790  34.360  1.00  0.00    -0.500 OA
ATOM     24  H   UNL     1      10.069  23.783  33.610  1.00  0.00     0.294 HD
ENDBRANCH  10  23
BRANCH   5  25
ATOM     25  O   UNL     1       2.937  19.547  35.146  1.00  0.00    -0.507 OA
ATOM     26  H   UNL     1       3.075  18.608  34.789  1.00  0.00     0.293 HD
ENDBRANCH   5  25
BRANCH   7  27
ATOM     27  O   UNL     1       4.686  23.773  36.658  1.00  0.00    -0.507 OA
ATOM     28  H   UNL     1       5.429  24.377  36.977  1.00  0.00     0.293 HD
ENDBRANCH   7  27
TORSDOF 7
ENDMDL
MODEL 4
REMARK VINA RESULT:    -5.202      2.070      6.883
REMARK INTER + INTRA:          -6.752
REMARK INTER:                  -6.374
REMARK INTRA:                  -0.378
REMARK UNBOUND:                -0.333
REMARK SMILES Oc1cc(O)c2cc(O)c(-c3cc(O)c(O)c(O)c3)[o+]c2c1
REMARK SMILES IDX 10 1 20 2 21 3 22 4 2 5 3 6 4 7 6 8 7 9 8 10 11 11 12 12
REMARK SMILES IDX 13 13 19 14 15 15 17 16 14 17 16 19 18 21 9 23 1 25 5 27
REMARK H PARENT 14 18 16 20 18 22 9 24 1 26 5 28
REMARK Flexibility Score: inf
ROOT
ATOM      1  C   UNL     1      17.599  13.232  24.328  1.00  0.00     0.402 A 
ATOM      2  O   UNL     1      16.788  13.914  25.133  1.00  0.00    -0.202 OA
ATOM      3  C   UNL     1      17.154  15.020  25.772  1.00  0.00     0.368 A 
ATOM      4  C   UNL     1      16.229  15.669  26.593  1.00  0.00     0.162 A 
ATOM      5  C   UNL     1      16.585  16.833  27.274  1.00  0.00     0.128 A 
ATOM      6  C   UNL     1      17.876  17.355  27.134  1.00  0.00     0.093 A 
ATOM      7  C   UNL     1      18.822  16.724  26.317  1.00  0.00     0.136 A 
ATOM      8  C   UNL     1      18.464  15.538  25.624  1.00  0.00     0.125 A 
ATOM      9  C   UNL     1      19.349  14.831  24.795  1.00  0.00     0.078 A 
ATOM     10  C   UNL     1      18.925  13.666  24.149  1.00  0.00     0.223 A 
ENDROOT
BRANCH   1  11
ATOM     11  C   UNL     1      17.069  12.019  23.665  1.00  0.00     0.091 A 
ATOM     12  C   UNL     1      17.211  10.747  24.246  1.00  0.00     0.068 A 
ATOM     13  C   UNL     1      16.723   9.606  23.593  1.00  0.00     0.162 A 
ATOM     14  C   UNL     1      16.465  12.129  22.404  1.00  0.00     0.068 A 
ATOM     15  C   UNL     1      16.098   9.730  22.340  1.00  0.00     0.200 A 
ATOM     16  C   UNL     1      15.973  10.998  21.746  1.00  0.00     0.162 A 
BRANCH  13  17
ATOM     17  O   UNL     1      16.863   8.351  24.181  1.00  0.00    -0.504 OA
ATOM     18  H   UNL     1      16.462   7.520  23.764  1.00  0.00     0.293 HD
ENDBRANCH  13  17
BRANCH  15  19
ATOM     19  O   UNL     1      15.603   8.606  21.677  1.00  0.00    -0.502 OA
ATOM     20  H   UNL     1      14.898   8.674  20.953  1.00  0.00     0.293 HD
ENDBRANCH  15  19
BRANCH  16  21
ATOM     21  O   UNL     1      15.365  11.152  20.500  1.00  0.00    -0.504 OA
ATOM     22  H   UNL     1      15.418  10.440  19.782  1.00  0.00     0.293 HD
ENDBRANCH  16  21
ENDBRANCH   1  11
BRANCH  10  23
ATOM     23  O   UNL     1      19.819  12.937  23.364  1.00  0.00    -0.500 OA
ATOM     24  H   UNL     1      20.817  13.104  23.397  1.00  0.00     0.294 HD
ENDBRANCH  10  23
BRANCH   5  25
ATOM     25  O   UNL     1      15.649  17.466  28.089  1.00  0.00    -0.507 OA
ATOM     26  H   UNL     1      15.720  18.453  28.311  1.00  0.00     0.293 HD
ENDBRANCH   5  25
BRANCH   7  27
ATOM     27  O   UNL     1      20.089  17.310  26.226  1.00  0.00    -0.507 OA
ATOM     28  H   UNL     1      20.357  17.983  25.523  1.00  0.00     0.293 HD
ENDBRANCH   7  27
TORSDOF 7
ENDMDL
MODEL 5
REMARK VINA RESULT:    -5.007     15.208     19.677
REMARK INTER + INTRA:          -6.512
REMARK INTER:                  -6.278
REMARK INTRA:                  -0.234
REMARK UNBOUND:                -0.333
REMARK SMILES Oc1cc(O)c2cc(O)c(-c3cc(O)c(O)c(O)c3)[o+]c2c1
REMARK SMILES IDX 10 1 20 2 21 3 22 4 2 5 3 6 4 7 6 8 7 9 8 10 11 11 12 12
REMARK SMILES IDX 13 13 19 14 15 15 17 16 14 17 16 19 18 21 9 23 1 25 5 27
REMARK H PARENT 14 18 16 20 18 22 9 24 1 26 5 28
REMARK Flexibility Score: inf
ROOT
ATOM      1  C   UNL     1       5.658  22.495  34.844  1.00  0.00     0.402 A 
ATOM      2  O   UNL     1       5.116  21.425  35.421  1.00  0.00    -0.202 OA
ATOM      3  C   UNL     1       3.918  21.434  35.995  1.00  0.00     0.368 A 
ATOM      4  C   UNL     1       3.431  20.257  36.571  1.00  0.00     0.162 A 
ATOM      5  C   UNL     1       2.175  20.237  37.179  1.00  0.00     0.128 A 
ATOM      6  C   UNL     1       1.398  21.400  37.212  1.00  0.00     0.093 A 
ATOM      7  C   UNL     1       1.862  22.592  36.642  1.00  0.00     0.136 A 
ATOM      8  C   UNL     1       3.141  22.617  36.024  1.00  0.00     0.125 A 
ATOM      9  C   UNL     1       3.692  23.768  35.439  1.00  0.00     0.078 A 
ATOM     10  C   UNL     1       4.961  23.717  34.854  1.00  0.00     0.223 A 
ENDROOT
BRANCH   1  11
ATOM     11  C   UNL     1       6.997  22.355  34.229  1.00  0.00     0.091 A 
ATOM     12  C   UNL     1       7.206  21.527  33.113  1.00  0.00     0.068 A 
ATOM     13  C   UNL     1       8.486  21.389  32.557  1.00  0.00     0.162 A 
ATOM     14  C   UNL     1       8.093  23.016  34.803  1.00  0.00     0.068 A 
ATOM     15  C   UNL     1       9.574  22.073  33.126  1.00  0.00     0.200 A 
ATOM     16  C   UNL     1       9.373  22.886  34.255  1.00  0.00     0.162 A 
BRANCH  13  17
ATOM     17  O   UNL     1       8.681  20.570  31.447  1.00  0.00    -0.504 OA
ATOM     18  H   UNL     1       9.300  20.837  30.691  1.00  0.00     0.293 HD
ENDBRANCH  13  17
BRANCH  15  19
ATOM     19  O   UNL     1      10.854  21.951  32.583  1.00  0.00    -0.502 OA
ATOM     20  H   UNL     1      11.605  22.585  32.826  1.00  0.00     0.293 HD
ENDBRANCH  15  19
BRANCH  16  21
ATOM     21  O   UNL     1      10.434  23.571  34.847  1.00  0.00    -0.504 OA
ATOM     22  H   UNL     1      10.742  24.478  34.517  1.00  0.00     0.293 HD
ENDBRANCH  16  21
ENDBRANCH   1  11
BRANCH  10  23
ATOM     23  O   UNL     1       5.530  24.871  34.316  1.00  0.00    -0.500 OA
ATOM     24  H   UNL     1       5.124  25.787  34.468  1.00  0.00     0.294 HD
ENDBRANCH  10  23
BRANCH   5  25
ATOM     25  O   UNL     1       1.707  19.055  37.750  1.00  0.00    -0.507 OA
ATOM     26  H   UNL     1       2.135  18.160  37.543  1.00  0.00     0.293 HD
ENDBRANCH   5  25
BRANCH   7  27
ATOM     27  O   UNL     1       1.025  23.709  36.711  1.00  0.00    -0.507 OA
ATOM     28  H   UNL     1       1.015  24.368  37.477  1.00  0.00     0.293 HD
ENDBRANCH   7  27
TORSDOF 7
ENDMDL
MODEL 6
REMARK VINA RESULT:    -4.901      2.003      2.481
REMARK INTER + INTRA:          -6.380
REMARK INTER:                  -6.565
REMARK INTRA:                   0.184
REMARK UNBOUND:                -0.333
REMARK SMILES Oc1cc(O)c2cc(O)c(-c3cc(O)c(O)c(O)c3)[o+]c2c1
REMARK SMILES IDX 10 1 20 2 21 3 22 4 2 5 3 6 4 7 6 8 7 9 8 10 11 11 12 12
REMARK SMILES IDX 13 13 19 14 15 15 17 16 14 17 16 19 18 21 9 23 1 25 5 27
REMARK H PARENT 14 18 16 20 18 22 9 24 1 26 5 28
REMARK Flexibility Score: inf
ROOT
ATOM      1  C   UNL     1      17.434  13.227  24.045  1.00  0.00     0.402 A 
ATOM      2  O   UNL     1      16.421  12.908  23.243  1.00  0.00    -0.202 OA
ATOM      3  C   UNL     1      16.466  11.901  22.377  1.00  0.00     0.368 A 
ATOM      4  C   UNL     1      15.349  11.640  21.579  1.00  0.00     0.162 A 
ATOM      5  C   UNL     1      15.366  10.588  20.663  1.00  0.00     0.128 A 
ATOM      6  C   UNL     1      16.509   9.787  20.543  1.00  0.00     0.093 A 
ATOM      7  C   UNL     1      17.641  10.027  21.332  1.00  0.00     0.136 A 
ATOM      8  C   UNL     1      17.627  11.099  22.263  1.00  0.00     0.125 A 
ATOM      9  C   UNL     1      18.719  11.421  23.084  1.00  0.00     0.078 A 
ATOM     10  C   UNL     1      18.634  12.496  23.974  1.00  0.00     0.223 A 
ENDROOT
BRANCH   1  11
ATOM     11  C   UNL     1      17.258  14.367  24.974  1.00  0.00     0.091 A 
ATOM     12  C   UNL     1      18.340  15.186  25.339  1.00  0.00     0.068 A 
ATOM     13  C   UNL     1      18.159  16.246  26.238  1.00  0.00     0.162 A 
ATOM     14  C   UNL     1      16.000  14.602  25.548  1.00  0.00     0.068 A 
ATOM     15  C   UNL     1      16.890  16.488  26.790  1.00  0.00     0.200 A 
ATOM     16  C   UNL     1      15.810  15.659  26.444  1.00  0.00     0.162 A 
BRANCH  13  17
ATOM     17  O   UNL     1      19.238  17.056  26.588  1.00  0.00    -0.504 OA
ATOM     18  H   UNL     1      20.192  16.794  26.371  1.00  0.00     0.293 HD
ENDBRANCH  13  17
BRANCH  15  19
ATOM     19  O   UNL     1      16.691  17.542  27.683  1.00  0.00    -0.502 OA
ATOM     20  H   UNL     1      17.442  17.917  28.251  1.00  0.00     0.293 HD
ENDBRANCH  15  19
BRANCH  16  21
ATOM     21  O   UNL     1      14.540  15.868  26.982  1.00  0.00    -0.504 OA
ATOM     22  H   UNL     1      14.254  16.763  27.358  1.00  0.00     0.293 HD
ENDBRANCH  16  21
ENDBRANCH   1  11
BRANCH  10  23
ATOM     23  O   UNL     1      19.735  12.847  24.755  1.00  0.00    -0.500 OA
ATOM     24  H   UNL     1      19.956  12.360  25.615  1.00  0.00     0.294 HD
ENDBRANCH  10  23
BRANCH   5  25
ATOM     25  O   UNL     1      14.244  10.344  19.875  1.00  0.00    -0.507 OA
ATOM     26  H   UNL     1      13.763  11.092  19.390  1.00  0.00     0.293 HD
ENDBRANCH   5  25
BRANCH   7  27
ATOM     27  O   UNL     1      18.740   9.181  21.156  1.00  0.00    -0.507 OA
ATOM     28  H   UNL     1      19.543   9.155  21.767  1.00  0.00     0.293 HD
ENDBRANCH   7  27
TORSDOF 7
ENDMDL
MODEL 7
REMARK VINA RESULT:    -4.766     15.179     20.169
REMARK INTER + INTRA:          -6.213
REMARK INTER:                  -6.177
REMARK INTRA:                  -0.036
REMARK UNBOUND:                -0.333
REMARK SMILES Oc1cc(O)c2cc(O)c(-c3cc(O)c(O)c(O)c3)[o+]c2c1
REMARK SMILES IDX 10 1 20 2 21 3 22 4 2 5 3 6 4 7 6 8 7 9 8 10 11 11 12 12
REMARK SMILES IDX 13 13 19 14 15 15 17 16 14 17 16 19 18 21 9 23 1 25 5 27
REMARK H PARENT 14 18 16 20 18 22 9 24 1 26 5 28
REMARK Flexibility Score: inf
ROOT
ATOM      1  C   UNL     1       5.672  22.405  34.858  1.00  0.00     0.402 A 
ATOM      2  O   UNL     1       5.190  23.621  35.100  1.00  0.00    -0.202 OA
ATOM      3  C   UNL     1       4.006  23.839  35.663  1.00  0.00     0.368 A 
ATOM      4  C   UNL     1       3.587  25.154  35.880  1.00  0.00     0.162 A 
ATOM      5  C   UNL     1       2.351  25.412  36.471  1.00  0.00     0.128 A 
ATOM      6  C   UNL     1       1.524  24.348  36.850  1.00  0.00     0.093 A 
ATOM      7  C   UNL     1       1.920  23.021  36.645  1.00  0.00     0.136 A 
ATOM      8  C   UNL     1       3.177  22.755  36.040  1.00  0.00     0.125 A 
ATOM      9  C   UNL     1       3.651  21.458  35.783  1.00  0.00     0.078 A 
ATOM     10  C   UNL     1       4.899  21.275  35.180  1.00  0.00     0.223 A 
ENDROOT
BRANCH   1  11
ATOM     11  C   UNL     1       7.010  22.294  34.234  1.00  0.00     0.091 A 
ATOM     12  C   UNL     1       7.228  21.473  33.114  1.00  0.00     0.068 A 
ATOM     13  C   UNL     1       8.507  21.362  32.551  1.00  0.00     0.162 A 
ATOM     14  C   UNL     1       8.097  22.973  34.805  1.00  0.00     0.068 A 
ATOM     15  C   UNL     1       9.585  22.066  33.115  1.00  0.00     0.200 A 
ATOM     16  C   UNL     1       9.376  22.870  34.248  1.00  0.00     0.162 A 
BRANCH  13  17
ATOM     17  O   UNL     1       8.711  20.551  31.436  1.00  0.00    -0.504 OA
ATOM     18  H   UNL     1       8.146  20.644  30.600  1.00  0.00     0.293 HD
ENDBRANCH  13  17
BRANCH  15  19
ATOM     19  O   UNL     1      10.864  21.970  32.564  1.00  0.00    -0.502 OA
ATOM     20  H   UNL     1      11.485  22.768  32.502  1.00  0.00     0.293 HD
ENDBRANCH  15  19
BRANCH  16  21
ATOM     21  O   UNL     1      10.427  23.574  34.836  1.00  0.00    -0.504 OA
ATOM     22  H   UNL     1      11.196  23.946  34.294  1.00  0.00     0.293 HD
ENDBRANCH  16  21
ENDBRANCH   1  11
BRANCH  10  23
ATOM     23  O   UNL     1       5.348  19.989  34.880  1.00  0.00    -0.500 OA
ATOM     24  H   UNL     1       5.719  19.373  35.593  1.00  0.00     0.294 HD
ENDBRANCH  10  23
BRANCH   5  25
ATOM     25  O   UNL     1       1.949  26.730  36.678  1.00  0.00    -0.507 OA
ATOM     26  H   UNL     1       2.509  27.375  37.224  1.00  0.00     0.293 HD
ENDBRANCH   5  25
BRANCH   7  27
ATOM     27  O   UNL     1       1.040  22.014  37.054  1.00  0.00    -0.507 OA
ATOM     28  H   UNL     1       0.388  22.103  37.820  1.00  0.00     0.293 HD
ENDBRANCH   7  27
TORSDOF 7
ENDMDL
MODEL 8
REMARK VINA RESULT:    -4.741      1.603      7.216
REMARK INTER + INTRA:          -6.183
REMARK INTER:                  -5.797
REMARK INTRA:                  -0.385
REMARK UNBOUND:                -0.333
REMARK SMILES Oc1cc(O)c2cc(O)c(-c3cc(O)c(O)c(O)c3)[o+]c2c1
REMARK SMILES IDX 10 1 20 2 21 3 22 4 2 5 3 6 4 7 6 8 7 9 8 10 11 11 12 12
REMARK SMILES IDX 13 13 19 14 15 15 17 16 14 17 16 19 18 21 9 23 1 25 5 27
REMARK H PARENT 14 18 16 20 18 22 9 24 1 26 5 28
REMARK Flexibility Score: inf
ROOT
ATOM      1  C   UNL     1      17.121  11.972  24.136  1.00  0.00     0.402 A 
ATOM      2  O   UNL     1      18.019  12.937  23.960  1.00  0.00    -0.202 OA
ATOM      3  C   UNL     1      17.867  14.171  24.430  1.00  0.00     0.368 A 
ATOM      4  C   UNL     1      18.869  15.116  24.197  1.00  0.00     0.162 A 
ATOM      5  C   UNL     1      18.737  16.418  24.681  1.00  0.00     0.128 A 
ATOM      6  C   UNL     1      17.594  16.780  25.403  1.00  0.00     0.093 A 
ATOM      7  C   UNL     1      16.576  15.852  25.651  1.00  0.00     0.136 A 
ATOM      8  C   UNL     1      16.706  14.527  25.158  1.00  0.00     0.125 A 
ATOM      9  C   UNL     1      15.731  13.534  25.346  1.00  0.00     0.078 A 
ATOM     10  C   UNL     1      15.927  12.251  24.827  1.00  0.00     0.223 A 
ENDROOT
BRANCH   1  11
ATOM     11  C   UNL     1      17.411  10.634  23.572  1.00  0.00     0.091 A 
ATOM     12  C   UNL     1      18.008   9.627  24.349  1.00  0.00     0.068 A 
ATOM     13  C   UNL     1      18.296   8.373  23.792  1.00  0.00     0.162 A 
ATOM     14  C   UNL     1      17.140  10.382  22.219  1.00  0.00     0.068 A 
ATOM     15  C   UNL     1      17.999   8.122  22.441  1.00  0.00     0.200 A 
ATOM     16  C   UNL     1      17.422   9.133  21.655  1.00  0.00     0.162 A 
BRANCH  13  17
ATOM     17  O   UNL     1      18.882   7.379  24.574  1.00  0.00    -0.504 OA
ATOM     18  H   UNL     1      18.614   7.236  25.540  1.00  0.00     0.293 HD
ENDBRANCH  13  17
BRANCH  15  19
ATOM     19  O   UNL     1      18.276   6.879  21.871  1.00  0.00    -0.502 OA
ATOM     20  H   UNL     1      17.926   6.614  20.958  1.00  0.00     0.293 HD
ENDBRANCH  15  19
BRANCH  16  21
ATOM     21  O   UNL     1      17.124   8.918  20.309  1.00  0.00    -0.504 OA
ATOM     22  H   UNL     1      16.423   8.250  20.013  1.00  0.00     0.293 HD
ENDBRANCH  16  21
ENDBRANCH   1  11
BRANCH  10  23
ATOM     23  O   UNL     1      14.937  11.279  24.970  1.00  0.00    -0.500 OA
ATOM     24  H   UNL     1      14.930  10.638  25.754  1.00  0.00     0.294 HD
ENDBRANCH  10  23
BRANCH   5  25
ATOM     25  O   UNL     1      19.746  17.347  24.438  1.00  0.00    -0.507 OA
ATOM     26  H   UNL     1      19.986  18.060  25.117  1.00  0.00     0.293 HD
ENDBRANCH   5  25
BRANCH   7  27
ATOM     27  O   UNL     1      15.468  16.290  26.384  1.00  0.00    -0.507 OA
ATOM     28  H   UNL     1      15.109  15.827  27.206  1.00  0.00     0.293 HD
ENDBRANCH   7  27
TORSDOF 7
ENDMDL
MODEL 9
REMARK VINA RESULT:    -3.614      1.672      7.298
REMARK INTER + INTRA:          -4.793
REMARK INTER:                  -4.414
REMARK INTRA:                  -0.379
REMARK UNBOUND:                -0.333
REMARK SMILES Oc1cc(O)c2cc(O)c(-c3cc(O)c(O)c(O)c3)[o+]c2c1
REMARK SMILES IDX 10 1 20 2 21 3 22 4 2 5 3 6 4 7 6 8 7 9 8 10 11 11 12 12
REMARK SMILES IDX 13 13 19 14 15 15 17 16 14 17 16 19 18 21 9 23 1 25 5 27
REMARK H PARENT 14 18 16 20 18 22 9 24 1 26 5 28
REMARK Flexibility Score: inf
ROOT
ATOM      1  C   UNL     1      17.045  12.029  24.154  1.00  0.00     0.402 A 
ATOM      2  O   UNL     1      17.948  12.987  23.961  1.00  0.00    -0.202 OA
ATOM      3  C   UNL     1      17.831  14.211  24.465  1.00  0.00     0.368 A 
ATOM      4  C   UNL     1      18.835  15.150  24.211  1.00  0.00     0.162 A 
ATOM      5  C   UNL     1      18.740  16.442  24.730  1.00  0.00     0.128 A 
ATOM      6  C   UNL     1      17.633  16.800  25.509  1.00  0.00     0.093 A 
ATOM      7  C   UNL     1      16.615  15.878  25.779  1.00  0.00     0.136 A 
ATOM      8  C   UNL     1      16.707  14.564  25.251  1.00  0.00     0.125 A 
ATOM      9  C   UNL     1      15.728  13.578  25.458  1.00  0.00     0.078 A 
ATOM     10  C   UNL     1      15.886  12.306  24.901  1.00  0.00     0.223 A 
ENDROOT
BRANCH   1  11
ATOM     11  C   UNL     1      17.294  10.701  23.547  1.00  0.00     0.091 A 
ATOM     12  C   UNL     1      16.873  10.405  22.239  1.00  0.00     0.068 A 
ATOM     13  C   UNL     1      17.097   9.135  21.689  1.00  0.00     0.162 A 
ATOM     14  C   UNL     1      17.910   9.698  24.309  1.00  0.00     0.068 A 
ATOM     15  C   UNL     1      17.736   8.143  22.453  1.00  0.00     0.200 A 
ATOM     16  C   UNL     1      18.140   8.429  23.768  1.00  0.00     0.162 A 
BRANCH  13  17
ATOM     17  O   UNL     1      16.682   8.854  20.389  1.00  0.00    -0.504 OA
ATOM     18  H   UNL     1      15.858   8.294  20.203  1.00  0.00     0.293 HD
ENDBRANCH  13  17
BRANCH  15  19
ATOM     19  O   UNL     1      17.971   6.875  21.920  1.00  0.00    -0.502 OA
ATOM     20  H   UNL     1      18.895   6.461  21.900  1.00  0.00     0.293 HD
ENDBRANCH  15  19
BRANCH  16  21
ATOM     21  O   UNL     1      18.768   7.463  24.554  1.00  0.00    -0.504 OA
ATOM     22  H   UNL     1      18.255   6.871  25.195  1.00  0.00     0.293 HD
ENDBRANCH  16  21
ENDBRANCH   1  11
BRANCH  10  23
ATOM     23  O   UNL     1      14.891  11.342  25.065  1.00  0.00    -0.500 OA
ATOM     24  H   UNL     1      14.917  10.673  25.825  1.00  0.00     0.294 HD
ENDBRANCH  10  23
BRANCH   5  25
ATOM     25  O   UNL     1      19.749  17.364  24.465  1.00  0.00    -0.507 OA
ATOM     26  H   UNL     1      20.329  17.743  25.205  1.00  0.00     0.293 HD
ENDBRANCH   5  25
BRANCH   7  27
ATOM     27  O   UNL     1      15.545  16.312  26.569  1.00  0.00    -0.507 OA
ATOM     28  H   UNL     1      15.646  16.809  27.442  1.00  0.00     0.293 HD
ENDBRANCH   7  27
TORSDOF 7
ENDMDL
