MODEL 1
REMARK VINA RESULT:     0.206      0.000      0.000
REMARK INTER + INTRA:          -1.031
REMARK INTER:                   0.542
REMARK INTRA:                  -1.573
REMARK UNBOUND:                -1.573
REMARK SMILES CCCCCCCCCCCCCCCCCCCCCCCCCCCCCC(=O)[O-]
REMARK SMILES IDX 16 1 17 2 18 3 19 4 20 5 21 6 22 7 23 8 24 9 25 10 26 11
REMARK SMILES IDX 27 12 28 13 29 14 30 15 31 16 32 17 15 18 14 19 13 20 12 21
REMARK SMILES IDX 11 22 10 23 9 24 8 25 7 26 6 27 5 28 4 29 3 30 2 31 1 32
REMARK H PARENT
REMARK Flexibility Score: inf
ROOT
ATOM      1  C   UNL     1      -1.366  -5.653  -9.832  1.00  0.00     0.000 C 
ENDROOT
BRANCH   1   2
ATOM      2  C   UNL     1      -2.006  -7.029 -10.094  1.00  0.00     0.000 C 
BRANCH   2   3
ATOM      3  C   UNL     1      -3.545  -6.974 -10.056  1.00  0.00     0.000 C 
BRANCH   3   4
ATOM      4  C   UNL     1      -4.141  -8.032  -9.112  1.00  0.00     0.000 C 
BRANCH   4   5
ATOM      5  C   UNL     1      -4.354  -9.387  -9.806  1.00  0.00     0.000 C 
BRANCH   5   6
ATOM      6  C   UNL     1      -5.834  -9.818  -9.828  1.00  0.00     0.000 C 
BRANCH   6   7
ATOM      7  C   UNL     1      -6.483  -9.801  -8.427  1.00  0.00     0.000 C 
BRANCH   7   8
ATOM      8  C   UNL     1      -7.995 -10.103  -8.428  1.00  0.00     0.000 C 
BRANCH   8   9
ATOM      9  C   UNL     1      -8.672 -10.048  -9.807  1.00  0.00     0.000 C 
BRANCH   9  10
ATOM     10  C   UNL     1      -9.449  -8.742 -10.037  1.00  0.00     0.000 C 
BRANCH  10  11
ATOM     11  C   UNL     1     -10.125  -8.268  -8.742  1.00  0.00     0.000 C 
BRANCH  11  12
ATOM     12  C   UNL     1      -9.554  -6.936  -8.228  1.00  0.00     0.000 C 
BRANCH  12  13
ATOM     13  C   UNL     1      -9.461  -6.882  -6.693  1.00  0.00     0.006 C 
BRANCH  13  14
ATOM     14  C   UNL     1      -8.053  -7.220  -6.185  1.00  0.00     0.053 C 
BRANCH  14  15
ATOM     15  C   UNL     1      -8.035  -7.426  -4.700  1.00  0.00     0.041 C 
ATOM     16  O   UNL     1      -6.946  -7.618  -4.097  1.00  0.00    -0.550 OA
ATOM     17  O   UNL     1      -9.225  -7.428  -3.983  1.00  0.00    -0.550 OA
ENDBRANCH  14  15
ENDBRANCH  13  14
ENDBRANCH  12  13
ENDBRANCH  11  12
ENDBRANCH  10  11
ENDBRANCH   9  10
ENDBRANCH   8   9
ENDBRANCH   7   8
ENDBRANCH   6   7
ENDBRANCH   5   6
ENDBRANCH   4   5
ENDBRANCH   3   4
ENDBRANCH   2   3
ENDBRANCH   1   2
BRANCH   1  18
ATOM     18  C   UNL     1       0.161  -5.657 -10.051  1.00  0.00     0.000 C 
BRANCH  18  19
ATOM     19  C   UNL     1       0.795  -7.061 -10.055  1.00  0.00     0.000 C 
BRANCH  19  20
ATOM     20  C   UNL     1       2.328  -7.029 -10.113  1.00  0.00     0.000 C 
BRANCH  20  21
ATOM     21  C   UNL     1       2.963  -8.428  -9.960  1.00  0.00     0.000 C 
BRANCH  21  22
ATOM     22  C   UNL     1       4.491  -8.400  -9.756  1.00  0.00     0.000 C 
BRANCH  22  23
ATOM     23  C   UNL     1       5.131  -9.763  -9.429  1.00  0.00     0.000 C 
BRANCH  23  24
ATOM     24  C   UNL     1       6.239  -9.729  -8.354  1.00  0.00    -0.000 C 
BRANCH  24  25
ATOM     25  C   UNL     1       7.663  -9.473  -8.884  1.00  0.00    -0.000 C 
BRANCH  25  26
ATOM     26  C   UNL     1       8.514  -8.622  -7.925  1.00  0.00    -0.000 C 
BRANCH  26  27
ATOM     27  C   UNL     1       7.824  -7.309  -7.514  1.00  0.00    -0.000 C 
BRANCH  27  28
ATOM     28  C   UNL     1       6.889  -7.419  -6.295  1.00  0.00    -0.000 C 
BRANCH  28  29
ATOM     29  C   UNL     1       7.639  -7.329  -4.956  1.00  0.00    -0.000 C 
BRANCH  29  30
ATOM     30  C   UNL     1       9.010  -6.644  -5.089  1.00  0.00    -0.000 C 
BRANCH  30  31
ATOM     31  C   UNL     1      10.089  -7.303  -4.214  1.00  0.00    -0.003 C 
ATOM     32  C   UNL     1       9.639  -7.391  -2.758  1.00  0.00     0.004 C 
ENDBRANCH  30  31
ENDBRANCH  29  30
ENDBRANCH  28  29
ENDBRANCH  27  28
ENDBRANCH  26  27
ENDBRANCH  25  26
ENDBRANCH  24  25
ENDBRANCH  23  24
ENDBRANCH  22  23
ENDBRANCH  21  22
ENDBRANCH  20  21
ENDBRANCH  19  20
ENDBRANCH  18  19
ENDBRANCH   1  18
TORSDOF 28
ENDMDL
