MODEL 1
REMARK VINA RESULT:    -4.784      0.000      0.000
REMARK INTER + INTRA:         -11.310
REMARK INTER:                  -9.259
REMARK INTRA:                  -2.050
REMARK UNBOUND:                -2.050
REMARK SMILES CCCCCCCCCCCCCCCCCC(=O)[O-]
REMARK SMILES IDX 10 1 11 2 12 3 13 4 14 5 15 6 16 7 17 8 18 9 19 10 20 11
REMARK SMILES IDX 9 12 8 13 7 14 6 15 5 16 4 17 3 18 2 19 1 20
REMARK H PARENT
REMARK Flexibility Score: inf
ROOT
ATOM      1  C   UNL     1       6.692   1.118  17.868  1.00  0.00     0.000 C 
ENDROOT
BRANCH   1   2
ATOM      2  C   UNL     1       7.142  -0.231  18.456  1.00  0.00     0.000 C 
BRANCH   2   3
ATOM      3  C   UNL     1       8.640  -0.551  18.285  1.00  0.00     0.000 C 
BRANCH   3   4
ATOM      4  C   UNL     1       8.946  -1.865  17.543  1.00  0.00     0.000 C 
BRANCH   4   5
ATOM      5  C   UNL     1       7.938  -2.166  16.425  1.00  0.00     0.000 C 
BRANCH   5   6
ATOM      6  C   UNL     1       8.291  -1.396  15.145  1.00  0.00     0.000 C 
BRANCH   6   7
ATOM      7  C   UNL     1       7.131  -0.531  14.620  1.00  0.00     0.006 C 
BRANCH   7   8
ATOM      8  C   UNL     1       5.738  -1.133  14.878  1.00  0.00     0.053 C 
BRANCH   8   9
ATOM      9  C   UNL     1       4.639  -0.120  14.759  1.00  0.00     0.041 C 
ATOM     10  O   UNL     1       3.434  -0.484  14.767  1.00  0.00    -0.550 OA
ATOM     11  O   UNL     1       4.948   1.233  14.674  1.00  0.00    -0.550 OA
ENDBRANCH   8   9
ENDBRANCH   7   8
ENDBRANCH   6   7
ENDBRANCH   5   6
ENDBRANCH   4   5
ENDBRANCH   3   4
ENDBRANCH   2   3
ENDBRANCH   1   2
BRANCH   1  12
ATOM     12  C   UNL     1       7.864   2.077  17.610  1.00  0.00     0.000 C 
BRANCH  12  13
ATOM     13  C   UNL     1       7.617   2.918  16.350  1.00  0.00    -0.000 C 
BRANCH  13  14
ATOM     14  C   UNL     1       7.824   4.425  16.587  1.00  0.00    -0.000 C 
BRANCH  14  15
ATOM     15  C   UNL     1       6.837   5.074  17.578  1.00  0.00    -0.000 C 
BRANCH  15  16
ATOM     16  C   UNL     1       7.480   5.736  18.811  1.00  0.00    -0.000 C 
BRANCH  16  17
ATOM     17  C   UNL     1       7.298   4.910  20.096  1.00  0.00    -0.000 C 
BRANCH  17  18
ATOM     18  C   UNL     1       8.630   4.389  20.666  1.00  0.00    -0.000 C 
BRANCH  18  19
ATOM     19  C   UNL     1       8.950   4.848  22.100  1.00  0.00    -0.003 C 
ATOM     20  C   UNL     1       7.738   4.797  23.030  1.00  0.00     0.004 C 
ENDBRANCH  18  19
ENDBRANCH  17  18
ENDBRANCH  16  17
ENDBRANCH  15  16
ENDBRANCH  14  15
ENDBRANCH  13  14
ENDBRANCH  12  13
ENDBRANCH   1  12
TORSDOF 16
ENDMDL
MODEL 2
REMARK VINA RESULT:    -4.757      3.343      6.984
REMARK INTER + INTRA:         -11.257
REMARK INTER:                  -9.257
REMARK INTRA:                  -2.000
REMARK UNBOUND:                -2.050
REMARK SMILES CCCCCCCCCCCCCCCCCC(=O)[O-]
REMARK SMILES IDX 10 1 11 2 12 3 13 4 14 5 15 6 16 7 17 8 18 9 19 10 20 11
REMARK SMILES IDX 9 12 8 13 7 14 6 15 5 16 4 17 3 18 2 19 1 20
REMARK H PARENT
REMARK Flexibility Score: inf
ROOT
ATOM      1  C   UNL     1       8.312  -1.375  18.171  1.00  0.00     0.000 C 
ENDROOT
BRANCH   1   2
ATOM      2  C   UNL     1       7.324  -0.301  18.660  1.00  0.00     0.000 C 
BRANCH   2   3
ATOM      3  C   UNL     1       7.779   1.155  18.439  1.00  0.00     0.000 C 
BRANCH   3   4
ATOM      4  C   UNL     1       6.643   2.165  18.201  1.00  0.00     0.000 C 
BRANCH   4   5
ATOM      5  C   UNL     1       6.658   3.326  19.206  1.00  0.00     0.000 C 
BRANCH   5   6
ATOM      6  C   UNL     1       7.678   3.072  20.325  1.00  0.00     0.000 C 
BRANCH   6   7
ATOM      7  C   UNL     1       8.795   4.129  20.376  1.00  0.00     0.006 C 
BRANCH   7   8
ATOM      8  C   UNL     1       8.927   4.832  21.740  1.00  0.00     0.053 C 
BRANCH   8   9
ATOM      9  C   UNL     1       7.617   5.347  22.254  1.00  0.00     0.041 C 
ATOM     10  O   UNL     1       7.133   4.900  23.328  1.00  0.00    -0.550 OA
ATOM     11  O   UNL     1       6.944   6.348  21.563  1.00  0.00    -0.550 OA
ENDBRANCH   8   9
ENDBRANCH   7   8
ENDBRANCH   6   7
ENDBRANCH   5   6
ENDBRANCH   4   5
ENDBRANCH   3   4
ENDBRANCH   2   3
ENDBRANCH   1   2
BRANCH   1  12
ATOM     12  C   UNL     1       8.698  -1.204  16.694  1.00  0.00     0.000 C 
BRANCH  12  13
ATOM     13  C   UNL     1       7.650  -1.848  15.776  1.00  0.00    -0.000 C 
BRANCH  13  14
ATOM     14  C   UNL     1       6.639  -0.830  15.217  1.00  0.00    -0.000 C 
BRANCH  14  15
ATOM     15  C   UNL     1       7.248   0.508  14.749  1.00  0.00    -0.000 C 
BRANCH  15  16
ATOM     16  C   UNL     1       6.241   1.652  14.534  1.00  0.00    -0.000 C 
BRANCH  16  17
ATOM     17  C   UNL     1       4.870   1.157  14.041  1.00  0.00    -0.000 C 
BRANCH  17  18
ATOM     18  C   UNL     1       3.711   1.604  14.949  1.00  0.00    -0.000 C 
BRANCH  18  19
ATOM     19  C   UNL     1       3.085   0.488  15.805  1.00  0.00    -0.003 C 
ATOM     20  C   UNL     1       3.552   0.516  17.260  1.00  0.00     0.004 C 
ENDBRANCH  18  19
ENDBRANCH  17  18
ENDBRANCH  16  17
ENDBRANCH  15  16
ENDBRANCH  14  15
ENDBRANCH  13  14
ENDBRANCH  12  13
ENDBRANCH   1  12
TORSDOF 16
ENDMDL
MODEL 3
REMARK VINA RESULT:    -4.751      2.680      6.938
REMARK INTER + INTRA:         -11.245
REMARK INTER:                  -8.723
REMARK INTRA:                  -2.522
REMARK UNBOUND:                -2.050
REMARK SMILES CCCCCCCCCCCCCCCCCC(=O)[O-]
REMARK SMILES IDX 10 1 11 2 12 3 13 4 14 5 15 6 16 7 17 8 18 9 19 10 20 11
REMARK SMILES IDX 9 12 8 13 7 14 6 15 5 16 4 17 3 18 2 19 1 20
REMARK H PARENT
REMARK Flexibility Score: inf
ROOT
ATOM      1  C   UNL     1       6.474   1.559  15.733  1.00  0.00     0.000 C 
ENDROOT
BRANCH   1   2
ATOM      2  C   UNL     1       7.045   2.461  16.841  1.00  0.00     0.000 C 
BRANCH   2   3
ATOM      3  C   UNL     1       6.206   2.519  18.133  1.00  0.00     0.000 C 
BRANCH   3   4
ATOM      4  C   UNL     1       7.014   2.429  19.440  1.00  0.00     0.000 C 
BRANCH   4   5
ATOM      5  C   UNL     1       8.462   2.914  19.280  1.00  0.00     0.000 C 
BRANCH   5   6
ATOM      6  C   UNL     1       8.770   4.060  20.254  1.00  0.00     0.000 C 
BRANCH   6   7
ATOM      7  C   UNL     1       7.529   4.892  20.620  1.00  0.00     0.006 C 
BRANCH   7   8
ATOM      8  C   UNL     1       7.463   6.259  19.913  1.00  0.00     0.053 C 
BRANCH   8   9
ATOM      9  C   UNL     1       6.842   6.177  18.551  1.00  0.00     0.041 C 
ATOM     10  O   UNL     1       5.619   6.431  18.393  1.00  0.00    -0.550 OA
ATOM     11  O   UNL     1       7.625   5.853  17.449  1.00  0.00    -0.550 OA
ENDBRANCH   8   9
ENDBRANCH   7   8
ENDBRANCH   6   7
ENDBRANCH   5   6
ENDBRANCH   4   5
ENDBRANCH   3   4
ENDBRANCH   2   3
ENDBRANCH   1   2
BRANCH   1  12
ATOM     12  C   UNL     1       5.979   0.204  16.261  1.00  0.00     0.000 C 
BRANCH  12  13
ATOM     13  C   UNL     1       7.130  -0.808  16.335  1.00  0.00    -0.000 C 
BRANCH  13  14
ATOM     14  C   UNL     1       7.767  -0.887  17.735  1.00  0.00    -0.000 C 
BRANCH  14  15
ATOM     15  C   UNL     1       9.299  -0.713  17.768  1.00  0.00    -0.000 C 
BRANCH  15  16
ATOM     16  C   UNL     1       9.905   0.035  16.567  1.00  0.00    -0.000 C 
BRANCH  16  17
ATOM     17  C   UNL     1      10.856  -0.841  15.734  1.00  0.00    -0.000 C 
BRANCH  17  18
ATOM     18  C   UNL     1      10.951  -2.286  16.258  1.00  0.00    -0.000 C 
BRANCH  18  19
ATOM     19  C   UNL     1      10.087  -3.312  15.503  1.00  0.00    -0.003 C 
ATOM     20  C   UNL     1       9.232  -4.174  16.432  1.00  0.00     0.004 C 
ENDBRANCH  18  19
ENDBRANCH  17  18
ENDBRANCH  16  17
ENDBRANCH  15  16
ENDBRANCH  14  15
ENDBRANCH  13  14
ENDBRANCH  12  13
ENDBRANCH   1  12
TORSDOF 16
ENDMDL
MODEL 4
REMARK VINA RESULT:    -4.719     12.550     15.087
REMARK INTER + INTRA:         -11.182
REMARK INTER:                  -8.123
REMARK INTRA:                  -3.060
REMARK UNBOUND:                -2.050
REMARK SMILES CCCCCCCCCCCCCCCCCC(=O)[O-]
REMARK SMILES IDX 10 1 11 2 12 3 13 4 14 5 15 6 16 7 17 8 18 9 19 10 20 11
REMARK SMILES IDX 9 12 8 13 7 14 6 15 5 16 4 17 3 18 2 19 1 20
REMARK H PARENT
REMARK Flexibility Score: inf
ROOT
ATOM      1  C   UNL     1      17.863  -3.300  22.919  1.00  0.00     0.000 C 
ENDROOT
BRANCH   1   2
ATOM      2  C   UNL     1      16.390  -3.372  23.359  1.00  0.00     0.000 C 
BRANCH   2   3
ATOM      3  C   UNL     1      16.161  -3.360  24.884  1.00  0.00     0.000 C 
BRANCH   3   4
ATOM      4  C   UNL     1      17.177  -2.530  25.689  1.00  0.00     0.000 C 
BRANCH   4   5
ATOM      5  C   UNL     1      16.825  -1.036  25.732  1.00  0.00     0.000 C 
BRANCH   5   6
ATOM      6  C   UNL     1      17.953  -0.189  25.126  1.00  0.00     0.000 C 
BRANCH   6   7
ATOM      7  C   UNL     1      17.660   0.270  23.687  1.00  0.00     0.006 C 
BRANCH   7   8
ATOM      8  C   UNL     1      18.884   0.221  22.754  1.00  0.00     0.053 C 
BRANCH   8   9
ATOM      9  C   UNL     1      19.755   1.433  22.879  1.00  0.00     0.041 C 
ATOM     10  O   UNL     1      19.446   2.503  22.291  1.00  0.00    -0.550 OA
ATOM     11  O   UNL     1      20.894   1.391  23.675  1.00  0.00    -0.550 OA
ENDBRANCH   8   9
ENDBRANCH   7   8
ENDBRANCH   6   7
ENDBRANCH   5   6
ENDBRANCH   4   5
ENDBRANCH   3   4
ENDBRANCH   2   3
ENDBRANCH   1   2
BRANCH   1  12
ATOM     12  C   UNL     1      18.319  -4.551  22.153  1.00  0.00     0.000 C 
BRANCH  12  13
ATOM     13  C   UNL     1      19.452  -5.268  22.901  1.00  0.00    -0.000 C 
BRANCH  13  14
ATOM     14  C   UNL     1      19.926  -4.499  24.147  1.00  0.00    -0.000 C 
BRANCH  14  15
ATOM     15  C   UNL     1      21.335  -3.880  24.038  1.00  0.00    -0.000 C 
BRANCH  15  16
ATOM     16  C   UNL     1      21.374  -2.345  23.919  1.00  0.00    -0.000 C 
BRANCH  16  17
ATOM     17  C   UNL     1      21.904  -1.865  22.558  1.00  0.00    -0.000 C 
BRANCH  17  18
ATOM     18  C   UNL     1      22.343  -3.022  21.643  1.00  0.00    -0.000 C 
BRANCH  18  19
ATOM     19  C   UNL     1      21.464  -3.241  20.399  1.00  0.00    -0.003 C 
ATOM     20  C   UNL     1      20.403  -2.156  20.216  1.00  0.00     0.004 C 
ENDBRANCH  18  19
ENDBRANCH  17  18
ENDBRANCH  16  17
ENDBRANCH  15  16
ENDBRANCH  14  15
ENDBRANCH  13  14
ENDBRANCH  12  13
ENDBRANCH   1  12
TORSDOF 16
ENDMDL
MODEL 5
REMARK VINA RESULT:    -4.708      2.976      6.894
REMARK INTER + INTRA:         -11.162
REMARK INTER:                  -9.126
REMARK INTRA:                  -2.037
REMARK UNBOUND:                -2.050
REMARK SMILES CCCCCCCCCCCCCCCCCC(=O)[O-]
REMARK SMILES IDX 10 1 11 2 12 3 13 4 14 5 15 6 16 7 17 8 18 9 19 10 20 11
REMARK SMILES IDX 9 12 8 13 7 14 6 15 5 16 4 17 3 18 2 19 1 20
REMARK H PARENT
REMARK Flexibility Score: inf
ROOT
ATOM      1  C   UNL     1       2.947   1.379  16.097  1.00  0.00     0.000 C 
ENDROOT
BRANCH   1   2
ATOM      2  C   UNL     1       4.353   1.942  16.370  1.00  0.00     0.000 C 
BRANCH   2   3
ATOM      3  C   UNL     1       5.173   1.171  17.424  1.00  0.00     0.000 C 
BRANCH   3   4
ATOM      4  C   UNL     1       6.534   1.798  17.778  1.00  0.00     0.000 C 
BRANCH   4   5
ATOM      5  C   UNL     1       7.137   2.605  16.619  1.00  0.00     0.000 C 
BRANCH   5   6
ATOM      6  C   UNL     1       7.742   3.923  17.124  1.00  0.00     0.000 C 
BRANCH   6   7
ATOM      7  C   UNL     1       6.764   4.748  17.980  1.00  0.00     0.006 C 
BRANCH   7   8
ATOM      8  C   UNL     1       7.414   5.957  18.678  1.00  0.00     0.053 C 
BRANCH   8   9
ATOM      9  C   UNL     1       7.728   5.692  20.119  1.00  0.00     0.041 C 
ATOM     10  O   UNL     1       7.158   6.351  21.028  1.00  0.00    -0.550 OA
ATOM     11  O   UNL     1       8.630   4.690  20.461  1.00  0.00    -0.550 OA
ENDBRANCH   8   9
ENDBRANCH   7   8
ENDBRANCH   6   7
ENDBRANCH   5   6
ENDBRANCH   4   5
ENDBRANCH   3   4
ENDBRANCH   2   3
ENDBRANCH   1   2
BRANCH   1  12
ATOM     12  C   UNL     1       2.969  -0.087  15.640  1.00  0.00     0.000 C 
BRANCH  12  13
ATOM     13  C   UNL     1       3.456  -0.201  14.189  1.00  0.00    -0.000 C 
BRANCH  13  14
ATOM     14  C   UNL     1       4.283  -1.473  13.934  1.00  0.00    -0.000 C 
BRANCH  14  15
ATOM     15  C   UNL     1       5.666  -1.238  13.292  1.00  0.00    -0.000 C 
BRANCH  15  16
ATOM     16  C   UNL     1       6.650  -0.403  14.131  1.00  0.00    -0.000 C 
BRANCH  16  17
ATOM     17  C   UNL     1       7.719  -1.261  14.828  1.00  0.00    -0.000 C 
BRANCH  17  18
ATOM     18  C   UNL     1       7.387  -1.550  16.303  1.00  0.00    -0.000 C 
BRANCH  18  19
ATOM     19  C   UNL     1       8.588  -1.955  17.176  1.00  0.00    -0.003 C 
ATOM     20  C   UNL     1       8.893  -0.945  18.283  1.00  0.00     0.004 C 
ENDBRANCH  18  19
ENDBRANCH  17  18
ENDBRANCH  16  17
ENDBRANCH  15  16
ENDBRANCH  14  15
ENDBRANCH  13  14
ENDBRANCH  12  13
ENDBRANCH   1  12
TORSDOF 16
ENDMDL
MODEL 6
REMARK VINA RESULT:    -4.695      9.375     11.698
REMARK INTER + INTRA:         -11.137
REMARK INTER:                  -9.160
REMARK INTRA:                  -1.977
REMARK UNBOUND:                -2.050
REMARK SMILES CCCCCCCCCCCCCCCCCC(=O)[O-]
REMARK SMILES IDX 10 1 11 2 12 3 13 4 14 5 15 6 16 7 17 8 18 9 19 10 20 11
REMARK SMILES IDX 9 12 8 13 7 14 6 15 5 16 4 17 3 18 2 19 1 20
REMARK H PARENT
REMARK Flexibility Score: inf
ROOT
ATOM      1  C   UNL     1      14.111   4.967   5.875  1.00  0.00     0.000 C 
ENDROOT
BRANCH   1   2
ATOM      2  C   UNL     1      12.590   5.203   5.887  1.00  0.00     0.000 C 
BRANCH   2   3
ATOM      3  C   UNL     1      12.110   6.322   6.833  1.00  0.00     0.000 C 
BRANCH   3   4
ATOM      4  C   UNL     1      13.084   6.676   7.972  1.00  0.00     0.000 C 
BRANCH   4   5
ATOM      5  C   UNL     1      12.730   5.983   9.295  1.00  0.00     0.000 C 
BRANCH   5   6
ATOM      6  C   UNL     1      11.356   5.303   9.210  1.00  0.00     0.000 C 
BRANCH   6   7
ATOM      7  C   UNL     1      10.711   5.069  10.587  1.00  0.00     0.006 C 
BRANCH   7   8
ATOM      8  C   UNL     1      11.393   5.835  11.735  1.00  0.00     0.053 C 
BRANCH   8   9
ATOM      9  C   UNL     1      10.560   6.968  12.251  1.00  0.00     0.041 C 
ATOM     10  O   UNL     1      11.083   8.088  12.488  1.00  0.00    -0.550 OA
ATOM     11  O   UNL     1       9.193   6.796  12.439  1.00  0.00    -0.550 OA
ENDBRANCH   8   9
ENDBRANCH   7   8
ENDBRANCH   6   7
ENDBRANCH   5   6
ENDBRANCH   4   5
ENDBRANCH   3   4
ENDBRANCH   2   3
ENDBRANCH   1   2
BRANCH   1  12
ATOM     12  C   UNL     1      14.496   3.536   6.278  1.00  0.00     0.000 C 
BRANCH  12  13
ATOM     13  C   UNL     1      13.315   2.819   6.947  1.00  0.00    -0.000 C 
BRANCH  13  14
ATOM     14  C   UNL     1      13.593   2.456   8.417  1.00  0.00    -0.000 C 
BRANCH  14  15
ATOM     15  C   UNL     1      14.879   1.640   8.659  1.00  0.00    -0.000 C 
BRANCH  15  16
ATOM     16  C   UNL     1      15.706   2.059   9.888  1.00  0.00    -0.000 C 
BRANCH  16  17
ATOM     17  C   UNL     1      14.831   2.471  11.085  1.00  0.00    -0.000 C 
BRANCH  17  18
ATOM     18  C   UNL     1      15.283   3.794  11.730  1.00  0.00    -0.000 C 
BRANCH  18  19
ATOM     19  C   UNL     1      15.420   3.759  13.263  1.00  0.00    -0.003 C 
ATOM     20  C   UNL     1      16.644   4.519  13.772  1.00  0.00     0.004 C 
ENDBRANCH  18  19
ENDBRANCH  17  18
ENDBRANCH  16  17
ENDBRANCH  15  16
ENDBRANCH  14  15
ENDBRANCH  13  14
ENDBRANCH  12  13
ENDBRANCH   1  12
TORSDOF 16
ENDMDL
MODEL 7
REMARK VINA RESULT:    -4.687     12.964     14.766
REMARK INTER + INTRA:         -11.121
REMARK INTER:                  -8.521
REMARK INTRA:                  -2.601
REMARK UNBOUND:                -2.050
REMARK SMILES CCCCCCCCCCCCCCCCCC(=O)[O-]
REMARK SMILES IDX 10 1 11 2 12 3 13 4 14 5 15 6 16 7 17 8 18 9 19 10 20 11
REMARK SMILES IDX 9 12 8 13 7 14 6 15 5 16 4 17 3 18 2 19 1 20
REMARK H PARENT
REMARK Flexibility Score: inf
ROOT
ATOM      1  C   UNL     1      17.902  -4.263  23.681  1.00  0.00     0.000 C 
ENDROOT
BRANCH   1   2
ATOM      2  C   UNL     1      19.262  -3.865  24.279  1.00  0.00     0.000 C 
BRANCH   2   3
ATOM      3  C   UNL     1      20.408  -4.863  24.017  1.00  0.00     0.000 C 
BRANCH   3   4
ATOM      4  C   UNL     1      21.418  -4.428  22.940  1.00  0.00     0.000 C 
BRANCH   4   5
ATOM      5  C   UNL     1      20.976  -4.809  21.520  1.00  0.00     0.000 C 
BRANCH   5   6
ATOM      6  C   UNL     1      20.438  -3.586  20.765  1.00  0.00     0.000 C 
BRANCH   6   7
ATOM      7  C   UNL     1      21.549  -2.732  20.127  1.00  0.00     0.006 C 
BRANCH   7   8
ATOM      8  C   UNL     1      21.334  -2.446  18.630  1.00  0.00     0.053 C 
BRANCH   8   9
ATOM      9  C   UNL     1      21.887  -3.525  17.749  1.00  0.00     0.041 C 
ATOM     10  O   UNL     1      23.125  -3.595  17.529  1.00  0.00    -0.550 OA
ATOM     11  O   UNL     1      21.036  -4.476  17.197  1.00  0.00    -0.550 OA
ENDBRANCH   8   9
ENDBRANCH   7   8
ENDBRANCH   6   7
ENDBRANCH   5   6
ENDBRANCH   4   5
ENDBRANCH   3   4
ENDBRANCH   2   3
ENDBRANCH   1   2
BRANCH   1  12
ATOM     12  C   UNL     1      16.713  -3.753  24.509  1.00  0.00     0.000 C 
BRANCH  12  13
ATOM     13  C   UNL     1      17.197  -2.991  25.750  1.00  0.00    -0.000 C 
BRANCH  13  14
ATOM     14  C   UNL     1      16.756  -1.516  25.755  1.00  0.00    -0.000 C 
BRANCH  14  15
ATOM     15  C   UNL     1      16.787  -0.819  24.380  1.00  0.00    -0.000 C 
BRANCH  15  16
ATOM     16  C   UNL     1      18.125  -0.155  24.006  1.00  0.00    -0.000 C 
BRANCH  16  17
ATOM     17  C   UNL     1      18.685  -0.654  22.664  1.00  0.00    -0.000 C 
BRANCH  17  18
ATOM     18  C   UNL     1      20.174  -0.311  22.472  1.00  0.00    -0.000 C 
BRANCH  18  19
ATOM     19  C   UNL     1      21.090  -0.701  23.646  1.00  0.00    -0.003 C 
ATOM     20  C   UNL     1      22.540  -0.934  23.222  1.00  0.00     0.004 C 
ENDBRANCH  18  19
ENDBRANCH  17  18
ENDBRANCH  16  17
ENDBRANCH  15  16
ENDBRANCH  14  15
ENDBRANCH  13  14
ENDBRANCH  12  13
ENDBRANCH   1  12
TORSDOF 16
ENDMDL
MODEL 8
REMARK VINA RESULT:    -4.629     12.869     15.143
REMARK INTER + INTRA:         -11.010
REMARK INTER:                  -7.964
REMARK INTRA:                  -3.046
REMARK UNBOUND:                -2.050
REMARK SMILES CCCCCCCCCCCCCCCCCC(=O)[O-]
REMARK SMILES IDX 10 1 11 2 12 3 13 4 14 5 15 6 16 7 17 8 18 9 19 10 20 11
REMARK SMILES IDX 9 12 8 13 7 14 6 15 5 16 4 17 3 18 2 19 1 20
REMARK H PARENT
REMARK Flexibility Score: inf
ROOT
ATOM      1  C   UNL     1      20.957  -1.243  23.346  1.00  0.00     0.000 C 
ENDROOT
BRANCH   1   2
ATOM      2  C   UNL     1      22.367  -1.523  22.797  1.00  0.00     0.000 C 
BRANCH   2   3
ATOM      3  C   UNL     1      22.522  -2.859  22.045  1.00  0.00     0.000 C 
BRANCH   3   4
ATOM      4  C   UNL     1      21.671  -4.019  22.593  1.00  0.00     0.000 C 
BRANCH   4   5
ATOM      5  C   UNL     1      20.858  -4.729  21.501  1.00  0.00     0.000 C 
BRANCH   5   6
ATOM      6  C   UNL     1      19.356  -4.460  21.671  1.00  0.00     0.000 C 
BRANCH   6   7
ATOM      7  C   UNL     1      18.934  -4.296  23.142  1.00  0.00     0.006 C 
BRANCH   7   8
ATOM      8  C   UNL     1      17.409  -4.231  23.349  1.00  0.00     0.053 C 
BRANCH   8   9
ATOM      9  C   UNL     1      17.013  -3.280  24.437  1.00  0.00     0.041 C 
ATOM     10  O   UNL     1      16.238  -2.319  24.192  1.00  0.00    -0.550 OA
ATOM     11  O   UNL     1      17.476  -3.476  25.734  1.00  0.00    -0.550 OA
ENDBRANCH   8   9
ENDBRANCH   7   8
ENDBRANCH   6   7
ENDBRANCH   5   6
ENDBRANCH   4   5
ENDBRANCH   3   4
ENDBRANCH   2   3
ENDBRANCH   1   2
BRANCH   1  12
ATOM     12  C   UNL     1      20.180  -0.220  22.503  1.00  0.00     0.000 C 
BRANCH  12  13
ATOM     13  C   UNL     1      18.708  -0.632  22.362  1.00  0.00    -0.000 C 
BRANCH  13  14
ATOM     14  C   UNL     1      18.338  -1.040  20.925  1.00  0.00    -0.000 C 
BRANCH  14  15
ATOM     15  C   UNL     1      19.431  -0.783  19.868  1.00  0.00    -0.000 C 
BRANCH  15  16
ATOM     16  C   UNL     1      19.736  -1.967  18.932  1.00  0.00    -0.000 C 
BRANCH  16  17
ATOM     17  C   UNL     1      21.241  -2.261  18.811  1.00  0.00    -0.000 C 
BRANCH  17  18
ATOM     18  C   UNL     1      21.538  -3.548  18.021  1.00  0.00    -0.000 C 
BRANCH  18  19
ATOM     19  C   UNL     1      22.997  -4.035  18.090  1.00  0.00    -0.003 C 
ATOM     20  C   UNL     1      23.121  -5.494  18.528  1.00  0.00     0.004 C 
ENDBRANCH  18  19
ENDBRANCH  17  18
ENDBRANCH  16  17
ENDBRANCH  15  16
ENDBRANCH  14  15
ENDBRANCH  13  14
ENDBRANCH  12  13
ENDBRANCH   1  12
TORSDOF 16
ENDMDL
MODEL 9
REMARK VINA RESULT:    -4.612     12.580     14.512
REMARK INTER + INTRA:         -10.975
REMARK INTER:                  -7.979
REMARK INTRA:                  -2.997
REMARK UNBOUND:                -2.050
REMARK SMILES CCCCCCCCCCCCCCCCCC(=O)[O-]
REMARK SMILES IDX 10 1 11 2 12 3 13 4 14 5 15 6 16 7 17 8 18 9 19 10 20 11
REMARK SMILES IDX 9 12 8 13 7 14 6 15 5 16 4 17 3 18 2 19 1 20
REMARK H PARENT
REMARK Flexibility Score: inf
ROOT
ATOM      1  C   UNL     1      19.075  -4.651  22.852  1.00  0.00     0.000 C 
ENDROOT
BRANCH   1   2
ATOM      2  C   UNL     1      19.872  -4.294  24.120  1.00  0.00     0.000 C 
BRANCH   2   3
ATOM      3  C   UNL     1      21.333  -3.868  23.875  1.00  0.00     0.000 C 
BRANCH   3   4
ATOM      4  C   UNL     1      21.577  -2.348  23.870  1.00  0.00     0.000 C 
BRANCH   4   5
ATOM      5  C   UNL     1      22.141  -1.840  22.535  1.00  0.00     0.000 C 
BRANCH   5   6
ATOM      6  C   UNL     1      22.736  -2.993  21.715  1.00  0.00     0.000 C 
BRANCH   6   7
ATOM      7  C   UNL     1      22.462  -2.866  20.206  1.00  0.00     0.006 C 
BRANCH   7   8
ATOM      8  C   UNL     1      20.972  -2.961  19.831  1.00  0.00     0.053 C 
BRANCH   8   9
ATOM      9  C   UNL     1      20.611  -4.283  19.224  1.00  0.00     0.041 C 
ATOM     10  O   UNL     1      21.511  -5.074  18.838  1.00  0.00    -0.550 OA
ATOM     11  O   UNL     1      19.276  -4.656  19.114  1.00  0.00    -0.550 OA
ENDBRANCH   8   9
ENDBRANCH   7   8
ENDBRANCH   6   7
ENDBRANCH   5   6
ENDBRANCH   4   5
ENDBRANCH   3   4
ENDBRANCH   2   3
ENDBRANCH   1   2
BRANCH   1  12
ATOM     12  C   UNL     1      18.262  -3.468  22.305  1.00  0.00     0.000 C 
BRANCH  12  13
ATOM     13  C   UNL     1      16.762  -3.790  22.300  1.00  0.00    -0.000 C 
BRANCH  13  14
ATOM     14  C   UNL     1      15.984  -3.033  23.392  1.00  0.00    -0.000 C 
BRANCH  14  15
ATOM     15  C   UNL     1      16.281  -3.482  24.838  1.00  0.00    -0.000 C 
BRANCH  15  16
ATOM     16  C   UNL     1      17.015  -2.449  25.712  1.00  0.00    -0.000 C 
BRANCH  16  17
ATOM     17  C   UNL     1      17.093  -1.060  25.057  1.00  0.00    -0.000 C 
BRANCH  17  18
ATOM     18  C   UNL     1      18.537  -0.624  24.747  1.00  0.00    -0.000 C 
BRANCH  18  19
ATOM     19  C   UNL     1      18.728   0.089  23.396  1.00  0.00    -0.003 C 
ATOM     20  C   UNL     1      17.423   0.254  22.616  1.00  0.00     0.004 C 
ENDBRANCH  18  19
ENDBRANCH  17  18
ENDBRANCH  16  17
ENDBRANCH  15  16
ENDBRANCH  14  15
ENDBRANCH  13  14
ENDBRANCH  12  13
ENDBRANCH   1  12
TORSDOF 16
ENDMDL
