MODEL 1
REMARK VINA RESULT:    -3.611      0.000      0.000
REMARK INTER + INTRA:          -6.246
REMARK INTER:                  -5.722
REMARK INTRA:                  -0.524
REMARK UNBOUND:                -0.524
REMARK SMILES CCCCCCCCCCCC(=O)[O-]
REMARK SMILES IDX 7 1 8 2 9 3 10 4 11 5 12 6 13 7 14 8 6 9 5 10 4 11 3 12 2 13
REMARK SMILES IDX 1 14
REMARK H PARENT
REMARK Flexibility Score: inf
ROOT
ATOM      1  C   UNL     1      -1.447  60.403  -3.774  1.00  0.00     0.000 C 
ENDROOT
BRANCH   1   2
ATOM      2  C   UNL     1      -0.401  60.002  -4.825  1.00  0.00     0.000 C 
BRANCH   2   3
ATOM      3  C   UNL     1       1.000  60.480  -4.414  1.00  0.00     0.000 C 
BRANCH   3   4
ATOM      4  C   UNL     1       2.109  59.901  -5.306  1.00  0.00     0.006 C 
BRANCH   4   5
ATOM      5  C   UNL     1       2.634  60.916  -6.330  1.00  0.00     0.053 C 
BRANCH   5   6
ATOM      6  C   UNL     1       3.396  60.219  -7.412  1.00  0.00     0.041 C 
ATOM      7  O   UNL     1       3.035  59.080  -7.808  1.00  0.00    -0.550 OA
ATOM      8  O   UNL     1       4.477  60.848  -8.017  1.00  0.00    -0.550 OA
ENDBRANCH   5   6
ENDBRANCH   4   5
ENDBRANCH   3   4
ENDBRANCH   2   3
ENDBRANCH   1   2
BRANCH   1   9
ATOM      9  C   UNL     1      -2.517  59.320  -3.559  1.00  0.00     0.000 C 
BRANCH   9  10
ATOM     10  C   UNL     1      -3.878  59.704  -4.161  1.00  0.00    -0.000 C 
BRANCH  10  11
ATOM     11  C   UNL     1      -3.713  60.761  -5.261  1.00  0.00    -0.000 C 
BRANCH  11  12
ATOM     12  C   UNL     1      -4.727  60.545  -6.389  1.00  0.00    -0.000 C 
BRANCH  12  13
ATOM     13  C   UNL     1      -4.020  60.251  -7.716  1.00  0.00    -0.003 C 
ATOM     14  C   UNL     1      -2.920  59.210  -7.536  1.00  0.00     0.004 C 
ENDBRANCH  12  13
ENDBRANCH  11  12
ENDBRANCH  10  11
ENDBRANCH   9  10
ENDBRANCH   1   9
TORSDOF 10
ENDMDL
MODEL 2
REMARK VINA RESULT:    -3.264      2.644      5.956
REMARK INTER + INTRA:          -5.696
REMARK INTER:                  -5.100
REMARK INTRA:                  -0.596
REMARK UNBOUND:                -0.524
REMARK SMILES CCCCCCCCCCCC(=O)[O-]
REMARK SMILES IDX 7 1 8 2 9 3 10 4 11 5 12 6 13 7 14 8 6 9 5 10 4 11 3 12 2 13
REMARK SMILES IDX 1 14
REMARK H PARENT
REMARK Flexibility Score: inf
ROOT
ATOM      1  C   UNL     1      -0.511  60.026  -4.727  1.00  0.00     0.000 C 
ENDROOT
BRANCH   1   2
ATOM      2  C   UNL     1      -1.533  60.238  -3.599  1.00  0.00     0.000 C 
BRANCH   2   3
ATOM      3  C   UNL     1      -2.741  59.307  -3.773  1.00  0.00     0.000 C 
BRANCH   3   4
ATOM      4  C   UNL     1      -3.857  59.936  -4.623  1.00  0.00     0.006 C 
BRANCH   4   5
ATOM      5  C   UNL     1      -4.232  59.076  -5.837  1.00  0.00     0.053 C 
BRANCH   5   6
ATOM      6  C   UNL     1      -3.679  59.675  -7.091  1.00  0.00     0.041 C 
ATOM      7  O   UNL     1      -4.041  60.824  -7.458  1.00  0.00    -0.550 OA
ATOM      8  O   UNL     1      -2.725  58.986  -7.829  1.00  0.00    -0.550 OA
ENDBRANCH   5   6
ENDBRANCH   4   5
ENDBRANCH   3   4
ENDBRANCH   2   3
ENDBRANCH   1   2
BRANCH   1   9
ATOM      9  C   UNL     1       0.912  60.446  -4.324  1.00  0.00     0.000 C 
BRANCH   9  10
ATOM     10  C   UNL     1       1.940  60.204  -5.441  1.00  0.00    -0.000 C 
BRANCH  10  11
ATOM     11  C   UNL     1       1.369  59.273  -6.518  1.00  0.00    -0.000 C 
BRANCH  11  12
ATOM     12  C   UNL     1       1.855  59.681  -7.914  1.00  0.00    -0.000 C 
BRANCH  12  13
ATOM     13  C   UNL     1       3.131  60.525  -7.827  1.00  0.00    -0.003 C 
ATOM     14  C   UNL     1       4.375  59.668  -8.043  1.00  0.00     0.004 C 
ENDBRANCH  12  13
ENDBRANCH  11  12
ENDBRANCH  10  11
ENDBRANCH   9  10
ENDBRANCH   1   9
TORSDOF 10
ENDMDL
MODEL 3
REMARK VINA RESULT:    -2.173     22.582     24.852
REMARK INTER + INTRA:          -3.967
REMARK INTER:                  -3.567
REMARK INTRA:                  -0.400
REMARK UNBOUND:                -0.524
REMARK SMILES CCCCCCCCCCCC(=O)[O-]
REMARK SMILES IDX 7 1 8 2 9 3 10 4 11 5 12 6 13 7 14 8 6 9 5 10 4 11 3 12 2 13
REMARK SMILES IDX 1 14
REMARK H PARENT
REMARK Flexibility Score: inf
ROOT
ATOM      1  C   UNL     1      14.144  77.738   3.721  1.00  0.00     0.000 C 
ENDROOT
BRANCH   1   2
ATOM      2  C   UNL     1      13.848  77.933   5.216  1.00  0.00     0.000 C 
BRANCH   2   3
ATOM      3  C   UNL     1      15.006  77.406   6.077  1.00  0.00     0.000 C 
BRANCH   3   4
ATOM      4  C   UNL     1      14.990  75.875   6.217  1.00  0.00     0.006 C 
BRANCH   4   5
ATOM      5  C   UNL     1      14.362  75.409   7.537  1.00  0.00     0.053 C 
BRANCH   5   6
ATOM      6  C   UNL     1      14.617  73.950   7.749  1.00  0.00     0.041 C 
ATOM      7  O   UNL     1      14.484  73.443   8.894  1.00  0.00    -0.550 OA
ATOM      8  O   UNL     1      14.952  73.140   6.671  1.00  0.00    -0.550 OA
ENDBRANCH   5   6
ENDBRANCH   4   5
ENDBRANCH   3   4
ENDBRANCH   2   3
ENDBRANCH   1   2
BRANCH   1   9
ATOM      9  C   UNL     1      14.008  79.040   2.914  1.00  0.00     0.000 C 
BRANCH   9  10
ATOM     10  C   UNL     1      14.845  79.029   1.626  1.00  0.00    -0.000 C 
BRANCH  10  11
ATOM     11  C   UNL     1      15.122  77.592   1.165  1.00  0.00    -0.000 C 
BRANCH  11  12
ATOM     12  C   UNL     1      15.095  77.490  -0.365  1.00  0.00    -0.000 C 
BRANCH  12  13
ATOM     13  C   UNL     1      14.253  76.294  -0.821  1.00  0.00    -0.003 C 
ATOM     14  C   UNL     1      13.526  76.598  -2.128  1.00  0.00     0.004 C 
ENDBRANCH  12  13
ENDBRANCH  11  12
ENDBRANCH  10  11
ENDBRANCH   9  10
ENDBRANCH   1   9
TORSDOF 10
ENDMDL
MODEL 4
REMARK VINA RESULT:    -1.761     21.710     24.097
REMARK INTER + INTRA:          -3.314
REMARK INTER:                  -2.937
REMARK INTRA:                  -0.377
REMARK UNBOUND:                -0.524
REMARK SMILES CCCCCCCCCCCC(=O)[O-]
REMARK SMILES IDX 7 1 8 2 9 3 10 4 11 5 12 6 13 7 14 8 6 9 5 10 4 11 3 12 2 13
REMARK SMILES IDX 1 14
REMARK H PARENT
REMARK Flexibility Score: inf
ROOT
ATOM      1  C   UNL     1      14.100  77.475   1.546  1.00  0.00     0.000 C 
ENDROOT
BRANCH   1   2
ATOM      2  C   UNL     1      14.931  76.977   0.353  1.00  0.00     0.000 C 
BRANCH   2   3
ATOM      3  C   UNL     1      14.052  76.213  -0.647  1.00  0.00     0.000 C 
BRANCH   3   4
ATOM      4  C   UNL     1      14.156  76.772  -2.075  1.00  0.00     0.006 C 
BRANCH   4   5
ATOM      5  C   UNL     1      12.834  76.668  -2.848  1.00  0.00     0.053 C 
BRANCH   5   6
ATOM      6  C   UNL     1      12.969  77.299  -4.198  1.00  0.00     0.041 C 
ATOM      7  O   UNL     1      12.789  78.537  -4.339  1.00  0.00    -0.550 OA
ATOM      8  O   UNL     1      13.342  76.528  -5.291  1.00  0.00    -0.550 OA
ENDBRANCH   5   6
ENDBRANCH   4   5
ENDBRANCH   3   4
ENDBRANCH   2   3
ENDBRANCH   1   2
BRANCH   1   9
ATOM      9  C   UNL     1      14.473  78.903   1.974  1.00  0.00     0.000 C 
BRANCH   9  10
ATOM     10  C   UNL     1      15.121  78.954   3.367  1.00  0.00    -0.000 C 
BRANCH  10  11
ATOM     11  C   UNL     1      15.055  77.583   4.053  1.00  0.00    -0.000 C 
BRANCH  11  12
ATOM     12  C   UNL     1      14.064  77.600   5.222  1.00  0.00    -0.000 C 
BRANCH  12  13
ATOM     13  C   UNL     1      14.641  76.875   6.442  1.00  0.00    -0.003 C 
ATOM     14  C   UNL     1      14.333  75.381   6.393  1.00  0.00     0.004 C 
ENDBRANCH  12  13
ENDBRANCH  11  12
ENDBRANCH  10  11
ENDBRANCH   9  10
ENDBRANCH   1   9
TORSDOF 10
ENDMDL
MODEL 5
REMARK VINA RESULT:    -1.539      1.179      2.363
REMARK INTER + INTRA:          -2.963
REMARK INTER:                  -2.677
REMARK INTRA:                  -0.285
REMARK UNBOUND:                -0.524
REMARK SMILES CCCCCCCCCCCC(=O)[O-]
REMARK SMILES IDX 7 1 8 2 9 3 10 4 11 5 12 6 13 7 14 8 6 9 5 10 4 11 3 12 2 13
REMARK SMILES IDX 1 14
REMARK H PARENT
REMARK Flexibility Score: inf
ROOT
ATOM      1  C   UNL     1      -3.601  60.021  -4.413  1.00  0.00     0.000 C 
ENDROOT
BRANCH   1   2
ATOM      2  C   UNL     1      -2.331  60.251  -3.580  1.00  0.00     0.000 C 
BRANCH   2   3
ATOM      3  C   UNL     1      -1.096  59.685  -4.297  1.00  0.00     0.000 C 
BRANCH   3   4
ATOM      4  C   UNL     1      -0.177  60.784  -4.852  1.00  0.00     0.006 C 
BRANCH   4   5
ATOM      5  C   UNL     1       1.311  60.474  -4.640  1.00  0.00     0.053 C 
BRANCH   5   6
ATOM      6  C   UNL     1       1.981  60.214  -5.952  1.00  0.00     0.041 C 
ATOM      7  O   UNL     1       1.550  59.310  -6.716  1.00  0.00    -0.550 OA
ATOM      8  O   UNL     1       3.052  61.002  -6.353  1.00  0.00    -0.550 OA
ENDBRANCH   5   6
ENDBRANCH   4   5
ENDBRANCH   3   4
ENDBRANCH   2   3
ENDBRANCH   1   2
BRANCH   1   9
ATOM      9  C   UNL     1      -4.014  61.262  -5.220  1.00  0.00     0.000 C 
BRANCH   9  10
ATOM     10  C   UNL     1      -3.695  61.128  -6.717  1.00  0.00    -0.000 C 
BRANCH  10  11
ATOM     11  C   UNL     1      -4.458  59.951  -7.338  1.00  0.00    -0.000 C 
BRANCH  11  12
ATOM     12  C   UNL     1      -3.493  58.933  -7.957  1.00  0.00    -0.000 C 
BRANCH  12  13
ATOM     13  C   UNL     1      -2.178  58.875  -7.172  1.00  0.00    -0.003 C 
ATOM     14  C   UNL     1      -0.975  59.028  -8.099  1.00  0.00     0.004 C 
ENDBRANCH  12  13
ENDBRANCH  11  12
ENDBRANCH  10  11
ENDBRANCH   9  10
ENDBRANCH   1   9
TORSDOF 10
ENDMDL
MODEL 6
REMARK VINA RESULT:    -1.367     13.087     14.087
REMARK INTER + INTRA:          -2.690
REMARK INTER:                  -2.714
REMARK INTRA:                   0.024
REMARK UNBOUND:                -0.524
REMARK SMILES CCCCCCCCCCCC(=O)[O-]
REMARK SMILES IDX 7 1 8 2 9 3 10 4 11 5 12 6 13 7 14 8 6 9 5 10 4 11 3 12 2 13
REMARK SMILES IDX 1 14
REMARK H PARENT
REMARK Flexibility Score: inf
ROOT
ATOM      1  C   UNL     1      -4.961  73.010  -6.011  1.00  0.00     0.000 C 
ENDROOT
BRANCH   1   2
ATOM      2  C   UNL     1      -4.046  71.783  -6.148  1.00  0.00     0.000 C 
BRANCH   2   3
ATOM      3  C   UNL     1      -4.862  70.525  -6.476  1.00  0.00     0.000 C 
BRANCH   3   4
ATOM      4  C   UNL     1      -4.184  69.234  -5.989  1.00  0.00     0.006 C 
BRANCH   4   5
ATOM      5  C   UNL     1      -2.787  69.036  -6.593  1.00  0.00     0.053 C 
BRANCH   5   6
ATOM      6  C   UNL     1      -1.736  69.525  -5.648  1.00  0.00     0.041 C 
ATOM      7  O   UNL     1      -2.054  69.916  -4.493  1.00  0.00    -0.550 OA
ATOM      8  O   UNL     1      -0.399  69.504  -6.023  1.00  0.00    -0.550 OA
ENDBRANCH   5   6
ENDBRANCH   4   5
ENDBRANCH   3   4
ENDBRANCH   2   3
ENDBRANCH   1   2
BRANCH   1   9
ATOM      9  C   UNL     1      -4.894  73.940  -7.234  1.00  0.00     0.000 C 
BRANCH   9  10
ATOM     10  C   UNL     1      -4.702  75.414  -6.846  1.00  0.00    -0.000 C 
BRANCH  10  11
ATOM     11  C   UNL     1      -5.047  76.339  -8.020  1.00  0.00    -0.000 C 
BRANCH  11  12
ATOM     12  C   UNL     1      -4.271  77.658  -7.930  1.00  0.00    -0.000 C 
BRANCH  12  13
ATOM     13  C   UNL     1      -2.765  77.422  -8.086  1.00  0.00    -0.003 C 
ATOM     14  C   UNL     1      -1.978  78.708  -7.853  1.00  0.00     0.004 C 
ENDBRANCH  12  13
ENDBRANCH  11  12
ENDBRANCH  10  11
ENDBRANCH   9  10
ENDBRANCH   1   9
TORSDOF 10
ENDMDL
MODEL 7
REMARK VINA RESULT:    -0.793     13.903     14.939
REMARK INTER + INTRA:          -1.780
REMARK INTER:                  -1.701
REMARK INTRA:                  -0.079
REMARK UNBOUND:                -0.524
REMARK SMILES CCCCCCCCCCCC(=O)[O-]
REMARK SMILES IDX 7 1 8 2 9 3 10 4 11 5 12 6 13 7 14 8 6 9 5 10 4 11 3 12 2 13
REMARK SMILES IDX 1 14
REMARK H PARENT
REMARK Flexibility Score: inf
ROOT
ATOM      1  C   UNL     1      -4.658  72.717  -6.105  1.00  0.00     0.000 C 
ENDROOT
BRANCH   1   2
ATOM      2  C   UNL     1      -5.125  74.039  -6.734  1.00  0.00     0.000 C 
BRANCH   2   3
ATOM      3  C   UNL     1      -3.991  75.075  -6.735  1.00  0.00     0.000 C 
BRANCH   3   4
ATOM      4  C   UNL     1      -4.429  76.431  -7.310  1.00  0.00     0.006 C 
BRANCH   4   5
ATOM      5  C   UNL     1      -3.321  77.113  -8.125  1.00  0.00     0.053 C 
BRANCH   5   6
ATOM      6  C   UNL     1      -3.092  78.506  -7.629  1.00  0.00     0.041 C 
ATOM      7  O   UNL     1      -4.005  79.120  -7.018  1.00  0.00    -0.550 OA
ATOM      8  O   UNL     1      -1.851  79.108  -7.798  1.00  0.00    -0.550 OA
ENDBRANCH   5   6
ENDBRANCH   4   5
ENDBRANCH   3   4
ENDBRANCH   2   3
ENDBRANCH   1   2
BRANCH   1   9
ATOM      9  C   UNL     1      -5.100  71.486  -6.915  1.00  0.00     0.000 C 
BRANCH   9  10
ATOM     10  C   UNL     1      -5.080  70.193  -6.084  1.00  0.00    -0.000 C 
BRANCH  10  11
ATOM     11  C   UNL     1      -3.668  69.599  -6.027  1.00  0.00    -0.000 C 
BRANCH  11  12
ATOM     12  C   UNL     1      -2.775  70.390  -5.064  1.00  0.00    -0.000 C 
BRANCH  12  13
ATOM     13  C   UNL     1      -1.309  69.964  -5.197  1.00  0.00    -0.003 C 
ATOM     14  C   UNL     1      -1.154  68.827  -6.203  1.00  0.00     0.004 C 
ENDBRANCH  12  13
ENDBRANCH  11  12
ENDBRANCH  10  11
ENDBRANCH   9  10
ENDBRANCH   1   9
TORSDOF 10
ENDMDL
