MODEL 1
REMARK VINA RESULT:    28.747      0.000      0.000
REMARK INTER + INTRA:          34.564
REMARK INTER:                  34.629
REMARK INTRA:                  -0.065
REMARK UNBOUND:                -0.065
REMARK SMILES O=c1c(O)c(-c2ccc(O)c(O)c2)oc2cc(O)cc(O)c12
REMARK SMILES IDX 5 1 3 2 2 3 1 4 22 5 20 6 19 7 17 8 16 9 15 10 14 11 6 12
REMARK SMILES IDX 7 13 8 14 9 15 13 16 11 17 10 18 12 20 4 22 21 24 18 26
REMARK H PARENT 10 19 12 21 4 23 21 25 18 27
REMARK Flexibility Score: inf
ROOT
ATOM      1  C   UNL     1      17.466  41.144  10.575  1.00  0.00     0.180 A 
ATOM      2  C   UNL     1      18.392  40.160  10.185  1.00  0.00     0.208 A 
ATOM      3  C   UNL     1      19.758  40.381  10.419  1.00  0.00     0.238 A 
ATOM      4  O   UNL     1      20.577  39.474  10.118  1.00  0.00    -0.285 OA
ATOM      5  C   UNL     1      20.184  41.588  11.024  1.00  0.00     0.111 A 
ATOM      6  C   UNL     1      21.546  41.936  11.271  1.00  0.00     0.134 A 
ATOM      7  C   UNL     1      21.843  43.098  11.993  1.00  0.00     0.093 A 
ATOM      8  C   UNL     1      20.828  43.959  12.421  1.00  0.00     0.123 A 
ATOM      9  C   UNL     1      19.499  43.659  12.132  1.00  0.00     0.094 A 
ATOM     10  C   UNL     1      19.170  42.489  11.445  1.00  0.00     0.146 A 
ATOM     11  O   UNL     1      17.890  42.235  11.200  1.00  0.00    -0.452 OA
ENDROOT
BRANCH   1  12
ATOM     12  C   UNL     1      16.011  40.993  10.340  1.00  0.00     0.025 A 
ATOM     13  C   UNL     1      15.283  41.956   9.622  1.00  0.00     0.016 A 
ATOM     14  C   UNL     1      13.906  41.806   9.434  1.00  0.00     0.051 A 
ATOM     15  C   UNL     1      13.236  40.703   9.970  1.00  0.00     0.157 A 
ATOM     16  C   UNL     1      15.331  39.897  10.896  1.00  0.00     0.062 A 
ATOM     17  C   UNL     1      13.949  39.743  10.708  1.00  0.00     0.158 A 
BRANCH  15  18
ATOM     18  O   UNL     1      11.862  40.578   9.765  1.00  0.00    -0.504 OA
ATOM     19  H   UNL     1      11.308  39.872  10.234  1.00  0.00     0.293 HD
ENDBRANCH  15  18
BRANCH  17  20
ATOM     20  O   UNL     1      13.286  38.645  11.252  1.00  0.00    -0.504 OA
ATOM     21  H   UNL     1      13.162  37.787  10.728  1.00  0.00     0.293 HD
ENDBRANCH  17  20
ENDBRANCH   1  12
BRANCH   2  22
ATOM     22  O   UNL     1      17.948  38.966   9.610  1.00  0.00    -0.502 OA
ATOM     23  H   UNL     1      17.137  38.466   9.953  1.00  0.00     0.293 HD
ENDBRANCH   2  22
BRANCH   6  24
ATOM     24  O   UNL     1      22.636  41.193  10.809  1.00  0.00    -0.507 OA
ATOM     25  H   UNL     1      22.639  40.639   9.966  1.00  0.00     0.293 HD
ENDBRANCH   6  24
BRANCH   8  26
ATOM     26  O   UNL     1      21.133  45.121  13.125  1.00  0.00    -0.508 OA
ATOM     27  H   UNL     1      20.706  46.010  12.893  1.00  0.00     0.293 HD
ENDBRANCH   8  26
TORSDOF 6
ENDMDL
