MODEL 1
REMARK VINA RESULT:    -4.668      0.000      0.000
REMARK INTER + INTRA:          -9.920
REMARK INTER:                  -7.943
REMARK INTRA:                  -1.977
REMARK UNBOUND:                -1.977
REMARK SMILES CCCCCCCCCCCCCC(=O)[O-]
REMARK SMILES IDX 8 1 9 2 10 3 11 4 12 5 13 6 14 7 15 8 16 9 7 10 6 11 5 12
REMARK SMILES IDX 4 13 3 14 2 15 1 16
REMARK H PARENT
REMARK Flexibility Score: inf
ROOT
ATOM      1  C   UNL     1      60.979  28.687  13.437  1.00  0.00     0.000 C 
ENDROOT
BRANCH   1   2
ATOM      2  C   UNL     1      62.476  28.707  13.074  1.00  0.00     0.000 C 
BRANCH   2   3
ATOM      3  C   UNL     1      63.166  30.076  13.229  1.00  0.00     0.000 C 
BRANCH   3   4
ATOM      4  C   UNL     1      62.597  31.166  12.295  1.00  0.00     0.000 C 
BRANCH   4   5
ATOM      5  C   UNL     1      62.247  32.460  13.049  1.00  0.00     0.006 C 
BRANCH   5   6
ATOM      6  C   UNL     1      60.741  32.756  13.022  1.00  0.00     0.053 C 
BRANCH   6   7
ATOM      7  C   UNL     1      60.040  32.182  14.214  1.00  0.00     0.041 C 
ATOM      8  O   UNL     1      58.910  31.642  14.085  1.00  0.00    -0.550 OA
ATOM      9  O   UNL     1      60.650  32.212  15.462  1.00  0.00    -0.550 OA
ENDBRANCH   6   7
ENDBRANCH   5   6
ENDBRANCH   4   5
ENDBRANCH   3   4
ENDBRANCH   2   3
ENDBRANCH   1   2
BRANCH   1  10
ATOM     10  C   UNL     1      60.040  28.254  12.296  1.00  0.00     0.000 C 
BRANCH  10  11
ATOM     11  C   UNL     1      59.679  29.406  11.346  1.00  0.00    -0.000 C 
BRANCH  11  12
ATOM     12  C   UNL     1      59.771  28.957   9.881  1.00  0.00    -0.000 C 
BRANCH  12  13
ATOM     13  C   UNL     1      61.111  28.268   9.564  1.00  0.00    -0.000 C 
BRANCH  13  14
ATOM     14  C   UNL     1      62.174  29.234   8.992  1.00  0.00    -0.000 C 
BRANCH  14  15
ATOM     15  C   UNL     1      63.599  28.936   9.487  1.00  0.00    -0.003 C 
ATOM     16  C   UNL     1      64.552  30.115   9.298  1.00  0.00     0.004 C 
ENDBRANCH  14  15
ENDBRANCH  13  14
ENDBRANCH  12  13
ENDBRANCH  11  12
ENDBRANCH  10  11
ENDBRANCH   1  10
TORSDOF 12
ENDMDL
MODEL 2
REMARK VINA RESULT:    -4.434     12.896     14.894
REMARK INTER + INTRA:          -9.521
REMARK INTER:                  -7.722
REMARK INTRA:                  -1.800
REMARK UNBOUND:                -1.977
REMARK SMILES CCCCCCCCCCCCCC(=O)[O-]
REMARK SMILES IDX 8 1 9 2 10 3 11 4 12 5 13 6 14 7 15 8 16 9 7 10 6 11 5 12
REMARK SMILES IDX 4 13 3 14 2 15 1 16
REMARK H PARENT
REMARK Flexibility Score: inf
ROOT
ATOM      1  C   UNL     1      62.983  30.491  27.361  1.00  0.00     0.000 C 
ENDROOT
BRANCH   1   2
ATOM      2  C   UNL     1      64.250  30.576  26.489  1.00  0.00     0.000 C 
BRANCH   2   3
ATOM      3  C   UNL     1      65.021  29.251  26.329  1.00  0.00     0.000 C 
BRANCH   3   4
ATOM      4  C   UNL     1      66.074  29.277  25.201  1.00  0.00     0.000 C 
BRANCH   4   5
ATOM      5  C   UNL     1      65.940  28.079  24.246  1.00  0.00     0.006 C 
BRANCH   5   6
ATOM      6  C   UNL     1      65.130  26.932  24.866  1.00  0.00     0.053 C 
BRANCH   6   7
ATOM      7  C   UNL     1      64.656  25.962  23.828  1.00  0.00     0.041 C 
ATOM      8  O   UNL     1      65.393  25.674  22.848  1.00  0.00    -0.550 OA
ATOM      9  O   UNL     1      63.416  25.350  23.961  1.00  0.00    -0.550 OA
ENDBRANCH   6   7
ENDBRANCH   5   6
ENDBRANCH   4   5
ENDBRANCH   3   4
ENDBRANCH   2   3
ENDBRANCH   1   2
BRANCH   1  10
ATOM     10  C   UNL     1      63.064  29.492  28.530  1.00  0.00     0.000 C 
BRANCH  10  11
ATOM     11  C   UNL     1      61.770  28.689  28.723  1.00  0.00    -0.000 C 
BRANCH  11  12
ATOM     12  C   UNL     1      61.972  27.220  28.326  1.00  0.00    -0.000 C 
BRANCH  12  13
ATOM     13  C   UNL     1      62.063  27.035  26.800  1.00  0.00    -0.000 C 
BRANCH  13  14
ATOM     14  C   UNL     1      60.685  27.038  26.101  1.00  0.00    -0.000 C 
BRANCH  14  15
ATOM     15  C   UNL     1      60.538  28.143  25.043  1.00  0.00    -0.003 C 
ATOM     16  C   UNL     1      61.867  28.525  24.393  1.00  0.00     0.004 C 
ENDBRANCH  14  15
ENDBRANCH  13  14
ENDBRANCH  12  13
ENDBRANCH  11  12
ENDBRANCH  10  11
ENDBRANCH   1  10
TORSDOF 12
ENDMDL
MODEL 3
REMARK VINA RESULT:    -4.414     12.979     15.156
REMARK INTER + INTRA:          -9.487
REMARK INTER:                  -7.719
REMARK INTRA:                  -1.768
REMARK UNBOUND:                -1.977
REMARK SMILES CCCCCCCCCCCCCC(=O)[O-]
REMARK SMILES IDX 8 1 9 2 10 3 11 4 12 5 13 6 14 7 15 8 16 9 7 10 6 11 5 12
REMARK SMILES IDX 4 13 3 14 2 15 1 16
REMARK H PARENT
REMARK Flexibility Score: inf
ROOT
ATOM      1  C   UNL     1      60.797  27.432  25.756  1.00  0.00     0.000 C 
ENDROOT
BRANCH   1   2
ATOM      2  C   UNL     1      61.252  28.556  24.806  1.00  0.00     0.000 C 
BRANCH   2   3
ATOM      3  C   UNL     1      62.658  29.119  25.088  1.00  0.00     0.000 C 
BRANCH   3   4
ATOM      4  C   UNL     1      63.587  29.114  23.855  1.00  0.00     0.000 C 
BRANCH   4   5
ATOM      5  C   UNL     1      64.990  28.573  24.181  1.00  0.00     0.006 C 
BRANCH   5   6
ATOM      6  C   UNL     1      64.936  27.302  25.040  1.00  0.00     0.053 C 
BRANCH   6   7
ATOM      7  C   UNL     1      64.647  26.086  24.215  1.00  0.00     0.041 C 
ATOM      8  O   UNL     1      63.507  25.552  24.253  1.00  0.00    -0.550 OA
ATOM      9  O   UNL     1      65.624  25.564  23.377  1.00  0.00    -0.550 OA
ENDBRANCH   6   7
ENDBRANCH   5   6
ENDBRANCH   4   5
ENDBRANCH   3   4
ENDBRANCH   2   3
ENDBRANCH   1   2
BRANCH   1  10
ATOM     10  C   UNL     1      61.745  27.158  26.939  1.00  0.00     0.000 C 
BRANCH  10  11
ATOM     11  C   UNL     1      61.107  27.463  28.301  1.00  0.00    -0.000 C 
BRANCH  11  12
ATOM     12  C   UNL     1      61.218  28.957  28.637  1.00  0.00    -0.000 C 
BRANCH  12  13
ATOM     13  C   UNL     1      62.675  29.397  28.866  1.00  0.00    -0.000 C 
BRANCH  13  14
ATOM     14  C   UNL     1      62.977  30.815  28.327  1.00  0.00    -0.000 C 
BRANCH  14  15
ATOM     15  C   UNL     1      64.468  31.185  28.381  1.00  0.00    -0.003 C 
ATOM     16  C   UNL     1      65.328  30.327  27.454  1.00  0.00     0.004 C 
ENDBRANCH  14  15
ENDBRANCH  13  14
ENDBRANCH  12  13
ENDBRANCH  11  12
ENDBRANCH  10  11
ENDBRANCH   1  10
TORSDOF 12
ENDMDL
MODEL 4
REMARK VINA RESULT:    -4.397      0.984      1.831
REMARK INTER + INTRA:          -9.458
REMARK INTER:                  -7.770
REMARK INTRA:                  -1.688
REMARK UNBOUND:                -1.977
REMARK SMILES CCCCCCCCCCCCCC(=O)[O-]
REMARK SMILES IDX 8 1 9 2 10 3 11 4 12 5 13 6 14 7 15 8 16 9 7 10 6 11 5 12
REMARK SMILES IDX 4 13 3 14 2 15 1 16
REMARK H PARENT
REMARK Flexibility Score: inf
ROOT
ATOM      1  C   UNL     1      62.869  28.726  12.820  1.00  0.00     0.000 C 
ENDROOT
BRANCH   1   2
ATOM      2  C   UNL     1      63.869  29.886  12.981  1.00  0.00     0.000 C 
BRANCH   2   3
ATOM      3  C   UNL     1      63.893  30.893  11.815  1.00  0.00     0.000 C 
BRANCH   3   4
ATOM      4  C   UNL     1      63.557  32.339  12.237  1.00  0.00     0.000 C 
BRANCH   4   5
ATOM      5  C   UNL     1      62.638  32.391  13.470  1.00  0.00     0.006 C 
BRANCH   5   6
ATOM      6  C   UNL     1      61.192  32.748  13.100  1.00  0.00     0.053 C 
BRANCH   6   7
ATOM      7  C   UNL     1      60.301  32.775  14.304  1.00  0.00     0.041 C 
ATOM      8  O   UNL     1      59.319  31.991  14.382  1.00  0.00    -0.550 OA
ATOM      9  O   UNL     1      60.576  33.642  15.355  1.00  0.00    -0.550 OA
ENDBRANCH   6   7
ENDBRANCH   5   6
ENDBRANCH   4   5
ENDBRANCH   3   4
ENDBRANCH   2   3
ENDBRANCH   1   2
BRANCH   1  10
ATOM     10  C   UNL     1      61.467  28.991  13.400  1.00  0.00     0.000 C 
BRANCH  10  11
ATOM     11  C   UNL     1      60.424  27.964  12.938  1.00  0.00    -0.000 C 
BRANCH  11  12
ATOM     12  C   UNL     1      59.386  28.614  12.011  1.00  0.00    -0.000 C 
BRANCH  12  13
ATOM     13  C   UNL     1      59.920  29.897  11.347  1.00  0.00    -0.000 C 
BRANCH  13  14
ATOM     14  C   UNL     1      60.237  29.720   9.844  1.00  0.00    -0.000 C 
BRANCH  14  15
ATOM     15  C   UNL     1      61.155  28.522   9.551  1.00  0.00    -0.003 C 
ATOM     16  C   UNL     1      62.526  28.940   9.020  1.00  0.00     0.004 C 
ENDBRANCH  14  15
ENDBRANCH  13  14
ENDBRANCH  12  13
ENDBRANCH  11  12
ENDBRANCH  10  11
ENDBRANCH   1  10
TORSDOF 12
ENDMDL
MODEL 5
REMARK VINA RESULT:    -4.359      2.709      5.362
REMARK INTER + INTRA:          -9.394
REMARK INTER:                  -7.629
REMARK INTRA:                  -1.765
REMARK UNBOUND:                -1.977
REMARK SMILES CCCCCCCCCCCCCC(=O)[O-]
REMARK SMILES IDX 8 1 9 2 10 3 11 4 12 5 13 6 14 7 15 8 16 9 7 10 6 11 5 12
REMARK SMILES IDX 4 13 3 14 2 15 1 16
REMARK H PARENT
REMARK Flexibility Score: inf
ROOT
ATOM      1  C   UNL     1      63.413  29.239  11.745  1.00  0.00     0.000 C 
ENDROOT
BRANCH   1   2
ATOM      2  C   UNL     1      63.042  28.987  13.219  1.00  0.00     0.000 C 
BRANCH   2   3
ATOM      3  C   UNL     1      61.532  29.014  13.525  1.00  0.00     0.000 C 
BRANCH   3   4
ATOM      4  C   UNL     1      60.674  28.269  12.479  1.00  0.00     0.000 C 
BRANCH   4   5
ATOM      5  C   UNL     1      59.613  29.178  11.836  1.00  0.00     0.006 C 
BRANCH   5   6
ATOM      6  C   UNL     1      60.111  29.814  10.531  1.00  0.00     0.053 C 
BRANCH   6   7
ATOM      7  C   UNL     1      60.222  28.805   9.429  1.00  0.00     0.041 C 
ATOM      8  O   UNL     1      61.355  28.443   9.014  1.00  0.00    -0.550 OA
ATOM      9  O   UNL     1      59.076  28.240   8.883  1.00  0.00    -0.550 OA
ENDBRANCH   6   7
ENDBRANCH   5   6
ENDBRANCH   4   5
ENDBRANCH   3   4
ENDBRANCH   2   3
ENDBRANCH   1   2
BRANCH   1  10
ATOM     10  C   UNL     1      64.331  30.452  11.505  1.00  0.00     0.000 C 
BRANCH  10  11
ATOM     11  C   UNL     1      63.585  31.792  11.578  1.00  0.00    -0.000 C 
BRANCH  11  12
ATOM     12  C   UNL     1      64.053  32.616  12.787  1.00  0.00    -0.000 C 
BRANCH  12  13
ATOM     13  C   UNL     1      62.887  33.011  13.711  1.00  0.00    -0.000 C 
BRANCH  13  14
ATOM     14  C   UNL     1      61.502  32.618  13.149  1.00  0.00    -0.000 C 
BRANCH  14  15
ATOM     15  C   UNL     1      60.345  32.904  14.120  1.00  0.00    -0.003 C 
ATOM     16  C   UNL     1      60.300  31.928  15.295  1.00  0.00     0.004 C 
ENDBRANCH  14  15
ENDBRANCH  13  14
ENDBRANCH  12  13
ENDBRANCH  11  12
ENDBRANCH  10  11
ENDBRANCH   1  10
TORSDOF 12
ENDMDL
MODEL 6
REMARK VINA RESULT:    -4.350      0.983      3.056
REMARK INTER + INTRA:          -9.378
REMARK INTER:                  -7.693
REMARK INTRA:                  -1.686
REMARK UNBOUND:                -1.977
REMARK SMILES CCCCCCCCCCCCCC(=O)[O-]
REMARK SMILES IDX 8 1 9 2 10 3 11 4 12 5 13 6 14 7 15 8 16 9 7 10 6 11 5 12
REMARK SMILES IDX 4 13 3 14 2 15 1 16
REMARK H PARENT
REMARK Flexibility Score: inf
ROOT
ATOM      1  C   UNL     1      63.881  29.888  11.224  1.00  0.00     0.000 C 
ENDROOT
BRANCH   1   2
ATOM      2  C   UNL     1      63.886  31.424  11.110  1.00  0.00     0.000 C 
BRANCH   2   3
ATOM      3  C   UNL     1      64.327  32.171  12.384  1.00  0.00     0.000 C 
BRANCH   3   4
ATOM      4  C   UNL     1      63.196  32.353  13.418  1.00  0.00     0.000 C 
BRANCH   4   5
ATOM      5  C   UNL     1      61.802  32.366  12.767  1.00  0.00     0.006 C 
BRANCH   5   6
ATOM      6  C   UNL     1      60.783  33.159  13.597  1.00  0.00     0.053 C 
BRANCH   6   7
ATOM      7  C   UNL     1      60.037  32.277  14.551  1.00  0.00     0.041 C 
ATOM      8  O   UNL     1      60.513  32.032  15.690  1.00  0.00    -0.550 OA
ATOM      9  O   UNL     1      58.801  31.753  14.194  1.00  0.00    -0.550 OA
ENDBRANCH   6   7
ENDBRANCH   5   6
ENDBRANCH   4   5
ENDBRANCH   3   4
ENDBRANCH   2   3
ENDBRANCH   1   2
BRANCH   1  10
ATOM     10  C   UNL     1      63.651  29.138   9.899  1.00  0.00     0.000 C 
BRANCH  10  11
ATOM     11  C   UNL     1      62.283  29.438   9.270  1.00  0.00    -0.000 C 
BRANCH  11  12
ATOM     12  C   UNL     1      61.189  28.559   9.893  1.00  0.00    -0.000 C 
BRANCH  12  13
ATOM     13  C   UNL     1      59.991  29.386  10.396  1.00  0.00    -0.000 C 
BRANCH  13  14
ATOM     14  C   UNL     1      59.659  29.137  11.885  1.00  0.00    -0.000 C 
BRANCH  14  15
ATOM     15  C   UNL     1      60.674  28.226  12.593  1.00  0.00    -0.003 C 
ATOM     16  C   UNL     1      61.401  28.925  13.741  1.00  0.00     0.004 C 
ENDBRANCH  14  15
ENDBRANCH  13  14
ENDBRANCH  12  13
ENDBRANCH  11  12
ENDBRANCH  10  11
ENDBRANCH   1  10
TORSDOF 12
ENDMDL
MODEL 7
REMARK VINA RESULT:    -4.337      2.809      5.086
REMARK INTER + INTRA:          -9.356
REMARK INTER:                  -7.517
REMARK INTRA:                  -1.839
REMARK UNBOUND:                -1.977
REMARK SMILES CCCCCCCCCCCCCC(=O)[O-]
REMARK SMILES IDX 8 1 9 2 10 3 11 4 12 5 13 6 14 7 15 8 16 9 7 10 6 11 5 12
REMARK SMILES IDX 4 13 3 14 2 15 1 16
REMARK H PARENT
REMARK Flexibility Score: inf
ROOT
ATOM      1  C   UNL     1      59.709  29.147  12.381  1.00  0.00     0.000 C 
ENDROOT
BRANCH   1   2
ATOM      2  C   UNL     1      59.649  29.145  10.842  1.00  0.00     0.000 C 
BRANCH   2   3
ATOM      3  C   UNL     1      60.874  29.765  10.142  1.00  0.00     0.000 C 
BRANCH   3   4
ATOM      4  C   UNL     1      61.842  28.720   9.546  1.00  0.00     0.000 C 
BRANCH   4   5
ATOM      5  C   UNL     1      63.314  29.042   9.855  1.00  0.00     0.006 C 
BRANCH   5   6
ATOM      6  C   UNL     1      63.488  30.446  10.448  1.00  0.00     0.053 C 
BRANCH   6   7
ATOM      7  C   UNL     1      64.763  31.088   9.993  1.00  0.00     0.041 C 
ATOM      8  O   UNL     1      65.542  30.469   9.222  1.00  0.00    -0.550 OA
ATOM      9  O   UNL     1      65.074  32.381  10.393  1.00  0.00    -0.550 OA
ENDBRANCH   6   7
ENDBRANCH   5   6
ENDBRANCH   4   5
ENDBRANCH   3   4
ENDBRANCH   2   3
ENDBRANCH   1   2
BRANCH   1  10
ATOM     10  C   UNL     1      60.619  28.068  12.997  1.00  0.00     0.000 C 
BRANCH  10  11
ATOM     11  C   UNL     1      62.020  28.593  13.344  1.00  0.00    -0.000 C 
BRANCH  11  12
ATOM     12  C   UNL     1      61.933  29.826  14.256  1.00  0.00    -0.000 C 
BRANCH  12  13
ATOM     13  C   UNL     1      63.196  30.703  14.174  1.00  0.00    -0.000 C 
BRANCH  13  14
ATOM     14  C   UNL     1      62.896  32.170  13.790  1.00  0.00    -0.000 C 
BRANCH  14  15
ATOM     15  C   UNL     1      61.628  32.331  12.936  1.00  0.00    -0.003 C 
ATOM     16  C   UNL     1      60.550  33.166  13.624  1.00  0.00     0.004 C 
ENDBRANCH  14  15
ENDBRANCH  13  14
ENDBRANCH  12  13
ENDBRANCH  11  12
ENDBRANCH  10  11
ENDBRANCH   1  10
TORSDOF 12
ENDMDL
MODEL 8
REMARK VINA RESULT:    -4.306      1.303      2.835
REMARK INTER + INTRA:          -9.303
REMARK INTER:                  -7.639
REMARK INTRA:                  -1.664
REMARK UNBOUND:                -1.977
REMARK SMILES CCCCCCCCCCCCCC(=O)[O-]
REMARK SMILES IDX 8 1 9 2 10 3 11 4 12 5 13 6 14 7 15 8 16 9 7 10 6 11 5 12
REMARK SMILES IDX 4 13 3 14 2 15 1 16
REMARK H PARENT
REMARK Flexibility Score: inf
ROOT
ATOM      1  C   UNL     1      60.150  29.676  10.782  1.00  0.00     0.000 C 
ENDROOT
BRANCH   1   2
ATOM      2  C   UNL     1      59.643  29.119  12.125  1.00  0.00     0.000 C 
BRANCH   2   3
ATOM      3  C   UNL     1      60.635  28.202  12.866  1.00  0.00     0.000 C 
BRANCH   3   4
ATOM      4  C   UNL     1      61.811  28.960  13.518  1.00  0.00     0.000 C 
BRANCH   4   5
ATOM      5  C   UNL     1      61.357  29.862  14.678  1.00  0.00     0.006 C 
BRANCH   5   6
ATOM      6  C   UNL     1      61.696  31.339  14.431  1.00  0.00     0.053 C 
BRANCH   6   7
ATOM      7  C   UNL     1      60.550  32.074  13.806  1.00  0.00     0.041 C 
ATOM      8  O   UNL     1      60.729  32.751  12.759  1.00  0.00    -0.550 OA
ATOM      9  O   UNL     1      59.279  31.984  14.359  1.00  0.00    -0.550 OA
ENDBRANCH   6   7
ENDBRANCH   5   6
ENDBRANCH   4   5
ENDBRANCH   3   4
ENDBRANCH   2   3
ENDBRANCH   1   2
BRANCH   1  10
ATOM     10  C   UNL     1      60.370  28.621   9.681  1.00  0.00     0.000 C 
BRANCH  10  11
ATOM     11  C   UNL     1      61.746  28.733   9.010  1.00  0.00    -0.000 C 
BRANCH  11  12
ATOM     12  C   UNL     1      62.851  28.939  10.057  1.00  0.00    -0.000 C 
BRANCH  12  13
ATOM     13  C   UNL     1      64.114  29.582   9.454  1.00  0.00    -0.000 C 
BRANCH  13  14
ATOM     14  C   UNL     1      64.376  31.015   9.970  1.00  0.00    -0.000 C 
BRANCH  14  15
ATOM     15  C   UNL     1      63.753  31.291  11.348  1.00  0.00    -0.003 C 
ATOM     16  C   UNL     1      64.422  32.453  12.081  1.00  0.00     0.004 C 
ENDBRANCH  14  15
ENDBRANCH  13  14
ENDBRANCH  12  13
ENDBRANCH  11  12
ENDBRANCH  10  11
ENDBRANCH   1  10
TORSDOF 12
ENDMDL
MODEL 9
REMARK VINA RESULT:    -4.274     12.615     14.599
REMARK INTER + INTRA:          -9.249
REMARK INTER:                  -7.801
REMARK INTRA:                  -1.449
REMARK UNBOUND:                -1.977
REMARK SMILES CCCCCCCCCCCCCC(=O)[O-]
REMARK SMILES IDX 8 1 9 2 10 3 11 4 12 5 13 6 14 7 15 8 16 9 7 10 6 11 5 12
REMARK SMILES IDX 4 13 3 14 2 15 1 16
REMARK H PARENT
REMARK Flexibility Score: inf
ROOT
ATOM      1  C   UNL     1      62.864  30.510  26.801  1.00  0.00     0.000 C 
ENDROOT
BRANCH   1   2
ATOM      2  C   UNL     1      63.023  30.445  28.331  1.00  0.00     0.000 C 
BRANCH   2   3
ATOM      3  C   UNL     1      62.281  29.280  29.014  1.00  0.00     0.000 C 
BRANCH   3   4
ATOM      4  C   UNL     1      61.142  28.683  28.160  1.00  0.00     0.000 C 
BRANCH   4   5
ATOM      5  C   UNL     1      61.349  27.186  27.871  1.00  0.00     0.006 C 
BRANCH   5   6
ATOM      6  C   UNL     1      61.912  26.941  26.465  1.00  0.00     0.053 C 
BRANCH   6   7
ATOM      7  C   UNL     1      60.941  27.345  25.398  1.00  0.00     0.041 C 
ATOM      8  O   UNL     1      59.805  26.805  25.339  1.00  0.00    -0.550 OA
ATOM      9  O   UNL     1      61.277  28.343  24.492  1.00  0.00    -0.550 OA
ENDBRANCH   6   7
ENDBRANCH   5   6
ENDBRANCH   4   5
ENDBRANCH   3   4
ENDBRANCH   2   3
ENDBRANCH   1   2
BRANCH   1  10
ATOM     10  C   UNL     1      64.180  30.419  26.006  1.00  0.00     0.000 C 
BRANCH  10  11
ATOM     11  C   UNL     1      64.887  29.066  26.172  1.00  0.00    -0.000 C 
BRANCH  11  12
ATOM     12  C   UNL     1      66.010  28.904  25.137  1.00  0.00    -0.000 C 
BRANCH  12  13
ATOM     13  C   UNL     1      65.471  28.530  23.744  1.00  0.00    -0.000 C 
BRANCH  13  14
ATOM     14  C   UNL     1      65.898  27.118  23.283  1.00  0.00    -0.000 C 
BRANCH  14  15
ATOM     15  C   UNL     1      65.202  25.987  24.057  1.00  0.00    -0.003 C 
ATOM     16  C   UNL     1      63.823  25.643  23.495  1.00  0.00     0.004 C 
ENDBRANCH  14  15
ENDBRANCH  13  14
ENDBRANCH  12  13
ENDBRANCH  11  12
ENDBRANCH  10  11
ENDBRANCH   1  10
TORSDOF 12
ENDMDL
