MODEL 1
REMARK VINA RESULT:    -4.387      0.000      0.000
REMARK INTER + INTRA:          -5.585
REMARK INTER:                  -5.284
REMARK INTRA:                  -0.301
REMARK UNBOUND:                -0.301
REMARK SMILES O=c1c(O)c(-c2ccc(O)c(O)c2)oc2cc(O)cc(O)c12
REMARK SMILES IDX 5 1 3 2 2 3 1 4 22 5 20 6 19 7 17 8 16 9 15 10 14 11 6 12
REMARK SMILES IDX 7 13 8 14 9 15 13 16 11 17 10 18 12 20 4 22 21 24 18 26
REMARK H PARENT 10 19 12 21 4 23 21 25 18 27
REMARK Flexibility Score: inf
ROOT
ATOM      1  C   UNL     1      25.789  32.874  39.292  1.00  0.00     0.180 A 
ATOM      2  C   UNL     1      27.091  32.558  38.868  1.00  0.00     0.208 A 
ATOM      3  C   UNL     1      27.577  31.256  39.066  1.00  0.00     0.238 A 
ATOM      4  O   UNL     1      28.762  30.995  38.733  1.00  0.00    -0.285 OA
ATOM      5  C   UNL     1      26.748  30.280  39.671  1.00  0.00     0.111 A 
ATOM      6  C   UNL     1      27.122  28.920  39.885  1.00  0.00     0.134 A 
ATOM      7  C   UNL     1      26.272  28.076  40.610  1.00  0.00     0.093 A 
ATOM      8  C   UNL     1      25.034  28.526  41.073  1.00  0.00     0.123 A 
ATOM      9  C   UNL     1      24.634  29.836  40.817  1.00  0.00     0.094 A 
ATOM     10  C   UNL     1      25.475  30.711  40.128  1.00  0.00     0.146 A 
ATOM     11  O   UNL     1      25.061  31.954  39.915  1.00  0.00    -0.452 OA
ENDROOT
BRANCH   1  12
ATOM     12  C   UNL     1      25.199  34.217  39.094  1.00  0.00     0.025 A 
ATOM     13  C   UNL     1      24.305  34.476  38.041  1.00  0.00     0.016 A 
ATOM     14  C   UNL     1      23.743  35.746  37.888  1.00  0.00     0.051 A 
ATOM     15  C   UNL     1      24.054  36.772  38.792  1.00  0.00     0.157 A 
ATOM     16  C   UNL     1      25.491  35.241  40.010  1.00  0.00     0.062 A 
ATOM     17  C   UNL     1      24.930  36.515  39.860  1.00  0.00     0.158 A 
BRANCH  15  18
ATOM     18  O   UNL     1      23.493  38.037  38.636  1.00  0.00    -0.504 OA
ATOM     19  H   UNL     1      23.994  38.787  38.172  1.00  0.00     0.293 HD
ENDBRANCH  15  18
BRANCH  17  20
ATOM     20  O   UNL     1      25.254  37.511  40.781  1.00  0.00    -0.504 OA
ATOM     21  H   UNL     1      26.206  37.833  40.913  1.00  0.00     0.293 HD
ENDBRANCH  17  20
ENDBRANCH   1  12
BRANCH   2  22
ATOM     22  O   UNL     1      27.900  33.543  38.292  1.00  0.00    -0.502 OA
ATOM     23  H   UNL     1      28.839  33.351  37.961  1.00  0.00     0.293 HD
ENDBRANCH   2  22
BRANCH   6  24
ATOM     24  O   UNL     1      28.295  28.345  39.385  1.00  0.00    -0.507 OA
ATOM     25  H   UNL     1      28.335  27.489  38.854  1.00  0.00     0.293 HD
ENDBRANCH   6  24
BRANCH   8  26
ATOM     26  O   UNL     1      24.187  27.675  41.780  1.00  0.00    -0.508 OA
ATOM     27  H   UNL     1      23.296  27.994  42.144  1.00  0.00     0.293 HD
ENDBRANCH   8  26
TORSDOF 6
ENDMDL
MODEL 2
REMARK VINA RESULT:    -4.208      1.256      3.049
REMARK INTER + INTRA:          -5.369
REMARK INTER:                  -5.084
REMARK INTRA:                  -0.286
REMARK UNBOUND:                -0.301
REMARK SMILES O=c1c(O)c(-c2ccc(O)c(O)c2)oc2cc(O)cc(O)c12
REMARK SMILES IDX 5 1 3 2 2 3 1 4 22 5 20 6 19 7 17 8 16 9 15 10 14 11 6 12
REMARK SMILES IDX 7 13 8 14 9 15 13 16 11 17 10 18 12 20 4 22 21 24 18 26
REMARK H PARENT 10 19 12 21 4 23 21 25 18 27
REMARK Flexibility Score: inf
ROOT
ATOM      1  C   UNL     1      24.362  32.577  40.007  1.00  0.00     0.180 A 
ATOM      2  C   UNL     1      23.370  31.857  40.693  1.00  0.00     0.208 A 
ATOM      3  C   UNL     1      23.619  30.521  41.048  1.00  0.00     0.238 A 
ATOM      4  O   UNL     1      22.706  29.865  41.613  1.00  0.00    -0.285 OA
ATOM      5  C   UNL     1      24.863  29.928  40.727  1.00  0.00     0.111 A 
ATOM      6  C   UNL     1      25.239  28.595  41.073  1.00  0.00     0.134 A 
ATOM      7  C   UNL     1      26.444  28.070  40.590  1.00  0.00     0.093 A 
ATOM      8  C   UNL     1      27.316  28.851  39.828  1.00  0.00     0.123 A 
ATOM      9  C   UNL     1      26.986  30.173  39.536  1.00  0.00     0.094 A 
ATOM     10  C   UNL     1      25.775  30.713  39.973  1.00  0.00     0.146 A 
ATOM     11  O   UNL     1      25.493  31.973  39.663  1.00  0.00    -0.452 OA
ENDROOT
BRANCH   1  12
ATOM     12  C   UNL     1      24.183  33.995  39.623  1.00  0.00     0.025 A 
ATOM     13  C   UNL     1      23.822  34.360  38.314  1.00  0.00     0.016 A 
ATOM     14  C   UNL     1      23.635  35.704  37.981  1.00  0.00     0.051 A 
ATOM     15  C   UNL     1      23.792  36.703  38.952  1.00  0.00     0.157 A 
ATOM     16  C   UNL     1      24.318  34.998  40.598  1.00  0.00     0.062 A 
ATOM     17  C   UNL     1      24.132  36.345  40.268  1.00  0.00     0.158 A 
BRANCH  15  18
ATOM     18  O   UNL     1      23.607  38.042  38.617  1.00  0.00    -0.504 OA
ATOM     19  H   UNL     1      24.376  38.621  38.300  1.00  0.00     0.293 HD
ENDBRANCH  15  18
BRANCH  17  20
ATOM     20  O   UNL     1      24.288  37.314  41.260  1.00  0.00    -0.504 OA
ATOM     21  H   UNL     1      25.052  37.284  41.925  1.00  0.00     0.293 HD
ENDBRANCH  17  20
ENDBRANCH   1  12
BRANCH   2  22
ATOM     22  O   UNL     1      22.139  32.456  40.982  1.00  0.00    -0.502 OA
ATOM     23  H   UNL     1      21.444  32.639  40.268  1.00  0.00     0.293 HD
ENDBRANCH   2  22
BRANCH   6  24
ATOM     24  O   UNL     1      24.484  27.762  41.904  1.00  0.00    -0.507 OA
ATOM     25  H   UNL     1      23.625  28.031  42.360  1.00  0.00     0.293 HD
ENDBRANCH   6  24
BRANCH   8  26
ATOM     26  O   UNL     1      28.522  28.326  39.366  1.00  0.00    -0.508 OA
ATOM     27  H   UNL     1      29.414  28.670  39.701  1.00  0.00     0.293 HD
ENDBRANCH   8  26
TORSDOF 6
ENDMDL
MODEL 3
REMARK VINA RESULT:    -4.095     15.089     17.888
REMARK INTER + INTRA:          -5.233
REMARK INTER:                  -4.898
REMARK INTRA:                  -0.335
REMARK UNBOUND:                -0.301
REMARK SMILES O=c1c(O)c(-c2ccc(O)c(O)c2)oc2cc(O)cc(O)c12
REMARK SMILES IDX 5 1 3 2 2 3 1 4 22 5 20 6 19 7 17 8 16 9 15 10 14 11 6 12
REMARK SMILES IDX 7 13 8 14 9 15 13 16 11 17 10 18 12 20 4 22 21 24 18 26
REMARK H PARENT 10 19 12 21 4 23 21 25 18 27
REMARK Flexibility Score: inf
ROOT
ATOM      1  C   UNL     1      18.190  30.814  54.236  1.00  0.00     0.180 A 
ATOM      2  C   UNL     1      17.520  30.938  55.466  1.00  0.00     0.208 A 
ATOM      3  C   UNL     1      17.093  32.208  55.886  1.00  0.00     0.238 A 
ATOM      4  O   UNL     1      16.543  32.319  57.012  1.00  0.00    -0.285 OA
ATOM      5  C   UNL     1      17.326  33.336  55.063  1.00  0.00     0.111 A 
ATOM      6  C   UNL     1      16.902  34.664  55.370  1.00  0.00     0.134 A 
ATOM      7  C   UNL     1      17.300  35.724  54.547  1.00  0.00     0.093 A 
ATOM      8  C   UNL     1      18.054  35.496  53.393  1.00  0.00     0.123 A 
ATOM      9  C   UNL     1      18.422  34.196  53.053  1.00  0.00     0.094 A 
ATOM     10  C   UNL     1      18.070  33.122  53.873  1.00  0.00     0.146 A 
ATOM     11  O   UNL     1      18.451  31.901  53.519  1.00  0.00    -0.452 OA
ENDROOT
BRANCH   1  12
ATOM     12  C   UNL     1      18.646  29.506  53.715  1.00  0.00     0.025 A 
ATOM     13  C   UNL     1      17.810  28.700  52.923  1.00  0.00     0.016 A 
ATOM     14  C   UNL     1      18.272  27.480  52.424  1.00  0.00     0.051 A 
ATOM     15  C   UNL     1      19.579  27.052  52.695  1.00  0.00     0.157 A 
ATOM     16  C   UNL     1      19.962  29.084  53.968  1.00  0.00     0.062 A 
ATOM     17  C   UNL     1      20.428  27.861  53.469  1.00  0.00     0.158 A 
BRANCH  15  18
ATOM     18  O   UNL     1      20.035  25.834  52.197  1.00  0.00    -0.504 OA
ATOM     19  H   UNL     1      21.009  25.563  52.269  1.00  0.00     0.293 HD
ENDBRANCH  15  18
BRANCH  17  20
ATOM     20  O   UNL     1      21.736  27.468  53.751  1.00  0.00    -0.504 OA
ATOM     21  H   UNL     1      22.323  27.015  53.061  1.00  0.00     0.293 HD
ENDBRANCH  17  20
ENDBRANCH   1  12
BRANCH   2  22
ATOM     22  O   UNL     1      17.319  29.813  56.272  1.00  0.00    -0.502 OA
ATOM     23  H   UNL     1      17.939  29.576  57.038  1.00  0.00     0.293 HD
ENDBRANCH   2  22
BRANCH   6  24
ATOM     24  O   UNL     1      16.071  34.988  56.447  1.00  0.00    -0.507 OA
ATOM     25  H   UNL     1      16.280  34.793  57.414  1.00  0.00     0.293 HD
ENDBRANCH   6  24
BRANCH   8  26
ATOM     26  O   UNL     1      18.433  36.555  52.570  1.00  0.00    -0.508 OA
ATOM     27  H   UNL     1      19.082  36.424  51.802  1.00  0.00     0.293 HD
ENDBRANCH   8  26
TORSDOF 6
ENDMDL
MODEL 4
REMARK VINA RESULT:    -4.039      1.261      1.526
REMARK INTER + INTRA:          -5.165
REMARK INTER:                  -4.840
REMARK INTRA:                  -0.325
REMARK UNBOUND:                -0.301
REMARK SMILES O=c1c(O)c(-c2ccc(O)c(O)c2)oc2cc(O)cc(O)c12
REMARK SMILES IDX 5 1 3 2 2 3 1 4 22 5 20 6 19 7 17 8 16 9 15 10 14 11 6 12
REMARK SMILES IDX 7 13 8 14 9 15 13 16 11 17 10 18 12 20 4 22 21 24 18 26
REMARK H PARENT 10 19 12 21 4 23 21 25 18 27
REMARK Flexibility Score: inf
ROOT
ATOM      1  C   UNL     1      24.751  32.568  39.787  1.00  0.00     0.180 A 
ATOM      2  C   UNL     1      25.975  31.962  39.456  1.00  0.00     0.208 A 
ATOM      3  C   UNL     1      26.178  30.612  39.783  1.00  0.00     0.238 A 
ATOM      4  O   UNL     1      27.296  30.090  39.533  1.00  0.00    -0.285 OA
ATOM      5  C   UNL     1      25.148  29.880  40.421  1.00  0.00     0.111 A 
ATOM      6  C   UNL     1      25.230  28.496  40.762  1.00  0.00     0.134 A 
ATOM      7  C   UNL     1      24.202  27.907  41.509  1.00  0.00     0.093 A 
ATOM      8  C   UNL     1      23.066  28.636  41.871  1.00  0.00     0.123 A 
ATOM      9  C   UNL     1      22.951  29.971  41.490  1.00  0.00     0.094 A 
ATOM     10  C   UNL     1      23.975  30.595  40.777  1.00  0.00     0.146 A 
ATOM     11  O   UNL     1      23.830  31.872  40.444  1.00  0.00    -0.452 OA
ENDROOT
BRANCH   1  12
ATOM     12  C   UNL     1      24.454  33.979  39.452  1.00  0.00     0.025 A 
ATOM     13  C   UNL     1      23.977  34.346  38.182  1.00  0.00     0.016 A 
ATOM     14  C   UNL     1      23.682  35.681  37.897  1.00  0.00     0.051 A 
ATOM     15  C   UNL     1      23.845  36.668  38.879  1.00  0.00     0.157 A 
ATOM     16  C   UNL     1      24.596  34.968  40.440  1.00  0.00     0.062 A 
ATOM     17  C   UNL     1      24.301  36.307  40.157  1.00  0.00     0.158 A 
BRANCH  15  18
ATOM     18  O   UNL     1      23.551  37.999  38.590  1.00  0.00    -0.504 OA
ATOM     19  H   UNL     1      23.439  38.689  39.324  1.00  0.00     0.293 HD
ENDBRANCH  15  18
BRANCH  17  20
ATOM     20  O   UNL     1      24.467  37.263  41.159  1.00  0.00    -0.504 OA
ATOM     21  H   UNL     1      24.486  37.016  42.141  1.00  0.00     0.293 HD
ENDBRANCH  17  20
ENDBRANCH   1  12
BRANCH   2  22
ATOM     22  O   UNL     1      26.986  32.710  38.845  1.00  0.00    -0.502 OA
ATOM     23  H   UNL     1      27.238  33.640  39.157  1.00  0.00     0.293 HD
ENDBRANCH   2  22
BRANCH   6  24
ATOM     24  O   UNL     1      26.277  27.656  40.371  1.00  0.00    -0.507 OA
ATOM     25  H   UNL     1      26.259  26.649  40.429  1.00  0.00     0.293 HD
ENDBRANCH   6  24
BRANCH   8  26
ATOM     26  O   UNL     1      22.040  28.037  42.600  1.00  0.00    -0.508 OA
ATOM     27  H   UNL     1      21.086  28.021  42.258  1.00  0.00     0.293 HD
ENDBRANCH   8  26
TORSDOF 6
ENDMDL
MODEL 5
REMARK VINA RESULT:    -3.968      1.847      7.406
REMARK INTER + INTRA:          -5.081
REMARK INTER:                  -4.898
REMARK INTRA:                  -0.182
REMARK UNBOUND:                -0.301
REMARK SMILES O=c1c(O)c(-c2ccc(O)c(O)c2)oc2cc(O)cc(O)c12
REMARK SMILES IDX 5 1 3 2 2 3 1 4 22 5 20 6 19 7 17 8 16 9 15 10 14 11 6 12
REMARK SMILES IDX 7 13 8 14 9 15 13 16 11 17 10 18 12 20 4 22 21 24 18 26
REMARK H PARENT 10 19 12 21 4 23 21 25 18 27
REMARK Flexibility Score: inf
ROOT
ATOM      1  C   UNL     1      25.692  33.512  40.206  1.00  0.00     0.180 A 
ATOM      2  C   UNL     1      24.391  33.781  39.745  1.00  0.00     0.208 A 
ATOM      3  C   UNL     1      24.030  35.107  39.458  1.00  0.00     0.238 A 
ATOM      4  O   UNL     1      22.849  35.348  39.098  1.00  0.00    -0.285 OA
ATOM      5  C   UNL     1      24.979  36.146  39.621  1.00  0.00     0.111 A 
ATOM      6  C   UNL     1      24.735  37.520  39.322  1.00  0.00     0.134 A 
ATOM      7  C   UNL     1      25.703  38.479  39.643  1.00  0.00     0.093 A 
ATOM      8  C   UNL     1      26.931  38.106  40.194  1.00  0.00     0.123 A 
ATOM      9  C   UNL     1      27.202  36.761  40.433  1.00  0.00     0.094 A 
ATOM     10  C   UNL     1      26.243  35.785  40.156  1.00  0.00     0.146 A 
ATOM     11  O   UNL     1      26.537  34.515  40.410  1.00  0.00    -0.452 OA
ENDROOT
BRANCH   1  12
ATOM     12  C   UNL     1      26.153  32.138  40.505  1.00  0.00     0.025 A 
ATOM     13  C   UNL     1      26.426  31.725  41.821  1.00  0.00     0.016 A 
ATOM     14  C   UNL     1      26.837  30.416  42.080  1.00  0.00     0.051 A 
ATOM     15  C   UNL     1      26.969  29.494  41.032  1.00  0.00     0.157 A 
ATOM     16  C   UNL     1      26.266  31.205  39.460  1.00  0.00     0.062 A 
ATOM     17  C   UNL     1      26.679  29.892  39.716  1.00  0.00     0.158 A 
BRANCH  15  18
ATOM     18  O   UNL     1      27.382  28.190  41.294  1.00  0.00    -0.504 OA
ATOM     19  H   UNL     1      27.067  27.410  40.729  1.00  0.00     0.293 HD
ENDBRANCH  15  18
BRANCH  17  20
ATOM     20  O   UNL     1      26.793  28.998  38.652  1.00  0.00    -0.504 OA
ATOM     21  H   UNL     1      26.282  28.124  38.626  1.00  0.00     0.293 HD
ENDBRANCH  17  20
ENDBRANCH   1  12
BRANCH   2  22
ATOM     22  O   UNL     1      23.464  32.743  39.613  1.00  0.00    -0.502 OA
ATOM     23  H   UNL     1      22.499  32.906  39.349  1.00  0.00     0.293 HD
ENDBRANCH   2  22
BRANCH   6  24
ATOM     24  O   UNL     1      23.579  37.988  38.689  1.00  0.00    -0.507 OA
ATOM     25  H   UNL     1      22.662  38.006  39.107  1.00  0.00     0.293 HD
ENDBRANCH   6  24
BRANCH   8  26
ATOM     26  O   UNL     1      27.896  39.066  40.496  1.00  0.00    -0.508 OA
ATOM     27  H   UNL     1      27.678  39.875  41.066  1.00  0.00     0.293 HD
ENDBRANCH   8  26
TORSDOF 6
ENDMDL
MODEL 6
REMARK VINA RESULT:    -3.842      1.996      7.272
REMARK INTER + INTRA:          -4.928
REMARK INTER:                  -4.637
REMARK INTRA:                  -0.291
REMARK UNBOUND:                -0.301
REMARK SMILES O=c1c(O)c(-c2ccc(O)c(O)c2)oc2cc(O)cc(O)c12
REMARK SMILES IDX 5 1 3 2 2 3 1 4 22 5 20 6 19 7 17 8 16 9 15 10 14 11 6 12
REMARK SMILES IDX 7 13 8 14 9 15 13 16 11 17 10 18 12 20 4 22 21 24 18 26
REMARK H PARENT 10 19 12 21 4 23 21 25 18 27
REMARK Flexibility Score: inf
ROOT
ATOM      1  C   UNL     1      26.746  33.742  39.333  1.00  0.00     0.180 A 
ATOM      2  C   UNL     1      25.554  33.849  38.595  1.00  0.00     0.208 A 
ATOM      3  C   UNL     1      24.841  35.058  38.622  1.00  0.00     0.238 A 
ATOM      4  O   UNL     1      23.747  35.128  38.005  1.00  0.00    -0.285 OA
ATOM      5  C   UNL     1      25.337  36.151  39.373  1.00  0.00     0.111 A 
ATOM      6  C   UNL     1      24.718  37.435  39.440  1.00  0.00     0.134 A 
ATOM      7  C   UNL     1      25.226  38.402  40.316  1.00  0.00     0.093 A 
ATOM      8  C   UNL     1      26.368  38.151  41.081  1.00  0.00     0.123 A 
ATOM      9  C   UNL     1      27.014  36.922  40.977  1.00  0.00     0.094 A 
ATOM     10  C   UNL     1      26.511  35.925  40.138  1.00  0.00     0.146 A 
ATOM     11  O   UNL     1      27.151  34.764  40.078  1.00  0.00    -0.452 OA
ENDROOT
BRANCH   1  12
ATOM     12  C   UNL     1      27.566  32.509  39.332  1.00  0.00     0.025 A 
ATOM     13  C   UNL     1      28.737  32.408  38.561  1.00  0.00     0.016 A 
ATOM     14  C   UNL     1      29.506  31.243  38.595  1.00  0.00     0.051 A 
ATOM     15  C   UNL     1      29.127  30.166  39.410  1.00  0.00     0.157 A 
ATOM     16  C   UNL     1      27.200  31.437  40.163  1.00  0.00     0.062 A 
ATOM     17  C   UNL     1      27.969  30.267  40.199  1.00  0.00     0.158 A 
BRANCH  15  18
ATOM     18  O   UNL     1      29.895  29.005  39.440  1.00  0.00    -0.504 OA
ATOM     19  H   UNL     1      30.284  28.604  38.595  1.00  0.00     0.293 HD
ENDBRANCH  15  18
BRANCH  17  20
ATOM     20  O   UNL     1      27.567  29.218  41.026  1.00  0.00    -0.504 OA
ATOM     21  H   UNL     1      26.785  28.618  40.792  1.00  0.00     0.293 HD
ENDBRANCH  17  20
ENDBRANCH   1  12
BRANCH   2  22
ATOM     22  O   UNL     1      25.071  32.749  37.878  1.00  0.00    -0.502 OA
ATOM     23  H   UNL     1      24.555  32.849  37.012  1.00  0.00     0.293 HD
ENDBRANCH   2  22
BRANCH   6  24
ATOM     24  O   UNL     1      23.629  37.818  38.651  1.00  0.00    -0.507 OA
ATOM     25  H   UNL     1      22.672  37.847  38.968  1.00  0.00     0.293 HD
ENDBRANCH   6  24
BRANCH   8  26
ATOM     26  O   UNL     1      26.876  39.125  41.939  1.00  0.00    -0.508 OA
ATOM     27  H   UNL     1      27.644  38.927  42.571  1.00  0.00     0.293 HD
ENDBRANCH   8  26
TORSDOF 6
ENDMDL
MODEL 7
REMARK VINA RESULT:    -3.815      4.705      7.640
REMARK INTER + INTRA:          -4.896
REMARK INTER:                  -4.593
REMARK INTRA:                  -0.303
REMARK UNBOUND:                -0.301
REMARK SMILES O=c1c(O)c(-c2ccc(O)c(O)c2)oc2cc(O)cc(O)c12
REMARK SMILES IDX 5 1 3 2 2 3 1 4 22 5 20 6 19 7 17 8 16 9 15 10 14 11 6 12
REMARK SMILES IDX 7 13 8 14 9 15 13 16 11 17 10 18 12 20 4 22 21 24 18 26
REMARK H PARENT 10 19 12 21 4 23 21 25 18 27
REMARK Flexibility Score: inf
ROOT
ATOM      1  C   UNL     1      21.004  34.090  40.720  1.00  0.00     0.180 A 
ATOM      2  C   UNL     1      20.987  35.425  41.163  1.00  0.00     0.208 A 
ATOM      3  C   UNL     1      22.078  36.256  40.865  1.00  0.00     0.238 A 
ATOM      4  O   UNL     1      22.082  37.433  41.311  1.00  0.00    -0.285 OA
ATOM      5  C   UNL     1      23.165  35.749  40.112  1.00  0.00     0.111 A 
ATOM      6  C   UNL     1      24.304  36.513  39.718  1.00  0.00     0.134 A 
ATOM      7  C   UNL     1      25.379  35.875  39.087  1.00  0.00     0.093 A 
ATOM      8  C   UNL     1      25.328  34.513  38.780  1.00  0.00     0.123 A 
ATOM      9  C   UNL     1      24.195  33.772  39.107  1.00  0.00     0.094 A 
ATOM     10  C   UNL     1      23.122  34.372  39.769  1.00  0.00     0.146 A 
ATOM     11  O   UNL     1      22.067  33.627  40.073  1.00  0.00    -0.452 OA
ENDROOT
BRANCH   1  12
ATOM     12  C   UNL     1      19.880  33.162  40.974  1.00  0.00     0.025 A 
ATOM     13  C   UNL     1      19.898  32.268  42.059  1.00  0.00     0.016 A 
ATOM     14  C   UNL     1      18.815  31.418  42.292  1.00  0.00     0.051 A 
ATOM     15  C   UNL     1      17.691  31.455  41.454  1.00  0.00     0.157 A 
ATOM     16  C   UNL     1      18.744  33.211  40.149  1.00  0.00     0.062 A 
ATOM     17  C   UNL     1      17.656  32.359  40.379  1.00  0.00     0.158 A 
BRANCH  15  18
ATOM     18  O   UNL     1      16.614  30.604  41.688  1.00  0.00    -0.504 OA
ATOM     19  H   UNL     1      15.721  30.956  42.015  1.00  0.00     0.293 HD
ENDBRANCH  15  18
BRANCH  17  20
ATOM     20  O   UNL     1      16.551  32.427  39.531  1.00  0.00    -0.504 OA
ATOM     21  H   UNL     1      16.234  33.302  39.129  1.00  0.00     0.293 HD
ENDBRANCH  17  20
ENDBRANCH   1  12
BRANCH   2  22
ATOM     22  O   UNL     1      19.914  35.898  41.924  1.00  0.00    -0.502 OA
ATOM     23  H   UNL     1      19.433  36.764  41.706  1.00  0.00     0.293 HD
ENDBRANCH   2  22
BRANCH   6  24
ATOM     24  O   UNL     1      24.416  37.895  39.895  1.00  0.00    -0.507 OA
ATOM     25  H   UNL     1      25.084  38.345  40.502  1.00  0.00     0.293 HD
ENDBRANCH   6  24
BRANCH   8  26
ATOM     26  O   UNL     1      26.396  33.889  38.137  1.00  0.00    -0.508 OA
ATOM     27  H   UNL     1      27.091  34.421  37.626  1.00  0.00     0.293 HD
ENDBRANCH   8  26
TORSDOF 6
ENDMDL
MODEL 8
REMARK VINA RESULT:    -3.805     15.643     17.243
REMARK INTER + INTRA:          -4.884
REMARK INTER:                  -4.614
REMARK INTRA:                  -0.270
REMARK UNBOUND:                -0.301
REMARK SMILES O=c1c(O)c(-c2ccc(O)c(O)c2)oc2cc(O)cc(O)c12
REMARK SMILES IDX 5 1 3 2 2 3 1 4 22 5 20 6 19 7 17 8 16 9 15 10 14 11 6 12
REMARK SMILES IDX 7 13 8 14 9 15 13 16 11 17 10 18 12 20 4 22 21 24 18 26
REMARK H PARENT 10 19 12 21 4 23 21 25 18 27
REMARK Flexibility Score: inf
ROOT
ATOM      1  C   UNL     1      17.352  31.268  54.566  1.00  0.00     0.180 A 
ATOM      2  C   UNL     1      16.337  30.776  53.727  1.00  0.00     0.208 A 
ATOM      3  C   UNL     1      16.576  29.613  52.978  1.00  0.00     0.238 A 
ATOM      4  O   UNL     1      15.684  29.209  52.187  1.00  0.00    -0.285 OA
ATOM      5  C   UNL     1      17.821  28.948  53.089  1.00  0.00     0.111 A 
ATOM      6  C   UNL     1      18.157  27.740  52.407  1.00  0.00     0.134 A 
ATOM      7  C   UNL     1      19.462  27.240  52.491  1.00  0.00     0.093 A 
ATOM      8  C   UNL     1      20.425  27.870  53.283  1.00  0.00     0.123 A 
ATOM      9  C   UNL     1      20.089  29.016  54.000  1.00  0.00     0.094 A 
ATOM     10  C   UNL     1      18.806  29.558  53.908  1.00  0.00     0.146 A 
ATOM     11  O   UNL     1      18.531  30.658  54.599  1.00  0.00    -0.452 OA
ENDROOT
BRANCH   1  12
ATOM     12  C   UNL     1      17.165  32.473  55.406  1.00  0.00     0.025 A 
ATOM     13  C   UNL     1      16.961  32.375  56.793  1.00  0.00     0.016 A 
ATOM     14  C   UNL     1      16.810  33.527  57.568  1.00  0.00     0.051 A 
ATOM     15  C   UNL     1      16.875  34.795  56.973  1.00  0.00     0.157 A 
ATOM     16  C   UNL     1      17.250  33.746  54.816  1.00  0.00     0.062 A 
ATOM     17  C   UNL     1      17.099  34.902  55.590  1.00  0.00     0.158 A 
BRANCH  15  18
ATOM     18  O   UNL     1      16.722  35.942  57.748  1.00  0.00    -0.504 OA
ATOM     19  H   UNL     1      15.978  36.607  57.572  1.00  0.00     0.293 HD
ENDBRANCH  15  18
BRANCH  17  20
ATOM     20  O   UNL     1      17.176  36.149  54.968  1.00  0.00    -0.504 OA
ATOM     21  H   UNL     1      16.352  36.636  54.635  1.00  0.00     0.293 HD
ENDBRANCH  17  20
ENDBRANCH   1  12
BRANCH   2  22
ATOM     22  O   UNL     1      15.124  31.462  53.616  1.00  0.00    -0.502 OA
ATOM     23  H   UNL     1      14.772  31.804  52.729  1.00  0.00     0.293 HD
ENDBRANCH   2  22
BRANCH   6  24
ATOM     24  O   UNL     1      17.246  26.983  51.664  1.00  0.00    -0.507 OA
ATOM     25  H   UNL     1      16.623  27.358  50.965  1.00  0.00     0.293 HD
ENDBRANCH   6  24
BRANCH   8  26
ATOM     26  O   UNL     1      21.718  27.357  53.373  1.00  0.00    -0.508 OA
ATOM     27  H   UNL     1      22.371  27.425  52.601  1.00  0.00     0.293 HD
ENDBRANCH   8  26
TORSDOF 6
ENDMDL
MODEL 9
REMARK VINA RESULT:    -3.775      1.862      3.776
REMARK INTER + INTRA:          -4.848
REMARK INTER:                  -4.690
REMARK INTRA:                  -0.158
REMARK UNBOUND:                -0.301
REMARK SMILES O=c1c(O)c(-c2ccc(O)c(O)c2)oc2cc(O)cc(O)c12
REMARK SMILES IDX 5 1 3 2 2 3 1 4 22 5 20 6 19 7 17 8 16 9 15 10 14 11 6 12
REMARK SMILES IDX 7 13 8 14 9 15 13 16 11 17 10 18 12 20 4 22 21 24 18 26
REMARK H PARENT 10 19 12 21 4 23 21 25 18 27
REMARK Flexibility Score: inf
ROOT
ATOM      1  C   UNL     1      25.394  33.593  40.231  1.00  0.00     0.180 A 
ATOM      2  C   UNL     1      24.947  32.261  40.256  1.00  0.00     0.208 A 
ATOM      3  C   UNL     1      25.865  31.228  40.009  1.00  0.00     0.238 A 
ATOM      4  O   UNL     1      25.447  30.041  39.978  1.00  0.00    -0.285 OA
ATOM      5  C   UNL     1      27.223  31.539  39.757  1.00  0.00     0.111 A 
ATOM      6  C   UNL     1      28.248  30.571  39.534  1.00  0.00     0.134 A 
ATOM      7  C   UNL     1      29.531  30.995  39.167  1.00  0.00     0.093 A 
ATOM      8  C   UNL     1      29.841  32.355  39.077  1.00  0.00     0.123 A 
ATOM      9  C   UNL     1      28.863  33.307  39.351  1.00  0.00     0.094 A 
ATOM     10  C   UNL     1      27.565  32.914  39.686  1.00  0.00     0.146 A 
ATOM     11  O   UNL     1      26.660  33.855  39.928  1.00  0.00    -0.452 OA
ENDROOT
BRANCH   1  12
ATOM     12  C   UNL     1      24.491  34.733  40.507  1.00  0.00     0.025 A 
ATOM     13  C   UNL     1      23.838  34.868  41.745  1.00  0.00     0.016 A 
ATOM     14  C   UNL     1      23.009  35.965  41.990  1.00  0.00     0.051 A 
ATOM     15  C   UNL     1      22.829  36.950  41.010  1.00  0.00     0.157 A 
ATOM     16  C   UNL     1      24.325  35.733  39.535  1.00  0.00     0.062 A 
ATOM     17  C   UNL     1      23.494  36.834  39.778  1.00  0.00     0.158 A 
BRANCH  15  18
ATOM     18  O   UNL     1      22.000  38.042  41.257  1.00  0.00    -0.504 OA
ATOM     19  H   UNL     1      21.863  38.403  42.194  1.00  0.00     0.293 HD
ENDBRANCH  15  18
BRANCH  17  20
ATOM     20  O   UNL     1      23.343  37.800  38.783  1.00  0.00    -0.504 OA
ATOM     21  H   UNL     1      23.746  38.726  38.867  1.00  0.00     0.293 HD
ENDBRANCH  17  20
ENDBRANCH   1  12
BRANCH   2  22
ATOM     22  O   UNL     1      23.596  31.977  40.485  1.00  0.00    -0.502 OA
ATOM     23  H   UNL     1      23.247  31.692  41.392  1.00  0.00     0.293 HD
ENDBRANCH   2  22
BRANCH   6  24
ATOM     24  O   UNL     1      28.067  29.193  39.688  1.00  0.00    -0.507 OA
ATOM     25  H   UNL     1      27.344  28.654  39.236  1.00  0.00     0.293 HD
ENDBRANCH   6  24
BRANCH   8  26
ATOM     26  O   UNL     1      31.125  32.769  38.726  1.00  0.00    -0.508 OA
ATOM     27  H   UNL     1      31.303  33.700  38.369  1.00  0.00     0.293 HD
ENDBRANCH   8  26
TORSDOF 6
ENDMDL
