MODEL 1
REMARK VINA RESULT:    -7.692      0.000      0.000
REMARK INTER + INTRA:          -9.875
REMARK INTER:                  -9.490
REMARK INTRA:                  -0.384
REMARK UNBOUND:                -0.384
REMARK SMILES Oc1cc(O)c2cc(O)c(-c3cc(O)c(O)c(O)c3)[o+]c2c1
REMARK SMILES IDX 10 1 20 2 21 3 22 4 2 5 3 6 4 7 6 8 7 9 8 10 11 11 12 12
REMARK SMILES IDX 13 13 19 14 15 15 17 16 14 17 16 19 18 21 9 23 1 25 5 27
REMARK H PARENT 14 18 16 20 18 22 9 24 1 26 5 28
REMARK Flexibility Score: inf
ROOT
ATOM      1  C   UNL     1     -13.503 -30.137 -12.799  1.00  0.00     0.402 A 
ATOM      2  O   UNL     1     -13.407 -29.199 -13.738  1.00  0.00    -0.202 OA
ATOM      3  C   UNL     1     -13.676 -27.916 -13.518  1.00  0.00     0.368 A 
ATOM      4  C   UNL     1     -13.542 -27.003 -14.568  1.00  0.00     0.162 A 
ATOM      5  C   UNL     1     -13.816 -25.650 -14.367  1.00  0.00     0.128 A 
ATOM      6  C   UNL     1     -14.225 -25.203 -13.105  1.00  0.00     0.093 A 
ATOM      7  C   UNL     1     -14.366 -26.096 -12.036  1.00  0.00     0.136 A 
ATOM      8  C   UNL     1     -14.092 -27.474 -12.239  1.00  0.00     0.125 A 
ATOM      9  C   UNL     1     -14.219 -28.443 -11.230  1.00  0.00     0.078 A 
ATOM     10  C   UNL     1     -13.936 -29.784 -11.506  1.00  0.00     0.223 A 
ENDROOT
BRANCH   1  11
ATOM     11  C   UNL     1     -13.166 -31.531 -13.165  1.00  0.00     0.091 A 
ATOM     12  C   UNL     1     -14.156 -32.358 -13.714  1.00  0.00     0.068 A 
ATOM     13  C   UNL     1     -13.868 -33.675 -14.090  1.00  0.00     0.162 A 
ATOM     14  C   UNL     1     -11.861 -32.028 -13.027  1.00  0.00     0.068 A 
ATOM     15  C   UNL     1     -12.554 -34.177 -13.927  1.00  0.00     0.200 A 
ATOM     16  C   UNL     1     -11.558 -33.343 -13.399  1.00  0.00     0.162 A 
BRANCH  13  17
ATOM     17  O   UNL     1     -14.907 -34.443 -14.619  1.00  0.00    -0.504 OA
ATOM     18  H   UNL     1     -14.774 -35.214 -15.258  1.00  0.00     0.293 HD
ENDBRANCH  13  17
BRANCH  15  19
ATOM     19  O   UNL     1     -12.200 -35.482 -14.275  1.00  0.00    -0.502 OA
ATOM     20  H   UNL     1     -12.358 -35.888 -15.185  1.00  0.00     0.293 HD
ENDBRANCH  15  19
BRANCH  16  21
ATOM     21  O   UNL     1     -10.260 -33.831 -13.252  1.00  0.00    -0.504 OA
ATOM     22  H   UNL     1      -9.457 -33.213 -13.249  1.00  0.00     0.293 HD
ENDBRANCH  16  21
ENDBRANCH   1  11
BRANCH  10  23
ATOM     23  O   UNL     1     -14.109 -30.754 -10.519  1.00  0.00    -0.500 OA
ATOM     24  H   UNL     1     -13.380 -30.968  -9.850  1.00  0.00     0.294 HD
ENDBRANCH  10  23
BRANCH   5  25
ATOM     25  O   UNL     1     -13.676 -24.757 -15.426  1.00  0.00    -0.507 OA
ATOM     26  H   UNL     1     -14.435 -24.581 -16.075  1.00  0.00     0.293 HD
ENDBRANCH   5  25
BRANCH   7  27
ATOM     27  O   UNL     1     -14.776 -25.571 -10.807  1.00  0.00    -0.507 OA
ATOM     28  H   UNL     1     -14.152 -25.342 -10.049  1.00  0.00     0.293 HD
ENDBRANCH   7  27
TORSDOF 7
ENDMDL
MODEL 2
REMARK VINA RESULT:    -7.322      1.562      7.045
REMARK INTER + INTRA:          -9.419
REMARK INTER:                  -9.205
REMARK INTRA:                  -0.214
REMARK UNBOUND:                -0.384
REMARK SMILES Oc1cc(O)c2cc(O)c(-c3cc(O)c(O)c(O)c3)[o+]c2c1
REMARK SMILES IDX 10 1 20 2 21 3 22 4 2 5 3 6 4 7 6 8 7 9 8 10 11 11 12 12
REMARK SMILES IDX 13 13 19 14 15 15 17 16 14 17 16 19 18 21 9 23 1 25 5 27
REMARK H PARENT 14 18 16 20 18 22 9 24 1 26 5 28
REMARK Flexibility Score: inf
ROOT
ATOM      1  C   UNL     1     -13.599 -29.876 -12.329  1.00  0.00     0.402 A 
ATOM      2  O   UNL     1     -14.282 -30.722 -13.096  1.00  0.00    -0.202 OA
ATOM      3  C   UNL     1     -14.177 -32.043 -12.998  1.00  0.00     0.368 A 
ATOM      4  C   UNL     1     -14.940 -32.851 -13.847  1.00  0.00     0.162 A 
ATOM      5  C   UNL     1     -14.852 -34.241 -13.765  1.00  0.00     0.128 A 
ATOM      6  C   UNL     1     -13.996 -34.831 -12.828  1.00  0.00     0.093 A 
ATOM      7  C   UNL     1     -13.222 -34.045 -11.966  1.00  0.00     0.136 A 
ATOM      8  C   UNL     1     -13.307 -32.630 -12.048  1.00  0.00     0.125 A 
ATOM      9  C   UNL     1     -12.559 -31.763 -11.234  1.00  0.00     0.078 A 
ATOM     10  C   UNL     1     -12.692 -30.379 -11.376  1.00  0.00     0.223 A 
ENDROOT
BRANCH   1  11
ATOM     11  C   UNL     1     -13.811 -28.424 -12.527  1.00  0.00     0.091 A 
ATOM     12  C   UNL     1     -13.583 -27.860 -13.790  1.00  0.00     0.068 A 
ATOM     13  C   UNL     1     -13.792 -26.495 -14.018  1.00  0.00     0.162 A 
ATOM     14  C   UNL     1     -14.289 -27.607 -11.491  1.00  0.00     0.068 A 
ATOM     15  C   UNL     1     -14.254 -25.673 -12.962  1.00  0.00     0.200 A 
ATOM     16  C   UNL     1     -14.504 -26.241 -11.704  1.00  0.00     0.162 A 
BRANCH  13  17
ATOM     17  O   UNL     1     -13.533 -26.002 -15.299  1.00  0.00    -0.504 OA
ATOM     18  H   UNL     1     -13.607 -26.552 -16.143  1.00  0.00     0.293 HD
ENDBRANCH  13  17
BRANCH  15  19
ATOM     19  O   UNL     1     -14.476 -24.303 -13.119  1.00  0.00    -0.502 OA
ATOM     20  H   UNL     1     -15.257 -23.911 -13.624  1.00  0.00     0.293 HD
ENDBRANCH  15  19
BRANCH  16  21
ATOM     21  O   UNL     1     -14.973 -25.435 -10.668  1.00  0.00    -0.504 OA
ATOM     22  H   UNL     1     -14.592 -24.510 -10.499  1.00  0.00     0.293 HD
ENDBRANCH  16  21
ENDBRANCH   1  11
BRANCH  10  23
ATOM     23  O   UNL     1     -11.914 -29.518 -10.603  1.00  0.00    -0.500 OA
ATOM     24  H   UNL     1     -10.991 -29.225 -10.900  1.00  0.00     0.294 HD
ENDBRANCH  10  23
BRANCH   5  25
ATOM     25  O   UNL     1     -15.620 -35.028 -14.620  1.00  0.00    -0.507 OA
ATOM     26  H   UNL     1     -15.636 -36.038 -14.540  1.00  0.00     0.293 HD
ENDBRANCH   5  25
BRANCH   7  27
ATOM     27  O   UNL     1     -12.395 -34.709 -11.056  1.00  0.00    -0.507 OA
ATOM     28  H   UNL     1     -11.776 -35.468 -11.296  1.00  0.00     0.293 HD
ENDBRANCH   7  27
TORSDOF 7
ENDMDL
MODEL 3
REMARK VINA RESULT:    -7.296      1.556      7.055
REMARK INTER + INTRA:          -9.387
REMARK INTER:                  -9.146
REMARK INTRA:                  -0.241
REMARK UNBOUND:                -0.384
REMARK SMILES Oc1cc(O)c2cc(O)c(-c3cc(O)c(O)c(O)c3)[o+]c2c1
REMARK SMILES IDX 10 1 20 2 21 3 22 4 2 5 3 6 4 7 6 8 7 9 8 10 11 11 12 12
REMARK SMILES IDX 13 13 19 14 15 15 17 16 14 17 16 19 18 21 9 23 1 25 5 27
REMARK H PARENT 14 18 16 20 18 22 9 24 1 26 5 28
REMARK Flexibility Score: inf
ROOT
ATOM      1  C   UNL     1     -13.575 -29.785 -12.417  1.00  0.00     0.402 A 
ATOM      2  O   UNL     1     -14.315 -30.655 -13.096  1.00  0.00    -0.202 OA
ATOM      3  C   UNL     1     -14.205 -31.973 -12.959  1.00  0.00     0.368 A 
ATOM      4  C   UNL     1     -15.032 -32.808 -13.715  1.00  0.00     0.162 A 
ATOM      5  C   UNL     1     -14.938 -34.194 -13.589  1.00  0.00     0.128 A 
ATOM      6  C   UNL     1     -14.013 -34.753 -12.700  1.00  0.00     0.093 A 
ATOM      7  C   UNL     1     -13.174 -33.938 -11.930  1.00  0.00     0.136 A 
ATOM      8  C   UNL     1     -13.264 -32.528 -12.057  1.00  0.00     0.125 A 
ATOM      9  C   UNL     1     -12.454 -31.634 -11.337  1.00  0.00     0.078 A 
ATOM     10  C   UNL     1     -12.597 -30.255 -11.519  1.00  0.00     0.223 A 
ENDROOT
BRANCH   1  11
ATOM     11  C   UNL     1     -13.799 -28.340 -12.651  1.00  0.00     0.091 A 
ATOM     12  C   UNL     1     -14.280 -27.538 -11.607  1.00  0.00     0.068 A 
ATOM     13  C   UNL     1     -14.484 -26.165 -11.787  1.00  0.00     0.162 A 
ATOM     14  C   UNL     1     -13.487 -27.742 -13.882  1.00  0.00     0.068 A 
ATOM     15  C   UNL     1     -14.188 -25.573 -13.038  1.00  0.00     0.200 A 
ATOM     16  C   UNL     1     -13.686 -26.370 -14.077  1.00  0.00     0.162 A 
BRANCH  13  17
ATOM     17  O   UNL     1     -14.976 -25.434 -10.703  1.00  0.00    -0.504 OA
ATOM     18  H   UNL     1     -15.365 -25.849  -9.869  1.00  0.00     0.293 HD
ENDBRANCH  13  17
BRANCH  15  19
ATOM     19  O   UNL     1     -14.375 -24.212 -13.287  1.00  0.00    -0.502 OA
ATOM     20  H   UNL     1     -14.575 -23.528 -12.572  1.00  0.00     0.293 HD
ENDBRANCH  15  19
BRANCH  16  21
ATOM     21  O   UNL     1     -13.380 -25.785 -15.304  1.00  0.00    -0.504 OA
ATOM     22  H   UNL     1     -12.421 -25.645 -15.602  1.00  0.00     0.293 HD
ENDBRANCH  16  21
ENDBRANCH   1  11
BRANCH  10  23
ATOM     23  O   UNL     1     -11.759 -29.369 -10.841  1.00  0.00    -0.500 OA
ATOM     24  H   UNL     1     -11.746 -28.380 -11.057  1.00  0.00     0.294 HD
ENDBRANCH  10  23
BRANCH   5  25
ATOM     25  O   UNL     1     -15.771 -35.010 -14.352  1.00  0.00    -0.507 OA
ATOM     26  H   UNL     1     -15.671 -35.077 -15.358  1.00  0.00     0.293 HD
ENDBRANCH   5  25
BRANCH   7  27
ATOM     27  O   UNL     1     -12.279 -34.572 -11.063  1.00  0.00    -0.507 OA
ATOM     28  H   UNL     1     -12.323 -35.547 -10.811  1.00  0.00     0.293 HD
ENDBRANCH   7  27
TORSDOF 7
ENDMDL
MODEL 4
REMARK VINA RESULT:    -7.205      2.240      7.227
REMARK INTER + INTRA:          -9.274
REMARK INTER:                  -9.129
REMARK INTRA:                  -0.146
REMARK UNBOUND:                -0.384
REMARK SMILES Oc1cc(O)c2cc(O)c(-c3cc(O)c(O)c(O)c3)[o+]c2c1
REMARK SMILES IDX 10 1 20 2 21 3 22 4 2 5 3 6 4 7 6 8 7 9 8 10 11 11 12 12
REMARK SMILES IDX 13 13 19 14 15 15 17 16 14 17 16 19 18 21 9 23 1 25 5 27
REMARK H PARENT 14 18 16 20 18 22 9 24 1 26 5 28
REMARK Flexibility Score: inf
ROOT
ATOM      1  C   UNL     1     -13.466 -29.838 -12.119  1.00  0.00     0.402 A 
ATOM      2  O   UNL     1     -12.669 -30.079 -11.082  1.00  0.00    -0.202 OA
ATOM      3  C   UNL     1     -12.327 -31.303 -10.693  1.00  0.00     0.368 A 
ATOM      4  C   UNL     1     -11.479 -31.455  -9.592  1.00  0.00     0.162 A 
ATOM      5  C   UNL     1     -11.102 -32.727  -9.162  1.00  0.00     0.128 A 
ATOM      6  C   UNL     1     -11.574 -33.859  -9.837  1.00  0.00     0.093 A 
ATOM      7  C   UNL     1     -12.423 -33.734 -10.943  1.00  0.00     0.136 A 
ATOM      8  C   UNL     1     -12.811 -32.441 -11.382  1.00  0.00     0.125 A 
ATOM      9  C   UNL     1     -13.669 -32.220 -12.472  1.00  0.00     0.078 A 
ATOM     10  C   UNL     1     -14.011 -30.916 -12.842  1.00  0.00     0.223 A 
ENDROOT
BRANCH   1  11
ATOM     11  C   UNL     1     -13.765 -28.429 -12.461  1.00  0.00     0.091 A 
ATOM     12  C   UNL     1     -14.226 -27.560 -11.462  1.00  0.00     0.068 A 
ATOM     13  C   UNL     1     -14.499 -26.217 -11.744  1.00  0.00     0.162 A 
ATOM     14  C   UNL     1     -13.542 -27.926 -13.752  1.00  0.00     0.068 A 
ATOM     15  C   UNL     1     -14.293 -25.723 -13.055  1.00  0.00     0.200 A 
ATOM     16  C   UNL     1     -13.810 -26.585 -14.049  1.00  0.00     0.162 A 
BRANCH  13  17
ATOM     17  O   UNL     1     -14.967 -25.415 -10.701  1.00  0.00    -0.504 OA
ATOM     18  H   UNL     1     -15.206 -24.438 -10.800  1.00  0.00     0.293 HD
ENDBRANCH  13  17
BRANCH  15  19
ATOM     19  O   UNL     1     -14.552 -24.396 -13.406  1.00  0.00    -0.502 OA
ATOM     20  H   UNL     1     -14.124 -23.923 -14.188  1.00  0.00     0.293 HD
ENDBRANCH  15  19
BRANCH  16  21
ATOM     21  O   UNL     1     -13.593 -26.096 -15.337  1.00  0.00    -0.504 OA
ATOM     22  H   UNL     1     -13.081 -26.630 -16.029  1.00  0.00     0.293 HD
ENDBRANCH  16  21
ENDBRANCH   1  11
BRANCH  10  23
ATOM     23  O   UNL     1     -14.902 -30.698 -13.893  1.00  0.00    -0.500 OA
ATOM     24  H   UNL     1     -15.507 -29.886 -13.917  1.00  0.00     0.294 HD
ENDBRANCH  10  23
BRANCH   5  25
ATOM     25  O   UNL     1     -10.257 -32.858  -8.062  1.00  0.00    -0.507 OA
ATOM     26  H   UNL     1      -9.623 -33.643  -7.971  1.00  0.00     0.293 HD
ENDBRANCH   5  25
BRANCH   7  27
ATOM     27  O   UNL     1     -12.848 -34.911 -11.566  1.00  0.00    -0.507 OA
ATOM     28  H   UNL     1     -12.310 -35.421 -12.250  1.00  0.00     0.293 HD
ENDBRANCH   7  27
TORSDOF 7
ENDMDL
MODEL 5
REMARK VINA RESULT:    -7.093      2.373      7.189
REMARK INTER + INTRA:          -9.136
REMARK INTER:                  -9.072
REMARK INTRA:                  -0.064
REMARK UNBOUND:                -0.384
REMARK SMILES Oc1cc(O)c2cc(O)c(-c3cc(O)c(O)c(O)c3)[o+]c2c1
REMARK SMILES IDX 10 1 20 2 21 3 22 4 2 5 3 6 4 7 6 8 7 9 8 10 11 11 12 12
REMARK SMILES IDX 13 13 19 14 15 15 17 16 14 17 16 19 18 21 9 23 1 25 5 27
REMARK H PARENT 14 18 16 20 18 22 9 24 1 26 5 28
REMARK Flexibility Score: inf
ROOT
ATOM      1  C   UNL     1     -13.402 -30.078 -12.043  1.00  0.00     0.402 A 
ATOM      2  O   UNL     1     -12.589 -30.287 -11.011  1.00  0.00    -0.202 OA
ATOM      3  C   UNL     1     -12.254 -31.499 -10.579  1.00  0.00     0.368 A 
ATOM      4  C   UNL     1     -11.389 -31.617  -9.488  1.00  0.00     0.162 A 
ATOM      5  C   UNL     1     -11.019 -32.876  -9.015  1.00  0.00     0.128 A 
ATOM      6  C   UNL     1     -11.515 -34.028  -9.636  1.00  0.00     0.093 A 
ATOM      7  C   UNL     1     -12.383 -33.937 -10.731  1.00  0.00     0.136 A 
ATOM      8  C   UNL     1     -12.764 -32.658 -11.214  1.00  0.00     0.125 A 
ATOM      9  C   UNL     1     -13.639 -32.470 -12.297  1.00  0.00     0.078 A 
ATOM     10  C   UNL     1     -13.973 -31.177 -12.712  1.00  0.00     0.223 A 
ENDROOT
BRANCH   1  11
ATOM     11  C   UNL     1     -13.691 -28.680 -12.435  1.00  0.00     0.091 A 
ATOM     12  C   UNL     1     -13.556 -28.297 -13.776  1.00  0.00     0.068 A 
ATOM     13  C   UNL     1     -13.841 -26.990 -14.186  1.00  0.00     0.162 A 
ATOM     14  C   UNL     1     -14.154 -27.740 -11.501  1.00  0.00     0.068 A 
ATOM     15  C   UNL     1     -14.286 -26.041 -13.234  1.00  0.00     0.200 A 
ATOM     16  C   UNL     1     -14.443 -26.428 -11.896  1.00  0.00     0.162 A 
BRANCH  13  17
ATOM     17  O   UNL     1     -13.672 -26.680 -15.537  1.00  0.00    -0.504 OA
ATOM     18  H   UNL     1     -13.102 -25.918 -15.877  1.00  0.00     0.293 HD
ENDBRANCH  13  17
BRANCH  15  19
ATOM     19  O   UNL     1     -14.581 -24.719 -13.574  1.00  0.00    -0.502 OA
ATOM     20  H   UNL     1     -14.802 -24.410 -14.509  1.00  0.00     0.293 HD
ENDBRANCH  15  19
BRANCH  16  21
ATOM     21  O   UNL     1     -14.896 -25.499 -10.961  1.00  0.00    -0.504 OA
ATOM     22  H   UNL     1     -15.774 -25.007 -11.082  1.00  0.00     0.293 HD
ENDBRANCH  16  21
ENDBRANCH   1  11
BRANCH  10  23
ATOM     23  O   UNL     1     -14.880 -30.990 -13.755  1.00  0.00    -0.500 OA
ATOM     24  H   UNL     1     -14.749 -30.266 -14.451  1.00  0.00     0.294 HD
ENDBRANCH  10  23
BRANCH   5  25
ATOM     25  O   UNL     1     -10.155 -32.973  -7.926  1.00  0.00    -0.507 OA
ATOM     26  H   UNL     1      -9.304 -32.425  -7.874  1.00  0.00     0.293 HD
ENDBRANCH   5  25
BRANCH   7  27
ATOM     27  O   UNL     1     -12.832 -35.132 -11.299  1.00  0.00    -0.507 OA
ATOM     28  H   UNL     1     -13.802 -35.362 -11.453  1.00  0.00     0.293 HD
ENDBRANCH   7  27
TORSDOF 7
ENDMDL
MODEL 6
REMARK VINA RESULT:    -6.791      2.051      3.266
REMARK INTER + INTRA:          -8.764
REMARK INTER:                  -8.563
REMARK INTRA:                  -0.201
REMARK UNBOUND:                -0.384
REMARK SMILES Oc1cc(O)c2cc(O)c(-c3cc(O)c(O)c(O)c3)[o+]c2c1
REMARK SMILES IDX 10 1 20 2 21 3 22 4 2 5 3 6 4 7 6 8 7 9 8 10 11 11 12 12
REMARK SMILES IDX 13 13 19 14 15 15 17 16 14 17 16 19 18 21 9 23 1 25 5 27
REMARK H PARENT 14 18 16 20 18 22 9 24 1 26 5 28
REMARK Flexibility Score: inf
ROOT
ATOM      1  C   UNL     1     -13.459 -31.977 -12.558  1.00  0.00     0.402 A 
ATOM      2  O   UNL     1     -14.284 -30.939 -12.657  1.00  0.00    -0.202 OA
ATOM      3  C   UNL     1     -13.924 -29.690 -12.380  1.00  0.00     0.368 A 
ATOM      4  C   UNL     1     -14.862 -28.663 -12.518  1.00  0.00     0.162 A 
ATOM      5  C   UNL     1     -14.510 -27.343 -12.237  1.00  0.00     0.128 A 
ATOM      6  C   UNL     1     -13.210 -27.043 -11.816  1.00  0.00     0.093 A 
ATOM      7  C   UNL     1     -12.251 -28.052 -11.670  1.00  0.00     0.136 A 
ATOM      8  C   UNL     1     -12.605 -29.397 -11.953  1.00  0.00     0.125 A 
ATOM      9  C   UNL     1     -11.714 -30.475 -11.822  1.00  0.00     0.078 A 
ATOM     10  C   UNL     1     -12.138 -31.775 -12.114  1.00  0.00     0.223 A 
ENDROOT
BRANCH   1  11
ATOM     11  C   UNL     1     -13.978 -33.320 -12.904  1.00  0.00     0.091 A 
ATOM     12  C   UNL     1     -14.078 -34.299 -11.906  1.00  0.00     0.068 A 
ATOM     13  C   UNL     1     -14.582 -35.572 -12.193  1.00  0.00     0.162 A 
ATOM     14  C   UNL     1     -14.427 -33.618 -14.200  1.00  0.00     0.068 A 
ATOM     15  C   UNL     1     -15.012 -35.873 -13.508  1.00  0.00     0.200 A 
ATOM     16  C   UNL     1     -14.934 -34.887 -14.502  1.00  0.00     0.162 A 
BRANCH  13  17
ATOM     17  O   UNL     1     -14.640 -36.499 -11.150  1.00  0.00    -0.504 OA
ATOM     18  H   UNL     1     -13.911 -37.168 -10.945  1.00  0.00     0.293 HD
ENDBRANCH  13  17
BRANCH  15  19
ATOM     19  O   UNL     1     -15.519 -37.125 -13.864  1.00  0.00    -0.502 OA
ATOM     20  H   UNL     1     -14.973 -37.854 -14.298  1.00  0.00     0.293 HD
ENDBRANCH  15  19
BRANCH  16  21
ATOM     21  O   UNL     1     -15.371 -35.178 -15.793  1.00  0.00    -0.504 OA
ATOM     22  H   UNL     1     -15.028 -35.985 -16.302  1.00  0.00     0.293 HD
ENDBRANCH  16  21
ENDBRANCH   1  11
BRANCH  10  23
ATOM     23  O   UNL     1     -11.269 -32.851 -11.936  1.00  0.00    -0.500 OA
ATOM     24  H   UNL     1     -10.349 -32.730 -11.530  1.00  0.00     0.294 HD
ENDBRANCH  10  23
BRANCH   5  25
ATOM     25  O   UNL     1     -15.461 -26.334 -12.381  1.00  0.00    -0.507 OA
ATOM     26  H   UNL     1     -15.494 -25.751 -13.209  1.00  0.00     0.293 HD
ENDBRANCH   5  25
BRANCH   7  27
ATOM     27  O   UNL     1     -10.973 -27.672 -11.248  1.00  0.00    -0.507 OA
ATOM     28  H   UNL     1     -10.309 -28.291 -10.810  1.00  0.00     0.293 HD
ENDBRANCH   7  27
TORSDOF 7
ENDMDL
MODEL 7
REMARK VINA RESULT:    -6.542      2.296      7.024
REMARK INTER + INTRA:          -8.457
REMARK INTER:                  -8.870
REMARK INTRA:                   0.413
REMARK UNBOUND:                -0.384
REMARK SMILES Oc1cc(O)c2cc(O)c(-c3cc(O)c(O)c(O)c3)[o+]c2c1
REMARK SMILES IDX 10 1 20 2 21 3 22 4 2 5 3 6 4 7 6 8 7 9 8 10 11 11 12 12
REMARK SMILES IDX 13 13 19 14 15 15 17 16 14 17 16 19 18 21 9 23 1 25 5 27
REMARK H PARENT 14 18 16 20 18 22 9 24 1 26 5 28
REMARK Flexibility Score: inf
ROOT
ATOM      1  C   UNL     1     -13.200 -30.996 -12.396  1.00  0.00     0.402 A 
ATOM      2  O   UNL     1     -14.112 -31.636 -13.122  1.00  0.00    -0.202 OA
ATOM      3  C   UNL     1     -14.420 -32.917 -12.944  1.00  0.00     0.368 A 
ATOM      4  C   UNL     1     -15.397 -33.501 -13.755  1.00  0.00     0.162 A 
ATOM      5  C   UNL     1     -15.742 -34.843 -13.589  1.00  0.00     0.128 A 
ATOM      6  C   UNL     1     -15.108 -35.608 -12.604  1.00  0.00     0.093 A 
ATOM      7  C   UNL     1     -14.127 -35.047 -11.778  1.00  0.00     0.136 A 
ATOM      8  C   UNL     1     -13.771 -33.683 -11.945  1.00  0.00     0.125 A 
ATOM      9  C   UNL     1     -12.790 -33.040 -11.173  1.00  0.00     0.078 A 
ATOM     10  C   UNL     1     -12.490 -31.694 -11.400  1.00  0.00     0.223 A 
ENDROOT
BRANCH   1  11
ATOM     11  C   UNL     1     -12.953 -29.565 -12.685  1.00  0.00     0.091 A 
ATOM     12  C   UNL     1     -12.196 -28.801 -11.785  1.00  0.00     0.068 A 
ATOM     13  C   UNL     1     -11.926 -27.451 -12.036  1.00  0.00     0.162 A 
ATOM     14  C   UNL     1     -13.412 -28.968 -13.869  1.00  0.00     0.068 A 
ATOM     15  C   UNL     1     -12.411 -26.850 -13.222  1.00  0.00     0.200 A 
ATOM     16  C   UNL     1     -13.149 -27.619 -14.133  1.00  0.00     0.162 A 
BRANCH  13  17
ATOM     17  O   UNL     1     -11.176 -26.751 -11.088  1.00  0.00    -0.504 OA
ATOM     18  H   UNL     1     -11.347 -26.784 -10.093  1.00  0.00     0.293 HD
ENDBRANCH  13  17
BRANCH  15  19
ATOM     19  O   UNL     1     -12.184 -25.507 -13.530  1.00  0.00    -0.502 OA
ATOM     20  H   UNL     1     -11.924 -25.172 -14.446  1.00  0.00     0.293 HD
ENDBRANCH  15  19
BRANCH  16  21
ATOM     21  O   UNL     1     -13.614 -27.032 -15.309  1.00  0.00    -0.504 OA
ATOM     22  H   UNL     1     -14.237 -26.232 -15.293  1.00  0.00     0.293 HD
ENDBRANCH  16  21
ENDBRANCH   1  11
BRANCH  10  23
ATOM     23  O   UNL     1     -11.482 -31.068 -10.667  1.00  0.00    -0.500 OA
ATOM     24  H   UNL     1     -10.532 -31.421 -10.660  1.00  0.00     0.294 HD
ENDBRANCH  10  23
BRANCH   5  25
ATOM     25  O   UNL     1     -16.718 -35.407 -14.408  1.00  0.00    -0.507 OA
ATOM     26  H   UNL     1     -16.923 -35.029 -15.326  1.00  0.00     0.293 HD
ENDBRANCH   5  25
BRANCH   7  27
ATOM     27  O   UNL     1     -13.543 -35.875 -10.815  1.00  0.00    -0.507 OA
ATOM     28  H   UNL     1     -14.028 -36.246 -10.012  1.00  0.00     0.293 HD
ENDBRANCH   7  27
TORSDOF 7
ENDMDL
MODEL 8
REMARK VINA RESULT:    -6.507      1.873      6.955
REMARK INTER + INTRA:          -8.413
REMARK INTER:                  -8.680
REMARK INTRA:                   0.267
REMARK UNBOUND:                -0.384
REMARK SMILES Oc1cc(O)c2cc(O)c(-c3cc(O)c(O)c(O)c3)[o+]c2c1
REMARK SMILES IDX 10 1 20 2 21 3 22 4 2 5 3 6 4 7 6 8 7 9 8 10 11 11 12 12
REMARK SMILES IDX 13 13 19 14 15 15 17 16 14 17 16 19 18 21 9 23 1 25 5 27
REMARK H PARENT 14 18 16 20 18 22 9 24 1 26 5 28
REMARK Flexibility Score: inf
ROOT
ATOM      1  C   UNL     1     -13.077 -30.129 -11.926  1.00  0.00     0.402 A 
ATOM      2  O   UNL     1     -12.220 -30.811 -12.679  1.00  0.00    -0.202 OA
ATOM      3  C   UNL     1     -11.813 -32.043 -12.390  1.00  0.00     0.368 A 
ATOM      4  C   UNL     1     -10.912 -32.681 -13.247  1.00  0.00     0.162 A 
ATOM      5  C   UNL     1     -10.470 -33.974 -12.969  1.00  0.00     0.128 A 
ATOM      6  C   UNL     1     -10.932 -34.639 -11.828  1.00  0.00     0.093 A 
ATOM      7  C   UNL     1     -11.836 -34.023 -10.954  1.00  0.00     0.136 A 
ATOM      8  C   UNL     1     -12.286 -32.706 -11.231  1.00  0.00     0.125 A 
ATOM      9  C   UNL     1     -13.180 -32.005 -10.405  1.00  0.00     0.078 A 
ATOM     10  C   UNL     1     -13.574 -30.706 -10.741  1.00  0.00     0.223 A 
ENDROOT
BRANCH   1  11
ATOM     11  C   UNL     1     -13.462 -28.766 -12.360  1.00  0.00     0.091 A 
ATOM     12  C   UNL     1     -13.429 -28.442 -13.723  1.00  0.00     0.068 A 
ATOM     13  C   UNL     1     -13.805 -27.170 -14.171  1.00  0.00     0.162 A 
ATOM     14  C   UNL     1     -13.914 -27.807 -11.440  1.00  0.00     0.068 A 
ATOM     15  C   UNL     1     -14.239 -26.200 -13.235  1.00  0.00     0.200 A 
ATOM     16  C   UNL     1     -14.294 -26.531 -11.874  1.00  0.00     0.162 A 
BRANCH  13  17
ATOM     17  O   UNL     1     -13.736 -26.917 -15.542  1.00  0.00    -0.504 OA
ATOM     18  H   UNL     1     -13.504 -26.018 -15.941  1.00  0.00     0.293 HD
ENDBRANCH  13  17
BRANCH  15  19
ATOM     19  O   UNL     1     -14.622 -24.911 -13.613  1.00  0.00    -0.502 OA
ATOM     20  H   UNL     1     -14.849 -24.643 -14.559  1.00  0.00     0.293 HD
ENDBRANCH  15  19
BRANCH  16  21
ATOM     21  O   UNL     1     -14.735 -25.581 -10.953  1.00  0.00    -0.504 OA
ATOM     22  H   UNL     1     -15.696 -25.559 -10.632  1.00  0.00     0.293 HD
ENDBRANCH  16  21
ENDBRANCH   1  11
BRANCH  10  23
ATOM     23  O   UNL     1     -14.423 -29.991  -9.896  1.00  0.00    -0.500 OA
ATOM     24  H   UNL     1     -15.204 -30.435  -9.428  1.00  0.00     0.294 HD
ENDBRANCH  10  23
BRANCH   5  25
ATOM     25  O   UNL     1      -9.571 -34.593 -13.836  1.00  0.00    -0.507 OA
ATOM     26  H   UNL     1      -9.871 -35.308 -14.489  1.00  0.00     0.293 HD
ENDBRANCH   5  25
BRANCH   7  27
ATOM     27  O   UNL     1     -12.253 -34.753  -9.837  1.00  0.00    -0.507 OA
ATOM     28  H   UNL     1     -11.953 -34.571  -8.892  1.00  0.00     0.293 HD
ENDBRANCH   7  27
TORSDOF 7
ENDMDL
MODEL 9
REMARK VINA RESULT:    -6.493      1.706      2.541
REMARK INTER + INTRA:          -8.396
REMARK INTER:                  -8.129
REMARK INTRA:                  -0.268
REMARK UNBOUND:                -0.384
REMARK SMILES Oc1cc(O)c2cc(O)c(-c3cc(O)c(O)c(O)c3)[o+]c2c1
REMARK SMILES IDX 10 1 20 2 21 3 22 4 2 5 3 6 4 7 6 8 7 9 8 10 11 11 12 12
REMARK SMILES IDX 13 13 19 14 15 15 17 16 14 17 16 19 18 21 9 23 1 25 5 27
REMARK H PARENT 14 18 16 20 18 22 9 24 1 26 5 28
REMARK Flexibility Score: inf
ROOT
ATOM      1  C   UNL     1     -13.055 -30.895 -12.997  1.00  0.00     0.402 A 
ATOM      2  O   UNL     1     -13.361 -29.868 -13.784  1.00  0.00    -0.202 OA
ATOM      3  C   UNL     1     -12.981 -28.619 -13.536  1.00  0.00     0.368 A 
ATOM      4  C   UNL     1     -13.347 -27.606 -14.426  1.00  0.00     0.162 A 
ATOM      5  C   UNL     1     -12.961 -26.286 -14.192  1.00  0.00     0.128 A 
ATOM      6  C   UNL     1     -12.199 -25.974 -13.059  1.00  0.00     0.093 A 
ATOM      7  C   UNL     1     -11.818 -26.970 -12.153  1.00  0.00     0.136 A 
ATOM      8  C   UNL     1     -12.212 -28.314 -12.386  1.00  0.00     0.125 A 
ATOM      9  C   UNL     1     -11.887 -29.375 -11.525  1.00  0.00     0.078 A 
ATOM     10  C   UNL     1     -12.316 -30.673 -11.819  1.00  0.00     0.223 A 
ENDROOT
BRANCH   1  11
ATOM     11  C   UNL     1     -13.529 -32.243 -13.387  1.00  0.00     0.091 A 
ATOM     12  C   UNL     1     -12.597 -33.219 -13.766  1.00  0.00     0.068 A 
ATOM     13  C   UNL     1     -13.007 -34.509 -14.121  1.00  0.00     0.162 A 
ATOM     14  C   UNL     1     -14.889 -32.584 -13.332  1.00  0.00     0.068 A 
ATOM     15  C   UNL     1     -14.383 -34.839 -14.084  1.00  0.00     0.200 A 
ATOM     16  C   UNL     1     -15.315 -33.870 -13.684  1.00  0.00     0.162 A 
BRANCH  13  17
ATOM     17  O   UNL     1     -12.022 -35.424 -14.498  1.00  0.00    -0.504 OA
ATOM     18  H   UNL     1     -11.090 -35.165 -14.788  1.00  0.00     0.293 HD
ENDBRANCH  13  17
BRANCH  15  19
ATOM     19  O   UNL     1     -14.861 -36.104 -14.432  1.00  0.00    -0.502 OA
ATOM     20  H   UNL     1     -15.762 -36.273 -14.855  1.00  0.00     0.293 HD
ENDBRANCH  15  19
BRANCH  16  21
ATOM     21  O   UNL     1     -16.669 -34.198 -13.633  1.00  0.00    -0.504 OA
ATOM     22  H   UNL     1     -17.231 -34.011 -12.810  1.00  0.00     0.293 HD
ENDBRANCH  16  21
ENDBRANCH   1  11
BRANCH  10  23
ATOM     23  O   UNL     1     -12.036 -31.718 -10.939  1.00  0.00    -0.500 OA
ATOM     24  H   UNL     1     -11.595 -32.574 -11.254  1.00  0.00     0.294 HD
ENDBRANCH  10  23
BRANCH   5  25
ATOM     25  O   UNL     1     -13.337 -25.291 -15.091  1.00  0.00    -0.507 OA
ATOM     26  H   UNL     1     -12.757 -24.475 -15.252  1.00  0.00     0.293 HD
ENDBRANCH   5  25
BRANCH   7  27
ATOM     27  O   UNL     1     -11.055 -26.579 -11.048  1.00  0.00    -0.507 OA
ATOM     28  H   UNL     1     -11.306 -26.762 -10.089  1.00  0.00     0.293 HD
ENDBRANCH   7  27
TORSDOF 7
ENDMDL
