MODEL 1
REMARK VINA RESULT:    -3.841      0.000      0.000
REMARK INTER + INTRA:          -7.672
REMARK INTER:                  -6.535
REMARK INTRA:                  -1.137
REMARK UNBOUND:                -1.137
REMARK SMILES CCCCCCCCCCCCCC(=O)[O-]
REMARK SMILES IDX 8 1 9 2 10 3 11 4 12 5 13 6 14 7 15 8 16 9 7 10 6 11 5 12
REMARK SMILES IDX 4 13 3 14 2 15 1 16
REMARK H PARENT
REMARK Flexibility Score: inf
ROOT
ATOM      1  C   UNL     1      -3.384   7.836  -7.074  1.00  0.00     0.000 C 
ENDROOT
BRANCH   1   2
ATOM      2  C   UNL     1      -4.297   7.035  -6.132  1.00  0.00     0.000 C 
BRANCH   2   3
ATOM      3  C   UNL     1      -3.776   5.601  -5.953  1.00  0.00     0.000 C 
BRANCH   3   4
ATOM      4  C   UNL     1      -3.364   5.295  -4.505  1.00  0.00     0.000 C 
BRANCH   4   5
ATOM      5  C   UNL     1      -2.611   3.960  -4.373  1.00  0.00     0.006 C 
BRANCH   5   6
ATOM      6  C   UNL     1      -2.793   3.328  -2.987  1.00  0.00     0.053 C 
BRANCH   6   7
ATOM      7  C   UNL     1      -1.516   2.738  -2.472  1.00  0.00     0.041 C 
ATOM      8  O   UNL     1      -1.038   1.700  -3.001  1.00  0.00    -0.550 OA
ATOM      9  O   UNL     1      -0.837   3.352  -1.428  1.00  0.00    -0.550 OA
ENDBRANCH   6   7
ENDBRANCH   5   6
ENDBRANCH   4   5
ENDBRANCH   3   4
ENDBRANCH   2   3
ENDBRANCH   1   2
BRANCH   1  10
ATOM     10  C   UNL     1      -3.926   7.900  -8.511  1.00  0.00     0.000 C 
BRANCH  10  11
ATOM     11  C   UNL     1      -4.391   9.309  -8.906  1.00  0.00    -0.000 C 
BRANCH  11  12
ATOM     12  C   UNL     1      -5.919   9.425  -8.827  1.00  0.00    -0.000 C 
BRANCH  12  13
ATOM     13  C   UNL     1      -6.582   8.045  -8.954  1.00  0.00    -0.000 C 
BRANCH  13  14
ATOM     14  C   UNL     1      -7.472   7.695  -7.748  1.00  0.00    -0.000 C 
BRANCH  14  15
ATOM     15  C   UNL     1      -7.759   6.194  -7.569  1.00  0.00    -0.003 C 
ATOM     16  C   UNL     1      -6.748   5.302  -8.287  1.00  0.00     0.004 C 
ENDBRANCH  14  15
ENDBRANCH  13  14
ENDBRANCH  12  13
ENDBRANCH  11  12
ENDBRANCH  10  11
ENDBRANCH   1  10
TORSDOF 12
ENDMDL
MODEL 2
REMARK VINA RESULT:    -3.834      3.080      6.804
REMARK INTER + INTRA:          -7.660
REMARK INTER:                  -6.821
REMARK INTRA:                  -0.838
REMARK UNBOUND:                -1.137
REMARK SMILES CCCCCCCCCCCCCC(=O)[O-]
REMARK SMILES IDX 8 1 9 2 10 3 11 4 12 5 13 6 14 7 15 8 16 9 7 10 6 11 5 12
REMARK SMILES IDX 4 13 3 14 2 15 1 16
REMARK H PARENT
REMARK Flexibility Score: inf
ROOT
ATOM      1  C   UNL     1      -3.295   7.885  -7.045  1.00  0.00     0.000 C 
ENDROOT
BRANCH   1   2
ATOM      2  C   UNL     1      -3.750   8.112  -8.495  1.00  0.00     0.000 C 
BRANCH   2   3
ATOM      3  C   UNL     1      -5.279   8.233  -8.577  1.00  0.00     0.000 C 
BRANCH   3   4
ATOM      4  C   UNL     1      -5.894   7.299  -9.630  1.00  0.00     0.000 C 
BRANCH   4   5
ATOM      5  C   UNL     1      -7.368   6.969  -9.341  1.00  0.00     0.006 C 
BRANCH   5   6
ATOM      6  C   UNL     1      -7.616   6.686  -7.853  1.00  0.00     0.053 C 
BRANCH   6   7
ATOM      7  C   UNL     1      -7.559   5.220  -7.549  1.00  0.00     0.041 C 
ATOM      8  O   UNL     1      -6.529   4.553  -7.832  1.00  0.00    -0.550 OA
ATOM      9  O   UNL     1      -8.631   4.596  -6.925  1.00  0.00    -0.550 OA
ENDBRANCH   6   7
ENDBRANCH   5   6
ENDBRANCH   4   5
ENDBRANCH   3   4
ENDBRANCH   2   3
ENDBRANCH   1   2
BRANCH   1  10
ATOM     10  C   UNL     1      -4.291   7.036  -6.238  1.00  0.00     0.000 C 
BRANCH  10  11
ATOM     11  C   UNL     1      -3.782   5.609  -5.983  1.00  0.00    -0.000 C 
BRANCH  11  12
ATOM     12  C   UNL     1      -3.384   5.423  -4.513  1.00  0.00    -0.000 C 
BRANCH  12  13
ATOM     13  C   UNL     1      -2.564   4.138  -4.324  1.00  0.00    -0.000 C 
BRANCH  13  14
ATOM     14  C   UNL     1      -2.917   3.387  -3.027  1.00  0.00    -0.000 C 
BRANCH  14  15
ATOM     15  C   UNL     1      -1.763   2.576  -2.412  1.00  0.00    -0.003 C 
ATOM     16  C   UNL     1      -0.839   3.421  -1.535  1.00  0.00     0.004 C 
ENDBRANCH  14  15
ENDBRANCH  13  14
ENDBRANCH  12  13
ENDBRANCH  11  12
ENDBRANCH  10  11
ENDBRANCH   1  10
TORSDOF 12
ENDMDL
MODEL 3
REMARK VINA RESULT:    -3.820      3.144      7.171
REMARK INTER + INTRA:          -7.637
REMARK INTER:                  -6.838
REMARK INTRA:                  -0.799
REMARK UNBOUND:                -1.137
REMARK SMILES CCCCCCCCCCCCCC(=O)[O-]
REMARK SMILES IDX 8 1 9 2 10 3 11 4 12 5 13 6 14 7 15 8 16 9 7 10 6 11 5 12
REMARK SMILES IDX 4 13 3 14 2 15 1 16
REMARK H PARENT
REMARK Flexibility Score: inf
ROOT
ATOM      1  C   UNL     1      -4.458   7.048  -6.090  1.00  0.00     0.000 C 
ENDROOT
BRANCH   1   2
ATOM      2  C   UNL     1      -3.919   7.836  -7.294  1.00  0.00     0.000 C 
BRANCH   2   3
ATOM      3  C   UNL     1      -5.035   8.110  -8.313  1.00  0.00     0.000 C 
BRANCH   3   4
ATOM      4  C   UNL     1      -6.380   8.440  -7.647  1.00  0.00     0.000 C 
BRANCH   4   5
ATOM      5  C   UNL     1      -7.578   7.848  -8.408  1.00  0.00     0.006 C 
BRANCH   5   6
ATOM      6  C   UNL     1      -7.257   6.476  -9.017  1.00  0.00     0.053 C 
BRANCH   6   7
ATOM      7  C   UNL     1      -7.325   5.384  -7.995  1.00  0.00     0.041 C 
ATOM      8  O   UNL     1      -6.375   4.567  -7.875  1.00  0.00    -0.550 OA
ATOM      9  O   UNL     1      -8.427   5.286  -7.154  1.00  0.00    -0.550 OA
ENDBRANCH   6   7
ENDBRANCH   5   6
ENDBRANCH   4   5
ENDBRANCH   3   4
ENDBRANCH   2   3
ENDBRANCH   1   2
BRANCH   1  10
ATOM     10  C   UNL     1      -3.751   5.697  -5.902  1.00  0.00     0.000 C 
BRANCH  10  11
ATOM     11  C   UNL     1      -3.375   5.423  -4.438  1.00  0.00    -0.000 C 
BRANCH  11  12
ATOM     12  C   UNL     1      -2.600   4.106  -4.307  1.00  0.00    -0.000 C 
BRANCH  12  13
ATOM     13  C   UNL     1      -2.969   3.377  -3.006  1.00  0.00    -0.000 C 
BRANCH  13  14
ATOM     14  C   UNL     1      -1.736   2.938  -2.196  1.00  0.00    -0.000 C 
BRANCH  14  15
ATOM     15  C   UNL     1      -0.697   2.123  -2.986  1.00  0.00    -0.003 C 
ATOM     16  C   UNL     1      -1.199   0.732  -3.375  1.00  0.00     0.004 C 
ENDBRANCH  14  15
ENDBRANCH  13  14
ENDBRANCH  12  13
ENDBRANCH  11  12
ENDBRANCH  10  11
ENDBRANCH   1  10
TORSDOF 12
ENDMDL
MODEL 4
REMARK VINA RESULT:    -3.804      2.809      5.015
REMARK INTER + INTRA:          -7.610
REMARK INTER:                  -6.829
REMARK INTRA:                  -0.781
REMARK UNBOUND:                -1.137
REMARK SMILES CCCCCCCCCCCCCC(=O)[O-]
REMARK SMILES IDX 8 1 9 2 10 3 11 4 12 5 13 6 14 7 15 8 16 9 7 10 6 11 5 12
REMARK SMILES IDX 4 13 3 14 2 15 1 16
REMARK H PARENT
REMARK Flexibility Score: inf
ROOT
ATOM      1  C   UNL     1      -7.824   8.388  -8.579  1.00  0.00     0.000 C 
ENDROOT
BRANCH   1   2
ATOM      2  C   UNL     1      -6.644   9.232  -9.085  1.00  0.00     0.000 C 
BRANCH   2   3
ATOM      3  C   UNL     1      -5.393   8.362  -9.279  1.00  0.00     0.000 C 
BRANCH   3   4
ATOM      4  C   UNL     1      -4.161   8.922  -8.552  1.00  0.00     0.000 C 
BRANCH   4   5
ATOM      5  C   UNL     1      -3.511   7.895  -7.610  1.00  0.00     0.006 C 
BRANCH   5   6
ATOM      6  C   UNL     1      -4.516   7.315  -6.605  1.00  0.00     0.053 C 
BRANCH   6   7
ATOM      7  C   UNL     1      -3.937   6.166  -5.839  1.00  0.00     0.041 C 
ATOM      8  O   UNL     1      -3.628   6.303  -4.626  1.00  0.00    -0.550 OA
ATOM      9  O   UNL     1      -3.764   4.934  -6.456  1.00  0.00    -0.550 OA
ENDBRANCH   6   7
ENDBRANCH   5   6
ENDBRANCH   4   5
ENDBRANCH   3   4
ENDBRANCH   2   3
ENDBRANCH   1   2
BRANCH   1  10
ATOM     10  C   UNL     1      -7.454   6.910  -8.380  1.00  0.00     0.000 C 
BRANCH  10  11
ATOM     11  C   UNL     1      -8.118   5.989  -9.415  1.00  0.00    -0.000 C 
BRANCH  11  12
ATOM     12  C   UNL     1      -8.919   4.877  -8.726  1.00  0.00    -0.000 C 
BRANCH  12  13
ATOM     13  C   UNL     1      -9.125   5.190  -7.236  1.00  0.00    -0.000 C 
BRANCH  13  14
ATOM     14  C   UNL     1     -10.026   4.163  -6.527  1.00  0.00    -0.000 C 
BRANCH  14  15
ATOM     15  C   UNL     1     -10.109   4.319  -4.998  1.00  0.00    -0.003 C 
ATOM     16  C   UNL     1     -10.125   2.980  -4.261  1.00  0.00     0.004 C 
ENDBRANCH  14  15
ENDBRANCH  13  14
ENDBRANCH  12  13
ENDBRANCH  11  12
ENDBRANCH  10  11
ENDBRANCH   1  10
TORSDOF 12
ENDMDL
MODEL 5
REMARK VINA RESULT:    -3.712      2.879      4.537
REMARK INTER + INTRA:          -7.453
REMARK INTER:                  -5.690
REMARK INTRA:                  -1.764
REMARK UNBOUND:                -1.137
REMARK SMILES CCCCCCCCCCCCCC(=O)[O-]
REMARK SMILES IDX 8 1 9 2 10 3 11 4 12 5 13 6 14 7 15 8 16 9 7 10 6 11 5 12
REMARK SMILES IDX 4 13 3 14 2 15 1 16
REMARK H PARENT
REMARK Flexibility Score: inf
ROOT
ATOM      1  C   UNL     1      -7.137   9.572  -8.179  1.00  0.00     0.000 C 
ENDROOT
BRANCH   1   2
ATOM      2  C   UNL     1      -6.073   9.887  -9.242  1.00  0.00     0.000 C 
BRANCH   2   3
ATOM      3  C   UNL     1      -5.034   8.758  -9.328  1.00  0.00     0.000 C 
BRANCH   3   4
ATOM      4  C   UNL     1      -3.769   9.052  -8.507  1.00  0.00     0.000 C 
BRANCH   4   5
ATOM      5  C   UNL     1      -3.367   7.876  -7.600  1.00  0.00     0.006 C 
BRANCH   5   6
ATOM      6  C   UNL     1      -4.536   7.386  -6.735  1.00  0.00     0.053 C 
BRANCH   6   7
ATOM      7  C   UNL     1      -4.136   6.241  -5.857  1.00  0.00     0.041 C 
ATOM      8  O   UNL     1      -3.805   5.137  -6.365  1.00  0.00    -0.550 OA
ATOM      9  O   UNL     1      -4.100   6.400  -4.478  1.00  0.00    -0.550 OA
ENDBRANCH   6   7
ENDBRANCH   5   6
ENDBRANCH   4   5
ENDBRANCH   3   4
ENDBRANCH   2   3
ENDBRANCH   1   2
BRANCH   1  10
ATOM     10  C   UNL     1      -8.565   9.587  -8.748  1.00  0.00     0.000 C 
BRANCH  10  11
ATOM     11  C   UNL     1      -8.695   8.771 -10.044  1.00  0.00    -0.000 C 
BRANCH  11  12
ATOM     12  C   UNL     1      -9.803   7.717  -9.920  1.00  0.00    -0.000 C 
BRANCH  12  13
ATOM     13  C   UNL     1      -9.225   6.298 -10.022  1.00  0.00    -0.000 C 
BRANCH  13  14
ATOM     14  C   UNL     1      -7.687   6.273  -9.977  1.00  0.00    -0.000 C 
BRANCH  14  15
ATOM     15  C   UNL     1      -7.085   5.605  -8.728  1.00  0.00    -0.003 C 
ATOM     16  C   UNL     1      -7.859   5.923  -7.449  1.00  0.00     0.004 C 
ENDBRANCH  14  15
ENDBRANCH  13  14
ENDBRANCH  12  13
ENDBRANCH  11  12
ENDBRANCH  10  11
ENDBRANCH   1  10
TORSDOF 12
ENDMDL
MODEL 6
REMARK VINA RESULT:    -3.587      4.099      5.760
REMARK INTER + INTRA:          -7.241
REMARK INTER:                  -5.844
REMARK INTRA:                  -1.396
REMARK UNBOUND:                -1.137
REMARK SMILES CCCCCCCCCCCCCC(=O)[O-]
REMARK SMILES IDX 8 1 9 2 10 3 11 4 12 5 13 6 14 7 15 8 16 9 7 10 6 11 5 12
REMARK SMILES IDX 4 13 3 14 2 15 1 16
REMARK H PARENT
REMARK Flexibility Score: inf
ROOT
ATOM      1  C   UNL     1      -6.069   6.300  -6.922  1.00  0.00     0.000 C 
ENDROOT
BRANCH   1   2
ATOM      2  C   UNL     1      -6.336   5.036  -7.755  1.00  0.00     0.000 C 
BRANCH   2   3
ATOM      3  C   UNL     1      -7.516   5.252  -8.714  1.00  0.00     0.000 C 
BRANCH   3   4
ATOM      4  C   UNL     1      -8.776   5.765  -8.000  1.00  0.00     0.000 C 
BRANCH   4   5
ATOM      5  C   UNL     1      -9.702   4.625  -7.542  1.00  0.00     0.006 C 
BRANCH   5   6
ATOM      6  C   UNL     1      -9.731   4.483  -6.014  1.00  0.00     0.053 C 
BRANCH   6   7
ATOM      7  C   UNL     1      -9.921   3.058  -5.592  1.00  0.00     0.041 C 
ATOM      8  O   UNL     1     -10.125   2.163  -6.453  1.00  0.00    -0.550 OA
ATOM      9  O   UNL     1      -9.842   2.714  -4.249  1.00  0.00    -0.550 OA
ENDBRANCH   6   7
ENDBRANCH   5   6
ENDBRANCH   4   5
ENDBRANCH   3   4
ENDBRANCH   2   3
ENDBRANCH   1   2
BRANCH   1  10
ATOM     10  C   UNL     1      -4.579   6.490  -6.596  1.00  0.00     0.000 C 
BRANCH  10  11
ATOM     11  C   UNL     1      -4.038   7.849  -7.066  1.00  0.00    -0.000 C 
BRANCH  11  12
ATOM     12  C   UNL     1      -3.944   7.902  -8.596  1.00  0.00    -0.000 C 
BRANCH  12  13
ATOM     13  C   UNL     1      -4.329   9.292  -9.123  1.00  0.00    -0.000 C 
BRANCH  13  14
ATOM     14  C   UNL     1      -5.725   9.743  -8.657  1.00  0.00    -0.000 C 
BRANCH  14  15
ATOM     15  C   UNL     1      -6.897   8.940  -9.250  1.00  0.00    -0.003 C 
ATOM     16  C   UNL     1      -8.257   9.377  -8.707  1.00  0.00     0.004 C 
ENDBRANCH  14  15
ENDBRANCH  13  14
ENDBRANCH  12  13
ENDBRANCH  11  12
ENDBRANCH  10  11
ENDBRANCH   1  10
TORSDOF 12
ENDMDL
MODEL 7
REMARK VINA RESULT:    -3.554      4.358      5.764
REMARK INTER + INTRA:          -7.183
REMARK INTER:                  -5.544
REMARK INTRA:                  -1.640
REMARK UNBOUND:                -1.137
REMARK SMILES CCCCCCCCCCCCCC(=O)[O-]
REMARK SMILES IDX 8 1 9 2 10 3 11 4 12 5 13 6 14 7 15 8 16 9 7 10 6 11 5 12
REMARK SMILES IDX 4 13 3 14 2 15 1 16
REMARK H PARENT
REMARK Flexibility Score: inf
ROOT
ATOM      1  C   UNL     1      -3.907   7.141  -6.736  1.00  0.00     0.000 C 
ENDROOT
BRANCH   1   2
ATOM      2  C   UNL     1      -5.379   6.712  -6.624  1.00  0.00     0.000 C 
BRANCH   2   3
ATOM      3  C   UNL     1      -5.619   5.384  -7.358  1.00  0.00     0.000 C 
BRANCH   3   4
ATOM      4  C   UNL     1      -6.694   5.495  -8.450  1.00  0.00     0.000 C 
BRANCH   4   5
ATOM      5  C   UNL     1      -7.874   6.387  -8.031  1.00  0.00     0.006 C 
BRANCH   5   6
ATOM      6  C   UNL     1      -9.220   5.832  -8.518  1.00  0.00     0.053 C 
BRANCH   6   7
ATOM      7  C   UNL     1      -9.641   4.627  -7.734  1.00  0.00     0.041 C 
ATOM      8  O   UNL     1     -10.116   3.621  -8.324  1.00  0.00    -0.550 OA
ATOM      9  O   UNL     1      -9.481   4.603  -6.355  1.00  0.00    -0.550 OA
ENDBRANCH   6   7
ENDBRANCH   5   6
ENDBRANCH   4   5
ENDBRANCH   3   4
ENDBRANCH   2   3
ENDBRANCH   1   2
BRANCH   1  10
ATOM     10  C   UNL     1      -3.711   8.345  -7.670  1.00  0.00     0.000 C 
BRANCH  10  11
ATOM     11  C   UNL     1      -3.875   7.978  -9.153  1.00  0.00    -0.000 C 
BRANCH  11  12
ATOM     12  C   UNL     1      -4.408   9.171  -9.957  1.00  0.00    -0.000 C 
BRANCH  12  13
ATOM     13  C   UNL     1      -5.357  10.029  -9.107  1.00  0.00    -0.000 C 
BRANCH  13  14
ATOM     14  C   UNL     1      -6.807  10.005  -9.621  1.00  0.00    -0.000 C 
BRANCH  14  15
ATOM     15  C   UNL     1      -7.877   9.805  -8.533  1.00  0.00    -0.003 C 
ATOM     16  C   UNL     1      -7.344  10.041  -7.120  1.00  0.00     0.004 C 
ENDBRANCH  14  15
ENDBRANCH  13  14
ENDBRANCH  12  13
ENDBRANCH  11  12
ENDBRANCH  10  11
ENDBRANCH   1  10
TORSDOF 12
ENDMDL
MODEL 8
REMARK VINA RESULT:    -3.521      3.629      7.408
REMARK INTER + INTRA:          -7.129
REMARK INTER:                  -6.410
REMARK INTRA:                  -0.719
REMARK UNBOUND:                -1.137
REMARK SMILES CCCCCCCCCCCCCC(=O)[O-]
REMARK SMILES IDX 8 1 9 2 10 3 11 4 12 5 13 6 14 7 15 8 16 9 7 10 6 11 5 12
REMARK SMILES IDX 4 13 3 14 2 15 1 16
REMARK H PARENT
REMARK Flexibility Score: inf
ROOT
ATOM      1  C   UNL     1      -4.397   7.004  -6.228  1.00  0.00     0.000 C 
ENDROOT
BRANCH   1   2
ATOM      2  C   UNL     1      -3.501   7.809  -7.182  1.00  0.00     0.000 C 
BRANCH   2   3
ATOM      3  C   UNL     1      -4.347   8.615  -8.179  1.00  0.00     0.000 C 
BRANCH   3   4
ATOM      4  C   UNL     1      -4.504   7.907  -9.533  1.00  0.00     0.000 C 
BRANCH   4   5
ATOM      5  C   UNL     1      -5.967   7.552  -9.850  1.00  0.00     0.006 C 
BRANCH   5   6
ATOM      6  C   UNL     1      -6.463   6.356  -9.026  1.00  0.00     0.053 C 
BRANCH   6   7
ATOM      7  C   UNL     1      -7.528   6.755  -8.052  1.00  0.00     0.041 C 
ATOM      8  O   UNL     1      -8.137   5.879  -7.383  1.00  0.00    -0.550 OA
ATOM      9  O   UNL     1      -7.828   8.098  -7.860  1.00  0.00    -0.550 OA
ENDBRANCH   6   7
ENDBRANCH   5   6
ENDBRANCH   4   5
ENDBRANCH   3   4
ENDBRANCH   2   3
ENDBRANCH   1   2
BRANCH   1  10
ATOM     10  C   UNL     1      -3.851   5.593  -5.953  1.00  0.00     0.000 C 
BRANCH  10  11
ATOM     11  C   UNL     1      -3.527   5.363  -4.469  1.00  0.00    -0.000 C 
BRANCH  11  12
ATOM     12  C   UNL     1      -2.474   4.260  -4.302  1.00  0.00    -0.000 C 
BRANCH  12  13
ATOM     13  C   UNL     1      -2.802   3.364  -3.098  1.00  0.00    -0.000 C 
BRANCH  13  14
ATOM     14  C   UNL     1      -1.555   2.974  -2.285  1.00  0.00    -0.000 C 
BRANCH  14  15
ATOM     15  C   UNL     1      -0.675   1.888  -2.929  1.00  0.00    -0.003 C 
ATOM     16  C   UNL     1      -1.462   0.642  -3.333  1.00  0.00     0.004 C 
ENDBRANCH  14  15
ENDBRANCH  13  14
ENDBRANCH  12  13
ENDBRANCH  11  12
ENDBRANCH  10  11
ENDBRANCH   1  10
TORSDOF 12
ENDMDL
