MODEL 1
REMARK VINA RESULT:    -6.843      0.000      0.000
REMARK INTER + INTRA:          -7.669
REMARK INTER:                  -7.443
REMARK INTRA:                  -0.225
REMARK UNBOUND:                -0.225
REMARK SMILES CC1(C)CC[C@@]2(C(=O)[O-])CC[C@@]3(C)C(=CC[C@@H]4[C@]5(C)CC[C@H](O)C(C)(C)[C@@H]5CC[C@]43C)[C@H]2C1
REMARK SMILES IDX 6 1 5 2 10 3 32 4 4 5 11 6 14 7 33 8 2 9 12 10 15 11 1 12
REMARK SMILES IDX 3 13 13 14 30 15 16 16 17 17 29 18 31 19 18 20 28 21 27 22
REMARK SMILES IDX 20 23 19 24 24 25 21 26 22 27 25 28 26 29 7 30 8 31 9 32
REMARK SMILES IDX 23 33
REMARK H PARENT 23 34
REMARK Flexibility Score: inf
ROOT
ATOM      1  C   UNL     1       4.426 -23.317  19.866  1.00  0.00     0.017 C 
ATOM      2  C   UNL     1       3.390 -23.721  20.962  1.00  0.00     0.014 C 
ATOM      3  C   UNL     1       3.773 -22.262  18.897  1.00  0.00     0.014 C 
ATOM      4  C   UNL     1       5.747 -22.745  20.526  1.00  0.00     0.028 C 
ATOM      5  C   UNL     1       4.063 -24.428  22.152  1.00  0.00     0.007 C 
ATOM      6  C   UNL     1       4.023 -20.786  19.287  1.00  0.00     0.013 C 
ATOM      7  C   UNL     1       6.351 -21.659  19.623  1.00  0.00    -0.064 C 
ATOM      8  C   UNL     1       5.535 -22.317  21.997  1.00  0.00     0.015 C 
ATOM      9  C   UNL     1       5.081 -23.505  22.902  1.00  0.00    -0.035 C 
ATOM     10  C   UNL     1       5.550 -20.346  19.375  1.00  0.00    -0.006 C 
ATOM     11  C   UNL     1       7.275 -22.117  18.738  1.00  0.00    -0.027 C 
ATOM     12  C   UNL     1       6.306 -24.335  23.351  1.00  0.00     0.011 C 
ATOM     13  C   UNL     1       4.414 -22.928  24.172  1.00  0.00     0.011 C 
ATOM     14  C   UNL     1       5.682 -19.415  20.633  1.00  0.00     0.017 C 
ATOM     15  C   UNL     1       6.148 -19.532  18.087  1.00  0.00    -0.020 C 
ATOM     16  C   UNL     1       7.591 -21.487  17.412  1.00  0.00     0.032 C 
ATOM     17  C   UNL     1       6.466 -20.544  16.929  1.00  0.00     0.006 C 
ATOM     18  C   UNL     1       5.162 -18.468  17.540  1.00  0.00     0.008 C 
ATOM     19  C   UNL     1       7.455 -18.774  18.533  1.00  0.00     0.012 C 
ATOM     20  C   UNL     1       6.660 -20.018  15.415  1.00  0.00    -0.025 C 
ATOM     21  C   UNL     1       5.682 -17.771  16.287  1.00  0.00     0.005 C 
ATOM     22  C   UNL     1       5.755 -18.749  15.084  1.00  0.00     0.003 C 
ATOM     23  C   UNL     1       8.164 -19.728  15.093  1.00  0.00     0.010 C 
ATOM     24  C   UNL     1       6.201 -21.206  14.505  1.00  0.00     0.012 C 
ATOM     25  C   UNL     1       6.090 -18.003  13.706  1.00  0.00    -0.006 C 
ATOM     26  C   UNL     1       8.422 -19.093  13.725  1.00  0.00     0.033 C 
ATOM     27  C   UNL     1       7.627 -17.797  13.528  1.00  0.00     0.120 C 
ATOM     28  C   UNL     1       5.402 -16.607  13.623  1.00  0.00     0.014 C 
ATOM     29  C   UNL     1       5.518 -18.798  12.485  1.00  0.00     0.014 C 
ENDROOT
BRANCH   1  30
ATOM     30  C   UNL     1       4.729 -24.576  19.050  1.00  0.00     0.048 C 
ATOM     31  O   UNL     1       5.863 -25.125  19.130  1.00  0.00    -0.550 OA
ATOM     32  O   UNL     1       3.817 -25.083  18.130  1.00  0.00    -0.550 OA
ENDBRANCH   1  30
BRANCH  27  33
ATOM     33  O   UNL     1       8.115 -16.838  14.435  1.00  0.00    -0.393 OA
ATOM     34  H   UNL     1       9.094 -16.758  14.293  1.00  0.00     0.210 HD
ENDBRANCH  27  33
TORSDOF 2
ENDMDL
MODEL 2
REMARK VINA RESULT:    -6.679      3.922      5.270
REMARK INTER + INTRA:          -7.490
REMARK INTER:                  -7.211
REMARK INTRA:                  -0.280
REMARK UNBOUND:                -0.225
REMARK SMILES CC1(C)CC[C@@]2(C(=O)[O-])CC[C@@]3(C)C(=CC[C@@H]4[C@]5(C)CC[C@H](O)C(C)(C)[C@@H]5CC[C@]43C)[C@H]2C1
REMARK SMILES IDX 6 1 5 2 10 3 32 4 4 5 11 6 14 7 33 8 2 9 12 10 15 11 1 12
REMARK SMILES IDX 3 13 13 14 30 15 16 16 17 17 29 18 31 19 18 20 28 21 27 22
REMARK SMILES IDX 20 23 19 24 24 25 21 26 22 27 25 28 26 29 7 30 8 31 9 32
REMARK SMILES IDX 23 33
REMARK H PARENT 23 34
REMARK Flexibility Score: inf
ROOT
ATOM      1  C   UNL     1       3.345 -17.696  17.992  1.00  0.00     0.017 C 
ATOM      2  C   UNL     1       2.411 -16.843  18.907  1.00  0.00     0.014 C 
ATOM      3  C   UNL     1       3.048 -17.355  16.484  1.00  0.00     0.014 C 
ATOM      4  C   UNL     1       4.867 -17.437  18.347  1.00  0.00     0.028 C 
ATOM      5  C   UNL     1       2.903 -16.824  20.366  1.00  0.00     0.007 C 
ATOM      6  C   UNL     1       3.939 -16.240  15.887  1.00  0.00     0.013 C 
ATOM      7  C   UNL     1       5.722 -17.545  17.075  1.00  0.00    -0.064 C 
ATOM      8  C   UNL     1       5.071 -16.135  19.155  1.00  0.00     0.015 C 
ATOM      9  C   UNL     1       4.309 -16.155  20.517  1.00  0.00    -0.035 C 
ATOM     10  C   UNL     1       5.506 -16.516  15.927  1.00  0.00    -0.006 C 
ATOM     11  C   UNL     1       6.233 -18.784  16.846  1.00  0.00    -0.027 C 
ATOM     12  C   UNL     1       5.135 -16.911  21.582  1.00  0.00     0.011 C 
ATOM     13  C   UNL     1       4.136 -14.698  21.004  1.00  0.00     0.011 C 
ATOM     14  C   UNL     1       6.196 -15.158  16.311  1.00  0.00     0.017 C 
ATOM     15  C   UNL     1       6.187 -17.044  14.534  1.00  0.00    -0.020 C 
ATOM     16  C   UNL     1       6.578 -19.342  15.496  1.00  0.00     0.032 C 
ATOM     17  C   UNL     1       5.883 -18.573  14.350  1.00  0.00     0.006 C 
ATOM     18  C   UNL     1       5.656 -16.294  13.286  1.00  0.00     0.008 C 
ATOM     19  C   UNL     1       7.740 -16.794  14.606  1.00  0.00     0.012 C 
ATOM     20  C   UNL     1       6.048 -19.271  12.903  1.00  0.00    -0.025 C 
ATOM     21  C   UNL     1       6.224 -16.845  11.982  1.00  0.00     0.005 C 
ATOM     22  C   UNL     1       5.708 -18.280  11.701  1.00  0.00     0.003 C 
ATOM     23  C   UNL     1       7.472 -19.896  12.723  1.00  0.00     0.010 C 
ATOM     24  C   UNL     1       5.011 -20.443  12.890  1.00  0.00     0.012 C 
ATOM     25  C   UNL     1       6.110 -18.804  10.241  1.00  0.00    -0.006 C 
ATOM     26  C   UNL     1       7.761 -20.454  11.328  1.00  0.00     0.033 C 
ATOM     27  C   UNL     1       7.550 -19.406  10.229  1.00  0.00     0.120 C 
ATOM     28  C   UNL     1       6.054 -17.662   9.182  1.00  0.00     0.014 C 
ATOM     29  C   UNL     1       5.087 -19.870   9.725  1.00  0.00     0.014 C 
ENDROOT
BRANCH   1  30
ATOM     30  C   UNL     1       2.978 -19.165  18.221  1.00  0.00     0.048 C 
ATOM     31  O   UNL     1       1.880 -19.618  17.793  1.00  0.00    -0.550 OA
ATOM     32  O   UNL     1       3.781 -20.003  18.987  1.00  0.00    -0.550 OA
ENDBRANCH   1  30
BRANCH  27  33
ATOM     33  O   UNL     1       8.519 -18.398  10.388  1.00  0.00    -0.393 OA
ATOM     34  H   UNL     1       9.073 -18.633  11.178  1.00  0.00     0.210 HD
ENDBRANCH  27  33
TORSDOF 2
ENDMDL
MODEL 3
REMARK VINA RESULT:    -6.525      4.482      7.576
REMARK INTER + INTRA:          -7.323
REMARK INTER:                  -7.195
REMARK INTRA:                  -0.128
REMARK UNBOUND:                -0.225
REMARK SMILES CC1(C)CC[C@@]2(C(=O)[O-])CC[C@@]3(C)C(=CC[C@@H]4[C@]5(C)CC[C@H](O)C(C)(C)[C@@H]5CC[C@]43C)[C@H]2C1
REMARK SMILES IDX 6 1 5 2 10 3 32 4 4 5 11 6 14 7 33 8 2 9 12 10 15 11 1 12
REMARK SMILES IDX 3 13 13 14 30 15 16 16 17 17 29 18 31 19 18 20 28 21 27 22
REMARK SMILES IDX 20 23 19 24 24 25 21 26 22 27 25 28 26 29 7 30 8 31 9 32
REMARK SMILES IDX 23 33
REMARK H PARENT 23 34
REMARK Flexibility Score: inf
ROOT
ATOM      1  C   UNL     1       6.783 -16.717  16.381  1.00  0.00     0.017 C 
ATOM      2  C   UNL     1       6.512 -15.195  16.598  1.00  0.00     0.014 C 
ATOM      3  C   UNL     1       5.576 -17.353  15.595  1.00  0.00     0.014 C 
ATOM      4  C   UNL     1       8.147 -16.940  15.609  1.00  0.00     0.028 C 
ATOM      5  C   UNL     1       7.792 -14.438  16.996  1.00  0.00     0.007 C 
ATOM      6  C   UNL     1       5.751 -17.383  14.059  1.00  0.00     0.013 C 
ATOM      7  C   UNL     1       8.039 -18.180  14.709  1.00  0.00    -0.064 C 
ATOM      8  C   UNL     1       8.634 -15.661  14.890  1.00  0.00     0.015 C 
ATOM      9  C   UNL     1       8.888 -14.481  15.880  1.00  0.00    -0.035 C 
ATOM     10  C   UNL     1       7.026 -18.173  13.527  1.00  0.00    -0.006 C 
ATOM     11  C   UNL     1       8.456 -19.335  15.294  1.00  0.00    -0.027 C 
ATOM     12  C   UNL     1      10.286 -14.615  16.526  1.00  0.00     0.011 C 
ATOM     13  C   UNL     1       8.863 -13.157  15.083  1.00  0.00     0.011 C 
ATOM     14  C   UNL     1       7.620 -17.330  12.342  1.00  0.00     0.017 C 
ATOM     15  C   UNL     1       6.763 -19.692  12.974  1.00  0.00    -0.020 C 
ATOM     16  C   UNL     1       7.963 -20.709  14.945  1.00  0.00     0.032 C 
ATOM     17  C   UNL     1       6.614 -20.673  14.191  1.00  0.00     0.006 C 
ATOM     18  C   UNL     1       5.482 -19.801  12.109  1.00  0.00     0.008 C 
ATOM     19  C   UNL     1       7.979 -20.116  12.067  1.00  0.00     0.012 C 
ATOM     20  C   UNL     1       5.940 -22.127  13.991  1.00  0.00    -0.025 C 
ATOM     21  C   UNL     1       5.189 -21.232  11.668  1.00  0.00     0.005 C 
ATOM     22  C   UNL     1       4.804 -22.128  12.873  1.00  0.00     0.003 C 
ATOM     23  C   UNL     1       7.015 -23.225  13.693  1.00  0.00     0.010 C 
ATOM     24  C   UNL     1       5.282 -22.469  15.369  1.00  0.00     0.012 C 
ATOM     25  C   UNL     1       4.283 -23.575  12.423  1.00  0.00    -0.006 C 
ATOM     26  C   UNL     1       6.450 -24.606  13.351  1.00  0.00     0.033 C 
ATOM     27  C   UNL     1       5.470 -24.557  12.174  1.00  0.00     0.120 C 
ATOM     28  C   UNL     1       3.435 -23.501  11.117  1.00  0.00     0.014 C 
ATOM     29  C   UNL     1       3.311 -24.179  13.490  1.00  0.00     0.014 C 
ENDROOT
BRANCH   1  30
ATOM     30  C   UNL     1       6.832 -17.366  17.767  1.00  0.00     0.048 C 
ATOM     31  O   UNL     1       5.891 -17.182  18.587  1.00  0.00    -0.550 OA
ATOM     32  O   UNL     1       7.948 -18.079  18.196  1.00  0.00    -0.550 OA
ENDBRANCH   1  30
BRANCH  27  33
ATOM     33  O   UNL     1       6.187 -24.198  11.018  1.00  0.00    -0.393 OA
ATOM     34  H   UNL     1       5.591 -23.641  10.453  1.00  0.00     0.210 HD
ENDBRANCH  27  33
TORSDOF 2
ENDMDL
MODEL 4
REMARK VINA RESULT:    -6.268      1.730      7.886
REMARK INTER + INTRA:          -7.043
REMARK INTER:                  -6.788
REMARK INTRA:                  -0.255
REMARK UNBOUND:                -0.225
REMARK SMILES CC1(C)CC[C@@]2(C(=O)[O-])CC[C@@]3(C)C(=CC[C@@H]4[C@]5(C)CC[C@H](O)C(C)(C)[C@@H]5CC[C@]43C)[C@H]2C1
REMARK SMILES IDX 6 1 5 2 10 3 32 4 4 5 11 6 14 7 33 8 2 9 12 10 15 11 1 12
REMARK SMILES IDX 3 13 13 14 30 15 16 16 17 17 29 18 31 19 18 20 28 21 27 22
REMARK SMILES IDX 20 23 19 24 24 25 21 26 22 27 25 28 26 29 7 30 8 31 9 32
REMARK SMILES IDX 23 33
REMARK H PARENT 23 34
REMARK Flexibility Score: inf
ROOT
ATOM      1  C   UNL     1       7.238 -18.159  15.532  1.00  0.00     0.017 C 
ATOM      2  C   UNL     1       7.924 -16.776  15.302  1.00  0.00     0.014 C 
ATOM      3  C   UNL     1       7.696 -18.743  16.920  1.00  0.00     0.014 C 
ATOM      4  C   UNL     1       5.661 -18.022  15.463  1.00  0.00     0.028 C 
ATOM      5  C   UNL     1       7.236 -15.976  14.181  1.00  0.00     0.007 C 
ATOM      6  C   UNL     1       6.766 -18.394  18.106  1.00  0.00     0.013 C 
ATOM      7  C   UNL     1       5.010 -19.023  16.429  1.00  0.00    -0.064 C 
ATOM      8  C   UNL     1       5.188 -16.560  15.632  1.00  0.00     0.015 C 
ATOM      9  C   UNL     1       5.750 -15.620  14.521  1.00  0.00    -0.035 C 
ATOM     10  C   UNL     1       5.255 -18.870  17.959  1.00  0.00    -0.006 C 
ATOM     11  C   UNL     1       4.693 -20.220  15.866  1.00  0.00    -0.027 C 
ATOM     12  C   UNL     1       4.884 -15.722  13.244  1.00  0.00     0.011 C 
ATOM     13  C   UNL     1       5.674 -14.161  15.025  1.00  0.00     0.011 C 
ATOM     14  C   UNL     1       4.356 -17.707  18.513  1.00  0.00     0.017 C 
ATOM     15  C   UNL     1       4.843 -20.240  18.756  1.00  0.00    -0.020 C 
ATOM     16  C   UNL     1       4.608 -21.526  16.600  1.00  0.00     0.032 C 
ATOM     17  C   UNL     1       5.356 -21.488  17.952  1.00  0.00     0.006 C 
ATOM     18  C   UNL     1       5.445 -20.307  20.183  1.00  0.00     0.008 C 
ATOM     19  C   UNL     1       3.276 -20.285  18.906  1.00  0.00     0.012 C 
ATOM     20  C   UNL     1       5.480 -22.929  18.670  1.00  0.00    -0.025 C 
ATOM     21  C   UNL     1       5.135 -21.622  20.892  1.00  0.00     0.005 C 
ATOM     22  C   UNL     1       5.858 -22.815  20.215  1.00  0.00     0.003 C 
ATOM     23  C   UNL     1       4.183 -23.783  18.477  1.00  0.00     0.010 C 
ATOM     24  C   UNL     1       6.645 -23.661  17.926  1.00  0.00     0.012 C 
ATOM     25  C   UNL     1       5.729 -24.171  21.058  1.00  0.00    -0.006 C 
ATOM     26  C   UNL     1       4.160 -25.107  19.245  1.00  0.00     0.033 C 
ATOM     27  C   UNL     1       4.390 -24.910  20.747  1.00  0.00     0.120 C 
ATOM     28  C   UNL     1       5.791 -23.905  22.592  1.00  0.00     0.014 C 
ATOM     29  C   UNL     1       6.938 -25.125  20.775  1.00  0.00     0.014 C 
ENDROOT
BRANCH   1  30
ATOM     30  C   UNL     1       7.748 -19.100  14.437  1.00  0.00     0.048 C 
ATOM     31  O   UNL     1       7.071 -19.275  13.386  1.00  0.00    -0.550 OA
ATOM     32  O   UNL     1       8.900 -19.861  14.612  1.00  0.00    -0.550 OA
ENDBRANCH   1  30
BRANCH  27  33
ATOM     33  O   UNL     1       3.292 -24.205  21.273  1.00  0.00    -0.393 OA
ATOM     34  H   UNL     1       2.468 -24.585  20.871  1.00  0.00     0.210 HD
ENDBRANCH  27  33
TORSDOF 2
ENDMDL
MODEL 5
REMARK VINA RESULT:    -6.132      2.866      4.495
REMARK INTER + INTRA:          -6.896
REMARK INTER:                  -6.680
REMARK INTRA:                  -0.216
REMARK UNBOUND:                -0.225
REMARK SMILES CC1(C)CC[C@@]2(C(=O)[O-])CC[C@@]3(C)C(=CC[C@@H]4[C@]5(C)CC[C@H](O)C(C)(C)[C@@H]5CC[C@]43C)[C@H]2C1
REMARK SMILES IDX 6 1 5 2 10 3 32 4 4 5 11 6 14 7 33 8 2 9 12 10 15 11 1 12
REMARK SMILES IDX 3 13 13 14 30 15 16 16 17 17 29 18 31 19 18 20 28 21 27 22
REMARK SMILES IDX 20 23 19 24 24 25 21 26 22 27 25 28 26 29 7 30 8 31 9 32
REMARK SMILES IDX 23 33
REMARK H PARENT 23 34
REMARK Flexibility Score: inf
ROOT
ATOM      1  C   UNL     1       5.240 -18.187  18.982  1.00  0.00     0.017 C 
ATOM      2  C   UNL     1       5.550 -17.371  20.277  1.00  0.00     0.014 C 
ATOM      3  C   UNL     1       5.808 -17.417  17.733  1.00  0.00     0.014 C 
ATOM      4  C   UNL     1       5.848 -19.646  19.079  1.00  0.00     0.028 C 
ATOM      5  C   UNL     1       5.385 -18.227  21.545  1.00  0.00     0.007 C 
ATOM      6  C   UNL     1       7.240 -17.828  17.318  1.00  0.00     0.013 C 
ATOM      7  C   UNL     1       6.287 -20.119  17.685  1.00  0.00    -0.064 C 
ATOM      8  C   UNL     1       6.936 -19.760  20.172  1.00  0.00     0.015 C 
ATOM      9  C   UNL     1       6.387 -19.428  21.595  1.00  0.00    -0.035 C 
ATOM     10  C   UNL     1       7.438 -19.365  16.955  1.00  0.00    -0.006 C 
ATOM     11  C   UNL     1       5.339 -20.817  17.006  1.00  0.00    -0.027 C 
ATOM     12  C   UNL     1       5.688 -20.666  22.202  1.00  0.00     0.011 C 
ATOM     13  C   UNL     1       7.579 -19.066  22.510  1.00  0.00     0.011 C 
ATOM     14  C   UNL     1       8.815 -19.803  17.570  1.00  0.00     0.017 C 
ATOM     15  C   UNL     1       7.462 -19.739  15.362  1.00  0.00    -0.020 C 
ATOM     16  C   UNL     1       5.226 -20.897  15.511  1.00  0.00     0.032 C 
ATOM     17  C   UNL     1       5.993 -19.756  14.805  1.00  0.00     0.006 C 
ATOM     18  C   UNL     1       8.283 -18.728  14.521  1.00  0.00     0.008 C 
ATOM     19  C   UNL     1       8.136 -21.152  15.185  1.00  0.00     0.012 C 
ATOM     20  C   UNL     1       5.720 -19.672  13.216  1.00  0.00    -0.025 C 
ATOM     21  C   UNL     1       8.232 -19.026  13.026  1.00  0.00     0.005 C 
ATOM     22  C   UNL     1       6.810 -18.797  12.451  1.00  0.00     0.003 C 
ATOM     23  C   UNL     1       5.600 -21.095  12.576  1.00  0.00     0.010 C 
ATOM     24  C   UNL     1       4.329 -18.969  13.073  1.00  0.00     0.012 C 
ATOM     25  C   UNL     1       6.771 -18.891  10.852  1.00  0.00    -0.006 C 
ATOM     26  C   UNL     1       5.482 -21.110  11.050  1.00  0.00     0.033 C 
ATOM     27  C   UNL     1       6.639 -20.370  10.371  1.00  0.00     0.120 C 
ATOM     28  C   UNL     1       8.054 -18.285  10.206  1.00  0.00     0.014 C 
ATOM     29  C   UNL     1       5.596 -18.039  10.267  1.00  0.00     0.014 C 
ENDROOT
BRANCH   1  30
ATOM     30  C   UNL     1       3.716 -18.244  18.843  1.00  0.00     0.048 C 
ATOM     31  O   UNL     1       3.049 -17.178  18.731  1.00  0.00    -0.550 OA
ATOM     32  O   UNL     1       3.022 -19.446  18.941  1.00  0.00    -0.550 OA
ENDBRANCH   1  30
BRANCH  27  33
ATOM     33  O   UNL     1       7.825 -21.087  10.617  1.00  0.00    -0.393 OA
ATOM     34  H   UNL     1       8.253 -20.697  11.422  1.00  0.00     0.210 HD
ENDBRANCH  27  33
TORSDOF 2
ENDMDL
MODEL 6
REMARK VINA RESULT:    -5.917      5.559      8.612
REMARK INTER + INTRA:          -6.662
REMARK INTER:                  -6.376
REMARK INTRA:                  -0.286
REMARK UNBOUND:                -0.225
REMARK SMILES CC1(C)CC[C@@]2(C(=O)[O-])CC[C@@]3(C)C(=CC[C@@H]4[C@]5(C)CC[C@H](O)C(C)(C)[C@@H]5CC[C@]43C)[C@H]2C1
REMARK SMILES IDX 6 1 5 2 10 3 32 4 4 5 11 6 14 7 33 8 2 9 12 10 15 11 1 12
REMARK SMILES IDX 3 13 13 14 30 15 16 16 17 17 29 18 31 19 18 20 28 21 27 22
REMARK SMILES IDX 20 23 19 24 24 25 21 26 22 27 25 28 26 29 7 30 8 31 9 32
REMARK SMILES IDX 23 33
REMARK H PARENT 23 34
REMARK Flexibility Score: inf
ROOT
ATOM      1  C   UNL     1       4.071 -18.709  10.349  1.00  0.00     0.017 C 
ATOM      2  C   UNL     1       3.316 -18.503   8.999  1.00  0.00     0.014 C 
ATOM      3  C   UNL     1       4.995 -17.465  10.623  1.00  0.00     0.014 C 
ATOM      4  C   UNL     1       3.047 -18.932  11.537  1.00  0.00     0.028 C 
ATOM      5  C   UNL     1       2.122 -19.465   8.859  1.00  0.00     0.007 C 
ATOM      6  C   UNL     1       4.342 -16.351  11.475  1.00  0.00     0.013 C 
ATOM      7  C   UNL     1       3.614 -18.332  12.832  1.00  0.00    -0.064 C 
ATOM      8  C   UNL     1       1.617 -18.463  11.179  1.00  0.00     0.015 C 
ATOM      9  C   UNL     1       1.029 -19.230   9.954  1.00  0.00    -0.035 C 
ATOM     10  C   UNL     1       3.840 -16.793  12.919  1.00  0.00    -0.006 C 
ATOM     11  C   UNL     1       4.321 -19.209  13.593  1.00  0.00    -0.027 C 
ATOM     12  C   UNL     1       0.440 -20.587  10.403  1.00  0.00     0.011 C 
ATOM     13  C   UNL     1      -0.125 -18.391   9.357  1.00  0.00     0.011 C 
ATOM     14  C   UNL     1       2.461 -16.080  13.159  1.00  0.00     0.017 C 
ATOM     15  C   UNL     1       4.820 -16.418  14.177  1.00  0.00    -0.020 C 
ATOM     16  C   UNL     1       5.429 -18.839  14.537  1.00  0.00     0.032 C 
ATOM     17  C   UNL     1       6.011 -17.439  14.235  1.00  0.00     0.006 C 
ATOM     18  C   UNL     1       5.414 -14.991  14.068  1.00  0.00     0.008 C 
ATOM     19  C   UNL     1       3.978 -16.475  15.506  1.00  0.00     0.012 C 
ATOM     20  C   UNL     1       7.344 -17.092  15.078  1.00  0.00    -0.025 C 
ATOM     21  C   UNL     1       6.395 -14.673  15.192  1.00  0.00     0.005 C 
ATOM     22  C   UNL     1       7.681 -15.534  15.081  1.00  0.00     0.003 C 
ATOM     23  C   UNL     1       7.264 -17.647  16.539  1.00  0.00     0.010 C 
ATOM     24  C   UNL     1       8.503 -17.849  14.346  1.00  0.00     0.012 C 
ATOM     25  C   UNL     1       8.818 -15.077  16.113  1.00  0.00    -0.006 C 
ATOM     26  C   UNL     1       8.425 -17.242  17.450  1.00  0.00     0.033 C 
ATOM     27  C   UNL     1       8.604 -15.721  17.519  1.00  0.00     0.120 C 
ATOM     28  C   UNL     1       8.848 -13.528  16.290  1.00  0.00     0.014 C 
ATOM     29  C   UNL     1      10.242 -15.439  15.576  1.00  0.00     0.014 C 
ENDROOT
BRANCH   1  30
ATOM     30  C   UNL     1       4.974 -19.934  10.176  1.00  0.00     0.048 C 
ATOM     31  O   UNL     1       6.038 -19.846   9.503  1.00  0.00    -0.550 OA
ATOM     32  O   UNL     1       4.601 -21.185  10.657  1.00  0.00    -0.550 OA
ENDBRANCH   1  30
BRANCH  27  33
ATOM     33  O   UNL     1       7.477 -15.173  18.158  1.00  0.00    -0.393 OA
ATOM     34  H   UNL     1       6.670 -15.600  17.767  1.00  0.00     0.210 HD
ENDBRANCH  27  33
TORSDOF 2
ENDMDL
MODEL 7
REMARK VINA RESULT:    -5.858      3.698      6.452
REMARK INTER + INTRA:          -6.597
REMARK INTER:                  -6.311
REMARK INTRA:                  -0.286
REMARK UNBOUND:                -0.225
REMARK SMILES CC1(C)CC[C@@]2(C(=O)[O-])CC[C@@]3(C)C(=CC[C@@H]4[C@]5(C)CC[C@H](O)C(C)(C)[C@@H]5CC[C@]43C)[C@H]2C1
REMARK SMILES IDX 6 1 5 2 10 3 32 4 4 5 11 6 14 7 33 8 2 9 12 10 15 11 1 12
REMARK SMILES IDX 3 13 13 14 30 15 16 16 17 17 29 18 31 19 18 20 28 21 27 22
REMARK SMILES IDX 20 23 19 24 24 25 21 26 22 27 25 28 26 29 7 30 8 31 9 32
REMARK SMILES IDX 23 33
REMARK H PARENT 23 34
REMARK Flexibility Score: inf
ROOT
ATOM      1  C   UNL     1       4.748 -19.189  16.516  1.00  0.00     0.017 C 
ATOM      2  C   UNL     1       4.060 -19.579  17.862  1.00  0.00     0.014 C 
ATOM      3  C   UNL     1       3.959 -19.842  15.321  1.00  0.00     0.014 C 
ATOM      4  C   UNL     1       4.820 -17.614  16.359  1.00  0.00     0.028 C 
ATOM      5  C   UNL     1       4.521 -18.677  19.022  1.00  0.00     0.007 C 
ATOM      6  C   UNL     1       2.861 -18.943  14.704  1.00  0.00     0.013 C 
ATOM      7  C   UNL     1       4.689 -17.233  14.876  1.00  0.00    -0.064 C 
ATOM      8  C   UNL     1       3.841 -16.881  17.304  1.00  0.00     0.015 C 
ATOM      9  C   UNL     1       4.131 -17.177  18.808  1.00  0.00    -0.035 C 
ATOM     10  C   UNL     1       3.359 -17.546  14.128  1.00  0.00    -0.006 C 
ATOM     11  C   UNL     1       5.874 -17.115  14.221  1.00  0.00    -0.027 C 
ATOM     12  C   UNL     1       5.267 -16.264  19.324  1.00  0.00     0.011 C 
ATOM     13  C   UNL     1       2.860 -16.854  19.627  1.00  0.00     0.011 C 
ATOM     14  C   UNL     1       2.278 -16.479  14.528  1.00  0.00     0.017 C 
ATOM     15  C   UNL     1       3.568 -17.459  12.506  1.00  0.00    -0.020 C 
ATOM     16  C   UNL     1       6.075 -17.333  12.749  1.00  0.00     0.032 C 
ATOM     17  C   UNL     1       4.924 -18.148  12.116  1.00  0.00     0.006 C 
ATOM     18  C   UNL     1       2.430 -18.156  11.718  1.00  0.00     0.008 C 
ATOM     19  C   UNL     1       3.574 -15.943  12.079  1.00  0.00     0.012 C 
ATOM     20  C   UNL     1       5.204 -18.594  10.589  1.00  0.00    -0.025 C 
ATOM     21  C   UNL     1       2.669 -18.153  10.211  1.00  0.00     0.005 C 
ATOM     22  C   UNL     1       3.878 -19.045   9.828  1.00  0.00     0.003 C 
ATOM     23  C   UNL     1       5.951 -17.475   9.789  1.00  0.00     0.010 C 
ATOM     24  C   UNL     1       6.164 -19.826  10.690  1.00  0.00     0.012 C 
ATOM     25  C   UNL     1       4.025 -19.236   8.244  1.00  0.00    -0.006 C 
ATOM     26  C   UNL     1       6.132 -17.759   8.296  1.00  0.00     0.033 C 
ATOM     27  C   UNL     1       4.799 -18.046   7.595  1.00  0.00     0.120 C 
ATOM     28  C   UNL     1       2.635 -19.347   7.546  1.00  0.00     0.014 C 
ATOM     29  C   UNL     1       4.744 -20.584   7.904  1.00  0.00     0.014 C 
ENDROOT
BRANCH   1  30
ATOM     30  C   UNL     1       6.153 -19.796  16.537  1.00  0.00     0.048 C 
ATOM     31  O   UNL     1       6.310 -21.036  16.360  1.00  0.00    -0.550 OA
ATOM     32  O   UNL     1       7.271 -19.030  16.852  1.00  0.00    -0.550 OA
ENDBRANCH   1  30
BRANCH  27  33
ATOM     33  O   UNL     1       4.027 -16.870   7.617  1.00  0.00    -0.393 OA
ATOM     34  H   UNL     1       4.319 -16.331   8.397  1.00  0.00     0.210 HD
ENDBRANCH  27  33
TORSDOF 2
ENDMDL
MODEL 8
REMARK VINA RESULT:    -5.837      5.622      8.123
REMARK INTER + INTRA:          -6.575
REMARK INTER:                  -6.289
REMARK INTRA:                  -0.286
REMARK UNBOUND:                -0.225
REMARK SMILES CC1(C)CC[C@@]2(C(=O)[O-])CC[C@@]3(C)C(=CC[C@@H]4[C@]5(C)CC[C@H](O)C(C)(C)[C@@H]5CC[C@]43C)[C@H]2C1
REMARK SMILES IDX 6 1 5 2 10 3 32 4 4 5 11 6 14 7 33 8 2 9 12 10 15 11 1 12
REMARK SMILES IDX 3 13 13 14 30 15 16 16 17 17 29 18 31 19 18 20 28 21 27 22
REMARK SMILES IDX 20 23 19 24 24 25 21 26 22 27 25 28 26 29 7 30 8 31 9 32
REMARK SMILES IDX 23 33
REMARK H PARENT 23 34
REMARK Flexibility Score: inf
ROOT
ATOM      1  C   UNL     1       5.699 -16.301  15.038  1.00  0.00     0.017 C 
ATOM      2  C   UNL     1       5.770 -14.774  15.353  1.00  0.00     0.014 C 
ATOM      3  C   UNL     1       4.798 -16.529  13.767  1.00  0.00     0.014 C 
ATOM      4  C   UNL     1       7.150 -16.899  14.824  1.00  0.00     0.028 C 
ATOM      5  C   UNL     1       6.925 -14.443  16.316  1.00  0.00     0.007 C 
ATOM      6  C   UNL     1       5.571 -16.569  12.428  1.00  0.00     0.013 C 
ATOM      7  C   UNL     1       7.098 -18.027  13.781  1.00  0.00    -0.064 C 
ATOM      8  C   UNL     1       8.203 -15.803  14.539  1.00  0.00     0.015 C 
ATOM      9  C   UNL     1       8.328 -14.780  15.710  1.00  0.00    -0.035 C 
ATOM     10  C   UNL     1       6.697 -17.687  12.316  1.00  0.00    -0.006 C 
ATOM     11  C   UNL     1       6.923 -19.268  14.308  1.00  0.00    -0.027 C 
ATOM     12  C   UNL     1       9.252 -15.340  16.815  1.00  0.00     0.011 C 
ATOM     13  C   UNL     1       8.978 -13.487  15.166  1.00  0.00     0.011 C 
ATOM     14  C   UNL     1       7.921 -17.027  11.584  1.00  0.00     0.017 C 
ATOM     15  C   UNL     1       6.297 -19.044  11.491  1.00  0.00    -0.020 C 
ATOM     16  C   UNL     1       6.276 -20.424  13.602  1.00  0.00     0.032 C 
ATOM     17  C   UNL     1       5.414 -19.969  12.402  1.00  0.00     0.006 C 
ATOM     18  C   UNL     1       5.501 -18.744  10.195  1.00  0.00     0.008 C 
ATOM     19  C   UNL     1       7.620 -19.786  11.067  1.00  0.00     0.012 C 
ATOM     20  C   UNL     1       4.526 -21.150  11.752  1.00  0.00    -0.025 C 
ATOM     21  C   UNL     1       5.051 -20.011   9.473  1.00  0.00     0.005 C 
ATOM     22  C   UNL     1       3.988 -20.784  10.297  1.00  0.00     0.003 C 
ATOM     23  C   UNL     1       5.301 -22.510  11.732  1.00  0.00     0.010 C 
ATOM     24  C   UNL     1       3.299 -21.318  12.708  1.00  0.00     0.012 C 
ATOM     25  C   UNL     1       3.339 -21.998   9.476  1.00  0.00    -0.006 C 
ATOM     26  C   UNL     1       4.587 -23.651  11.004  1.00  0.00     0.033 C 
ATOM     27  C   UNL     1       4.223 -23.282   9.562  1.00  0.00     0.120 C 
ATOM     28  C   UNL     1       3.150 -21.641   7.971  1.00  0.00     0.014 C 
ATOM     29  C   UNL     1       1.895 -22.315   9.990  1.00  0.00     0.014 C 
ENDROOT
BRANCH   1  30
ATOM     30  C   UNL     1       5.007 -16.973  16.228  1.00  0.00     0.048 C 
ATOM     31  O   UNL     1       3.759 -16.862  16.380  1.00  0.00    -0.550 OA
ATOM     32  O   UNL     1       5.735 -17.624  17.218  1.00  0.00    -0.550 OA
ENDBRANCH   1  30
BRANCH  27  33
ATOM     33  O   UNL     1       5.416 -23.121   8.834  1.00  0.00    -0.393 OA
ATOM     34  H   UNL     1       5.714 -24.021   8.539  1.00  0.00     0.210 HD
ENDBRANCH  27  33
TORSDOF 2
ENDMDL
MODEL 9
REMARK VINA RESULT:    -5.760      4.012      6.316
REMARK INTER + INTRA:          -6.491
REMARK INTER:                  -6.204
REMARK INTRA:                  -0.286
REMARK UNBOUND:                -0.225
REMARK SMILES CC1(C)CC[C@@]2(C(=O)[O-])CC[C@@]3(C)C(=CC[C@@H]4[C@]5(C)CC[C@H](O)C(C)(C)[C@@H]5CC[C@]43C)[C@H]2C1
REMARK SMILES IDX 6 1 5 2 10 3 32 4 4 5 11 6 14 7 33 8 2 9 12 10 15 11 1 12
REMARK SMILES IDX 3 13 13 14 30 15 16 16 17 17 29 18 31 19 18 20 28 21 27 22
REMARK SMILES IDX 20 23 19 24 24 25 21 26 22 27 25 28 26 29 7 30 8 31 9 32
REMARK SMILES IDX 23 33
REMARK H PARENT 23 34
REMARK Flexibility Score: inf
ROOT
ATOM      1  C   UNL     1       6.131 -22.996  14.260  1.00  0.00     0.017 C 
ATOM      2  C   UNL     1       6.286 -24.254  13.347  1.00  0.00     0.014 C 
ATOM      3  C   UNL     1       7.318 -22.001  13.979  1.00  0.00     0.014 C 
ATOM      4  C   UNL     1       4.730 -22.298  14.020  1.00  0.00     0.028 C 
ATOM      5  C   UNL     1       4.984 -25.071  13.274  1.00  0.00     0.007 C 
ATOM      6  C   UNL     1       7.016 -20.923  12.912  1.00  0.00     0.013 C 
ATOM      7  C   UNL     1       4.870 -20.778  14.202  1.00  0.00    -0.064 C 
ATOM      8  C   UNL     1       4.075 -22.731  12.688  1.00  0.00     0.015 C 
ATOM      9  C   UNL     1       3.805 -24.267  12.631  1.00  0.00    -0.035 C 
ATOM     10  C   UNL     1       5.774 -19.977  13.220  1.00  0.00    -0.006 C 
ATOM     11  C   UNL     1       4.605 -20.339  15.461  1.00  0.00    -0.027 C 
ATOM     12  C   UNL     1       2.484 -24.606  13.358  1.00  0.00     0.011 C 
ATOM     13  C   UNL     1       3.647 -24.683  11.150  1.00  0.00     0.011 C 
ATOM     14  C   UNL     1       5.011 -19.773  11.862  1.00  0.00     0.017 C 
ATOM     15  C   UNL     1       6.120 -18.494  13.824  1.00  0.00    -0.020 C 
ATOM     16  C   UNL     1       5.184 -19.102  16.085  1.00  0.00     0.032 C 
ATOM     17  C   UNL     1       6.456 -18.617  15.353  1.00  0.00     0.006 C 
ATOM     18  C   UNL     1       7.328 -17.827  13.118  1.00  0.00     0.008 C 
ATOM     19  C   UNL     1       4.874 -17.557  13.605  1.00  0.00     0.012 C 
ATOM     20  C   UNL     1       7.235 -17.427  16.117  1.00  0.00    -0.025 C 
ATOM     21  C   UNL     1       7.706 -16.486  13.739  1.00  0.00     0.005 C 
ATOM     22  C   UNL     1       8.268 -16.664  15.173  1.00  0.00     0.003 C 
ATOM     23  C   UNL     1       6.238 -16.418  16.780  1.00  0.00     0.010 C 
ATOM     24  C   UNL     1       8.034 -18.128  17.265  1.00  0.00     0.012 C 
ATOM     25  C   UNL     1       8.873 -15.305  15.770  1.00  0.00    -0.006 C 
ATOM     26  C   UNL     1       6.889 -15.182  17.405  1.00  0.00     0.033 C 
ATOM     27  C   UNL     1       7.758 -14.415  16.403  1.00  0.00     0.120 C 
ATOM     28  C   UNL     1       9.598 -14.466  14.674  1.00  0.00     0.014 C 
ATOM     29  C   UNL     1       9.981 -15.603  16.834  1.00  0.00     0.014 C 
ENDROOT
BRANCH   1  30
ATOM     30  C   UNL     1       6.256 -23.476  15.709  1.00  0.00     0.048 C 
ATOM     31  O   UNL     1       7.386 -23.784  16.180  1.00  0.00    -0.550 OA
ATOM     32  O   UNL     1       5.133 -23.685  16.504  1.00  0.00    -0.550 OA
ENDBRANCH   1  30
BRANCH  27  33
ATOM     33  O   UNL     1       6.917 -13.878  15.411  1.00  0.00    -0.393 OA
ATOM     34  H   UNL     1       6.493 -13.062  15.783  1.00  0.00     0.210 HD
ENDBRANCH  27  33
TORSDOF 2
ENDMDL
