MODEL 1
REMARK VINA RESULT:    -3.414      0.000      0.000
REMARK INTER + INTRA:          -5.690
REMARK INTER:                  -5.409
REMARK INTRA:                  -0.281
REMARK UNBOUND:                -0.281
REMARK SMILES CCCCCCCCCCCC(=O)[O-]
REMARK SMILES IDX 7 1 8 2 9 3 10 4 11 5 12 6 13 7 14 8 6 9 5 10 4 11 3 12 2 13
REMARK SMILES IDX 1 14
REMARK H PARENT
REMARK Flexibility Score: inf
ROOT
ATOM      1  C   UNL     1      45.235 -23.843  -1.092  1.00  0.00     0.000 C 
ENDROOT
BRANCH   1   2
ATOM      2  C   UNL     1      45.974 -24.803  -2.041  1.00  0.00     0.000 C 
BRANCH   2   3
ATOM      3  C   UNL     1      46.125 -24.234  -3.461  1.00  0.00     0.000 C 
BRANCH   3   4
ATOM      4  C   UNL     1      45.156 -24.886  -4.463  1.00  0.00     0.006 C 
BRANCH   4   5
ATOM      5  C   UNL     1      45.845 -25.236  -5.789  1.00  0.00     0.053 C 
BRANCH   5   6
ATOM      6  C   UNL     1      45.660 -24.159  -6.814  1.00  0.00     0.041 C 
ATOM      7  O   UNL     1      45.501 -22.962  -6.454  1.00  0.00    -0.550 OA
ATOM      8  O   UNL     1      45.693 -24.471  -8.168  1.00  0.00    -0.550 OA
ENDBRANCH   5   6
ENDBRANCH   4   5
ENDBRANCH   3   4
ENDBRANCH   2   3
ENDBRANCH   1   2
BRANCH   1   9
ATOM      9  C   UNL     1      45.461 -24.189   0.388  1.00  0.00     0.000 C 
BRANCH   9  10
ATOM     10  C   UNL     1      45.878 -25.656   0.593  1.00  0.00    -0.000 C 
BRANCH  10  11
ATOM     11  C   UNL     1      45.835 -26.083   2.069  1.00  0.00    -0.000 C 
BRANCH  11  12
ATOM     12  C   UNL     1      45.040 -27.383   2.284  1.00  0.00    -0.000 C 
BRANCH  12  13
ATOM     13  C   UNL     1      45.854 -28.455   3.028  1.00  0.00    -0.003 C 
ATOM     14  C   UNL     1      46.102 -29.703   2.181  1.00  0.00     0.004 C 
ENDBRANCH  12  13
ENDBRANCH  11  12
ENDBRANCH  10  11
ENDBRANCH   9  10
ENDBRANCH   1   9
TORSDOF 10
ENDMDL
MODEL 2
REMARK VINA RESULT:    -2.708      3.927      7.697
REMARK INTER + INTRA:          -4.572
REMARK INTER:                  -4.236
REMARK INTRA:                  -0.336
REMARK UNBOUND:                -0.281
REMARK SMILES CCCCCCCCCCCC(=O)[O-]
REMARK SMILES IDX 7 1 8 2 9 3 10 4 11 5 12 6 13 7 14 8 6 9 5 10 4 11 3 12 2 13
REMARK SMILES IDX 1 14
REMARK H PARENT
REMARK Flexibility Score: inf
ROOT
ATOM      1  C   UNL     1      44.637 -24.068  -1.855  1.00  0.00     0.000 C 
ENDROOT
BRANCH   1   2
ATOM      2  C   UNL     1      44.751 -23.159  -0.619  1.00  0.00     0.000 C 
BRANCH   2   3
ATOM      3  C   UNL     1      45.871 -23.597   0.338  1.00  0.00     0.000 C 
BRANCH   3   4
ATOM      4  C   UNL     1      46.019 -25.127   0.411  1.00  0.00     0.006 C 
BRANCH   4   5
ATOM      5  C   UNL     1      45.042 -25.756   1.414  1.00  0.00     0.053 C 
BRANCH   5   6
ATOM      6  C   UNL     1      45.648 -26.928   2.122  1.00  0.00     0.041 C 
ATOM      7  O   UNL     1      46.121 -26.792   3.282  1.00  0.00    -0.550 OA
ATOM      8  O   UNL     1      45.665 -28.178   1.515  1.00  0.00    -0.550 OA
ENDBRANCH   5   6
ENDBRANCH   4   5
ENDBRANCH   3   4
ENDBRANCH   2   3
ENDBRANCH   1   2
BRANCH   1   9
ATOM      9  C   UNL     1      45.912 -24.058  -2.712  1.00  0.00     0.000 C 
BRANCH   9  10
ATOM     10  C   UNL     1      46.113 -25.373  -3.487  1.00  0.00    -0.000 C 
BRANCH  10  11
ATOM     11  C   UNL     1      45.741 -25.248  -4.973  1.00  0.00    -0.000 C 
BRANCH  11  12
ATOM     12  C   UNL     1      46.076 -23.862  -5.550  1.00  0.00    -0.000 C 
BRANCH  12  13
ATOM     13  C   UNL     1      46.123 -23.860  -7.087  1.00  0.00    -0.003 C 
ATOM     14  C   UNL     1      45.986 -22.459  -7.682  1.00  0.00     0.004 C 
ENDBRANCH  12  13
ENDBRANCH  11  12
ENDBRANCH  10  11
ENDBRANCH   9  10
ENDBRANCH   1   9
TORSDOF 10
ENDMDL
MODEL 3
REMARK VINA RESULT:    -2.493      4.261      7.661
REMARK INTER + INTRA:          -4.232
REMARK INTER:                  -4.346
REMARK INTRA:                   0.115
REMARK UNBOUND:                -0.281
REMARK SMILES CCCCCCCCCCCC(=O)[O-]
REMARK SMILES IDX 7 1 8 2 9 3 10 4 11 5 12 6 13 7 14 8 6 9 5 10 4 11 3 12 2 13
REMARK SMILES IDX 1 14
REMARK H PARENT
REMARK Flexibility Score: inf
ROOT
ATOM      1  C   UNL     1      45.036 -23.962  -0.305  1.00  0.00     0.000 C 
ENDROOT
BRANCH   1   2
ATOM      2  C   UNL     1      45.788 -24.764   0.771  1.00  0.00     0.000 C 
BRANCH   2   3
ATOM      3  C   UNL     1      45.056 -26.056   1.167  1.00  0.00     0.000 C 
BRANCH   3   4
ATOM      4  C   UNL     1      44.863 -26.182   2.689  1.00  0.00     0.006 C 
BRANCH   4   5
ATOM      5  C   UNL     1      45.983 -26.999   3.348  1.00  0.00     0.053 C 
BRANCH   5   6
ATOM      6  C   UNL     1      46.035 -28.401   2.820  1.00  0.00     0.041 C 
ATOM      7  O   UNL     1      46.032 -28.610   1.578  1.00  0.00    -0.550 OA
ATOM      8  O   UNL     1      46.116 -29.474   3.698  1.00  0.00    -0.550 OA
ENDBRANCH   5   6
ENDBRANCH   4   5
ENDBRANCH   3   4
ENDBRANCH   2   3
ENDBRANCH   1   2
BRANCH   1   9
ATOM      9  C   UNL     1      45.973 -23.078  -1.143  1.00  0.00     0.000 C 
BRANCH   9  10
ATOM     10  C   UNL     1      46.124 -23.584  -2.589  1.00  0.00    -0.000 C 
BRANCH  10  11
ATOM     11  C   UNL     1      45.635 -25.031  -2.765  1.00  0.00    -0.000 C 
BRANCH  11  12
ATOM     12  C   UNL     1      45.872 -25.564  -4.188  1.00  0.00    -0.000 C 
BRANCH  12  13
ATOM     13  C   UNL     1      45.863 -24.447  -5.245  1.00  0.00    -0.003 C 
ATOM     14  C   UNL     1      45.446 -24.944  -6.629  1.00  0.00     0.004 C 
ENDBRANCH  12  13
ENDBRANCH  11  12
ENDBRANCH  10  11
ENDBRANCH   9  10
ENDBRANCH   1   9
TORSDOF 10
ENDMDL
MODEL 4
REMARK VINA RESULT:    -2.132      5.640      8.988
REMARK INTER + INTRA:          -3.659
REMARK INTER:                  -3.266
REMARK INTRA:                  -0.393
REMARK UNBOUND:                -0.281
REMARK SMILES CCCCCCCCCCCC(=O)[O-]
REMARK SMILES IDX 7 1 8 2 9 3 10 4 11 5 12 6 13 7 14 8 6 9 5 10 4 11 3 12 2 13
REMARK SMILES IDX 1 14
REMARK H PARENT
REMARK Flexibility Score: inf
ROOT
ATOM      1  C   UNL     1      45.129 -25.321   0.627  1.00  0.00     0.000 C 
ENDROOT
BRANCH   1   2
ATOM      2  C   UNL     1      46.040 -26.237   1.463  1.00  0.00     0.000 C 
BRANCH   2   3
ATOM      3  C   UNL     1      45.317 -26.846   2.674  1.00  0.00     0.000 C 
BRANCH   3   4
ATOM      4  C   UNL     1      46.125 -26.703   3.977  1.00  0.00     0.006 C 
BRANCH   4   5
ATOM      5  C   UNL     1      45.261 -26.196   5.140  1.00  0.00     0.053 C 
BRANCH   5   6
ATOM      6  C   UNL     1      45.721 -26.744   6.456  1.00  0.00     0.041 C 
ATOM      7  O   UNL     1      46.073 -27.950   6.553  1.00  0.00    -0.550 OA
ATOM      8  O   UNL     1      45.791 -25.916   7.570  1.00  0.00    -0.550 OA
ENDBRANCH   5   6
ENDBRANCH   4   5
ENDBRANCH   3   4
ENDBRANCH   2   3
ENDBRANCH   1   2
BRANCH   1   9
ATOM      9  C   UNL     1      45.716 -23.913   0.447  1.00  0.00     0.000 C 
BRANCH   9  10
ATOM     10  C   UNL     1      45.987 -23.571  -1.030  1.00  0.00    -0.000 C 
BRANCH  10  11
ATOM     11  C   UNL     1      45.385 -24.604  -1.996  1.00  0.00    -0.000 C 
BRANCH  11  12
ATOM     12  C   UNL     1      46.121 -24.646  -3.347  1.00  0.00    -0.000 C 
BRANCH  12  13
ATOM     13  C   UNL     1      45.943 -23.351  -4.155  1.00  0.00    -0.003 C 
ATOM     14  C   UNL     1      46.125 -23.561  -5.658  1.00  0.00     0.004 C 
ENDBRANCH  12  13
ENDBRANCH  11  12
ENDBRANCH  10  11
ENDBRANCH   9  10
ENDBRANCH   1   9
TORSDOF 10
ENDMDL
MODEL 5
REMARK VINA RESULT:    -1.774      1.159      1.792
REMARK INTER + INTRA:          -3.092
REMARK INTER:                  -2.721
REMARK INTRA:                  -0.371
REMARK UNBOUND:                -0.281
REMARK SMILES CCCCCCCCCCCC(=O)[O-]
REMARK SMILES IDX 7 1 8 2 9 3 10 4 11 5 12 6 13 7 14 8 6 9 5 10 4 11 3 12 2 13
REMARK SMILES IDX 1 14
REMARK H PARENT
REMARK Flexibility Score: inf
ROOT
ATOM      1  C   UNL     1      45.233 -24.616   0.350  1.00  0.00     0.000 C 
ENDROOT
BRANCH   1   2
ATOM      2  C   UNL     1      45.930 -24.276  -0.978  1.00  0.00     0.000 C 
BRANCH   2   3
ATOM      3  C   UNL     1      44.939 -23.878  -2.083  1.00  0.00     0.000 C 
BRANCH   3   4
ATOM      4  C   UNL     1      44.825 -24.945  -3.186  1.00  0.00     0.006 C 
BRANCH   4   5
ATOM      5  C   UNL     1      46.122 -25.081  -3.996  1.00  0.00     0.053 C 
BRANCH   5   6
ATOM      6  C   UNL     1      45.992 -24.480  -5.362  1.00  0.00     0.041 C 
ATOM      7  O   UNL     1      46.025 -23.230  -5.509  1.00  0.00    -0.550 OA
ATOM      8  O   UNL     1      45.865 -25.301  -6.476  1.00  0.00    -0.550 OA
ENDBRANCH   5   6
ENDBRANCH   4   5
ENDBRANCH   3   4
ENDBRANCH   2   3
ENDBRANCH   1   2
BRANCH   1   9
ATOM      9  C   UNL     1      46.125 -25.444   1.288  1.00  0.00     0.000 C 
BRANCH   9  10
ATOM     10  C   UNL     1      45.332 -26.083   2.443  1.00  0.00    -0.000 C 
BRANCH  10  11
ATOM     11  C   UNL     1      44.996 -27.560   2.184  1.00  0.00    -0.000 C 
BRANCH  11  12
ATOM     12  C   UNL     1      46.022 -28.518   2.814  1.00  0.00    -0.000 C 
BRANCH  12  13
ATOM     13  C   UNL     1      45.493 -29.191   4.091  1.00  0.00    -0.003 C 
ATOM     14  C   UNL     1      46.125 -28.625   5.364  1.00  0.00     0.004 C 
ENDBRANCH  12  13
ENDBRANCH  11  12
ENDBRANCH  10  11
ENDBRANCH   9  10
ENDBRANCH   1   9
TORSDOF 10
ENDMDL
MODEL 6
REMARK VINA RESULT:    -1.605      4.167      8.218
REMARK INTER + INTRA:          -2.825
REMARK INTER:                  -2.523
REMARK INTRA:                  -0.302
REMARK UNBOUND:                -0.281
REMARK SMILES CCCCCCCCCCCC(=O)[O-]
REMARK SMILES IDX 7 1 8 2 9 3 10 4 11 5 12 6 13 7 14 8 6 9 5 10 4 11 3 12 2 13
REMARK SMILES IDX 1 14
REMARK H PARENT
REMARK Flexibility Score: inf
ROOT
ATOM      1  C   UNL     1      45.294 -24.137  -2.239  1.00  0.00     0.000 C 
ENDROOT
BRANCH   1   2
ATOM      2  C   UNL     1      45.965 -25.108  -1.252  1.00  0.00     0.000 C 
BRANCH   2   3
ATOM      3  C   UNL     1      45.348 -25.043   0.155  1.00  0.00     0.000 C 
BRANCH   3   4
ATOM      4  C   UNL     1      46.122 -25.892   1.178  1.00  0.00     0.006 C 
BRANCH   4   5
ATOM      5  C   UNL     1      45.189 -26.578   2.185  1.00  0.00     0.053 C 
BRANCH   5   6
ATOM      6  C   UNL     1      45.497 -28.037   2.328  1.00  0.00     0.041 C 
ATOM      7  O   UNL     1      45.532 -28.779   1.311  1.00  0.00    -0.550 OA
ATOM      8  O   UNL     1      45.774 -28.572   3.580  1.00  0.00    -0.550 OA
ENDBRANCH   5   6
ENDBRANCH   4   5
ENDBRANCH   3   4
ENDBRANCH   2   3
ENDBRANCH   1   2
BRANCH   1   9
ATOM      9  C   UNL     1      45.070 -24.767  -3.623  1.00  0.00     0.000 C 
BRANCH   9  10
ATOM     10  C   UNL     1      46.124 -24.319  -4.651  1.00  0.00    -0.000 C 
BRANCH  10  11
ATOM     11  C   UNL     1      45.547 -23.375  -5.718  1.00  0.00    -0.000 C 
BRANCH  11  12
ATOM     12  C   UNL     1      46.026 -23.726  -7.137  1.00  0.00    -0.000 C 
BRANCH  12  13
ATOM     13  C   UNL     1      45.664 -25.164  -7.542  1.00  0.00    -0.003 C 
ATOM     14  C   UNL     1      46.088 -25.501  -8.972  1.00  0.00     0.004 C 
ENDBRANCH  12  13
ENDBRANCH  11  12
ENDBRANCH  10  11
ENDBRANCH   9  10
ENDBRANCH   1   9
TORSDOF 10
ENDMDL
MODEL 7
REMARK VINA RESULT:    -1.104      4.469      8.143
REMARK INTER + INTRA:          -2.030
REMARK INTER:                  -1.646
REMARK INTRA:                  -0.384
REMARK UNBOUND:                -0.281
REMARK SMILES CCCCCCCCCCCC(=O)[O-]
REMARK SMILES IDX 7 1 8 2 9 3 10 4 11 5 12 6 13 7 14 8 6 9 5 10 4 11 3 12 2 13
REMARK SMILES IDX 1 14
REMARK H PARENT
REMARK Flexibility Score: inf
ROOT
ATOM      1  C   UNL     1      44.434 -25.012  -1.194  1.00  0.00     0.000 C 
ENDROOT
BRANCH   1   2
ATOM      2  C   UNL     1      45.416 -24.119  -0.416  1.00  0.00     0.000 C 
BRANCH   2   3
ATOM      3  C   UNL     1      45.680 -24.631   1.010  1.00  0.00     0.000 C 
BRANCH   3   4
ATOM      4  C   UNL     1      45.350 -26.125   1.171  1.00  0.00     0.006 C 
BRANCH   4   5
ATOM      5  C   UNL     1      46.125 -26.767   2.330  1.00  0.00     0.053 C 
BRANCH   5   6
ATOM      6  C   UNL     1      45.493 -26.469   3.655  1.00  0.00     0.041 C 
ATOM      7  O   UNL     1      46.125 -26.693   4.722  1.00  0.00    -0.550 OA
ATOM      8  O   UNL     1      44.219 -25.917   3.713  1.00  0.00    -0.550 OA
ENDBRANCH   5   6
ENDBRANCH   4   5
ENDBRANCH   3   4
ENDBRANCH   2   3
ENDBRANCH   1   2
BRANCH   1   9
ATOM      9  C   UNL     1      44.574 -24.853  -2.716  1.00  0.00     0.000 C 
BRANCH   9  10
ATOM     10  C   UNL     1      46.029 -24.599  -3.151  1.00  0.00    -0.000 C 
BRANCH  10  11
ATOM     11  C   UNL     1      46.125 -23.795  -4.457  1.00  0.00    -0.000 C 
BRANCH  11  12
ATOM     12  C   UNL     1      46.048 -24.689  -5.707  1.00  0.00    -0.000 C 
BRANCH  12  13
ATOM     13  C   UNL     1      45.846 -23.880  -6.998  1.00  0.00    -0.003 C 
ATOM     14  C   UNL     1      46.053 -24.718  -8.260  1.00  0.00     0.004 C 
ENDBRANCH  12  13
ENDBRANCH  11  12
ENDBRANCH  10  11
ENDBRANCH   9  10
ENDBRANCH   1   9
TORSDOF 10
ENDMDL
