MODEL 1
REMARK VINA RESULT:    -5.396      0.000      0.000
REMARK INTER + INTRA:         -12.088
REMARK INTER:                  -9.812
REMARK INTRA:                  -2.276
REMARK UNBOUND:                -2.276
REMARK SMILES CCCCCCCCCCCCCCCC(=O)[O-]
REMARK SMILES IDX 9 1 10 2 11 3 12 4 13 5 14 6 15 7 16 8 17 9 18 10 8 11 7 12
REMARK SMILES IDX 6 13 5 14 4 15 3 16 2 17 1 18
REMARK H PARENT
REMARK Flexibility Score: inf
ROOT
ATOM      1  C   UNL     1      53.633  15.338  -1.805  1.00  0.00     0.000 C 
ENDROOT
BRANCH   1   2
ATOM      2  C   UNL     1      53.054  14.399  -0.733  1.00  0.00     0.000 C 
BRANCH   2   3
ATOM      3  C   UNL     1      54.109  13.927   0.286  1.00  0.00     0.000 C 
BRANCH   3   4
ATOM      4  C   UNL     1      55.363  13.268  -0.318  1.00  0.00     0.000 C 
BRANCH   4   5
ATOM      5  C   UNL     1      56.609  13.420   0.570  1.00  0.00     0.000 C 
BRANCH   5   6
ATOM      6  C   UNL     1      57.910  13.541  -0.245  1.00  0.00     0.006 C 
BRANCH   6   7
ATOM      7  C   UNL     1      59.123  14.029   0.566  1.00  0.00     0.053 C 
BRANCH   7   8
ATOM      8  C   UNL     1      59.641  15.342   0.068  1.00  0.00     0.041 C 
ATOM      9  O   UNL     1      60.135  15.433  -1.087  1.00  0.00    -0.550 OA
ATOM     10  O   UNL     1      59.549  16.475   0.867  1.00  0.00    -0.550 OA
ENDBRANCH   7   8
ENDBRANCH   6   7
ENDBRANCH   5   6
ENDBRANCH   4   5
ENDBRANCH   3   4
ENDBRANCH   2   3
ENDBRANCH   1   2
BRANCH   1  11
ATOM     11  C   UNL     1      53.154  16.792  -1.646  1.00  0.00     0.000 C 
BRANCH  11  12
ATOM     12  C   UNL     1      54.225  17.785  -1.152  1.00  0.00    -0.000 C 
BRANCH  12  13
ATOM     13  C   UNL     1      55.631  17.189  -0.943  1.00  0.00    -0.000 C 
BRANCH  13  14
ATOM     14  C   UNL     1      56.039  16.970   0.526  1.00  0.00    -0.000 C 
BRANCH  14  15
ATOM     15  C   UNL     1      55.284  17.894   1.498  1.00  0.00    -0.000 C 
BRANCH  15  16
ATOM     16  C   UNL     1      54.489  17.119   2.564  1.00  0.00    -0.000 C 
BRANCH  16  17
ATOM     17  C   UNL     1      53.038  17.593   2.769  1.00  0.00    -0.003 C 
ATOM     18  C   UNL     1      52.058  16.970   1.776  1.00  0.00     0.004 C 
ENDBRANCH  16  17
ENDBRANCH  15  16
ENDBRANCH  14  15
ENDBRANCH  13  14
ENDBRANCH  12  13
ENDBRANCH  11  12
ENDBRANCH   1  11
TORSDOF 14
ENDMDL
MODEL 2
REMARK VINA RESULT:    -5.356      4.171      6.943
REMARK INTER + INTRA:         -12.016
REMARK INTER:                  -9.876
REMARK INTRA:                  -2.140
REMARK UNBOUND:                -2.276
REMARK SMILES CCCCCCCCCCCCCCCC(=O)[O-]
REMARK SMILES IDX 9 1 10 2 11 3 12 4 13 5 14 6 15 7 16 8 17 9 18 10 8 11 7 12
REMARK SMILES IDX 6 13 5 14 4 15 3 16 2 17 1 18
REMARK H PARENT
REMARK Flexibility Score: inf
ROOT
ATOM      1  C   UNL     1      56.179  17.150   0.646  1.00  0.00     0.000 C 
ENDROOT
BRANCH   1   2
ATOM      2  C   UNL     1      55.228  17.945   1.557  1.00  0.00     0.000 C 
BRANCH   2   3
ATOM      3  C   UNL     1      54.504  17.060   2.589  1.00  0.00     0.000 C 
BRANCH   3   4
ATOM      4  C   UNL     1      53.048  16.695   2.242  1.00  0.00     0.000 C 
BRANCH   4   5
ATOM      5  C   UNL     1      52.070  17.861   2.459  1.00  0.00     0.000 C 
BRANCH   5   6
ATOM      6  C   UNL     1      51.022  17.976   1.335  1.00  0.00     0.006 C 
BRANCH   6   7
ATOM      7  C   UNL     1      50.255  19.309   1.318  1.00  0.00     0.053 C 
BRANCH   7   8
ATOM      8  C   UNL     1      48.880  19.175   1.896  1.00  0.00     0.041 C 
ATOM      9  O   UNL     1      48.017  20.069   1.695  1.00  0.00    -0.550 OA
ATOM     10  O   UNL     1      48.542  18.045   2.632  1.00  0.00    -0.550 OA
ENDBRANCH   7   8
ENDBRANCH   6   7
ENDBRANCH   5   6
ENDBRANCH   4   5
ENDBRANCH   3   4
ENDBRANCH   2   3
ENDBRANCH   1   2
BRANCH   1  11
ATOM     11  C   UNL     1      55.747  17.170  -0.831  1.00  0.00     0.000 C 
BRANCH  11  12
ATOM     12  C   UNL     1      54.437  17.931  -1.122  1.00  0.00    -0.000 C 
BRANCH  12  13
ATOM     13  C   UNL     1      53.207  17.043  -1.395  1.00  0.00    -0.000 C 
BRANCH  13  14
ATOM     14  C   UNL     1      53.523  15.593  -1.809  1.00  0.00    -0.000 C 
BRANCH  14  15
ATOM     15  C   UNL     1      53.112  14.566  -0.741  1.00  0.00    -0.000 C 
BRANCH  15  16
ATOM     16  C   UNL     1      54.169  13.466  -0.530  1.00  0.00    -0.000 C 
BRANCH  16  17
ATOM     17  C   UNL     1      55.211  13.763   0.564  1.00  0.00    -0.003 C 
ATOM     18  C   UNL     1      56.493  12.947   0.408  1.00  0.00     0.004 C 
ENDBRANCH  16  17
ENDBRANCH  15  16
ENDBRANCH  14  15
ENDBRANCH  13  14
ENDBRANCH  12  13
ENDBRANCH  11  12
ENDBRANCH   1  11
TORSDOF 14
ENDMDL
MODEL 3
REMARK VINA RESULT:    -5.270      4.061      6.908
REMARK INTER + INTRA:         -11.860
REMARK INTER:                  -9.829
REMARK INTRA:                  -2.031
REMARK UNBOUND:                -2.276
REMARK SMILES CCCCCCCCCCCCCCCC(=O)[O-]
REMARK SMILES IDX 9 1 10 2 11 3 12 4 13 5 14 6 15 7 16 8 17 9 18 10 8 11 7 12
REMARK SMILES IDX 6 13 5 14 4 15 3 16 2 17 1 18
REMARK H PARENT
REMARK Flexibility Score: inf
ROOT
ATOM      1  C   UNL     1      54.560  16.813   2.276  1.00  0.00     0.000 C 
ENDROOT
BRANCH   1   2
ATOM      2  C   UNL     1      53.296  17.494   2.827  1.00  0.00     0.000 C 
BRANCH   2   3
ATOM      3  C   UNL     1      52.078  17.344   1.897  1.00  0.00     0.000 C 
BRANCH   3   4
ATOM      4  C   UNL     1      51.052  18.491   1.959  1.00  0.00     0.000 C 
BRANCH   4   5
ATOM      5  C   UNL     1      49.844  18.267   1.035  1.00  0.00     0.000 C 
BRANCH   5   6
ATOM      6  C   UNL     1      49.592  19.454   0.086  1.00  0.00     0.006 C 
BRANCH   6   7
ATOM      7  C   UNL     1      50.501  19.476  -1.155  1.00  0.00     0.053 C 
BRANCH   7   8
ATOM      8  C   UNL     1      49.848  18.837  -2.342  1.00  0.00     0.041 C 
ATOM      9  O   UNL     1      50.548  18.407  -3.295  1.00  0.00    -0.550 OA
ATOM     10  O   UNL     1      48.468  18.689  -2.380  1.00  0.00    -0.550 OA
ENDBRANCH   7   8
ENDBRANCH   6   7
ENDBRANCH   5   6
ENDBRANCH   4   5
ENDBRANCH   3   4
ENDBRANCH   2   3
ENDBRANCH   1   2
BRANCH   1  11
ATOM     11  C   UNL     1      55.430  17.762   1.431  1.00  0.00     0.000 C 
BRANCH  11  12
ATOM     12  C   UNL     1      56.185  17.096   0.264  1.00  0.00    -0.000 C 
BRANCH  12  13
ATOM     13  C   UNL     1      55.495  17.200  -1.111  1.00  0.00    -0.000 C 
BRANCH  13  14
ATOM     14  C   UNL     1      54.077  17.802  -1.090  1.00  0.00    -0.000 C 
BRANCH  14  15
ATOM     15  C   UNL     1      53.009  16.829  -1.618  1.00  0.00    -0.000 C 
BRANCH  15  16
ATOM     16  C   UNL     1      53.543  15.397  -1.804  1.00  0.00    -0.000 C 
BRANCH  16  17
ATOM     17  C   UNL     1      53.189  14.417  -0.671  1.00  0.00    -0.003 C 
ATOM     18  C   UNL     1      54.418  13.785  -0.019  1.00  0.00     0.004 C 
ENDBRANCH  16  17
ENDBRANCH  15  16
ENDBRANCH  14  15
ENDBRANCH  13  14
ENDBRANCH  12  13
ENDBRANCH  11  12
ENDBRANCH   1  11
TORSDOF 14
ENDMDL
MODEL 4
REMARK VINA RESULT:    -5.216      2.040      3.792
REMARK INTER + INTRA:         -11.761
REMARK INTER:                  -9.736
REMARK INTRA:                  -2.025
REMARK UNBOUND:                -2.276
REMARK SMILES CCCCCCCCCCCCCCCC(=O)[O-]
REMARK SMILES IDX 9 1 10 2 11 3 12 4 13 5 14 6 15 7 16 8 17 9 18 10 8 11 7 12
REMARK SMILES IDX 6 13 5 14 4 15 3 16 2 17 1 18
REMARK H PARENT
REMARK Flexibility Score: inf
ROOT
ATOM      1  C   UNL     1      55.552  17.120  -0.932  1.00  0.00     0.000 C 
ENDROOT
BRANCH   1   2
ATOM      2  C   UNL     1      54.229  17.880  -1.132  1.00  0.00     0.000 C 
BRANCH   2   3
ATOM      3  C   UNL     1      53.060  16.959  -1.530  1.00  0.00     0.000 C 
BRANCH   3   4
ATOM      4  C   UNL     1      53.438  15.490  -1.799  1.00  0.00     0.000 C 
BRANCH   4   5
ATOM      5  C   UNL     1      53.235  14.585  -0.573  1.00  0.00     0.000 C 
BRANCH   5   6
ATOM      6  C   UNL     1      54.294  13.470  -0.475  1.00  0.00     0.006 C 
BRANCH   6   7
ATOM      7  C   UNL     1      55.336  13.682   0.637  1.00  0.00     0.053 C 
BRANCH   7   8
ATOM      8  C   UNL     1      56.564  12.853   0.423  1.00  0.00     0.041 C 
ATOM      9  O   UNL     1      56.476  11.600   0.336  1.00  0.00    -0.550 OA
ATOM     10  O   UNL     1      57.803  13.467   0.287  1.00  0.00    -0.550 OA
ENDBRANCH   7   8
ENDBRANCH   6   7
ENDBRANCH   5   6
ENDBRANCH   4   5
ENDBRANCH   3   4
ENDBRANCH   2   3
ENDBRANCH   1   2
BRANCH   1  11
ATOM     11  C   UNL     1      56.090  17.227   0.505  1.00  0.00     0.000 C 
BRANCH  11  12
ATOM     12  C   UNL     1      55.135  17.891   1.517  1.00  0.00    -0.000 C 
BRANCH  12  13
ATOM     13  C   UNL     1      54.190  16.927   2.262  1.00  0.00    -0.000 C 
BRANCH  13  14
ATOM     14  C   UNL     1      52.869  17.551   2.750  1.00  0.00    -0.000 C 
BRANCH  14  15
ATOM     15  C   UNL     1      51.684  17.240   1.819  1.00  0.00    -0.000 C 
BRANCH  15  16
ATOM     16  C   UNL     1      50.935  18.505   1.360  1.00  0.00    -0.000 C 
BRANCH  16  17
ATOM     17  C   UNL     1      50.189  18.370   0.020  1.00  0.00    -0.003 C 
ATOM     18  C   UNL     1      49.780  19.716  -0.577  1.00  0.00     0.004 C 
ENDBRANCH  16  17
ENDBRANCH  15  16
ENDBRANCH  14  15
ENDBRANCH  13  14
ENDBRANCH  12  13
ENDBRANCH  11  12
ENDBRANCH   1  11
TORSDOF 14
ENDMDL
MODEL 5
REMARK VINA RESULT:    -5.195      1.987      4.057
REMARK INTER + INTRA:         -11.723
REMARK INTER:                  -9.764
REMARK INTRA:                  -1.959
REMARK UNBOUND:                -2.276
REMARK SMILES CCCCCCCCCCCCCCCC(=O)[O-]
REMARK SMILES IDX 9 1 10 2 11 3 12 4 13 5 14 6 15 7 16 8 17 9 18 10 8 11 7 12
REMARK SMILES IDX 6 13 5 14 4 15 3 16 2 17 1 18
REMARK H PARENT
REMARK Flexibility Score: inf
ROOT
ATOM      1  C   UNL     1      54.667  17.050   2.315  1.00  0.00     0.000 C 
ENDROOT
BRANCH   1   2
ATOM      2  C   UNL     1      55.336  17.811   1.157  1.00  0.00     0.000 C 
BRANCH   2   3
ATOM      3  C   UNL     1      56.839  17.503   1.025  1.00  0.00     0.000 C 
BRANCH   3   4
ATOM      4  C   UNL     1      57.183  16.119   0.444  1.00  0.00     0.000 C 
BRANCH   4   5
ATOM      5  C   UNL     1      58.688  15.808   0.483  1.00  0.00     0.000 C 
BRANCH   5   6
ATOM      6  C   UNL     1      58.990  14.394   1.015  1.00  0.00     0.006 C 
BRANCH   6   7
ATOM      7  C   UNL     1      58.747  13.268  -0.005  1.00  0.00     0.053 C 
BRANCH   7   8
ATOM      8  C   UNL     1      58.039  12.099   0.606  1.00  0.00     0.041 C 
ATOM      9  O   UNL     1      57.013  12.277   1.312  1.00  0.00    -0.550 OA
ATOM     10  O   UNL     1      58.495  10.808   0.369  1.00  0.00    -0.550 OA
ENDBRANCH   7   8
ENDBRANCH   6   7
ENDBRANCH   5   6
ENDBRANCH   4   5
ENDBRANCH   3   4
ENDBRANCH   2   3
ENDBRANCH   1   2
BRANCH   1  11
ATOM     11  C   UNL     1      53.165  16.806   2.080  1.00  0.00     0.000 C 
BRANCH  11  12
ATOM     12  C   UNL     1      52.786  15.362   1.696  1.00  0.00    -0.000 C 
BRANCH  12  13
ATOM     13  C   UNL     1      53.975  14.408   1.466  1.00  0.00    -0.000 C 
BRANCH  13  14
ATOM     14  C   UNL     1      54.296  14.104  -0.010  1.00  0.00    -0.000 C 
BRANCH  14  15
ATOM     15  C   UNL     1      53.193  14.580  -0.970  1.00  0.00    -0.000 C 
BRANCH  15  16
ATOM     16  C   UNL     1      53.601  15.824  -1.781  1.00  0.00    -0.000 C 
BRANCH  16  17
ATOM     17  C   UNL     1      52.455  16.804  -2.092  1.00  0.00    -0.003 C 
ATOM     18  C   UNL     1      52.448  18.028  -1.178  1.00  0.00     0.004 C 
ENDBRANCH  16  17
ENDBRANCH  15  16
ENDBRANCH  14  15
ENDBRANCH  13  14
ENDBRANCH  12  13
ENDBRANCH  11  12
ENDBRANCH   1  11
TORSDOF 14
ENDMDL
MODEL 6
REMARK VINA RESULT:    -5.152      1.432      3.661
REMARK INTER + INTRA:         -11.645
REMARK INTER:                  -9.573
REMARK INTRA:                  -2.072
REMARK UNBOUND:                -2.276
REMARK SMILES CCCCCCCCCCCCCCCC(=O)[O-]
REMARK SMILES IDX 9 1 10 2 11 3 12 4 13 5 14 6 15 7 16 8 17 9 18 10 8 11 7 12
REMARK SMILES IDX 6 13 5 14 4 15 3 16 2 17 1 18
REMARK H PARENT
REMARK Flexibility Score: inf
ROOT
ATOM      1  C   UNL     1      54.636  17.127   2.528  1.00  0.00     0.000 C 
ENDROOT
BRANCH   1   2
ATOM      2  C   UNL     1      55.506  17.974   1.584  1.00  0.00     0.000 C 
BRANCH   2   3
ATOM      3  C   UNL     1      56.138  17.148   0.447  1.00  0.00     0.000 C 
BRANCH   3   4
ATOM      4  C   UNL     1      57.418  16.378   0.821  1.00  0.00     0.000 C 
BRANCH   4   5
ATOM      5  C   UNL     1      57.905  15.443  -0.298  1.00  0.00     0.000 C 
BRANCH   5   6
ATOM      6  C   UNL     1      58.764  14.279   0.231  1.00  0.00     0.006 C 
BRANCH   6   7
ATOM      7  C   UNL     1      60.273  14.437  -0.026  1.00  0.00     0.053 C 
BRANCH   7   8
ATOM      8  C   UNL     1      61.061  14.459   1.247  1.00  0.00     0.041 C 
ATOM      9  O   UNL     1      62.014  13.654   1.416  1.00  0.00    -0.550 OA
ATOM     10  O   UNL     1      60.764  15.390   2.234  1.00  0.00    -0.550 OA
ENDBRANCH   7   8
ENDBRANCH   6   7
ENDBRANCH   5   6
ENDBRANCH   4   5
ENDBRANCH   3   4
ENDBRANCH   2   3
ENDBRANCH   1   2
BRANCH   1  11
ATOM     11  C   UNL     1      53.194  16.954   2.017  1.00  0.00     0.000 C 
BRANCH  11  12
ATOM     12  C   UNL     1      52.750  15.495   1.787  1.00  0.00    -0.000 C 
BRANCH  12  13
ATOM     13  C   UNL     1      53.893  14.484   1.570  1.00  0.00    -0.000 C 
BRANCH  13  14
ATOM     14  C   UNL     1      54.165  14.109   0.100  1.00  0.00    -0.000 C 
BRANCH  14  15
ATOM     15  C   UNL     1      53.090  14.644  -0.860  1.00  0.00    -0.000 C 
BRANCH  15  16
ATOM     16  C   UNL     1      53.660  15.603  -1.922  1.00  0.00    -0.000 C 
BRANCH  16  17
ATOM     17  C   UNL     1      53.333  17.091  -1.699  1.00  0.00    -0.003 C 
ATOM     18  C   UNL     1      51.852  17.345  -1.425  1.00  0.00     0.004 C 
ENDBRANCH  16  17
ENDBRANCH  15  16
ENDBRANCH  14  15
ENDBRANCH  13  14
ENDBRANCH  12  13
ENDBRANCH  11  12
ENDBRANCH   1  11
TORSDOF 14
ENDMDL
MODEL 7
REMARK VINA RESULT:    -5.152      2.664      5.625
REMARK INTER + INTRA:         -11.645
REMARK INTER:                  -9.383
REMARK INTRA:                  -2.262
REMARK UNBOUND:                -2.276
REMARK SMILES CCCCCCCCCCCCCCCC(=O)[O-]
REMARK SMILES IDX 9 1 10 2 11 3 12 4 13 5 14 6 15 7 16 8 17 9 18 10 8 11 7 12
REMARK SMILES IDX 6 13 5 14 4 15 3 16 2 17 1 18
REMARK H PARENT
REMARK Flexibility Score: inf
ROOT
ATOM      1  C   UNL     1      52.629  15.722   1.833  1.00  0.00     0.000 C 
ENDROOT
BRANCH   1   2
ATOM      2  C   UNL     1      53.195  17.028   2.416  1.00  0.00     0.000 C 
BRANCH   2   3
ATOM      3  C   UNL     1      54.734  17.038   2.483  1.00  0.00     0.000 C 
BRANCH   3   4
ATOM      4  C   UNL     1      55.435  17.946   1.455  1.00  0.00     0.000 C 
BRANCH   4   5
ATOM      5  C   UNL     1      56.180  17.156   0.367  1.00  0.00     0.000 C 
BRANCH   5   6
ATOM      6  C   UNL     1      55.392  17.073  -0.954  1.00  0.00     0.006 C 
BRANCH   6   7
ATOM      7  C   UNL     1      54.299  18.144  -1.108  1.00  0.00     0.053 C 
BRANCH   7   8
ATOM      8  C   UNL     1      52.946  17.540  -1.322  1.00  0.00     0.041 C 
ATOM      9  O   UNL     1      51.943  17.998  -0.714  1.00  0.00    -0.550 OA
ATOM     10  O   UNL     1      52.786  16.491  -2.219  1.00  0.00    -0.550 OA
ENDBRANCH   7   8
ENDBRANCH   6   7
ENDBRANCH   5   6
ENDBRANCH   4   5
ENDBRANCH   3   4
ENDBRANCH   2   3
ENDBRANCH   1   2
BRANCH   1  11
ATOM     11  C   UNL     1      53.725  14.701   1.479  1.00  0.00     0.000 C 
BRANCH  11  12
ATOM     12  C   UNL     1      53.601  14.063   0.081  1.00  0.00    -0.000 C 
BRANCH  12  13
ATOM     13  C   UNL     1      54.831  13.261  -0.389  1.00  0.00    -0.000 C 
BRANCH  13  14
ATOM     14  C   UNL     1      56.141  13.570   0.362  1.00  0.00    -0.000 C 
BRANCH  14  15
ATOM     15  C   UNL     1      57.187  12.451   0.222  1.00  0.00    -0.000 C 
BRANCH  15  16
ATOM     16  C   UNL     1      58.632  12.981   0.211  1.00  0.00    -0.000 C 
BRANCH  16  17
ATOM     17  C   UNL     1      58.785  14.468   0.580  1.00  0.00    -0.003 C 
ATOM     18  C   UNL     1      59.306  15.322  -0.575  1.00  0.00     0.004 C 
ENDBRANCH  16  17
ENDBRANCH  15  16
ENDBRANCH  14  15
ENDBRANCH  13  14
ENDBRANCH  12  13
ENDBRANCH  11  12
ENDBRANCH   1  11
TORSDOF 14
ENDMDL
MODEL 8
REMARK VINA RESULT:    -5.098      2.432      2.603
REMARK INTER + INTRA:         -11.547
REMARK INTER:                  -9.619
REMARK INTRA:                  -1.928
REMARK UNBOUND:                -2.276
REMARK SMILES CCCCCCCCCCCCCCCC(=O)[O-]
REMARK SMILES IDX 9 1 10 2 11 3 12 4 13 5 14 6 15 7 16 8 17 9 18 10 8 11 7 12
REMARK SMILES IDX 6 13 5 14 4 15 3 16 2 17 1 18
REMARK H PARENT
REMARK Flexibility Score: inf
ROOT
ATOM      1  C   UNL     1      53.803  15.030  -1.503  1.00  0.00     0.000 C 
ENDROOT
BRANCH   1   2
ATOM      2  C   UNL     1      53.321  14.233  -0.278  1.00  0.00     0.000 C 
BRANCH   2   3
ATOM      3  C   UNL     1      54.468  13.844   0.675  1.00  0.00     0.000 C 
BRANCH   3   4
ATOM      4  C   UNL     1      55.803  13.491  -0.007  1.00  0.00     0.000 C 
BRANCH   4   5
ATOM      5  C   UNL     1      56.063  11.977  -0.069  1.00  0.00     0.000 C 
BRANCH   5   6
ATOM      6  C   UNL     1      57.170  11.523   0.901  1.00  0.00     0.006 C 
BRANCH   6   7
ATOM      7  C   UNL     1      58.595  11.626   0.330  1.00  0.00     0.053 C 
BRANCH   7   8
ATOM      8  C   UNL     1      59.267  10.291   0.250  1.00  0.00     0.041 C 
ATOM      9  O   UNL     1      59.674   9.850  -0.857  1.00  0.00    -0.550 OA
ATOM     10  O   UNL     1      59.474   9.546   1.405  1.00  0.00    -0.550 OA
ENDBRANCH   7   8
ENDBRANCH   6   7
ENDBRANCH   5   6
ENDBRANCH   4   5
ENDBRANCH   3   4
ENDBRANCH   2   3
ENDBRANCH   1   2
BRANCH   1  11
ATOM     11  C   UNL     1      53.220  16.454  -1.555  1.00  0.00     0.000 C 
BRANCH  11  12
ATOM     12  C   UNL     1      54.205  17.580  -1.183  1.00  0.00    -0.000 C 
BRANCH  12  13
ATOM     13  C   UNL     1      55.653  17.127  -0.912  1.00  0.00    -0.000 C 
BRANCH  13  14
ATOM     14  C   UNL     1      56.086  17.166   0.567  1.00  0.00    -0.000 C 
BRANCH  14  15
ATOM     15  C   UNL     1      55.099  17.940   1.456  1.00  0.00    -0.000 C 
BRANCH  15  16
ATOM     16  C   UNL     1      54.360  17.036   2.460  1.00  0.00    -0.000 C 
BRANCH  16  17
ATOM     17  C   UNL     1      52.944  17.505   2.841  1.00  0.00    -0.003 C 
ATOM     18  C   UNL     1      51.945  17.392   1.691  1.00  0.00     0.004 C 
ENDBRANCH  16  17
ENDBRANCH  15  16
ENDBRANCH  14  15
ENDBRANCH  13  14
ENDBRANCH  12  13
ENDBRANCH  11  12
ENDBRANCH   1  11
TORSDOF 14
ENDMDL
MODEL 9
REMARK VINA RESULT:    -5.083      3.625      6.121
REMARK INTER + INTRA:         -11.520
REMARK INTER:                  -9.550
REMARK INTRA:                  -1.970
REMARK UNBOUND:                -2.276
REMARK SMILES CCCCCCCCCCCCCCCC(=O)[O-]
REMARK SMILES IDX 9 1 10 2 11 3 12 4 13 5 14 6 15 7 16 8 17 9 18 10 8 11 7 12
REMARK SMILES IDX 6 13 5 14 4 15 3 16 2 17 1 18
REMARK H PARENT
REMARK Flexibility Score: inf
ROOT
ATOM      1  C   UNL     1      52.966  14.497  -0.877  1.00  0.00     0.000 C 
ENDROOT
BRANCH   1   2
ATOM      2  C   UNL     1      53.750  14.406   0.444  1.00  0.00     0.000 C 
BRANCH   2   3
ATOM      3  C   UNL     1      53.037  15.109   1.615  1.00  0.00     0.000 C 
BRANCH   3   4
ATOM      4  C   UNL     1      53.854  16.203   2.326  1.00  0.00     0.000 C 
BRANCH   4   5
ATOM      5  C   UNL     1      53.069  17.512   2.514  1.00  0.00     0.000 C 
BRANCH   5   6
ATOM      6  C   UNL     1      51.738  17.524   1.740  1.00  0.00     0.006 C 
BRANCH   6   7
ATOM      7  C   UNL     1      50.778  18.654   2.148  1.00  0.00     0.053 C 
BRANCH   7   8
ATOM      8  C   UNL     1      50.115  19.285   0.962  1.00  0.00     0.041 C 
ATOM      9  O   UNL     1      48.970  19.795   1.073  1.00  0.00    -0.550 OA
ATOM     10  O   UNL     1      50.776  19.338  -0.258  1.00  0.00    -0.550 OA
ENDBRANCH   7   8
ENDBRANCH   6   7
ENDBRANCH   5   6
ENDBRANCH   4   5
ENDBRANCH   3   4
ENDBRANCH   2   3
ENDBRANCH   1   2
BRANCH   1  11
ATOM     11  C   UNL     1      53.540  15.553  -1.840  1.00  0.00     0.000 C 
BRANCH  11  12
ATOM     12  C   UNL     1      53.154  17.011  -1.521  1.00  0.00    -0.000 C 
BRANCH  12  13
ATOM     13  C   UNL     1      54.316  17.917  -1.068  1.00  0.00    -0.000 C 
BRANCH  13  14
ATOM     14  C   UNL     1      55.697  17.235  -1.019  1.00  0.00    -0.000 C 
BRANCH  14  15
ATOM     15  C   UNL     1      56.284  17.181   0.402  1.00  0.00    -0.000 C 
BRANCH  15  16
ATOM     16  C   UNL     1      57.215  15.974   0.619  1.00  0.00    -0.000 C 
BRANCH  16  17
ATOM     17  C   UNL     1      58.712  16.317   0.730  1.00  0.00    -0.003 C 
ATOM     18  C   UNL     1      59.573  15.122   1.137  1.00  0.00     0.004 C 
ENDBRANCH  16  17
ENDBRANCH  15  16
ENDBRANCH  14  15
ENDBRANCH  13  14
ENDBRANCH  12  13
ENDBRANCH  11  12
ENDBRANCH   1  11
TORSDOF 14
ENDMDL
