MODEL 1
REMARK VINA RESULT:    -2.183      0.000      0.000
REMARK INTER + INTRA:          -7.289
REMARK INTER:                  -5.500
REMARK INTRA:                  -1.790
REMARK UNBOUND:                -1.790
REMARK SMILES CCCCCCCCCCCCCCCCCCCCCCCCCCCC(=O)[O-]
REMARK SMILES IDX 15 1 16 2 17 3 18 4 19 5 20 6 21 7 22 8 23 9 24 10 25 11
REMARK SMILES IDX 26 12 27 13 28 14 29 15 30 16 14 17 13 18 12 19 11 20 10 21
REMARK SMILES IDX 9 22 8 23 7 24 6 25 5 26 4 27 3 28 2 29 1 30
REMARK H PARENT
REMARK Flexibility Score: inf
ROOT
ATOM      1  C   UNL     1      30.734  36.979  33.515  1.00  0.00     0.000 C 
ENDROOT
BRANCH   1   2
ATOM      2  C   UNL     1      31.901  37.962  33.323  1.00  0.00     0.000 C 
BRANCH   2   3
ATOM      3  C   UNL     1      32.807  38.051  34.561  1.00  0.00     0.000 C 
BRANCH   3   4
ATOM      4  C   UNL     1      32.505  39.284  35.430  1.00  0.00     0.000 C 
BRANCH   4   5
ATOM      5  C   UNL     1      32.183  38.919  36.890  1.00  0.00     0.000 C 
BRANCH   5   6
ATOM      6  C   UNL     1      32.059  37.406  37.166  1.00  0.00     0.000 C 
BRANCH   6   7
ATOM      7  C   UNL     1      30.726  36.962  37.800  1.00  0.00     0.000 C 
BRANCH   7   8
ATOM      8  C   UNL     1      29.472  37.622  37.198  1.00  0.00     0.000 C 
BRANCH   8   9
ATOM      9  C   UNL     1      28.494  38.133  38.271  1.00  0.00     0.000 C 
BRANCH   9  10
ATOM     10  C   UNL     1      27.223  37.274  38.373  1.00  0.00     0.000 C 
BRANCH  10  11
ATOM     11  C   UNL     1      26.003  38.075  38.861  1.00  0.00     0.000 C 
BRANCH  11  12
ATOM     12  C   UNL     1      25.526  39.103  37.821  1.00  0.00     0.006 C 
BRANCH  12  13
ATOM     13  C   UNL     1      24.885  40.338  38.468  1.00  0.00     0.053 C 
BRANCH  13  14
ATOM     14  C   UNL     1      25.922  41.375  38.761  1.00  0.00     0.041 C 
ATOM     15  O   UNL     1      25.744  42.569  38.400  1.00  0.00    -0.550 OA
ATOM     16  O   UNL     1      27.100  41.020  39.406  1.00  0.00    -0.550 OA
ENDBRANCH  13  14
ENDBRANCH  12  13
ENDBRANCH  11  12
ENDBRANCH  10  11
ENDBRANCH   9  10
ENDBRANCH   8   9
ENDBRANCH   7   8
ENDBRANCH   6   7
ENDBRANCH   5   6
ENDBRANCH   4   5
ENDBRANCH   3   4
ENDBRANCH   2   3
ENDBRANCH   1   2
BRANCH   1  17
ATOM     17  C   UNL     1      29.841  36.875  32.268  1.00  0.00     0.000 C 
BRANCH  17  18
ATOM     18  C   UNL     1      28.342  36.976  32.605  1.00  0.00     0.000 C 
BRANCH  18  19
ATOM     19  C   UNL     1      27.484  37.349  31.386  1.00  0.00     0.000 C 
BRANCH  19  20
ATOM     20  C   UNL     1      26.297  38.257  31.752  1.00  0.00     0.000 C 
BRANCH  20  21
ATOM     21  C   UNL     1      25.239  38.329  30.640  1.00  0.00     0.000 C 
BRANCH  21  22
ATOM     22  C   UNL     1      25.828  38.074  29.241  1.00  0.00    -0.000 C 
BRANCH  22  23
ATOM     23  C   UNL     1      25.011  38.745  28.124  1.00  0.00    -0.000 C 
BRANCH  23  24
ATOM     24  C   UNL     1      25.121  40.279  28.151  1.00  0.00    -0.000 C 
BRANCH  24  25
ATOM     25  C   UNL     1      26.335  40.798  27.364  1.00  0.00    -0.000 C 
BRANCH  25  26
ATOM     26  C   UNL     1      25.935  41.480  26.044  1.00  0.00    -0.000 C 
BRANCH  26  27
ATOM     27  C   UNL     1      26.615  42.845  25.851  1.00  0.00    -0.000 C 
BRANCH  27  28
ATOM     28  C   UNL     1      28.126  42.721  25.584  1.00  0.00    -0.000 C 
BRANCH  28  29
ATOM     29  C   UNL     1      28.971  43.439  26.648  1.00  0.00    -0.003 C 
ATOM     30  C   UNL     1      30.148  42.598  27.138  1.00  0.00     0.004 C 
ENDBRANCH  28  29
ENDBRANCH  27  28
ENDBRANCH  26  27
ENDBRANCH  25  26
ENDBRANCH  24  25
ENDBRANCH  23  24
ENDBRANCH  22  23
ENDBRANCH  21  22
ENDBRANCH  20  21
ENDBRANCH  19  20
ENDBRANCH  18  19
ENDBRANCH  17  18
ENDBRANCH   1  17
TORSDOF 26
ENDMDL
MODEL 2
REMARK VINA RESULT:    -2.050      1.780      2.314
REMARK INTER + INTRA:          -6.955
REMARK INTER:                  -5.676
REMARK INTRA:                  -1.279
REMARK UNBOUND:                -1.790
REMARK SMILES CCCCCCCCCCCCCCCCCCCCCCCCCCCC(=O)[O-]
REMARK SMILES IDX 15 1 16 2 17 3 18 4 19 5 20 6 21 7 22 8 23 9 24 10 25 11
REMARK SMILES IDX 26 12 27 13 28 14 29 15 30 16 14 17 13 18 12 19 11 20 10 21
REMARK SMILES IDX 9 22 8 23 7 24 6 25 5 26 4 27 3 28 2 29 1 30
REMARK H PARENT
REMARK Flexibility Score: inf
ROOT
ATOM      1  C   UNL     1      29.386  36.911  33.138  1.00  0.00     0.000 C 
ENDROOT
BRANCH   1   2
ATOM      2  C   UNL     1      30.842  37.400  33.220  1.00  0.00     0.000 C 
BRANCH   2   3
ATOM      3  C   UNL     1      31.558  36.908  34.488  1.00  0.00     0.000 C 
BRANCH   3   4
ATOM      4  C   UNL     1      32.886  37.642  34.742  1.00  0.00     0.000 C 
BRANCH   4   5
ATOM      5  C   UNL     1      32.925  38.344  36.111  1.00  0.00     0.000 C 
BRANCH   5   6
ATOM      6  C   UNL     1      32.472  37.470  37.300  1.00  0.00     0.000 C 
BRANCH   6   7
ATOM      7  C   UNL     1      32.028  38.248  38.555  1.00  0.00     0.000 C 
BRANCH   7   8
ATOM      8  C   UNL     1      31.001  37.516  39.439  1.00  0.00     0.000 C 
BRANCH   8   9
ATOM      9  C   UNL     1      31.243  37.740  40.942  1.00  0.00     0.000 C 
BRANCH   9  10
ATOM     10  C   UNL     1      30.101  38.515  41.618  1.00  0.00     0.000 C 
BRANCH  10  11
ATOM     11  C   UNL     1      28.885  37.626  41.934  1.00  0.00     0.000 C 
BRANCH  11  12
ATOM     12  C   UNL     1      27.645  38.021  41.114  1.00  0.00     0.006 C 
BRANCH  12  13
ATOM     13  C   UNL     1      27.750  39.441  40.541  1.00  0.00     0.053 C 
BRANCH  13  14
ATOM     14  C   UNL     1      27.652  39.415  39.049  1.00  0.00     0.041 C 
ATOM     15  O   UNL     1      28.673  39.623  38.342  1.00  0.00    -0.550 OA
ATOM     16  O   UNL     1      26.425  39.189  38.436  1.00  0.00    -0.550 OA
ENDBRANCH  13  14
ENDBRANCH  12  13
ENDBRANCH  11  12
ENDBRANCH  10  11
ENDBRANCH   9  10
ENDBRANCH   8   9
ENDBRANCH   7   8
ENDBRANCH   6   7
ENDBRANCH   5   6
ENDBRANCH   4   5
ENDBRANCH   3   4
ENDBRANCH   2   3
ENDBRANCH   1   2
BRANCH   1  17
ATOM     17  C   UNL     1      28.665  37.419  31.878  1.00  0.00     0.000 C 
BRANCH  17  18
ATOM     18  C   UNL     1      27.228  36.881  31.763  1.00  0.00     0.000 C 
BRANCH  18  19
ATOM     19  C   UNL     1      26.342  37.299  32.947  1.00  0.00     0.000 C 
BRANCH  19  20
ATOM     20  C   UNL     1      24.915  37.678  32.514  1.00  0.00     0.000 C 
BRANCH  20  21
ATOM     21  C   UNL     1      24.885  38.864  31.537  1.00  0.00     0.000 C 
BRANCH  21  22
ATOM     22  C   UNL     1      25.018  38.426  30.067  1.00  0.00    -0.000 C 
BRANCH  22  23
ATOM     23  C   UNL     1      25.967  39.332  29.265  1.00  0.00    -0.000 C 
BRANCH  23  24
ATOM     24  C   UNL     1      25.231  40.161  28.197  1.00  0.00    -0.000 C 
BRANCH  24  25
ATOM     25  C   UNL     1      25.918  41.507  27.916  1.00  0.00    -0.000 C 
BRANCH  25  26
ATOM     26  C   UNL     1      26.922  41.426  26.753  1.00  0.00    -0.000 C 
BRANCH  26  27
ATOM     27  C   UNL     1      27.832  42.662  26.666  1.00  0.00    -0.000 C 
BRANCH  27  28
ATOM     28  C   UNL     1      28.766  42.624  25.445  1.00  0.00    -0.000 C 
BRANCH  28  29
ATOM     29  C   UNL     1      30.102  43.337  25.706  1.00  0.00    -0.003 C 
ATOM     30  C   UNL     1      30.019  44.358  26.839  1.00  0.00     0.004 C 
ENDBRANCH  28  29
ENDBRANCH  27  28
ENDBRANCH  26  27
ENDBRANCH  25  26
ENDBRANCH  24  25
ENDBRANCH  23  24
ENDBRANCH  22  23
ENDBRANCH  21  22
ENDBRANCH  20  21
ENDBRANCH  19  20
ENDBRANCH  18  19
ENDBRANCH  17  18
ENDBRANCH   1  17
TORSDOF 26
ENDMDL
MODEL 3
REMARK VINA RESULT:    -1.166      6.482     10.735
REMARK INTER + INTRA:          -4.729
REMARK INTER:                  -4.290
REMARK INTRA:                  -0.439
REMARK UNBOUND:                -1.790
REMARK SMILES CCCCCCCCCCCCCCCCCCCCCCCCCCCC(=O)[O-]
REMARK SMILES IDX 15 1 16 2 17 3 18 4 19 5 20 6 21 7 22 8 23 9 24 10 25 11
REMARK SMILES IDX 26 12 27 13 28 14 29 15 30 16 14 17 13 18 12 19 11 20 10 21
REMARK SMILES IDX 9 22 8 23 7 24 6 25 5 26 4 27 3 28 2 29 1 30
REMARK H PARENT
REMARK Flexibility Score: inf
ROOT
ATOM      1  C   UNL     1      29.262  38.293  39.321  1.00  0.00     0.000 C 
ENDROOT
BRANCH   1   2
ATOM      2  C   UNL     1      28.513  37.045  39.819  1.00  0.00     0.000 C 
BRANCH   2   3
ATOM      3  C   UNL     1      27.226  37.395  40.581  1.00  0.00     0.000 C 
BRANCH   3   4
ATOM      4  C   UNL     1      27.476  38.355  41.757  1.00  0.00     0.000 C 
BRANCH   4   5
ATOM      5  C   UNL     1      28.817  39.100  41.640  1.00  0.00     0.000 C 
BRANCH   5   6
ATOM      6  C   UNL     1      28.704  40.572  41.191  1.00  0.00     0.000 C 
BRANCH   6   7
ATOM      7  C   UNL     1      27.863  41.477  42.115  1.00  0.00     0.000 C 
BRANCH   7   8
ATOM      8  C   UNL     1      26.638  42.125  41.444  1.00  0.00     0.000 C 
BRANCH   8   9
ATOM      9  C   UNL     1      26.647  41.972  39.912  1.00  0.00     0.000 C 
BRANCH   9  10
ATOM     10  C   UNL     1      25.329  42.423  39.263  1.00  0.00     0.000 C 
BRANCH  10  11
ATOM     11  C   UNL     1      24.876  41.488  38.127  1.00  0.00     0.000 C 
BRANCH  11  12
ATOM     12  C   UNL     1      25.061  40.003  38.486  1.00  0.00     0.006 C 
BRANCH  12  13
ATOM     13  C   UNL     1      26.123  39.318  37.615  1.00  0.00     0.053 C 
BRANCH  13  14
ATOM     14  C   UNL     1      25.563  38.087  36.976  1.00  0.00     0.041 C 
ATOM     15  O   UNL     1      25.662  37.918  35.731  1.00  0.00    -0.550 OA
ATOM     16  O   UNL     1      24.906  37.138  37.749  1.00  0.00    -0.550 OA
ENDBRANCH  13  14
ENDBRANCH  12  13
ENDBRANCH  11  12
ENDBRANCH  10  11
ENDBRANCH   9  10
ENDBRANCH   8   9
ENDBRANCH   7   8
ENDBRANCH   6   7
ENDBRANCH   5   6
ENDBRANCH   4   5
ENDBRANCH   3   4
ENDBRANCH   2   3
ENDBRANCH   1   2
BRANCH   1  17
ATOM     17  C   UNL     1      28.927  38.637  37.860  1.00  0.00     0.000 C 
BRANCH  17  18
ATOM     18  C   UNL     1      29.739  37.799  36.856  1.00  0.00     0.000 C 
BRANCH  18  19
ATOM     19  C   UNL     1      30.795  36.915  37.538  1.00  0.00     0.000 C 
BRANCH  19  20
ATOM     20  C   UNL     1      32.197  37.089  36.928  1.00  0.00     0.000 C 
BRANCH  20  21
ATOM     21  C   UNL     1      33.184  37.767  37.891  1.00  0.00     0.000 C 
BRANCH  21  22
ATOM     22  C   UNL     1      33.545  36.879  39.095  1.00  0.00    -0.000 C 
BRANCH  22  23
ATOM     23  C   UNL     1      32.828  37.313  40.385  1.00  0.00    -0.000 C 
BRANCH  23  24
ATOM     24  C   UNL     1      33.308  38.683  40.897  1.00  0.00    -0.000 C 
BRANCH  24  25
ATOM     25  C   UNL     1      34.406  38.562  41.967  1.00  0.00    -0.000 C 
BRANCH  25  26
ATOM     26  C   UNL     1      34.920  37.121  42.125  1.00  0.00    -0.000 C 
BRANCH  26  27
ATOM     27  C   UNL     1      36.429  36.997  41.863  1.00  0.00    -0.000 C 
BRANCH  27  28
ATOM     28  C   UNL     1      37.128  38.365  41.772  1.00  0.00    -0.000 C 
BRANCH  28  29
ATOM     29  C   UNL     1      38.586  38.249  41.302  1.00  0.00    -0.003 C 
ATOM     30  C   UNL     1      39.508  39.270  41.968  1.00  0.00     0.004 C 
ENDBRANCH  28  29
ENDBRANCH  27  28
ENDBRANCH  26  27
ENDBRANCH  25  26
ENDBRANCH  24  25
ENDBRANCH  23  24
ENDBRANCH  22  23
ENDBRANCH  21  22
ENDBRANCH  20  21
ENDBRANCH  19  20
ENDBRANCH  18  19
ENDBRANCH  17  18
ENDBRANCH   1  17
TORSDOF 26
ENDMDL
MODEL 4
REMARK VINA RESULT:    -1.071      3.614     11.164
REMARK INTER + INTRA:          -4.487
REMARK INTER:                  -3.688
REMARK INTRA:                  -0.799
REMARK UNBOUND:                -1.790
REMARK SMILES CCCCCCCCCCCCCCCCCCCCCCCCCCCC(=O)[O-]
REMARK SMILES IDX 15 1 16 2 17 3 18 4 19 5 20 6 21 7 22 8 23 9 24 10 25 11
REMARK SMILES IDX 26 12 27 13 28 14 29 15 30 16 14 17 13 18 12 19 11 20 10 21
REMARK SMILES IDX 9 22 8 23 7 24 6 25 5 26 4 27 3 28 2 29 1 30
REMARK H PARENT
REMARK Flexibility Score: inf
ROOT
ATOM      1  C   UNL     1      29.788  36.908  32.379  1.00  0.00     0.000 C 
ENDROOT
BRANCH   1   2
ATOM      2  C   UNL     1      28.700  37.708  31.642  1.00  0.00     0.000 C 
BRANCH   2   3
ATOM      3  C   UNL     1      27.293  37.133  31.867  1.00  0.00     0.000 C 
BRANCH   3   4
ATOM      4  C   UNL     1      26.521  36.925  30.552  1.00  0.00     0.000 C 
BRANCH   4   5
ATOM      5  C   UNL     1      25.063  37.411  30.635  1.00  0.00     0.000 C 
BRANCH   5   6
ATOM      6  C   UNL     1      24.893  38.944  30.684  1.00  0.00     0.000 C 
BRANCH   6   7
ATOM      7  C   UNL     1      24.875  39.646  29.311  1.00  0.00     0.000 C 
BRANCH   7   8
ATOM      8  C   UNL     1      25.766  38.992  28.239  1.00  0.00     0.000 C 
BRANCH   8   9
ATOM      9  C   UNL     1      24.952  38.300  27.130  1.00  0.00     0.000 C 
BRANCH   9  10
ATOM     10  C   UNL     1      25.777  38.047  25.859  1.00  0.00     0.000 C 
BRANCH  10  11
ATOM     11  C   UNL     1      26.448  39.324  25.322  1.00  0.00     0.000 C 
BRANCH  11  12
ATOM     12  C   UNL     1      25.702  40.599  25.750  1.00  0.00     0.006 C 
BRANCH  12  13
ATOM     13  C   UNL     1      26.129  41.829  24.938  1.00  0.00     0.053 C 
BRANCH  13  14
ATOM     14  C   UNL     1      26.794  42.837  25.822  1.00  0.00     0.041 C 
ATOM     15  O   UNL     1      26.105  43.557  26.593  1.00  0.00    -0.550 OA
ATOM     16  O   UNL     1      28.173  43.004  25.773  1.00  0.00    -0.550 OA
ENDBRANCH  13  14
ENDBRANCH  12  13
ENDBRANCH  11  12
ENDBRANCH  10  11
ENDBRANCH   9  10
ENDBRANCH   8   9
ENDBRANCH   7   8
ENDBRANCH   6   7
ENDBRANCH   5   6
ENDBRANCH   4   5
ENDBRANCH   3   4
ENDBRANCH   2   3
ENDBRANCH   1   2
BRANCH   1  17
ATOM     17  C   UNL     1      31.027  37.760  32.702  1.00  0.00     0.000 C 
BRANCH  17  18
ATOM     18  C   UNL     1      31.779  37.258  33.948  1.00  0.00     0.000 C 
BRANCH  18  19
ATOM     19  C   UNL     1      30.833  36.875  35.098  1.00  0.00     0.000 C 
BRANCH  19  20
ATOM     20  C   UNL     1      31.468  37.088  36.483  1.00  0.00     0.000 C 
BRANCH  20  21
ATOM     21  C   UNL     1      32.021  38.509  36.672  1.00  0.00     0.000 C 
BRANCH  21  22
ATOM     22  C   UNL     1      32.355  38.827  38.140  1.00  0.00    -0.000 C 
BRANCH  22  23
ATOM     23  C   UNL     1      32.451  37.562  39.011  1.00  0.00    -0.000 C 
BRANCH  23  24
ATOM     24  C   UNL     1      31.265  37.422  39.982  1.00  0.00    -0.000 C 
BRANCH  24  25
ATOM     25  C   UNL     1      30.133  38.418  39.680  1.00  0.00    -0.000 C 
BRANCH  25  26
ATOM     26  C   UNL     1      28.807  38.025  40.355  1.00  0.00    -0.000 C 
BRANCH  26  27
ATOM     27  C   UNL     1      27.678  39.030  40.075  1.00  0.00    -0.000 C 
BRANCH  27  28
ATOM     28  C   UNL     1      27.537  40.086  41.184  1.00  0.00    -0.000 C 
BRANCH  28  29
ATOM     29  C   UNL     1      26.410  41.091  40.898  1.00  0.00    -0.003 C 
ATOM     30  C   UNL     1      26.410  41.587  39.453  1.00  0.00     0.004 C 
ENDBRANCH  28  29
ENDBRANCH  27  28
ENDBRANCH  26  27
ENDBRANCH  25  26
ENDBRANCH  24  25
ENDBRANCH  23  24
ENDBRANCH  22  23
ENDBRANCH  21  22
ENDBRANCH  20  21
ENDBRANCH  19  20
ENDBRANCH  18  19
ENDBRANCH  17  18
ENDBRANCH   1  17
TORSDOF 26
ENDMDL
MODEL 5
REMARK VINA RESULT:    -0.739      7.899     13.150
REMARK INTER + INTRA:          -3.653
REMARK INTER:                  -2.240
REMARK INTRA:                  -1.413
REMARK UNBOUND:                -1.790
REMARK SMILES CCCCCCCCCCCCCCCCCCCCCCCCCCCC(=O)[O-]
REMARK SMILES IDX 15 1 16 2 17 3 18 4 19 5 20 6 21 7 22 8 23 9 24 10 25 11
REMARK SMILES IDX 26 12 27 13 28 14 29 15 30 16 14 17 13 18 12 19 11 20 10 21
REMARK SMILES IDX 9 22 8 23 7 24 6 25 5 26 4 27 3 28 2 29 1 30
REMARK H PARENT
REMARK Flexibility Score: inf
ROOT
ATOM      1  C   UNL     1      28.127  48.942  41.218  1.00  0.00     0.000 C 
ENDROOT
BRANCH   1   2
ATOM      2  C   UNL     1      27.665  47.783  42.118  1.00  0.00     0.000 C 
BRANCH   2   3
ATOM      3  C   UNL     1      28.447  46.487  41.857  1.00  0.00     0.000 C 
BRANCH   3   4
ATOM      4  C   UNL     1      27.608  45.224  42.122  1.00  0.00     0.000 C 
BRANCH   4   5
ATOM      5  C   UNL     1      28.396  43.925  41.877  1.00  0.00     0.000 C 
BRANCH   5   6
ATOM      6  C   UNL     1      27.598  42.628  42.125  1.00  0.00     0.000 C 
BRANCH   6   7
ATOM      7  C   UNL     1      27.356  41.757  40.875  1.00  0.00     0.000 C 
BRANCH   7   8
ATOM      8  C   UNL     1      27.246  40.247  41.151  1.00  0.00     0.000 C 
BRANCH   8   9
ATOM      9  C   UNL     1      27.886  39.391  40.043  1.00  0.00     0.000 C 
BRANCH   9  10
ATOM     10  C   UNL     1      29.235  38.787  40.464  1.00  0.00     0.000 C 
BRANCH  10  11
ATOM     11  C   UNL     1      30.101  38.371  39.262  1.00  0.00     0.000 C 
BRANCH  11  12
ATOM     12  C   UNL     1      29.347  38.499  37.928  1.00  0.00     0.006 C 
BRANCH  12  13
ATOM     13  C   UNL     1      30.057  37.768  36.781  1.00  0.00     0.053 C 
BRANCH  13  14
ATOM     14  C   UNL     1      31.539  37.936  36.887  1.00  0.00     0.041 C 
ATOM     15  O   UNL     1      32.252  37.001  37.341  1.00  0.00    -0.550 OA
ATOM     16  O   UNL     1      32.133  39.135  36.514  1.00  0.00    -0.550 OA
ENDBRANCH  13  14
ENDBRANCH  12  13
ENDBRANCH  11  12
ENDBRANCH  10  11
ENDBRANCH   9  10
ENDBRANCH   8   9
ENDBRANCH   7   8
ENDBRANCH   6   7
ENDBRANCH   5   6
ENDBRANCH   4   5
ENDBRANCH   3   4
ENDBRANCH   2   3
ENDBRANCH   1   2
BRANCH   1  17
ATOM     17  C   UNL     1      28.091  50.299  41.941  1.00  0.00     0.000 C 
BRANCH  17  18
ATOM     18  C   UNL     1      26.809  51.095  41.638  1.00  0.00     0.000 C 
BRANCH  18  19
ATOM     19  C   UNL     1      26.910  51.910  40.339  1.00  0.00     0.000 C 
BRANCH  19  20
ATOM     20  C   UNL     1      27.782  53.168  40.495  1.00  0.00     0.000 C 
BRANCH  20  21
ATOM     21  C   UNL     1      28.749  53.370  39.318  1.00  0.00     0.000 C 
BRANCH  21  22
ATOM     22  C   UNL     1      30.082  52.624  39.508  1.00  0.00    -0.000 C 
BRANCH  22  23
ATOM     23  C   UNL     1      30.153  51.324  38.688  1.00  0.00    -0.000 C 
BRANCH  23  24
ATOM     24  C   UNL     1      30.797  50.166  39.471  1.00  0.00    -0.000 C 
BRANCH  24  25
ATOM     25  C   UNL     1      31.822  50.652  40.509  1.00  0.00    -0.000 C 
BRANCH  25  26
ATOM     26  C   UNL     1      31.526  50.121  41.922  1.00  0.00    -0.000 C 
BRANCH  26  27
ATOM     27  C   UNL     1      31.180  48.623  41.933  1.00  0.00    -0.000 C 
BRANCH  27  28
ATOM     28  C   UNL     1      32.419  47.731  42.125  1.00  0.00    -0.000 C 
BRANCH  28  29
ATOM     29  C   UNL     1      32.154  46.268  41.737  1.00  0.00    -0.003 C 
ATOM     30  C   UNL     1      30.996  46.115  40.751  1.00  0.00     0.004 C 
ENDBRANCH  28  29
ENDBRANCH  27  28
ENDBRANCH  26  27
ENDBRANCH  25  26
ENDBRANCH  24  25
ENDBRANCH  23  24
ENDBRANCH  22  23
ENDBRANCH  21  22
ENDBRANCH  20  21
ENDBRANCH  19  20
ENDBRANCH  18  19
ENDBRANCH  17  18
ENDBRANCH   1  17
TORSDOF 26
ENDMDL
MODEL 6
REMARK VINA RESULT:    -0.622     10.121     15.180
REMARK INTER + INTRA:          -3.357
REMARK INTER:                  -3.338
REMARK INTRA:                  -0.019
REMARK UNBOUND:                -1.790
REMARK SMILES CCCCCCCCCCCCCCCCCCCCCCCCCCCC(=O)[O-]
REMARK SMILES IDX 15 1 16 2 17 3 18 4 19 5 20 6 21 7 22 8 23 9 24 10 25 11
REMARK SMILES IDX 26 12 27 13 28 14 29 15 30 16 14 17 13 18 12 19 11 20 10 21
REMARK SMILES IDX 9 22 8 23 7 24 6 25 5 26 4 27 3 28 2 29 1 30
REMARK H PARENT
REMARK Flexibility Score: inf
ROOT
ATOM      1  C   UNL     1      30.546  50.326  39.040  1.00  0.00     0.000 C 
ENDROOT
BRANCH   1   2
ATOM      2  C   UNL     1      29.839  51.676  39.249  1.00  0.00     0.000 C 
BRANCH   2   3
ATOM      3  C   UNL     1      28.440  51.714  38.613  1.00  0.00     0.000 C 
BRANCH   3   4
ATOM      4  C   UNL     1      27.741  53.072  38.799  1.00  0.00     0.000 C 
BRANCH   4   5
ATOM      5  C   UNL     1      26.605  53.018  39.837  1.00  0.00     0.000 C 
BRANCH   5   6
ATOM      6  C   UNL     1      26.360  51.627  40.456  1.00  0.00     0.000 C 
BRANCH   6   7
ATOM      7  C   UNL     1      26.993  51.406  41.845  1.00  0.00     0.000 C 
BRANCH   7   8
ATOM      8  C   UNL     1      28.457  51.867  41.969  1.00  0.00     0.000 C 
BRANCH   8   9
ATOM      9  C   UNL     1      28.597  53.399  42.017  1.00  0.00     0.000 C 
BRANCH   9  10
ATOM     10  C   UNL     1      30.047  53.869  41.824  1.00  0.00     0.000 C 
BRANCH  10  11
ATOM     11  C   UNL     1      30.231  55.367  42.121  1.00  0.00     0.000 C 
BRANCH  11  12
ATOM     12  C   UNL     1      28.925  56.161  41.948  1.00  0.00     0.006 C 
BRANCH  12  13
ATOM     13  C   UNL     1      28.977  57.122  40.752  1.00  0.00     0.053 C 
BRANCH  13  14
ATOM     14  C   UNL     1      28.411  56.471  39.530  1.00  0.00     0.041 C 
ATOM     15  O   UNL     1      27.402  56.964  38.959  1.00  0.00    -0.550 OA
ATOM     16  O   UNL     1      28.979  55.303  39.036  1.00  0.00    -0.550 OA
ENDBRANCH  13  14
ENDBRANCH  12  13
ENDBRANCH  11  12
ENDBRANCH  10  11
ENDBRANCH   9  10
ENDBRANCH   8   9
ENDBRANCH   7   8
ENDBRANCH   6   7
ENDBRANCH   5   6
ENDBRANCH   4   5
ENDBRANCH   3   4
ENDBRANCH   2   3
ENDBRANCH   1   2
BRANCH   1  17
ATOM     17  C   UNL     1      31.276  49.842  40.303  1.00  0.00     0.000 C 
BRANCH  17  18
ATOM     18  C   UNL     1      30.360  49.037  41.242  1.00  0.00     0.000 C 
BRANCH  18  19
ATOM     19  C   UNL     1      30.331  47.539  40.901  1.00  0.00     0.000 C 
BRANCH  19  20
ATOM     20  C   UNL     1      29.900  46.668  42.094  1.00  0.00     0.000 C 
BRANCH  20  21
ATOM     21  C   UNL     1      29.572  45.223  41.687  1.00  0.00     0.000 C 
BRANCH  21  22
ATOM     22  C   UNL     1      28.104  44.847  41.955  1.00  0.00    -0.000 C 
BRANCH  22  23
ATOM     23  C   UNL     1      27.891  43.327  42.056  1.00  0.00    -0.000 C 
BRANCH  23  24
ATOM     24  C   UNL     1      26.410  42.928  41.939  1.00  0.00    -0.000 C 
BRANCH  24  25
ATOM     25  C   UNL     1      26.223  41.434  41.629  1.00  0.00    -0.000 C 
BRANCH  25  26
ATOM     26  C   UNL     1      27.303  40.889  40.678  1.00  0.00    -0.000 C 
BRANCH  26  27
ATOM     27  C   UNL     1      27.542  39.381  40.854  1.00  0.00    -0.000 C 
BRANCH  27  28
ATOM     28  C   UNL     1      26.285  38.544  40.562  1.00  0.00    -0.000 C 
BRANCH  28  29
ATOM     29  C   UNL     1      26.147  38.191  39.072  1.00  0.00    -0.003 C 
ATOM     30  C   UNL     1      25.004  38.939  38.388  1.00  0.00     0.004 C 
ENDBRANCH  28  29
ENDBRANCH  27  28
ENDBRANCH  26  27
ENDBRANCH  25  26
ENDBRANCH  24  25
ENDBRANCH  23  24
ENDBRANCH  22  23
ENDBRANCH  21  22
ENDBRANCH  20  21
ENDBRANCH  19  20
ENDBRANCH  18  19
ENDBRANCH  17  18
ENDBRANCH   1  17
TORSDOF 26
ENDMDL
MODEL 7
REMARK VINA RESULT:    -0.603      3.429     11.171
REMARK INTER + INTRA:          -3.310
REMARK INTER:                  -1.701
REMARK INTRA:                  -1.609
REMARK UNBOUND:                -1.790
REMARK SMILES CCCCCCCCCCCCCCCCCCCCCCCCCCCC(=O)[O-]
REMARK SMILES IDX 15 1 16 2 17 3 18 4 19 5 20 6 21 7 22 8 23 9 24 10 25 11
REMARK SMILES IDX 26 12 27 13 28 14 29 15 30 16 14 17 13 18 12 19 11 20 10 21
REMARK SMILES IDX 9 22 8 23 7 24 6 25 5 26 4 27 3 28 2 29 1 30
REMARK H PARENT
REMARK Flexibility Score: inf
ROOT
ATOM      1  C   UNL     1      28.991  37.970  32.397  1.00  0.00     0.000 C 
ENDROOT
BRANCH   1   2
ATOM      2  C   UNL     1      28.328  37.882  31.011  1.00  0.00     0.000 C 
BRANCH   2   3
ATOM      3  C   UNL     1      27.008  37.096  31.039  1.00  0.00     0.000 C 
BRANCH   3   4
ATOM      4  C   UNL     1      26.414  36.884  29.635  1.00  0.00     0.000 C 
BRANCH   4   5
ATOM      5  C   UNL     1      25.188  37.775  29.368  1.00  0.00     0.000 C 
BRANCH   5   6
ATOM      6  C   UNL     1      25.348  39.245  29.805  1.00  0.00     0.000 C 
BRANCH   6   7
ATOM      7  C   UNL     1      25.361  40.274  28.656  1.00  0.00     0.000 C 
BRANCH   7   8
ATOM      8  C   UNL     1      24.875  39.733  27.299  1.00  0.00     0.000 C 
BRANCH   8   9
ATOM      9  C   UNL     1      25.997  39.053  26.493  1.00  0.00     0.000 C 
BRANCH   9  10
ATOM     10  C   UNL     1      26.450  39.889  25.286  1.00  0.00     0.000 C 
BRANCH  10  11
ATOM     11  C   UNL     1      25.953  41.344  25.351  1.00  0.00     0.000 C 
BRANCH  11  12
ATOM     12  C   UNL     1      27.077  42.327  25.720  1.00  0.00     0.006 C 
BRANCH  12  13
ATOM     13  C   UNL     1      28.030  41.757  26.780  1.00  0.00     0.053 C 
BRANCH  13  14
ATOM     14  C   UNL     1      29.190  42.676  26.992  1.00  0.00     0.041 C 
ATOM     15  O   UNL     1      30.228  42.263  27.575  1.00  0.00    -0.550 OA
ATOM     16  O   UNL     1      29.116  44.000  26.575  1.00  0.00    -0.550 OA
ENDBRANCH  13  14
ENDBRANCH  12  13
ENDBRANCH  11  12
ENDBRANCH  10  11
ENDBRANCH   9  10
ENDBRANCH   8   9
ENDBRANCH   7   8
ENDBRANCH   6   7
ENDBRANCH   5   6
ENDBRANCH   4   5
ENDBRANCH   3   4
ENDBRANCH   2   3
ENDBRANCH   1   2
BRANCH   1  17
ATOM     17  C   UNL     1      30.525  37.886  32.321  1.00  0.00     0.000 C 
BRANCH  17  18
ATOM     18  C   UNL     1      31.160  37.475  33.661  1.00  0.00     0.000 C 
BRANCH  18  19
ATOM     19  C   UNL     1      30.139  36.879  34.643  1.00  0.00     0.000 C 
BRANCH  19  20
ATOM     20  C   UNL     1      30.389  37.318  36.096  1.00  0.00     0.000 C 
BRANCH  20  21
ATOM     21  C   UNL     1      31.879  37.311  36.471  1.00  0.00     0.000 C 
BRANCH  21  22
ATOM     22  C   UNL     1      32.110  37.325  37.993  1.00  0.00    -0.000 C 
BRANCH  22  23
ATOM     23  C   UNL     1      30.825  37.632  38.782  1.00  0.00    -0.000 C 
BRANCH  23  24
ATOM     24  C   UNL     1      31.088  37.833  40.285  1.00  0.00    -0.000 C 
BRANCH  24  25
ATOM     25  C   UNL     1      29.941  38.573  40.992  1.00  0.00    -0.000 C 
BRANCH  25  26
ATOM     26  C   UNL     1      28.577  37.895  40.771  1.00  0.00    -0.000 C 
BRANCH  26  27
ATOM     27  C   UNL     1      27.479  38.891  40.363  1.00  0.00    -0.000 C 
BRANCH  27  28
ATOM     28  C   UNL     1      26.168  38.193  39.963  1.00  0.00    -0.000 C 
BRANCH  28  29
ATOM     29  C   UNL     1      26.405  36.970  39.062  1.00  0.00    -0.003 C 
ATOM     30  C   UNL     1      27.078  37.330  37.738  1.00  0.00     0.004 C 
ENDBRANCH  28  29
ENDBRANCH  27  28
ENDBRANCH  26  27
ENDBRANCH  25  26
ENDBRANCH  24  25
ENDBRANCH  23  24
ENDBRANCH  22  23
ENDBRANCH  21  22
ENDBRANCH  20  21
ENDBRANCH  19  20
ENDBRANCH  18  19
ENDBRANCH  17  18
ENDBRANCH   1  17
TORSDOF 26
ENDMDL
