MODEL 1
REMARK VINA RESULT:     9.464      0.000      0.000
REMARK INTER + INTRA:          17.772
REMARK INTER:                  17.763
REMARK INTRA:                   0.009
REMARK UNBOUND:                 0.009
REMARK SMILES CCCCCCCCC=CCCCCCCCC(=O)[O-]
REMARK SMILES IDX 10 1 9 2 11 3 12 4 13 5 14 6 15 7 16 8 17 9 18 10 19 11
REMARK SMILES IDX 20 12 8 13 7 14 6 15 5 16 4 17 3 18 2 19 1 20
REMARK H PARENT
REMARK Flexibility Score: inf
ROOT
ATOM      1  C   UNL     1      35.439 -23.562   6.722  1.00  0.00    -0.031 C 
ATOM      2  C   UNL     1      36.051 -23.279   7.881  1.00  0.00    -0.031 C 
ENDROOT
BRANCH   1   3
ATOM      3  C   UNL     1      33.963 -23.845   6.682  1.00  0.00     0.027 C 
BRANCH   3   4
ATOM      4  C   UNL     1      33.511 -24.239   5.269  1.00  0.00     0.004 C 
BRANCH   4   5
ATOM      5  C   UNL     1      32.660 -25.528   5.259  1.00  0.00     0.000 C 
BRANCH   5   6
ATOM      6  C   UNL     1      32.473 -26.159   6.652  1.00  0.00     0.000 C 
BRANCH   6   7
ATOM      7  C   UNL     1      31.894 -25.219   7.724  1.00  0.00     0.000 C 
BRANCH   7   8
ATOM      8  C   UNL     1      30.734 -24.319   7.252  1.00  0.00     0.006 C 
BRANCH   8   9
ATOM      9  C   UNL     1      29.449 -24.463   8.089  1.00  0.00     0.053 C 
BRANCH   9  10
ATOM     10  C   UNL     1      28.279 -24.925   7.274  1.00  0.00     0.041 C 
ATOM     11  O   UNL     1      27.801 -24.188   6.373  1.00  0.00    -0.550 OA
ATOM     12  O   UNL     1      27.740 -26.188   7.484  1.00  0.00    -0.550 OA
ENDBRANCH   9  10
ENDBRANCH   8   9
ENDBRANCH   7   8
ENDBRANCH   6   7
ENDBRANCH   5   6
ENDBRANCH   4   5
ENDBRANCH   3   4
ENDBRANCH   1   3
BRANCH   2  13
ATOM     13  C   UNL     1      37.524 -22.980   7.942  1.00  0.00     0.027 C 
BRANCH  13  14
ATOM     14  C   UNL     1      37.789 -21.473   7.812  1.00  0.00     0.004 C 
BRANCH  14  15
ATOM     15  C   UNL     1      39.052 -21.161   6.994  1.00  0.00     0.000 C 
BRANCH  15  16
ATOM     16  C   UNL     1      38.860 -21.431   5.491  1.00  0.00     0.000 C 
BRANCH  16  17
ATOM     17  C   UNL     1      39.120 -22.899   5.118  1.00  0.00    -0.000 C 
BRANCH  17  18
ATOM     18  C   UNL     1      38.195 -23.399   3.994  1.00  0.00    -0.000 C 
BRANCH  18  19
ATOM     19  C   UNL     1      38.151 -24.932   3.907  1.00  0.00    -0.003 C 
ATOM     20  C   UNL     1      39.124 -25.605   4.873  1.00  0.00     0.004 C 
ENDBRANCH  18  19
ENDBRANCH  17  18
ENDBRANCH  16  17
ENDBRANCH  15  16
ENDBRANCH  14  15
ENDBRANCH  13  14
ENDBRANCH   2  13
TORSDOF 15
ENDMDL
MODEL 2
REMARK VINA RESULT:     9.749      3.305      8.069
REMARK INTER + INTRA:          18.307
REMARK INTER:                  17.486
REMARK INTRA:                   0.821
REMARK UNBOUND:                 0.009
REMARK SMILES CCCCCCCCC=CCCCCCCCC(=O)[O-]
REMARK SMILES IDX 10 1 9 2 11 3 12 4 13 5 14 6 15 7 16 8 17 9 18 10 19 11
REMARK SMILES IDX 20 12 8 13 7 14 6 15 5 16 4 17 3 18 2 19 1 20
REMARK H PARENT
REMARK Flexibility Score: inf
ROOT
ATOM      1  C   UNL     1      36.256 -23.549   8.026  1.00  0.00    -0.031 C 
ATOM      2  C   UNL     1      35.387 -23.900   7.066  1.00  0.00    -0.031 C 
ENDROOT
BRANCH   1   3
ATOM      3  C   UNL     1      36.771 -22.139   8.115  1.00  0.00     0.027 C 
BRANCH   3   4
ATOM      4  C   UNL     1      38.306 -22.109   8.121  1.00  0.00     0.004 C 
BRANCH   4   5
ATOM      5  C   UNL     1      38.918 -23.004   7.022  1.00  0.00     0.000 C 
BRANCH   5   6
ATOM      6  C   UNL     1      38.865 -24.509   7.345  1.00  0.00     0.000 C 
BRANCH   6   7
ATOM      7  C   UNL     1      38.496 -25.420   6.161  1.00  0.00     0.000 C 
BRANCH   7   8
ATOM      8  C   UNL     1      39.117 -25.021   4.807  1.00  0.00     0.006 C 
BRANCH   8   9
ATOM      9  C   UNL     1      38.112 -24.408   3.814  1.00  0.00     0.053 C 
BRANCH   9  10
ATOM     10  C   UNL     1      37.565 -23.094   4.283  1.00  0.00     0.041 C 
ATOM     11  O   UNL     1      38.329 -22.105   4.438  1.00  0.00    -0.550 OA
ATOM     12  O   UNL     1      36.203 -22.949   4.513  1.00  0.00    -0.550 OA
ENDBRANCH   9  10
ENDBRANCH   8   9
ENDBRANCH   7   8
ENDBRANCH   6   7
ENDBRANCH   5   6
ENDBRANCH   4   5
ENDBRANCH   3   4
ENDBRANCH   1   3
BRANCH   2  13
ATOM     13  C   UNL     1      34.849 -25.301   6.966  1.00  0.00     0.027 C 
BRANCH  13  14
ATOM     14  C   UNL     1      33.397 -25.302   6.463  1.00  0.00     0.004 C 
BRANCH  14  15
ATOM     15  C   UNL     1      32.429 -24.616   7.441  1.00  0.00     0.000 C 
BRANCH  15  16
ATOM     16  C   UNL     1      30.971 -25.062   7.234  1.00  0.00     0.000 C 
BRANCH  16  17
ATOM     17  C   UNL     1      29.962 -23.958   7.589  1.00  0.00    -0.000 C 
BRANCH  17  18
ATOM     18  C   UNL     1      28.649 -24.076   6.794  1.00  0.00    -0.000 C 
BRANCH  18  19
ATOM     19  C   UNL     1      27.631 -25.002   7.474  1.00  0.00    -0.003 C 
ATOM     20  C   UNL     1      27.732 -26.448   6.989  1.00  0.00     0.004 C 
ENDBRANCH  18  19
ENDBRANCH  17  18
ENDBRANCH  16  17
ENDBRANCH  15  16
ENDBRANCH  14  15
ENDBRANCH  13  14
ENDBRANCH   2  13
TORSDOF 15
ENDMDL
MODEL 3
REMARK VINA RESULT:    10.972      1.177      2.161
REMARK INTER + INTRA:          20.603
REMARK INTER:                  19.602
REMARK INTRA:                   1.001
REMARK UNBOUND:                 0.009
REMARK SMILES CCCCCCCCC=CCCCCCCCC(=O)[O-]
REMARK SMILES IDX 10 1 9 2 11 3 12 4 13 5 14 6 15 7 16 8 17 9 18 10 19 11
REMARK SMILES IDX 20 12 8 13 7 14 6 15 5 16 4 17 3 18 2 19 1 20
REMARK H PARENT
REMARK Flexibility Score: inf
ROOT
ATOM      1  C   UNL     1      34.374 -23.858   5.987  1.00  0.00    -0.031 C 
ATOM      2  C   UNL     1      34.780 -23.980   7.259  1.00  0.00    -0.031 C 
ENDROOT
BRANCH   1   3
ATOM      3  C   UNL     1      33.553 -24.937   5.337  1.00  0.00     0.027 C 
BRANCH   3   4
ATOM      4  C   UNL     1      33.286 -26.093   6.312  1.00  0.00     0.004 C 
BRANCH   4   5
ATOM      5  C   UNL     1      32.318 -25.695   7.447  1.00  0.00     0.000 C 
BRANCH   5   6
ATOM      6  C   UNL     1      31.119 -24.851   6.974  1.00  0.00     0.000 C 
BRANCH   6   7
ATOM      7  C   UNL     1      30.387 -24.075   8.084  1.00  0.00     0.000 C 
BRANCH   7   8
ATOM      8  C   UNL     1      28.850 -24.041   7.957  1.00  0.00     0.006 C 
BRANCH   8   9
ATOM      9  C   UNL     1      28.315 -24.661   6.653  1.00  0.00     0.053 C 
BRANCH   9  10
ATOM     10  C   UNL     1      27.498 -25.893   6.893  1.00  0.00     0.041 C 
ATOM     11  O   UNL     1      26.781 -26.370   5.974  1.00  0.00    -0.550 OA
ATOM     12  O   UNL     1      27.557 -26.541   8.121  1.00  0.00    -0.550 OA
ENDBRANCH   9  10
ENDBRANCH   8   9
ENDBRANCH   7   8
ENDBRANCH   6   7
ENDBRANCH   5   6
ENDBRANCH   4   5
ENDBRANCH   3   4
ENDBRANCH   1   3
BRANCH   2  13
ATOM     13  C   UNL     1      35.590 -22.907   7.933  1.00  0.00     0.027 C 
BRANCH  13  14
ATOM     14  C   UNL     1      37.092 -23.100   7.672  1.00  0.00     0.004 C 
BRANCH  14  15
ATOM     15  C   UNL     1      37.427 -24.505   7.146  1.00  0.00     0.000 C 
BRANCH  15  16
ATOM     16  C   UNL     1      38.843 -24.587   6.550  1.00  0.00     0.000 C 
BRANCH  16  17
ATOM     17  C   UNL     1      38.972 -25.690   5.488  1.00  0.00    -0.000 C 
BRANCH  17  18
ATOM     18  C   UNL     1      39.125 -25.128   4.063  1.00  0.00    -0.000 C 
BRANCH  18  19
ATOM     19  C   UNL     1      38.324 -23.835   3.852  1.00  0.00    -0.003 C 
ATOM     20  C   UNL     1      38.770 -22.706   4.780  1.00  0.00     0.004 C 
ENDBRANCH  18  19
ENDBRANCH  17  18
ENDBRANCH  16  17
ENDBRANCH  15  16
ENDBRANCH  14  15
ENDBRANCH  13  14
ENDBRANCH   2  13
TORSDOF 15
ENDMDL
MODEL 4
REMARK VINA RESULT:    11.502      5.043      7.698
REMARK INTER + INTRA:          21.598
REMARK INTER:                  22.345
REMARK INTRA:                  -0.747
REMARK UNBOUND:                 0.009
REMARK SMILES CCCCCCCCC=CCCCCCCCC(=O)[O-]
REMARK SMILES IDX 10 1 9 2 11 3 12 4 13 5 14 6 15 7 16 8 17 9 18 10 19 11
REMARK SMILES IDX 20 12 8 13 7 14 6 15 5 16 4 17 3 18 2 19 1 20
REMARK H PARENT
REMARK Flexibility Score: inf
ROOT
ATOM      1  C   UNL     1      37.726 -24.720   2.783  1.00  0.00    -0.031 C 
ATOM      2  C   UNL     1      37.688 -25.726   1.896  1.00  0.00    -0.031 C 
ENDROOT
BRANCH   1   3
ATOM      3  C   UNL     1      38.650 -24.778   3.968  1.00  0.00     0.027 C 
BRANCH   3   4
ATOM      4  C   UNL     1      38.982 -23.369   4.481  1.00  0.00     0.004 C 
BRANCH   4   5
ATOM      5  C   UNL     1      39.050 -23.303   6.022  1.00  0.00     0.000 C 
BRANCH   5   6
ATOM      6  C   UNL     1      37.802 -22.678   6.674  1.00  0.00     0.000 C 
BRANCH   6   7
ATOM      7  C   UNL     1      36.791 -23.685   7.250  1.00  0.00     0.000 C 
BRANCH   7   8
ATOM      8  C   UNL     1      35.421 -23.718   6.542  1.00  0.00     0.006 C 
BRANCH   8   9
ATOM      9  C   UNL     1      34.450 -24.771   7.107  1.00  0.00     0.053 C 
BRANCH   9  10
ATOM     10  C   UNL     1      33.387 -25.161   6.125  1.00  0.00     0.041 C 
ATOM     11  O   UNL     1      33.078 -24.388   5.181  1.00  0.00    -0.550 OA
ATOM     12  O   UNL     1      32.763 -26.398   6.228  1.00  0.00    -0.550 OA
ENDBRANCH   9  10
ENDBRANCH   8   9
ENDBRANCH   7   8
ENDBRANCH   6   7
ENDBRANCH   5   6
ENDBRANCH   4   5
ENDBRANCH   3   4
ENDBRANCH   1   3
BRANCH   2  13
ATOM     13  C   UNL     1      36.781 -25.684   0.697  1.00  0.00     0.027 C 
BRANCH  13  14
ATOM     14  C   UNL     1      36.290 -27.091   0.324  1.00  0.00     0.004 C 
BRANCH  14  15
ATOM     15  C   UNL     1      35.977 -27.233  -1.174  1.00  0.00     0.000 C 
BRANCH  15  16
ATOM     16  C   UNL     1      34.971 -28.361  -1.460  1.00  0.00     0.000 C 
BRANCH  16  17
ATOM     17  C   UNL     1      35.613 -29.553  -2.187  1.00  0.00    -0.000 C 
BRANCH  17  18
ATOM     18  C   UNL     1      34.640 -30.733  -2.367  1.00  0.00    -0.000 C 
BRANCH  18  19
ATOM     19  C   UNL     1      33.282 -30.295  -2.934  1.00  0.00    -0.003 C 
ATOM     20  C   UNL     1      32.127 -30.560  -1.969  1.00  0.00     0.004 C 
ENDBRANCH  18  19
ENDBRANCH  17  18
ENDBRANCH  16  17
ENDBRANCH  15  16
ENDBRANCH  14  15
ENDBRANCH  13  14
ENDBRANCH   2  13
TORSDOF 15
ENDMDL
MODEL 5
REMARK VINA RESULT:    11.518      3.722      8.240
REMARK INTER + INTRA:          21.627
REMARK INTER:                  19.790
REMARK INTRA:                   1.837
REMARK UNBOUND:                 0.009
REMARK SMILES CCCCCCCCC=CCCCCCCCC(=O)[O-]
REMARK SMILES IDX 10 1 9 2 11 3 12 4 13 5 14 6 15 7 16 8 17 9 18 10 19 11
REMARK SMILES IDX 20 12 8 13 7 14 6 15 5 16 4 17 3 18 2 19 1 20
REMARK H PARENT
REMARK Flexibility Score: inf
ROOT
ATOM      1  C   UNL     1      35.261 -24.371   7.160  1.00  0.00    -0.031 C 
ATOM      2  C   UNL     1      34.755 -25.598   6.966  1.00  0.00    -0.031 C 
ENDROOT
BRANCH   1   3
ATOM      3  C   UNL     1      36.653 -24.034   6.703  1.00  0.00     0.027 C 
BRANCH   3   4
ATOM      4  C   UNL     1      37.615 -25.205   6.947  1.00  0.00     0.004 C 
BRANCH   4   5
ATOM      5  C   UNL     1      38.840 -25.170   6.007  1.00  0.00     0.000 C 
BRANCH   5   6
ATOM      6  C   UNL     1      38.598 -24.387   4.702  1.00  0.00     0.000 C 
BRANCH   6   7
ATOM      7  C   UNL     1      37.614 -23.210   4.818  1.00  0.00     0.000 C 
BRANCH   7   8
ATOM      8  C   UNL     1      38.249 -21.858   5.204  1.00  0.00     0.006 C 
BRANCH   8   9
ATOM      9  C   UNL     1      39.061 -21.898   6.511  1.00  0.00     0.053 C 
BRANCH   9  10
ATOM     10  C   UNL     1      38.442 -21.076   7.601  1.00  0.00     0.041 C 
ATOM     11  O   UNL     1      37.318 -21.389   8.073  1.00  0.00    -0.550 OA
ATOM     12  O   UNL     1      39.125 -19.985   8.124  1.00  0.00    -0.550 OA
ENDBRANCH   9  10
ENDBRANCH   8   9
ENDBRANCH   7   8
ENDBRANCH   6   7
ENDBRANCH   5   6
ENDBRANCH   4   5
ENDBRANCH   3   4
ENDBRANCH   1   3
BRANCH   2  13
ATOM     13  C   UNL     1      33.361 -25.953   7.403  1.00  0.00     0.027 C 
BRANCH  13  14
ATOM     14  C   UNL     1      32.586 -26.647   6.272  1.00  0.00     0.004 C 
BRANCH  14  15
ATOM     15  C   UNL     1      31.829 -25.654   5.374  1.00  0.00     0.000 C 
BRANCH  15  16
ATOM     16  C   UNL     1      31.550 -24.316   6.082  1.00  0.00     0.000 C 
BRANCH  16  17
ATOM     17  C   UNL     1      30.407 -24.418   7.104  1.00  0.00    -0.000 C 
BRANCH  17  18
ATOM     18  C   UNL     1      29.019 -24.246   6.461  1.00  0.00    -0.000 C 
BRANCH  18  19
ATOM     19  C   UNL     1      28.125 -25.480   6.652  1.00  0.00    -0.003 C 
ATOM     20  C   UNL     1      27.952 -25.862   8.121  1.00  0.00     0.004 C 
ENDBRANCH  18  19
ENDBRANCH  17  18
ENDBRANCH  16  17
ENDBRANCH  15  16
ENDBRANCH  14  15
ENDBRANCH  13  14
ENDBRANCH   2  13
TORSDOF 15
ENDMDL
MODEL 6
REMARK VINA RESULT:    12.211      6.518      9.700
REMARK INTER + INTRA:          22.928
REMARK INTER:                  23.736
REMARK INTRA:                  -0.809
REMARK UNBOUND:                 0.009
REMARK SMILES CCCCCCCCC=CCCCCCCCC(=O)[O-]
REMARK SMILES IDX 10 1 9 2 11 3 12 4 13 5 14 6 15 7 16 8 17 9 18 10 19 11
REMARK SMILES IDX 20 12 8 13 7 14 6 15 5 16 4 17 3 18 2 19 1 20
REMARK H PARENT
REMARK Flexibility Score: inf
ROOT
ATOM      1  C   UNL     1      37.303 -26.274   0.454  1.00  0.00    -0.031 C 
ATOM      2  C   UNL     1      36.125 -26.494  -0.149  1.00  0.00    -0.031 C 
ENDROOT
BRANCH   1   3
ATOM      3  C   UNL     1      37.365 -25.584   1.788  1.00  0.00     0.027 C 
BRANCH   3   4
ATOM      4  C   UNL     1      38.513 -26.136   2.645  1.00  0.00     0.004 C 
BRANCH   4   5
ATOM      5  C   UNL     1      38.966 -25.141   3.737  1.00  0.00     0.000 C 
BRANCH   5   6
ATOM      6  C   UNL     1      37.953 -24.012   4.007  1.00  0.00     0.000 C 
BRANCH   6   7
ATOM      7  C   UNL     1      38.387 -22.985   5.067  1.00  0.00     0.000 C 
BRANCH   7   8
ATOM      8  C   UNL     1      38.904 -23.584   6.391  1.00  0.00     0.006 C 
BRANCH   8   9
ATOM      9  C   UNL     1      37.788 -24.022   7.357  1.00  0.00     0.053 C 
BRANCH   9  10
ATOM     10  C   UNL     1      36.893 -22.889   7.758  1.00  0.00     0.041 C 
ATOM     11  O   UNL     1      35.646 -23.052   7.812  1.00  0.00    -0.550 OA
ATOM     12  O   UNL     1      37.439 -21.661   8.111  1.00  0.00    -0.550 OA
ENDBRANCH   9  10
ENDBRANCH   8   9
ENDBRANCH   7   8
ENDBRANCH   6   7
ENDBRANCH   5   6
ENDBRANCH   4   5
ENDBRANCH   3   4
ENDBRANCH   1   3
BRANCH   2  13
ATOM     13  C   UNL     1      36.039 -27.194  -1.477  1.00  0.00     0.027 C 
BRANCH  13  14
ATOM     14  C   UNL     1      35.610 -28.659  -1.304  1.00  0.00     0.004 C 
BRANCH  14  15
ATOM     15  C   UNL     1      36.073 -29.554  -2.465  1.00  0.00     0.000 C 
BRANCH  15  16
ATOM     16  C   UNL     1      35.192 -30.804  -2.632  1.00  0.00     0.000 C 
BRANCH  16  17
ATOM     17  C   UNL     1      34.323 -30.747  -3.898  1.00  0.00    -0.000 C 
BRANCH  17  18
ATOM     18  C   UNL     1      32.873 -31.198  -3.645  1.00  0.00    -0.000 C 
BRANCH  18  19
ATOM     19  C   UNL     1      32.274 -30.569  -2.379  1.00  0.00    -0.003 C 
ATOM     20  C   UNL     1      30.979 -31.248  -1.938  1.00  0.00     0.004 C 
ENDBRANCH  18  19
ENDBRANCH  17  18
ENDBRANCH  16  17
ENDBRANCH  15  16
ENDBRANCH  14  15
ENDBRANCH  13  14
ENDBRANCH   2  13
TORSDOF 15
ENDMDL
MODEL 7
REMARK VINA RESULT:    12.317      4.436     10.087
REMARK INTER + INTRA:          23.126
REMARK INTER:                  23.803
REMARK INTRA:                  -0.677
REMARK UNBOUND:                 0.009
REMARK SMILES CCCCCCCCC=CCCCCCCCC(=O)[O-]
REMARK SMILES IDX 10 1 9 2 11 3 12 4 13 5 14 6 15 7 16 8 17 9 18 10 19 11
REMARK SMILES IDX 20 12 8 13 7 14 6 15 5 16 4 17 3 18 2 19 1 20
REMARK H PARENT
REMARK Flexibility Score: inf
ROOT
ATOM      1  C   UNL     1      31.399 -25.112   6.457  1.00  0.00    -0.031 C 
ATOM      2  C   UNL     1      30.830 -24.783   7.626  1.00  0.00    -0.031 C 
ENDROOT
BRANCH   1   3
ATOM      3  C   UNL     1      32.788 -25.685   6.414  1.00  0.00     0.027 C 
BRANCH   3   4
ATOM      4  C   UNL     1      33.822 -24.606   6.060  1.00  0.00     0.004 C 
BRANCH   4   5
ATOM      5  C   UNL     1      34.942 -24.493   7.116  1.00  0.00     0.000 C 
BRANCH   5   6
ATOM      6  C   UNL     1      35.736 -23.175   7.042  1.00  0.00     0.000 C 
BRANCH   6   7
ATOM      7  C   UNL     1      36.968 -23.101   7.960  1.00  0.00     0.000 C 
BRANCH   7   8
ATOM      8  C   UNL     1      38.330 -23.124   7.236  1.00  0.00     0.006 C 
BRANCH   8   9
ATOM      9  C   UNL     1      38.529 -24.342   6.316  1.00  0.00     0.053 C 
BRANCH   9  10
ATOM     10  C   UNL     1      38.681 -23.959   4.875  1.00  0.00     0.041 C 
ATOM     11  O   UNL     1      38.694 -24.843   3.979  1.00  0.00    -0.550 OA
ATOM     12  O   UNL     1      38.770 -22.619   4.516  1.00  0.00    -0.550 OA
ENDBRANCH   9  10
ENDBRANCH   8   9
ENDBRANCH   7   8
ENDBRANCH   6   7
ENDBRANCH   5   6
ENDBRANCH   4   5
ENDBRANCH   3   4
ENDBRANCH   1   3
BRANCH   2  13
ATOM     13  C   UNL     1      29.437 -24.221   7.694  1.00  0.00     0.027 C 
BRANCH  13  14
ATOM     14  C   UNL     1      28.396 -25.339   7.863  1.00  0.00     0.004 C 
BRANCH  14  15
ATOM     15  C   UNL     1      27.370 -25.372   6.719  1.00  0.00     0.000 C 
BRANCH  15  16
ATOM     16  C   UNL     1      26.836 -26.790   6.449  1.00  0.00     0.000 C 
BRANCH  16  17
ATOM     17  C   UNL     1      25.989 -26.867   5.169  1.00  0.00    -0.000 C 
BRANCH  17  18
ATOM     18  C   UNL     1      24.954 -28.007   5.210  1.00  0.00    -0.000 C 
BRANCH  18  19
ATOM     19  C   UNL     1      23.511 -27.495   5.094  1.00  0.00    -0.003 C 
ATOM     20  C   UNL     1      22.476 -28.562   5.445  1.00  0.00     0.004 C 
ENDBRANCH  18  19
ENDBRANCH  17  18
ENDBRANCH  16  17
ENDBRANCH  15  16
ENDBRANCH  14  15
ENDBRANCH  13  14
ENDBRANCH   2  13
TORSDOF 15
ENDMDL
