MODEL 1
REMARK VINA RESULT:    -4.037      0.000      0.000
REMARK INTER + INTRA:         -12.717
REMARK INTER:                 -10.173
REMARK INTRA:                  -2.544
REMARK UNBOUND:                -2.544
REMARK SMILES CCCCCCCCCCCCCCCCCCCCCCCCCCCC(=O)[O-]
REMARK SMILES IDX 15 1 16 2 17 3 18 4 19 5 20 6 21 7 22 8 23 9 24 10 25 11
REMARK SMILES IDX 26 12 27 13 28 14 29 15 30 16 14 17 13 18 12 19 11 20 10 21
REMARK SMILES IDX 9 22 8 23 7 24 6 25 5 26 4 27 3 28 2 29 1 30
REMARK H PARENT
REMARK Flexibility Score: inf
ROOT
ATOM      1  C   UNL     1      -1.801   5.130 -51.393  1.00  0.00     0.000 C 
ENDROOT
BRANCH   1   2
ATOM      2  C   UNL     1      -0.724   4.985 -52.477  1.00  0.00     0.000 C 
BRANCH   2   3
ATOM      3  C   UNL     1      -0.341   6.356 -53.055  1.00  0.00     0.000 C 
BRANCH   3   4
ATOM      4  C   UNL     1       0.106   6.287 -54.526  1.00  0.00     0.000 C 
BRANCH   4   5
ATOM      5  C   UNL     1      -0.265   4.986 -55.264  1.00  0.00     0.000 C 
BRANCH   5   6
ATOM      6  C   UNL     1      -0.274   5.146 -56.793  1.00  0.00     0.000 C 
BRANCH   6   7
ATOM      7  C   UNL     1      -1.304   6.180 -57.283  1.00  0.00     0.000 C 
BRANCH   7   8
ATOM      8  C   UNL     1      -0.996   6.818 -58.654  1.00  0.00     0.000 C 
BRANCH   8   9
ATOM      9  C   UNL     1      -1.892   6.343 -59.814  1.00  0.00     0.000 C 
BRANCH   9  10
ATOM     10  C   UNL     1      -3.213   5.675 -59.382  1.00  0.00     0.000 C 
BRANCH  10  11
ATOM     11  C   UNL     1      -4.445   6.602 -59.394  1.00  0.00     0.000 C 
BRANCH  11  12
ATOM     12  C   UNL     1      -5.377   6.464 -58.173  1.00  0.00     0.006 C 
BRANCH  12  13
ATOM     13  C   UNL     1      -4.841   7.113 -56.886  1.00  0.00     0.053 C 
BRANCH  13  14
ATOM     14  C   UNL     1      -4.431   8.537 -57.107  1.00  0.00     0.041 C 
ATOM     15  O   UNL     1      -5.124   9.290 -57.839  1.00  0.00    -0.550 OA
ATOM     16  O   UNL     1      -3.258   9.018 -56.539  1.00  0.00    -0.550 OA
ENDBRANCH  13  14
ENDBRANCH  12  13
ENDBRANCH  11  12
ENDBRANCH  10  11
ENDBRANCH   9  10
ENDBRANCH   8   9
ENDBRANCH   7   8
ENDBRANCH   6   7
ENDBRANCH   5   6
ENDBRANCH   4   5
ENDBRANCH   3   4
ENDBRANCH   2   3
ENDBRANCH   1   2
BRANCH   1  17
ATOM     17  C   UNL     1      -1.210   5.328 -49.986  1.00  0.00     0.000 C 
BRANCH  17  18
ATOM     18  C   UNL     1      -2.180   5.030 -48.825  1.00  0.00     0.000 C 
BRANCH  18  19
ATOM     19  C   UNL     1      -3.573   5.678 -48.955  1.00  0.00     0.000 C 
BRANCH  19  20
ATOM     20  C   UNL     1      -4.670   5.044 -48.077  1.00  0.00     0.000 C 
BRANCH  20  21
ATOM     21  C   UNL     1      -5.771   6.016 -47.610  1.00  0.00     0.000 C 
BRANCH  21  22
ATOM     22  C   UNL     1      -5.780   7.380 -48.327  1.00  0.00    -0.000 C 
BRANCH  22  23
ATOM     23  C   UNL     1      -5.439   8.588 -47.431  1.00  0.00    -0.000 C 
BRANCH  23  24
ATOM     24  C   UNL     1      -5.574   8.334 -45.917  1.00  0.00    -0.000 C 
BRANCH  24  25
ATOM     25  C   UNL     1      -4.264   8.468 -45.116  1.00  0.00    -0.000 C 
BRANCH  25  26
ATOM     26  C   UNL     1      -3.135   7.509 -45.547  1.00  0.00    -0.000 C 
BRANCH  26  27
ATOM     27  C   UNL     1      -1.843   8.199 -46.021  1.00  0.00    -0.000 C 
BRANCH  27  28
ATOM     28  C   UNL     1      -0.709   7.205 -46.317  1.00  0.00    -0.000 C 
BRANCH  28  29
ATOM     29  C   UNL     1       0.658   7.824 -46.008  1.00  0.00    -0.003 C 
ATOM     30  C   UNL     1       0.539   8.935 -44.968  1.00  0.00     0.004 C 
ENDBRANCH  28  29
ENDBRANCH  27  28
ENDBRANCH  26  27
ENDBRANCH  25  26
ENDBRANCH  24  25
ENDBRANCH  23  24
ENDBRANCH  22  23
ENDBRANCH  21  22
ENDBRANCH  20  21
ENDBRANCH  19  20
ENDBRANCH  18  19
ENDBRANCH  17  18
ENDBRANCH   1  17
TORSDOF 26
ENDMDL
MODEL 2
REMARK VINA RESULT:    -3.972      1.977      3.789
REMARK INTER + INTRA:         -12.553
REMARK INTER:                 -10.415
REMARK INTRA:                  -2.138
REMARK UNBOUND:                -2.544
REMARK SMILES CCCCCCCCCCCCCCCCCCCCCCCCCCCC(=O)[O-]
REMARK SMILES IDX 15 1 16 2 17 3 18 4 19 5 20 6 21 7 22 8 23 9 24 10 25 11
REMARK SMILES IDX 26 12 27 13 28 14 29 15 30 16 14 17 13 18 12 19 11 20 10 21
REMARK SMILES IDX 9 22 8 23 7 24 6 25 5 26 4 27 3 28 2 29 1 30
REMARK H PARENT
REMARK Flexibility Score: inf
ROOT
ATOM      1  C   UNL     1      -0.864   5.555 -51.947  1.00  0.00     0.000 C 
ENDROOT
BRANCH   1   2
ATOM      2  C   UNL     1      -0.097   5.055 -53.180  1.00  0.00     0.000 C 
BRANCH   2   3
ATOM      3  C   UNL     1       0.446   6.235 -54.001  1.00  0.00     0.000 C 
BRANCH   3   4
ATOM      4  C   UNL     1      -0.111   6.277 -55.436  1.00  0.00     0.000 C 
BRANCH   4   5
ATOM      5  C   UNL     1      -1.270   5.303 -55.718  1.00  0.00     0.000 C 
BRANCH   5   6
ATOM      6  C   UNL     1      -2.614   6.018 -55.934  1.00  0.00     0.000 C 
BRANCH   6   7
ATOM      7  C   UNL     1      -2.532   7.538 -55.698  1.00  0.00     0.000 C 
BRANCH   7   8
ATOM      8  C   UNL     1      -3.714   8.356 -56.258  1.00  0.00     0.000 C 
BRANCH   8   9
ATOM      9  C   UNL     1      -3.433   9.088 -57.586  1.00  0.00     0.000 C 
BRANCH   9  10
ATOM     10  C   UNL     1      -2.683   8.252 -58.642  1.00  0.00     0.000 C 
BRANCH  10  11
ATOM     11  C   UNL     1      -3.511   7.121 -59.284  1.00  0.00     0.000 C 
BRANCH  11  12
ATOM     12  C   UNL     1      -5.024   7.171 -58.990  1.00  0.00     0.006 C 
BRANCH  12  13
ATOM     13  C   UNL     1      -5.552   5.986 -58.167  1.00  0.00     0.053 C 
BRANCH  13  14
ATOM     14  C   UNL     1      -6.920   6.252 -57.616  1.00  0.00     0.041 C 
ATOM     15  O   UNL     1      -7.559   5.335 -57.038  1.00  0.00    -0.550 OA
ATOM     16  O   UNL     1      -7.506   7.500 -57.783  1.00  0.00    -0.550 OA
ENDBRANCH  13  14
ENDBRANCH  12  13
ENDBRANCH  11  12
ENDBRANCH  10  11
ENDBRANCH   9  10
ENDBRANCH   8   9
ENDBRANCH   7   8
ENDBRANCH   6   7
ENDBRANCH   5   6
ENDBRANCH   4   5
ENDBRANCH   3   4
ENDBRANCH   2   3
ENDBRANCH   1   2
BRANCH   1  17
ATOM     17  C   UNL     1      -0.130   5.258 -50.627  1.00  0.00     0.000 C 
BRANCH  17  18
ATOM     18  C   UNL     1      -0.995   5.396 -49.358  1.00  0.00     0.000 C 
BRANCH  18  19
ATOM     19  C   UNL     1      -0.378   6.256 -48.237  1.00  0.00     0.000 C 
BRANCH  19  20
ATOM     20  C   UNL     1      -1.326   6.578 -47.066  1.00  0.00     0.000 C 
BRANCH  20  21
ATOM     21  C   UNL     1      -0.628   6.856 -45.720  1.00  0.00     0.000 C 
BRANCH  21  22
ATOM     22  C   UNL     1      -1.079   8.146 -45.008  1.00  0.00    -0.000 C 
BRANCH  22  23
ATOM     23  C   UNL     1       0.009   9.230 -44.875  1.00  0.00    -0.000 C 
BRANCH  23  24
ATOM     24  C   UNL     1      -0.011  10.311 -45.975  1.00  0.00    -0.000 C 
BRANCH  24  25
ATOM     25  C   UNL     1      -0.453  11.711 -45.503  1.00  0.00    -0.000 C 
BRANCH  25  26
ATOM     26  C   UNL     1      -1.782  12.213 -46.103  1.00  0.00    -0.000 C 
BRANCH  26  27
ATOM     27  C   UNL     1      -3.011  11.344 -45.779  1.00  0.00    -0.000 C 
BRANCH  27  28
ATOM     28  C   UNL     1      -3.660  10.737 -47.031  1.00  0.00    -0.000 C 
BRANCH  28  29
ATOM     29  C   UNL     1      -3.987   9.255 -46.817  1.00  0.00    -0.003 C 
ATOM     30  C   UNL     1      -5.345   8.897 -47.414  1.00  0.00     0.004 C 
ENDBRANCH  28  29
ENDBRANCH  27  28
ENDBRANCH  26  27
ENDBRANCH  25  26
ENDBRANCH  24  25
ENDBRANCH  23  24
ENDBRANCH  22  23
ENDBRANCH  21  22
ENDBRANCH  20  21
ENDBRANCH  19  20
ENDBRANCH  18  19
ENDBRANCH  17  18
ENDBRANCH   1  17
TORSDOF 26
ENDMDL
MODEL 3
REMARK VINA RESULT:    -3.949      1.507      2.237
REMARK INTER + INTRA:         -12.494
REMARK INTER:                 -10.020
REMARK INTRA:                  -2.475
REMARK UNBOUND:                -2.544
REMARK SMILES CCCCCCCCCCCCCCCCCCCCCCCCCCCC(=O)[O-]
REMARK SMILES IDX 15 1 16 2 17 3 18 4 19 5 20 6 21 7 22 8 23 9 24 10 25 11
REMARK SMILES IDX 26 12 27 13 28 14 29 15 30 16 14 17 13 18 12 19 11 20 10 21
REMARK SMILES IDX 9 22 8 23 7 24 6 25 5 26 4 27 3 28 2 29 1 30
REMARK H PARENT
REMARK Flexibility Score: inf
ROOT
ATOM      1  C   UNL     1      -0.954   5.107 -51.830  1.00  0.00     0.000 C 
ENDROOT
BRANCH   1   2
ATOM      2  C   UNL     1      -0.417   5.224 -53.264  1.00  0.00     0.000 C 
BRANCH   2   3
ATOM      3  C   UNL     1      -1.051   6.420 -53.989  1.00  0.00     0.000 C 
BRANCH   3   4
ATOM      4  C   UNL     1      -0.557   6.576 -55.439  1.00  0.00     0.000 C 
BRANCH   4   5
ATOM      5  C   UNL     1      -0.539   5.279 -56.269  1.00  0.00     0.000 C 
BRANCH   5   6
ATOM      6  C   UNL     1      -0.314   5.530 -57.769  1.00  0.00     0.000 C 
BRANCH   6   7
ATOM      7  C   UNL     1      -1.233   6.626 -58.339  1.00  0.00     0.000 C 
BRANCH   7   8
ATOM      8  C   UNL     1      -1.796   6.347 -59.748  1.00  0.00     0.000 C 
BRANCH   8   9
ATOM      9  C   UNL     1      -3.274   5.911 -59.788  1.00  0.00     0.000 C 
BRANCH   9  10
ATOM     10  C   UNL     1      -3.816   5.330 -58.466  1.00  0.00     0.000 C 
BRANCH  10  11
ATOM     11  C   UNL     1      -5.203   5.855 -58.046  1.00  0.00     0.000 C 
BRANCH  11  12
ATOM     12  C   UNL     1      -5.221   6.685 -56.746  1.00  0.00     0.006 C 
BRANCH  12  13
ATOM     13  C   UNL     1      -4.099   7.731 -56.644  1.00  0.00     0.053 C 
BRANCH  13  14
ATOM     14  C   UNL     1      -4.315   8.877 -57.584  1.00  0.00     0.041 C 
ATOM     15  O   UNL     1      -5.479   9.183 -57.953  1.00  0.00    -0.550 OA
ATOM     16  O   UNL     1      -3.227   9.577 -58.089  1.00  0.00    -0.550 OA
ENDBRANCH  13  14
ENDBRANCH  12  13
ENDBRANCH  11  12
ENDBRANCH  10  11
ENDBRANCH   9  10
ENDBRANCH   8   9
ENDBRANCH   7   8
ENDBRANCH   6   7
ENDBRANCH   5   6
ENDBRANCH   4   5
ENDBRANCH   3   4
ENDBRANCH   2   3
ENDBRANCH   1   2
BRANCH   1  17
ATOM     17  C   UNL     1      -0.143   5.937 -50.819  1.00  0.00     0.000 C 
BRANCH  17  18
ATOM     18  C   UNL     1      -0.093   5.356 -49.392  1.00  0.00     0.000 C 
BRANCH  18  19
ATOM     19  C   UNL     1      -1.083   5.988 -48.394  1.00  0.00     0.000 C 
BRANCH  19  20
ATOM     20  C   UNL     1      -1.031   5.407 -46.967  1.00  0.00     0.000 C 
BRANCH  20  21
ATOM     21  C   UNL     1      -2.391   5.326 -46.247  1.00  0.00     0.000 C 
BRANCH  21  22
ATOM     22  C   UNL     1      -3.571   4.887 -47.136  1.00  0.00    -0.000 C 
BRANCH  22  23
ATOM     23  C   UNL     1      -4.766   5.860 -47.159  1.00  0.00    -0.000 C 
BRANCH  23  24
ATOM     24  C   UNL     1      -4.443   7.277 -47.676  1.00  0.00    -0.000 C 
BRANCH  24  25
ATOM     25  C   UNL     1      -5.160   8.420 -46.931  1.00  0.00    -0.000 C 
BRANCH  25  26
ATOM     26  C   UNL     1      -4.246   9.306 -46.059  1.00  0.00    -0.000 C 
BRANCH  26  27
ATOM     27  C   UNL     1      -2.768   8.876 -46.023  1.00  0.00    -0.000 C 
BRANCH  27  28
ATOM     28  C   UNL     1      -1.819  10.029 -45.667  1.00  0.00    -0.000 C 
BRANCH  28  29
ATOM     29  C   UNL     1      -2.417  11.379 -46.077  1.00  0.00    -0.003 C 
ATOM     30  C   UNL     1      -1.325  12.376 -46.453  1.00  0.00     0.004 C 
ENDBRANCH  28  29
ENDBRANCH  27  28
ENDBRANCH  26  27
ENDBRANCH  25  26
ENDBRANCH  24  25
ENDBRANCH  23  24
ENDBRANCH  22  23
ENDBRANCH  21  22
ENDBRANCH  20  21
ENDBRANCH  19  20
ENDBRANCH  18  19
ENDBRANCH  17  18
ENDBRANCH   1  17
TORSDOF 26
ENDMDL
MODEL 4
REMARK VINA RESULT:    -3.918      2.691     10.489
REMARK INTER + INTRA:         -12.417
REMARK INTER:                  -9.960
REMARK INTRA:                  -2.457
REMARK UNBOUND:                -2.544
REMARK SMILES CCCCCCCCCCCCCCCCCCCCCCCCCCCC(=O)[O-]
REMARK SMILES IDX 15 1 16 2 17 3 18 4 19 5 20 6 21 7 22 8 23 9 24 10 25 11
REMARK SMILES IDX 26 12 27 13 28 14 29 15 30 16 14 17 13 18 12 19 11 20 10 21
REMARK SMILES IDX 9 22 8 23 7 24 6 25 5 26 4 27 3 28 2 29 1 30
REMARK H PARENT
REMARK Flexibility Score: inf
ROOT
ATOM      1  C   UNL     1      -0.884   6.371 -54.167  1.00  0.00     0.000 C 
ENDROOT
BRANCH   1   2
ATOM      2  C   UNL     1      -1.525   5.042 -53.739  1.00  0.00     0.000 C 
BRANCH   2   3
ATOM      3  C   UNL     1      -1.554   4.917 -52.208  1.00  0.00     0.000 C 
BRANCH   3   4
ATOM      4  C   UNL     1      -0.497   5.793 -51.512  1.00  0.00     0.000 C 
BRANCH   4   5
ATOM      5  C   UNL     1       0.083   5.212 -50.209  1.00  0.00     0.000 C 
BRANCH   5   6
ATOM      6  C   UNL     1      -0.544   5.827 -48.947  1.00  0.00     0.000 C 
BRANCH   6   7
ATOM      7  C   UNL     1      -1.819   5.095 -48.490  1.00  0.00     0.000 C 
BRANCH   7   8
ATOM      8  C   UNL     1      -2.538   5.719 -47.277  1.00  0.00     0.000 C 
BRANCH   8   9
ATOM      9  C   UNL     1      -1.714   6.757 -46.490  1.00  0.00     0.000 C 
BRANCH   9  10
ATOM     10  C   UNL     1      -2.453   7.409 -45.304  1.00  0.00     0.000 C 
BRANCH  10  11
ATOM     11  C   UNL     1      -2.783   8.903 -45.485  1.00  0.00     0.000 C 
BRANCH  11  12
ATOM     12  C   UNL     1      -3.716   9.227 -46.670  1.00  0.00     0.006 C 
BRANCH  12  13
ATOM     13  C   UNL     1      -5.108   8.580 -46.580  1.00  0.00     0.053 C 
BRANCH  13  14
ATOM     14  C   UNL     1      -5.590   8.102 -47.916  1.00  0.00     0.041 C 
ATOM     15  O   UNL     1      -5.313   6.940 -48.310  1.00  0.00    -0.550 OA
ATOM     16  O   UNL     1      -6.307   8.957 -48.743  1.00  0.00    -0.550 OA
ENDBRANCH  13  14
ENDBRANCH  12  13
ENDBRANCH  11  12
ENDBRANCH  10  11
ENDBRANCH   9  10
ENDBRANCH   8   9
ENDBRANCH   7   8
ENDBRANCH   6   7
ENDBRANCH   5   6
ENDBRANCH   4   5
ENDBRANCH   3   4
ENDBRANCH   2   3
ENDBRANCH   1   2
BRANCH   1  17
ATOM     17  C   UNL     1       0.110   6.207 -55.330  1.00  0.00     0.000 C 
BRANCH  17  18
ATOM     18  C   UNL     1      -0.432   5.422 -56.542  1.00  0.00     0.000 C 
BRANCH  18  19
ATOM     19  C   UNL     1      -0.411   6.188 -57.880  1.00  0.00     0.000 C 
BRANCH  19  20
ATOM     20  C   UNL     1      -1.629   5.942 -58.791  1.00  0.00     0.000 C 
BRANCH  20  21
ATOM     21  C   UNL     1      -2.620   4.878 -58.280  1.00  0.00     0.000 C 
BRANCH  21  22
ATOM     22  C   UNL     1      -3.929   5.440 -57.690  1.00  0.00    -0.000 C 
BRANCH  22  23
ATOM     23  C   UNL     1      -3.750   6.360 -56.466  1.00  0.00    -0.000 C 
BRANCH  23  24
ATOM     24  C   UNL     1      -3.589   7.858 -56.796  1.00  0.00    -0.000 C 
BRANCH  24  25
ATOM     25  C   UNL     1      -4.890   8.576 -57.207  1.00  0.00    -0.000 C 
BRANCH  25  26
ATOM     26  C   UNL     1      -5.296   8.396 -58.684  1.00  0.00    -0.000 C 
BRANCH  26  27
ATOM     27  C   UNL     1      -6.568   7.558 -58.910  1.00  0.00    -0.000 C 
BRANCH  27  28
ATOM     28  C   UNL     1      -7.401   7.380 -57.632  1.00  0.00    -0.000 C 
BRANCH  28  29
ATOM     29  C   UNL     1      -7.533   5.898 -57.265  1.00  0.00    -0.003 C 
ATOM     30  C   UNL     1      -8.832   5.309 -57.809  1.00  0.00     0.004 C 
ENDBRANCH  28  29
ENDBRANCH  27  28
ENDBRANCH  26  27
ENDBRANCH  25  26
ENDBRANCH  24  25
ENDBRANCH  23  24
ENDBRANCH  22  23
ENDBRANCH  21  22
ENDBRANCH  20  21
ENDBRANCH  19  20
ENDBRANCH  18  19
ENDBRANCH  17  18
ENDBRANCH   1  17
TORSDOF 26
ENDMDL
MODEL 5
REMARK VINA RESULT:    -3.880      4.283     11.326
REMARK INTER + INTRA:         -12.322
REMARK INTER:                 -10.005
REMARK INTRA:                  -2.317
REMARK UNBOUND:                -2.544
REMARK SMILES CCCCCCCCCCCCCCCCCCCCCCCCCCCC(=O)[O-]
REMARK SMILES IDX 15 1 16 2 17 3 18 4 19 5 20 6 21 7 22 8 23 9 24 10 25 11
REMARK SMILES IDX 26 12 27 13 28 14 29 15 30 16 14 17 13 18 12 19 11 20 10 21
REMARK SMILES IDX 9 22 8 23 7 24 6 25 5 26 4 27 3 28 2 29 1 30
REMARK H PARENT
REMARK Flexibility Score: inf
ROOT
ATOM      1  C   UNL     1      -1.779   6.829 -55.051  1.00  0.00     0.000 C 
ENDROOT
BRANCH   1   2
ATOM      2  C   UNL     1      -0.799   6.832 -53.869  1.00  0.00     0.000 C 
BRANCH   2   3
ATOM      3  C   UNL     1      -0.284   5.413 -53.583  1.00  0.00     0.000 C 
BRANCH   3   4
ATOM      4  C   UNL     1       0.290   5.255 -52.164  1.00  0.00     0.000 C 
BRANCH   4   5
ATOM      5  C   UNL     1      -0.758   5.192 -51.036  1.00  0.00     0.000 C 
BRANCH   5   6
ATOM      6  C   UNL     1      -0.196   5.624 -49.672  1.00  0.00     0.000 C 
BRANCH   6   7
ATOM      7  C   UNL     1      -1.091   5.203 -48.492  1.00  0.00     0.000 C 
BRANCH   7   8
ATOM      8  C   UNL     1      -1.815   6.358 -47.770  1.00  0.00     0.000 C 
BRANCH   8   9
ATOM      9  C   UNL     1      -1.460   6.524 -46.279  1.00  0.00     0.000 C 
BRANCH   9  10
ATOM     10  C   UNL     1      -0.277   7.471 -45.995  1.00  0.00     0.000 C 
BRANCH  10  11
ATOM     11  C   UNL     1       1.033   7.112 -46.724  1.00  0.00     0.000 C 
BRANCH  11  12
ATOM     12  C   UNL     1       2.117   8.209 -46.696  1.00  0.00     0.006 C 
BRANCH  12  13
ATOM     13  C   UNL     1       3.401   7.816 -45.947  1.00  0.00     0.053 C 
BRANCH  13  14
ATOM     14  C   UNL     1       4.163   9.017 -45.475  1.00  0.00     0.041 C 
ATOM     15  O   UNL     1       5.412   8.959 -45.335  1.00  0.00    -0.550 OA
ATOM     16  O   UNL     1       3.487  10.185 -45.148  1.00  0.00    -0.550 OA
ENDBRANCH  13  14
ENDBRANCH  12  13
ENDBRANCH  11  12
ENDBRANCH  10  11
ENDBRANCH   9  10
ENDBRANCH   8   9
ENDBRANCH   7   8
ENDBRANCH   6   7
ENDBRANCH   5   6
ENDBRANCH   4   5
ENDBRANCH   3   4
ENDBRANCH   2   3
ENDBRANCH   1   2
BRANCH   1  17
ATOM     17  C   UNL     1      -1.920   5.444 -55.707  1.00  0.00     0.000 C 
BRANCH  17  18
ATOM     18  C   UNL     1      -3.371   4.956 -55.892  1.00  0.00     0.000 C 
BRANCH  18  19
ATOM     19  C   UNL     1      -4.387   6.053 -56.266  1.00  0.00     0.000 C 
BRANCH  19  20
ATOM     20  C   UNL     1      -5.335   5.694 -57.427  1.00  0.00     0.000 C 
BRANCH  20  21
ATOM     21  C   UNL     1      -6.639   6.514 -57.479  1.00  0.00     0.000 C 
BRANCH  21  22
ATOM     22  C   UNL     1      -6.527   7.868 -58.206  1.00  0.00    -0.000 C 
BRANCH  22  23
ATOM     23  C   UNL     1      -5.403   8.790 -57.693  1.00  0.00    -0.000 C 
BRANCH  23  24
ATOM     24  C   UNL     1      -4.372   9.213 -58.759  1.00  0.00    -0.000 C 
BRANCH  24  25
ATOM     25  C   UNL     1      -2.898   9.011 -58.353  1.00  0.00    -0.000 C 
BRANCH  25  26
ATOM     26  C   UNL     1      -2.071   8.132 -59.313  1.00  0.00    -0.000 C 
BRANCH  26  27
ATOM     27  C   UNL     1      -1.782   6.708 -58.803  1.00  0.00    -0.000 C 
BRANCH  27  28
ATOM     28  C   UNL     1      -2.477   5.622 -59.637  1.00  0.00    -0.000 C 
BRANCH  28  29
ATOM     29  C   UNL     1      -3.614   6.217 -60.475  1.00  0.00    -0.003 C 
ATOM     30  C   UNL     1      -4.017   5.275 -61.607  1.00  0.00     0.004 C 
ENDBRANCH  28  29
ENDBRANCH  27  28
ENDBRANCH  26  27
ENDBRANCH  25  26
ENDBRANCH  24  25
ENDBRANCH  23  24
ENDBRANCH  22  23
ENDBRANCH  21  22
ENDBRANCH  20  21
ENDBRANCH  19  20
ENDBRANCH  18  19
ENDBRANCH  17  18
ENDBRANCH   1  17
TORSDOF 26
ENDMDL
MODEL 6
REMARK VINA RESULT:    -3.778      1.942      3.183
REMARK INTER + INTRA:         -12.065
REMARK INTER:                 -10.122
REMARK INTRA:                  -1.942
REMARK UNBOUND:                -2.544
REMARK SMILES CCCCCCCCCCCCCCCCCCCCCCCCCCCC(=O)[O-]
REMARK SMILES IDX 15 1 16 2 17 3 18 4 19 5 20 6 21 7 22 8 23 9 24 10 25 11
REMARK SMILES IDX 26 12 27 13 28 14 29 15 30 16 14 17 13 18 12 19 11 20 10 21
REMARK SMILES IDX 9 22 8 23 7 24 6 25 5 26 4 27 3 28 2 29 1 30
REMARK H PARENT
REMARK Flexibility Score: inf
ROOT
ATOM      1  C   UNL     1      -0.306   7.400 -54.316  1.00  0.00     0.000 C 
ENDROOT
BRANCH   1   2
ATOM      2  C   UNL     1      -1.702   6.812 -54.566  1.00  0.00     0.000 C 
BRANCH   2   3
ATOM      3  C   UNL     1      -1.611   5.516 -55.386  1.00  0.00     0.000 C 
BRANCH   3   4
ATOM      4  C   UNL     1      -0.344   5.442 -56.257  1.00  0.00     0.000 C 
BRANCH   4   5
ATOM      5  C   UNL     1      -0.582   5.063 -57.731  1.00  0.00     0.000 C 
BRANCH   5   6
ATOM      6  C   UNL     1      -0.384   6.246 -58.693  1.00  0.00     0.000 C 
BRANCH   6   7
ATOM      7  C   UNL     1      -1.588   7.206 -58.722  1.00  0.00     0.000 C 
BRANCH   7   8
ATOM      8  C   UNL     1      -2.767   6.755 -59.609  1.00  0.00     0.000 C 
BRANCH   8   9
ATOM      9  C   UNL     1      -3.107   5.253 -59.533  1.00  0.00     0.000 C 
BRANCH   9  10
ATOM     10  C   UNL     1      -4.469   4.928 -58.886  1.00  0.00     0.000 C 
BRANCH  10  11
ATOM     11  C   UNL     1      -4.597   5.328 -57.403  1.00  0.00     0.000 C 
BRANCH  11  12
ATOM     12  C   UNL     1      -5.163   6.741 -57.154  1.00  0.00     0.006 C 
BRANCH  12  13
ATOM     13  C   UNL     1      -6.053   7.280 -58.286  1.00  0.00     0.053 C 
BRANCH  13  14
ATOM     14  C   UNL     1      -7.499   7.308 -57.896  1.00  0.00     0.041 C 
ATOM     15  O   UNL     1      -8.086   8.408 -57.724  1.00  0.00    -0.550 OA
ATOM     16  O   UNL     1      -8.184   6.121 -57.678  1.00  0.00    -0.550 OA
ENDBRANCH  13  14
ENDBRANCH  12  13
ENDBRANCH  11  12
ENDBRANCH  10  11
ENDBRANCH   9  10
ENDBRANCH   8   9
ENDBRANCH   7   8
ENDBRANCH   6   7
ENDBRANCH   5   6
ENDBRANCH   4   5
ENDBRANCH   3   4
ENDBRANCH   2   3
ENDBRANCH   1   2
BRANCH   1  17
ATOM     17  C   UNL     1       0.248   7.053 -52.923  1.00  0.00     0.000 C 
BRANCH  17  18
ATOM     18  C   UNL     1      -0.504   5.926 -52.186  1.00  0.00     0.000 C 
BRANCH  18  19
ATOM     19  C   UNL     1      -0.541   6.059 -50.651  1.00  0.00     0.000 C 
BRANCH  19  20
ATOM     20  C   UNL     1      -1.492   5.080 -49.935  1.00  0.00     0.000 C 
BRANCH  20  21
ATOM     21  C   UNL     1      -1.591   5.269 -48.408  1.00  0.00     0.000 C 
BRANCH  21  22
ATOM     22  C   UNL     1      -3.018   5.506 -47.875  1.00  0.00    -0.000 C 
BRANCH  22  23
ATOM     23  C   UNL     1      -3.308   6.947 -47.411  1.00  0.00    -0.000 C 
BRANCH  23  24
ATOM     24  C   UNL     1      -2.277   7.535 -46.427  1.00  0.00    -0.000 C 
BRANCH  24  25
ATOM     25  C   UNL     1      -2.618   8.939 -45.889  1.00  0.00    -0.000 C 
BRANCH  25  26
ATOM     26  C   UNL     1      -3.776   9.653 -46.616  1.00  0.00    -0.000 C 
BRANCH  26  27
ATOM     27  C   UNL     1      -3.545  11.150 -46.892  1.00  0.00    -0.000 C 
BRANCH  27  28
ATOM     28  C   UNL     1      -2.549  11.791 -45.914  1.00  0.00    -0.000 C 
BRANCH  28  29
ATOM     29  C   UNL     1      -1.188  12.011 -46.582  1.00  0.00    -0.003 C 
ATOM     30  C   UNL     1      -0.048  11.547 -45.679  1.00  0.00     0.004 C 
ENDBRANCH  28  29
ENDBRANCH  27  28
ENDBRANCH  26  27
ENDBRANCH  25  26
ENDBRANCH  24  25
ENDBRANCH  23  24
ENDBRANCH  22  23
ENDBRANCH  21  22
ENDBRANCH  20  21
ENDBRANCH  19  20
ENDBRANCH  18  19
ENDBRANCH  17  18
ENDBRANCH   1  17
TORSDOF 26
ENDMDL
MODEL 7
REMARK VINA RESULT:    -3.740      1.855      5.260
REMARK INTER + INTRA:         -11.969
REMARK INTER:                  -9.545
REMARK INTRA:                  -2.425
REMARK UNBOUND:                -2.544
REMARK SMILES CCCCCCCCCCCCCCCCCCCCCCCCCCCC(=O)[O-]
REMARK SMILES IDX 15 1 16 2 17 3 18 4 19 5 20 6 21 7 22 8 23 9 24 10 25 11
REMARK SMILES IDX 26 12 27 13 28 14 29 15 30 16 14 17 13 18 12 19 11 20 10 21
REMARK SMILES IDX 9 22 8 23 7 24 6 25 5 26 4 27 3 28 2 29 1 30
REMARK H PARENT
REMARK Flexibility Score: inf
ROOT
ATOM      1  C   UNL     1       0.010   7.312 -45.646  1.00  0.00     0.000 C 
ENDROOT
BRANCH   1   2
ATOM      2  C   UNL     1       0.667   6.862 -46.959  1.00  0.00     0.000 C 
BRANCH   2   3
ATOM      3  C   UNL     1      -0.151   5.745 -47.625  1.00  0.00     0.000 C 
BRANCH   3   4
ATOM      4  C   UNL     1       0.470   5.246 -48.942  1.00  0.00     0.000 C 
BRANCH   4   5
ATOM      5  C   UNL     1       0.040   6.018 -50.204  1.00  0.00     0.000 C 
BRANCH   5   6
ATOM      6  C   UNL     1      -0.815   5.171 -51.160  1.00  0.00     0.000 C 
BRANCH   6   7
ATOM      7  C   UNL     1      -0.355   5.271 -52.627  1.00  0.00     0.000 C 
BRANCH   7   8
ATOM      8  C   UNL     1      -0.644   6.619 -53.318  1.00  0.00     0.000 C 
BRANCH   8   9
ATOM      9  C   UNL     1       0.047   6.818 -54.681  1.00  0.00     0.000 C 
BRANCH   9  10
ATOM     10  C   UNL     1      -0.342   5.790 -55.762  1.00  0.00     0.000 C 
BRANCH  10  11
ATOM     11  C   UNL     1      -1.106   6.371 -56.968  1.00  0.00     0.000 C 
BRANCH  11  12
ATOM     12  C   UNL     1      -2.604   6.646 -56.722  1.00  0.00     0.006 C 
BRANCH  12  13
ATOM     13  C   UNL     1      -2.969   8.135 -56.622  1.00  0.00     0.053 C 
BRANCH  13  14
ATOM     14  C   UNL     1      -3.479   8.676 -57.923  1.00  0.00     0.041 C 
ATOM     15  O   UNL     1      -4.672   8.475 -58.268  1.00  0.00    -0.550 OA
ATOM     16  O   UNL     1      -2.622   9.362 -58.774  1.00  0.00    -0.550 OA
ENDBRANCH  13  14
ENDBRANCH  12  13
ENDBRANCH  11  12
ENDBRANCH  10  11
ENDBRANCH   9  10
ENDBRANCH   8   9
ENDBRANCH   7   8
ENDBRANCH   6   7
ENDBRANCH   5   6
ENDBRANCH   4   5
ENDBRANCH   3   4
ENDBRANCH   2   3
ENDBRANCH   1   2
BRANCH   1  17
ATOM     17  C   UNL     1      -0.357   8.807 -45.644  1.00  0.00     0.000 C 
BRANCH  17  18
ATOM     18  C   UNL     1       0.846   9.771 -45.621  1.00  0.00     0.000 C 
BRANCH  18  19
ATOM     19  C   UNL     1       0.500  11.240 -45.304  1.00  0.00     0.000 C 
BRANCH  19  20
ATOM     20  C   UNL     1      -0.329  11.962 -46.384  1.00  0.00     0.000 C 
BRANCH  20  21
ATOM     21  C   UNL     1      -1.588  12.682 -45.864  1.00  0.00     0.000 C 
BRANCH  21  22
ATOM     22  C   UNL     1      -2.704  11.751 -45.351  1.00  0.00    -0.000 C 
BRANCH  22  23
ATOM     23  C   UNL     1      -3.426  10.937 -46.443  1.00  0.00    -0.000 C 
BRANCH  23  24
ATOM     24  C   UNL     1      -3.837   9.510 -46.027  1.00  0.00    -0.000 C 
BRANCH  24  25
ATOM     25  C   UNL     1      -4.249   8.587 -47.192  1.00  0.00    -0.000 C 
BRANCH  25  26
ATOM     26  C   UNL     1      -3.566   7.204 -47.201  1.00  0.00    -0.000 C 
BRANCH  26  27
ATOM     27  C   UNL     1      -4.049   6.234 -46.109  1.00  0.00    -0.000 C 
BRANCH  27  28
ATOM     28  C   UNL     1      -5.517   5.817 -46.286  1.00  0.00    -0.000 C 
BRANCH  28  29
ATOM     29  C   UNL     1      -5.779   5.326 -47.714  1.00  0.00    -0.003 C 
ATOM     30  C   UNL     1      -6.933   6.090 -48.358  1.00  0.00     0.004 C 
ENDBRANCH  28  29
ENDBRANCH  27  28
ENDBRANCH  26  27
ENDBRANCH  25  26
ENDBRANCH  24  25
ENDBRANCH  23  24
ENDBRANCH  22  23
ENDBRANCH  21  22
ENDBRANCH  20  21
ENDBRANCH  19  20
ENDBRANCH  18  19
ENDBRANCH  17  18
ENDBRANCH   1  17
TORSDOF 26
ENDMDL
MODEL 8
REMARK VINA RESULT:    -3.621      3.789     10.933
REMARK INTER + INTRA:         -11.668
REMARK INTER:                  -9.502
REMARK INTRA:                  -2.166
REMARK UNBOUND:                -2.544
REMARK SMILES CCCCCCCCCCCCCCCCCCCCCCCCCCCC(=O)[O-]
REMARK SMILES IDX 15 1 16 2 17 3 18 4 19 5 20 6 21 7 22 8 23 9 24 10 25 11
REMARK SMILES IDX 26 12 27 13 28 14 29 15 30 16 14 17 13 18 12 19 11 20 10 21
REMARK SMILES IDX 9 22 8 23 7 24 6 25 5 26 4 27 3 28 2 29 1 30
REMARK H PARENT
REMARK Flexibility Score: inf
ROOT
ATOM      1  C   UNL     1      -0.507   5.958 -54.588  1.00  0.00     0.000 C 
ENDROOT
BRANCH   1   2
ATOM      2  C   UNL     1      -1.822   5.428 -54.000  1.00  0.00     0.000 C 
BRANCH   2   3
ATOM      3  C   UNL     1      -1.730   5.314 -52.470  1.00  0.00     0.000 C 
BRANCH   3   4
ATOM      4  C   UNL     1      -0.375   5.784 -51.912  1.00  0.00     0.000 C 
BRANCH   4   5
ATOM      5  C   UNL     1       0.094   5.061 -50.635  1.00  0.00     0.000 C 
BRANCH   5   6
ATOM      6  C   UNL     1      -0.082   5.913 -49.366  1.00  0.00     0.000 C 
BRANCH   6   7
ATOM      7  C   UNL     1      -1.400   5.624 -48.625  1.00  0.00     0.000 C 
BRANCH   7   8
ATOM      8  C   UNL     1      -1.485   6.182 -47.190  1.00  0.00     0.000 C 
BRANCH   8   9
ATOM      9  C   UNL     1      -0.170   6.760 -46.632  1.00  0.00     0.000 C 
BRANCH   9  10
ATOM     10  C   UNL     1      -0.343   7.834 -45.540  1.00  0.00     0.000 C 
BRANCH  10  11
ATOM     11  C   UNL     1      -1.486   8.838 -45.791  1.00  0.00     0.000 C 
BRANCH  11  12
ATOM     12  C   UNL     1      -1.437  10.114 -44.925  1.00  0.00     0.006 C 
BRANCH  12  13
ATOM     13  C   UNL     1      -2.164  11.325 -45.532  1.00  0.00     0.053 C 
BRANCH  13  14
ATOM     14  C   UNL     1      -1.243  12.490 -45.727  1.00  0.00     0.041 C 
ATOM     15  O   UNL     1      -0.031  12.299 -46.010  1.00  0.00    -0.550 OA
ATOM     16  O   UNL     1      -1.713  13.785 -45.551  1.00  0.00    -0.550 OA
ENDBRANCH  13  14
ENDBRANCH  12  13
ENDBRANCH  11  12
ENDBRANCH  10  11
ENDBRANCH   9  10
ENDBRANCH   8   9
ENDBRANCH   7   8
ENDBRANCH   6   7
ENDBRANCH   5   6
ENDBRANCH   4   5
ENDBRANCH   3   4
ENDBRANCH   2   3
ENDBRANCH   1   2
BRANCH   1  17
ATOM     17  C   UNL     1       0.057   5.054 -55.699  1.00  0.00     0.000 C 
BRANCH  17  18
ATOM     18  C   UNL     1      -0.780   5.017 -56.994  1.00  0.00     0.000 C 
BRANCH  18  19
ATOM     19  C   UNL     1      -0.443   6.115 -58.021  1.00  0.00     0.000 C 
BRANCH  19  20
ATOM     20  C   UNL     1      -1.664   6.764 -58.704  1.00  0.00     0.000 C 
BRANCH  20  21
ATOM     21  C   UNL     1      -2.160   6.042 -59.972  1.00  0.00     0.000 C 
BRANCH  21  22
ATOM     22  C   UNL     1      -3.631   5.584 -59.924  1.00  0.00    -0.000 C 
BRANCH  22  23
ATOM     23  C   UNL     1      -4.050   4.877 -58.620  1.00  0.00    -0.000 C 
BRANCH  23  24
ATOM     24  C   UNL     1      -4.986   5.696 -57.708  1.00  0.00    -0.000 C 
BRANCH  24  25
ATOM     25  C   UNL     1      -5.715   6.863 -58.404  1.00  0.00    -0.000 C 
BRANCH  25  26
ATOM     26  C   UNL     1      -5.675   8.204 -57.644  1.00  0.00    -0.000 C 
BRANCH  26  27
ATOM     27  C   UNL     1      -4.687   8.253 -56.465  1.00  0.00    -0.000 C 
BRANCH  27  28
ATOM     28  C   UNL     1      -3.308   8.800 -56.863  1.00  0.00    -0.000 C 
BRANCH  28  29
ATOM     29  C   UNL     1      -3.445   9.997 -57.810  1.00  0.00    -0.003 C 
ATOM     30  C   UNL     1      -2.694   9.756 -59.117  1.00  0.00     0.004 C 
ENDBRANCH  28  29
ENDBRANCH  27  28
ENDBRANCH  26  27
ENDBRANCH  25  26
ENDBRANCH  24  25
ENDBRANCH  23  24
ENDBRANCH  22  23
ENDBRANCH  21  22
ENDBRANCH  20  21
ENDBRANCH  19  20
ENDBRANCH  18  19
ENDBRANCH  17  18
ENDBRANCH   1  17
TORSDOF 26
ENDMDL
MODEL 9
REMARK VINA RESULT:    -3.589      2.884     10.302
REMARK INTER + INTRA:         -11.589
REMARK INTER:                  -9.049
REMARK INTRA:                  -2.539
REMARK UNBOUND:                -2.544
REMARK SMILES CCCCCCCCCCCCCCCCCCCCCCCCCCCC(=O)[O-]
REMARK SMILES IDX 15 1 16 2 17 3 18 4 19 5 20 6 21 7 22 8 23 9 24 10 25 11
REMARK SMILES IDX 26 12 27 13 28 14 29 15 30 16 14 17 13 18 12 19 11 20 10 21
REMARK SMILES IDX 9 22 8 23 7 24 6 25 5 26 4 27 3 28 2 29 1 30
REMARK H PARENT
REMARK Flexibility Score: inf
ROOT
ATOM      1  C   UNL     1      -0.662   7.449 -54.574  1.00  0.00     0.000 C 
ENDROOT
BRANCH   1   2
ATOM      2  C   UNL     1       0.124   6.403 -53.770  1.00  0.00     0.000 C 
BRANCH   2   3
ATOM      3  C   UNL     1      -0.163   6.539 -52.267  1.00  0.00     0.000 C 
BRANCH   3   4
ATOM      4  C   UNL     1      -0.935   5.339 -51.690  1.00  0.00     0.000 C 
BRANCH   4   5
ATOM      5  C   UNL     1      -1.082   5.329 -50.157  1.00  0.00     0.000 C 
BRANCH   5   6
ATOM      6  C   UNL     1      -2.530   5.095 -49.695  1.00  0.00     0.000 C 
BRANCH   6   7
ATOM      7  C   UNL     1      -2.826   5.701 -48.311  1.00  0.00     0.000 C 
BRANCH   7   8
ATOM      8  C   UNL     1      -1.615   6.338 -47.598  1.00  0.00     0.000 C 
BRANCH   8   9
ATOM      9  C   UNL     1      -1.961   7.232 -46.391  1.00  0.00     0.000 C 
BRANCH   9  10
ATOM     10  C   UNL     1      -2.993   8.341 -46.680  1.00  0.00     0.000 C 
BRANCH  10  11
ATOM     11  C   UNL     1      -4.012   8.592 -45.551  1.00  0.00     0.000 C 
BRANCH  11  12
ATOM     12  C   UNL     1      -5.474   8.250 -45.903  1.00  0.00     0.006 C 
BRANCH  12  13
ATOM     13  C   UNL     1      -5.708   7.903 -47.383  1.00  0.00     0.053 C 
BRANCH  13  14
ATOM     14  C   UNL     1      -6.461   6.618 -47.544  1.00  0.00     0.041 C 
ATOM     15  O   UNL     1      -6.343   5.704 -46.687  1.00  0.00    -0.550 OA
ATOM     16  O   UNL     1      -7.257   6.414 -48.663  1.00  0.00    -0.550 OA
ENDBRANCH  13  14
ENDBRANCH  12  13
ENDBRANCH  11  12
ENDBRANCH  10  11
ENDBRANCH   9  10
ENDBRANCH   8   9
ENDBRANCH   7   8
ENDBRANCH   6   7
ENDBRANCH   5   6
ENDBRANCH   4   5
ENDBRANCH   3   4
ENDBRANCH   2   3
ENDBRANCH   1   2
BRANCH   1  17
ATOM     17  C   UNL     1      -1.968   6.890 -55.164  1.00  0.00     0.000 C 
BRANCH  17  18
ATOM     18  C   UNL     1      -2.185   5.378 -54.947  1.00  0.00     0.000 C 
BRANCH  18  19
ATOM     19  C   UNL     1      -3.614   4.875 -55.235  1.00  0.00     0.000 C 
BRANCH  19  20
ATOM     20  C   UNL     1      -4.197   5.313 -56.593  1.00  0.00     0.000 C 
BRANCH  20  21
ATOM     21  C   UNL     1      -5.183   6.496 -56.526  1.00  0.00     0.000 C 
BRANCH  21  22
ATOM     22  C   UNL     1      -4.527   7.890 -56.558  1.00  0.00    -0.000 C 
BRANCH  22  23
ATOM     23  C   UNL     1      -4.414   8.525 -57.958  1.00  0.00    -0.000 C 
BRANCH  23  24
ATOM     24  C   UNL     1      -5.322   7.895 -59.034  1.00  0.00    -0.000 C 
BRANCH  24  25
ATOM     25  C   UNL     1      -4.587   7.400 -60.296  1.00  0.00    -0.000 C 
BRANCH  25  26
ATOM     26  C   UNL     1      -3.912   6.020 -60.159  1.00  0.00    -0.000 C 
BRANCH  26  27
ATOM     27  C   UNL     1      -2.378   6.057 -60.033  1.00  0.00    -0.000 C 
BRANCH  27  28
ATOM     28  C   UNL     1      -1.876   5.508 -58.689  1.00  0.00    -0.000 C 
BRANCH  28  29
ATOM     29  C   UNL     1      -0.448   5.984 -58.400  1.00  0.00    -0.003 C 
ATOM     30  C   UNL     1       0.271   5.027 -57.454  1.00  0.00     0.004 C 
ENDBRANCH  28  29
ENDBRANCH  27  28
ENDBRANCH  26  27
ENDBRANCH  25  26
ENDBRANCH  24  25
ENDBRANCH  23  24
ENDBRANCH  22  23
ENDBRANCH  21  22
ENDBRANCH  20  21
ENDBRANCH  19  20
ENDBRANCH  18  19
ENDBRANCH  17  18
ENDBRANCH   1  17
TORSDOF 26
ENDMDL
