MODEL 1
REMARK VINA RESULT:    -9.731      0.000      0.000
REMARK INTER + INTRA:         -10.848
REMARK INTER:                 -10.584
REMARK INTRA:                  -0.264
REMARK UNBOUND:                -0.264
REMARK SMILES CC1(C)CC[C@@]2(C(=O)[O-])CC[C@@]3(C)C(=CC[C@@H]4[C@]5(C)CC[C@@H](O)C(C)(C)[C@H]5CC[C@@]43C)[C@H]2C1
REMARK SMILES IDX 6 1 5 2 10 3 32 4 4 5 11 6 14 7 33 8 2 9 12 10 15 11 1 12
REMARK SMILES IDX 3 13 13 14 30 15 16 16 17 17 29 18 31 19 18 20 28 21 27 22
REMARK SMILES IDX 20 23 19 24 24 25 21 26 22 27 25 28 26 29 7 30 8 31 9 32
REMARK SMILES IDX 23 33
REMARK H PARENT 23 34
REMARK Flexibility Score: inf
ROOT
ATOM      1  C   UNL     1      11.877  15.124   2.617  1.00  0.00     0.017 C 
ATOM      2  C   UNL     1      12.337  14.372   1.338  1.00  0.00     0.014 C 
ATOM      3  C   UNL     1      10.330  15.041   2.766  1.00  0.00     0.014 C 
ATOM      4  C   UNL     1      12.605  14.537   3.891  1.00  0.00     0.028 C 
ATOM      5  C   UNL     1      13.866  14.407   1.133  1.00  0.00     0.007 C 
ATOM      6  C   UNL     1       9.766  13.671   3.202  1.00  0.00     0.013 C 
ATOM      7  C   UNL     1      11.599  13.921   4.894  1.00  0.00    -0.064 C 
ATOM      8  C   UNL     1      13.823  13.623   3.590  1.00  0.00     0.015 C 
ATOM      9  C   UNL     1      14.713  14.140   2.425  1.00  0.00    -0.035 C 
ATOM     10  C   UNL     1      10.506  12.947   4.401  1.00  0.00    -0.006 C 
ATOM     11  C   UNL     1      11.462  14.582   6.055  1.00  0.00    -0.027 C 
ATOM     12  C   UNL     1      15.462  15.424   2.853  1.00  0.00     0.011 C 
ATOM     13  C   UNL     1      15.782  13.065   2.120  1.00  0.00     0.011 C 
ATOM     14  C   UNL     1      11.208  11.669   3.836  1.00  0.00     0.017 C 
ATOM     15  C   UNL     1       9.470  12.475   5.566  1.00  0.00    -0.020 C 
ATOM     16  C   UNL     1      10.305  14.480   6.981  1.00  0.00     0.032 C 
ATOM     17  C   UNL     1       9.052  13.696   6.489  1.00  0.00     0.006 C 
ATOM     18  C   UNL     1      10.102  11.394   6.511  1.00  0.00     0.008 C 
ATOM     19  C   UNL     1       8.225  11.823   4.851  1.00  0.00     0.012 C 
ATOM     20  C   UNL     1       8.102  13.317   7.735  1.00  0.00    -0.025 C 
ATOM     21  C   UNL     1       9.211  10.969   7.700  1.00  0.00     0.005 C 
ATOM     22  C   UNL     1       8.772  12.161   8.579  1.00  0.00     0.003 C 
ATOM     23  C   UNL     1       7.909  14.549   8.689  1.00  0.00     0.010 C 
ATOM     24  C   UNL     1       6.683  12.947   7.197  1.00  0.00     0.012 C 
ATOM     25  C   UNL     1       8.038  11.772   9.931  1.00  0.00    -0.006 C 
ATOM     26  C   UNL     1       7.161  14.227   9.996  1.00  0.00     0.033 C 
ATOM     27  C   UNL     1       7.834  13.078  10.773  1.00  0.00     0.120 C 
ATOM     28  C   UNL     1       8.952  10.828  10.764  1.00  0.00     0.014 C 
ATOM     29  C   UNL     1       6.694  11.022   9.720  1.00  0.00     0.014 C 
ENDROOT
BRANCH   1  30
ATOM     30  C   UNL     1      12.173  16.619   2.455  1.00  0.00     0.048 C 
ATOM     31  O   UNL     1      11.864  17.228   1.395  1.00  0.00    -0.550 OA
ATOM     32  O   UNL     1      12.644  17.364   3.533  1.00  0.00    -0.550 OA
ENDBRANCH   1  30
BRANCH  27  33
ATOM     33  O   UNL     1       7.152  12.825  11.980  1.00  0.00    -0.393 OA
ATOM     34  H   UNL     1       6.292  12.382  11.762  1.00  0.00     0.210 HD
ENDBRANCH  27  33
TORSDOF 2
ENDMDL
MODEL 2
REMARK VINA RESULT:    -9.688      2.377      4.568
REMARK INTER + INTRA:         -10.801
REMARK INTER:                 -10.588
REMARK INTRA:                  -0.213
REMARK UNBOUND:                -0.264
REMARK SMILES CC1(C)CC[C@@]2(C(=O)[O-])CC[C@@]3(C)C(=CC[C@@H]4[C@]5(C)CC[C@@H](O)C(C)(C)[C@H]5CC[C@@]43C)[C@H]2C1
REMARK SMILES IDX 6 1 5 2 10 3 32 4 4 5 11 6 14 7 33 8 2 9 12 10 15 11 1 12
REMARK SMILES IDX 3 13 13 14 30 15 16 16 17 17 29 18 31 19 18 20 28 21 27 22
REMARK SMILES IDX 20 23 19 24 24 25 21 26 22 27 25 28 26 29 7 30 8 31 9 32
REMARK SMILES IDX 23 33
REMARK H PARENT 23 34
REMARK Flexibility Score: inf
ROOT
ATOM      1  C   UNL     1      14.574  16.849   0.773  1.00  0.00     0.017 C 
ATOM      2  C   UNL     1      16.125  16.951   0.753  1.00  0.00     0.014 C 
ATOM      3  C   UNL     1      14.125  15.386   0.489  1.00  0.00     0.014 C 
ATOM      4  C   UNL     1      14.007  17.362   2.156  1.00  0.00     0.028 C 
ATOM      5  C   UNL     1      16.640  18.378   1.038  1.00  0.00     0.007 C 
ATOM      6  C   UNL     1      14.343  14.379   1.639  1.00  0.00     0.013 C 
ATOM      7  C   UNL     1      13.263  16.241   2.922  1.00  0.00    -0.064 C 
ATOM      8  C   UNL     1      15.020  18.148   3.032  1.00  0.00     0.015 C 
ATOM      9  C   UNL     1      15.921  19.118   2.217  1.00  0.00    -0.035 C 
ATOM     10  C   UNL     1      13.911  14.849   3.088  1.00  0.00    -0.006 C 
ATOM     11  C   UNL     1      11.934  16.402   3.034  1.00  0.00    -0.027 C 
ATOM     12  C   UNL     1      15.082  20.302   1.678  1.00  0.00     0.011 C 
ATOM     13  C   UNL     1      16.984  19.708   3.173  1.00  0.00     0.011 C 
ATOM     14  C   UNL     1      15.205  15.012   3.950  1.00  0.00     0.017 C 
ATOM     15  C   UNL     1      12.952  13.759   3.826  1.00  0.00    -0.020 C 
ATOM     16  C   UNL     1      10.950  15.326   3.316  1.00  0.00     0.032 C 
ATOM     17  C   UNL     1      11.461  13.854   3.291  1.00  0.00     0.006 C 
ATOM     18  C   UNL     1      12.887  13.989   5.377  1.00  0.00     0.008 C 
ATOM     19  C   UNL     1      13.579  12.335   3.575  1.00  0.00     0.012 C 
ATOM     20  C   UNL     1      10.407  12.882   4.029  1.00  0.00    -0.025 C 
ATOM     21  C   UNL     1      11.919  13.052   6.134  1.00  0.00     0.005 C 
ATOM     22  C   UNL     1      10.474  13.115   5.590  1.00  0.00     0.003 C 
ATOM     23  C   UNL     1       8.940  13.191   3.566  1.00  0.00     0.010 C 
ATOM     24  C   UNL     1      10.701  11.406   3.611  1.00  0.00     0.012 C 
ATOM     25  C   UNL     1       9.391  12.345   6.456  1.00  0.00    -0.006 C 
ATOM     26  C   UNL     1       7.854  12.430   4.351  1.00  0.00     0.033 C 
ATOM     27  C   UNL     1       7.974  12.666   5.869  1.00  0.00     0.120 C 
ATOM     28  C   UNL     1       9.414  12.882   7.915  1.00  0.00     0.014 C 
ATOM     29  C   UNL     1       9.631  10.812   6.539  1.00  0.00     0.014 C 
ENDROOT
BRANCH   1  30
ATOM     30  C   UNL     1      14.003  17.665  -0.392  1.00  0.00     0.048 C 
ATOM     31  O   UNL     1      12.971  18.373  -0.241  1.00  0.00    -0.550 OA
ATOM     32  O   UNL     1      14.701  17.762  -1.593  1.00  0.00    -0.550 OA
ENDBRANCH   1  30
BRANCH  27  33
ATOM     33  O   UNL     1       6.950  11.987   6.561  1.00  0.00    -0.393 OA
ATOM     34  H   UNL     1       7.007  12.237   7.519  1.00  0.00     0.210 HD
ENDBRANCH  27  33
TORSDOF 2
ENDMDL
MODEL 3
REMARK VINA RESULT:    -9.139      1.089      1.212
REMARK INTER + INTRA:         -10.204
REMARK INTER:                  -9.941
REMARK INTRA:                  -0.263
REMARK UNBOUND:                -0.264
REMARK SMILES CC1(C)CC[C@@]2(C(=O)[O-])CC[C@@]3(C)C(=CC[C@@H]4[C@]5(C)CC[C@@H](O)C(C)(C)[C@H]5CC[C@@]43C)[C@H]2C1
REMARK SMILES IDX 6 1 5 2 10 3 32 4 4 5 11 6 14 7 33 8 2 9 12 10 15 11 1 12
REMARK SMILES IDX 3 13 13 14 30 15 16 16 17 17 29 18 31 19 18 20 28 21 27 22
REMARK SMILES IDX 20 23 19 24 24 25 21 26 22 27 25 28 26 29 7 30 8 31 9 32
REMARK SMILES IDX 23 33
REMARK H PARENT 23 34
REMARK Flexibility Score: inf
ROOT
ATOM      1  C   UNL     1      12.664  16.065   2.569  1.00  0.00     0.017 C 
ATOM      2  C   UNL     1      13.467  15.397   1.419  1.00  0.00     0.014 C 
ATOM      3  C   UNL     1      11.153  15.713   2.448  1.00  0.00     0.014 C 
ATOM      4  C   UNL     1      13.242  15.622   3.972  1.00  0.00     0.028 C 
ATOM      5  C   UNL     1      14.980  15.697   1.483  1.00  0.00     0.007 C 
ATOM      6  C   UNL     1      10.763  14.269   2.830  1.00  0.00     0.013 C 
ATOM      7  C   UNL     1      12.194  14.846   4.806  1.00  0.00    -0.064 C 
ATOM      8  C   UNL     1      14.633  14.933   3.923  1.00  0.00     0.015 C 
ATOM      9  C   UNL     1      15.615  15.590   2.912  1.00  0.00    -0.035 C 
ATOM     10  C   UNL     1      11.389  13.693   4.166  1.00  0.00    -0.006 C 
ATOM     11  C   UNL     1      11.741  15.480   5.899  1.00  0.00    -0.027 C 
ATOM     12  C   UNL     1      16.045  16.989   3.417  1.00  0.00     0.011 C 
ATOM     13  C   UNL     1      16.889  14.717   2.840  1.00  0.00     0.011 C 
ATOM     14  C   UNL     1      12.389  12.554   3.781  1.00  0.00     0.017 C 
ATOM     15  C   UNL     1      10.258  13.055   5.149  1.00  0.00    -0.020 C 
ATOM     16  C   UNL     1      10.472  15.184   6.612  1.00  0.00     0.032 C 
ATOM     17  C   UNL     1       9.480  14.190   5.938  1.00  0.00     0.006 C 
ATOM     18  C   UNL     1      10.886  12.108   6.230  1.00  0.00     0.008 C 
ATOM     19  C   UNL     1       9.290  12.191   4.252  1.00  0.00     0.012 C 
ATOM     20  C   UNL     1       8.401  13.659   7.012  1.00  0.00    -0.025 C 
ATOM     21  C   UNL     1       9.883  11.540   7.259  1.00  0.00     0.005 C 
ATOM     22  C   UNL     1       9.097  12.643   8.003  1.00  0.00     0.003 C 
ATOM     23  C   UNL     1       7.834  14.844   7.871  1.00  0.00     0.010 C 
ATOM     24  C   UNL     1       7.186  13.043   6.249  1.00  0.00     0.012 C 
ATOM     25  C   UNL     1       8.211  12.140   9.220  1.00  0.00    -0.006 C 
ATOM     26  C   UNL     1       6.930  14.404   9.039  1.00  0.00     0.033 C 
ATOM     27  C   UNL     1       7.640  13.396   9.963  1.00  0.00     0.120 C 
ATOM     28  C   UNL     1       9.108  11.376  10.235  1.00  0.00     0.014 C 
ATOM     29  C   UNL     1       7.074  11.166   8.805  1.00  0.00     0.014 C 
ENDROOT
BRANCH   1  30
ATOM     30  C   UNL     1      12.724  17.587   2.406  1.00  0.00     0.048 C 
ATOM     31  O   UNL     1      12.530  18.125   1.282  1.00  0.00    -0.550 OA
ATOM     32  O   UNL     1      12.839  18.412   3.522  1.00  0.00    -0.550 OA
ENDBRANCH   1  30
BRANCH  27  33
ATOM     33  O   UNL     1       6.806  13.036  11.041  1.00  0.00    -0.393 OA
ATOM     34  H   UNL     1       6.670  13.838  11.608  1.00  0.00     0.210 HD
ENDBRANCH  27  33
TORSDOF 2
ENDMDL
MODEL 4
REMARK VINA RESULT:    -8.897      4.429      7.461
REMARK INTER + INTRA:          -9.941
REMARK INTER:                  -9.679
REMARK INTRA:                  -0.262
REMARK UNBOUND:                -0.264
REMARK SMILES CC1(C)CC[C@@]2(C(=O)[O-])CC[C@@]3(C)C(=CC[C@@H]4[C@]5(C)CC[C@@H](O)C(C)(C)[C@H]5CC[C@@]43C)[C@H]2C1
REMARK SMILES IDX 6 1 5 2 10 3 32 4 4 5 11 6 14 7 33 8 2 9 12 10 15 11 1 12
REMARK SMILES IDX 3 13 13 14 30 15 16 16 17 17 29 18 31 19 18 20 28 21 27 22
REMARK SMILES IDX 20 23 19 24 24 25 21 26 22 27 25 28 26 29 7 30 8 31 9 32
REMARK SMILES IDX 23 33
REMARK H PARENT 23 34
REMARK Flexibility Score: inf
ROOT
ATOM      1  C   UNL     1      12.111  14.063   4.915  1.00  0.00     0.017 C 
ATOM      2  C   UNL     1      11.952  12.982   3.810  1.00  0.00     0.014 C 
ATOM      3  C   UNL     1      12.868  15.302   4.354  1.00  0.00     0.014 C 
ATOM      4  C   UNL     1      10.697  14.472   5.491  1.00  0.00     0.028 C 
ATOM      5  C   UNL     1      11.199  11.726   4.297  1.00  0.00     0.007 C 
ATOM      6  C   UNL     1      12.065  16.205   3.393  1.00  0.00     0.013 C 
ATOM      7  C   UNL     1      10.383  15.966   5.235  1.00  0.00    -0.064 C 
ATOM      8  C   UNL     1       9.532  13.517   5.114  1.00  0.00     0.015 C 
ATOM      9  C   UNL     1       9.923  12.013   5.161  1.00  0.00    -0.035 C 
ATOM     10  C   UNL     1      10.589  16.575   3.830  1.00  0.00    -0.006 C 
ATOM     11  C   UNL     1      10.352  16.746   6.327  1.00  0.00    -0.027 C 
ATOM     12  C   UNL     1      10.152  11.566   6.625  1.00  0.00     0.011 C 
ATOM     13  C   UNL     1       8.738  11.188   4.609  1.00  0.00     0.011 C 
ATOM     14  C   UNL     1       9.601  15.873   2.843  1.00  0.00     0.017 C 
ATOM     15  C   UNL     1      10.312  18.179   3.760  1.00  0.00    -0.020 C 
ATOM     16  C   UNL     1      10.505  18.223   6.345  1.00  0.00     0.032 C 
ATOM     17  C   UNL     1      10.930  18.921   5.019  1.00  0.00     0.006 C 
ATOM     18  C   UNL     1       8.778  18.509   3.753  1.00  0.00     0.008 C 
ATOM     19  C   UNL     1      10.926  18.703   2.406  1.00  0.00     0.012 C 
ATOM     20  C   UNL     1      10.627  20.503   5.096  1.00  0.00    -0.025 C 
ATOM     21  C   UNL     1       8.438  20.017   3.785  1.00  0.00     0.005 C 
ATOM     22  C   UNL     1       9.069  20.750   4.990  1.00  0.00     0.003 C 
ATOM     23  C   UNL     1      11.109  21.101   6.465  1.00  0.00     0.010 C 
ATOM     24  C   UNL     1      11.445  21.231   3.982  1.00  0.00     0.012 C 
ATOM     25  C   UNL     1       8.586  22.246   5.202  1.00  0.00    -0.006 C 
ATOM     26  C   UNL     1      10.699  22.568   6.695  1.00  0.00     0.033 C 
ATOM     27  C   UNL     1       9.177  22.766   6.557  1.00  0.00     0.120 C 
ATOM     28  C   UNL     1       7.037  22.277   5.336  1.00  0.00     0.014 C 
ATOM     29  C   UNL     1       8.952  23.194   4.027  1.00  0.00     0.014 C 
ENDROOT
BRANCH   1  30
ATOM     30  C   UNL     1      13.019  13.520   6.022  1.00  0.00     0.048 C 
ATOM     31  O   UNL     1      14.092  12.919   5.742  1.00  0.00    -0.550 OA
ATOM     32  O   UNL     1      12.757  13.816   7.358  1.00  0.00    -0.550 OA
ENDBRANCH   1  30
BRANCH  27  33
ATOM     33  O   UNL     1       8.825  24.108   6.804  1.00  0.00    -0.393 OA
ATOM     34  H   UNL     1       8.667  24.212   7.778  1.00  0.00     0.210 HD
ENDBRANCH  27  33
TORSDOF 2
ENDMDL
MODEL 5
REMARK VINA RESULT:    -8.706      2.410      8.379
REMARK INTER + INTRA:          -9.733
REMARK INTER:                 -10.062
REMARK INTRA:                   0.329
REMARK UNBOUND:                -0.264
REMARK SMILES CC1(C)CC[C@@]2(C(=O)[O-])CC[C@@]3(C)C(=CC[C@@H]4[C@]5(C)CC[C@@H](O)C(C)(C)[C@H]5CC[C@@]43C)[C@H]2C1
REMARK SMILES IDX 6 1 5 2 10 3 32 4 4 5 11 6 14 7 33 8 2 9 12 10 15 11 1 12
REMARK SMILES IDX 3 13 13 14 30 15 16 16 17 17 29 18 31 19 18 20 28 21 27 22
REMARK SMILES IDX 20 23 19 24 24 25 21 26 22 27 25 28 26 29 7 30 8 31 9 32
REMARK SMILES IDX 23 33
REMARK H PARENT 23 34
REMARK Flexibility Score: inf
ROOT
ATOM      1  C   UNL     1       9.474  11.672   5.597  1.00  0.00     0.017 C 
ATOM      2  C   UNL     1       7.940  11.907   5.515  1.00  0.00     0.014 C 
ATOM      3  C   UNL     1      10.087  11.597   4.168  1.00  0.00     0.014 C 
ATOM      4  C   UNL     1      10.160  12.810   6.453  1.00  0.00     0.028 C 
ATOM      5  C   UNL     1       7.268  12.001   6.901  1.00  0.00     0.007 C 
ATOM      6  C   UNL     1      10.195  12.937   3.409  1.00  0.00     0.013 C 
ATOM      7  C   UNL     1      11.167  13.631   5.612  1.00  0.00    -0.064 C 
ATOM      8  C   UNL     1       9.184  13.685   7.286  1.00  0.00     0.015 C 
ATOM      9  C   UNL     1       8.038  12.872   7.952  1.00  0.00    -0.035 C 
ATOM     10  C   UNL     1      10.764  14.171   4.222  1.00  0.00    -0.006 C 
ATOM     11  C   UNL     1      12.459  13.475   5.944  1.00  0.00    -0.027 C 
ATOM     12  C   UNL     1       8.602  11.979   9.082  1.00  0.00     0.011 C 
ATOM     13  C   UNL     1       7.054  13.871   8.605  1.00  0.00     0.011 C 
ATOM     14  C   UNL     1       9.603  15.201   4.415  1.00  0.00     0.017 C 
ATOM     15  C   UNL     1      11.973  14.923   3.431  1.00  0.00    -0.020 C 
ATOM     16  C   UNL     1      13.623  13.779   5.072  1.00  0.00     0.032 C 
ATOM     17  C   UNL     1      13.337  14.125   3.580  1.00  0.00     0.006 C 
ATOM     18  C   UNL     1      12.234  16.365   3.990  1.00  0.00     0.008 C 
ATOM     19  C   UNL     1      11.533  15.061   1.923  1.00  0.00     0.012 C 
ATOM     20  C   UNL     1      14.621  14.836   2.913  1.00  0.00    -0.025 C 
ATOM     21  C   UNL     1      13.432  17.103   3.352  1.00  0.00     0.005 C 
ATOM     22  C   UNL     1      14.754  16.312   3.463  1.00  0.00     0.003 C 
ATOM     23  C   UNL     1      15.941  14.072   3.283  1.00  0.00     0.010 C 
ATOM     24  C   UNL     1      14.489  14.765   1.358  1.00  0.00     0.012 C 
ATOM     25  C   UNL     1      16.057  17.103   3.022  1.00  0.00    -0.006 C 
ATOM     26  C   UNL     1      17.232  14.783   2.835  1.00  0.00     0.033 C 
ATOM     27  C   UNL     1      17.307  16.225   3.372  1.00  0.00     0.120 C 
ATOM     28  C   UNL     1      16.172  18.415   3.850  1.00  0.00     0.014 C 
ATOM     29  C   UNL     1      16.061  17.517   1.525  1.00  0.00     0.014 C 
ENDROOT
BRANCH   1  30
ATOM     30  C   UNL     1       9.738  10.291   6.207  1.00  0.00     0.048 C 
ATOM     31  O   UNL     1       9.766   9.259   5.483  1.00  0.00    -0.550 OA
ATOM     32  O   UNL     1      10.108  10.171   7.545  1.00  0.00    -0.550 OA
ENDBRANCH   1  30
BRANCH  27  33
ATOM     33  O   UNL     1      18.511  16.842   2.977  1.00  0.00    -0.393 OA
ATOM     34  H   UNL     1      18.320  17.795   2.778  1.00  0.00     0.210 HD
ENDBRANCH  27  33
TORSDOF 2
ENDMDL
MODEL 6
REMARK VINA RESULT:    -8.604      3.196      5.989
REMARK INTER + INTRA:          -9.622
REMARK INTER:                  -9.386
REMARK INTRA:                  -0.236
REMARK UNBOUND:                -0.264
REMARK SMILES CC1(C)CC[C@@]2(C(=O)[O-])CC[C@@]3(C)C(=CC[C@@H]4[C@]5(C)CC[C@@H](O)C(C)(C)[C@H]5CC[C@@]43C)[C@H]2C1
REMARK SMILES IDX 6 1 5 2 10 3 32 4 4 5 11 6 14 7 33 8 2 9 12 10 15 11 1 12
REMARK SMILES IDX 3 13 13 14 30 15 16 16 17 17 29 18 31 19 18 20 28 21 27 22
REMARK SMILES IDX 20 23 19 24 24 25 21 26 22 27 25 28 26 29 7 30 8 31 9 32
REMARK SMILES IDX 23 33
REMARK H PARENT 23 34
REMARK Flexibility Score: inf
ROOT
ATOM      1  C   UNL     1      14.849  18.161   0.802  1.00  0.00     0.017 C 
ATOM      2  C   UNL     1      14.829  19.708   0.937  1.00  0.00     0.014 C 
ATOM      3  C   UNL     1      15.321  17.508   2.134  1.00  0.00     0.014 C 
ATOM      4  C   UNL     1      13.423  17.627   0.379  1.00  0.00     0.028 C 
ATOM      5  C   UNL     1      14.360  20.421  -0.349  1.00  0.00     0.007 C 
ATOM      6  C   UNL     1      14.302  17.530   3.294  1.00  0.00     0.013 C 
ATOM      7  C   UNL     1      12.816  16.696   1.456  1.00  0.00    -0.064 C 
ATOM      8  C   UNL     1      12.439  18.714  -0.132  1.00  0.00     0.015 C 
ATOM      9  C   UNL     1      13.110  19.780  -1.043  1.00  0.00    -0.035 C 
ATOM     10  C   UNL     1      12.814  17.122   2.941  1.00  0.00    -0.006 C 
ATOM     11  C   UNL     1      12.707  15.404   1.109  1.00  0.00    -0.027 C 
ATOM     12  C   UNL     1      13.512  19.148  -2.398  1.00  0.00     0.011 C 
ATOM     13  C   UNL     1      12.070  20.884  -1.343  1.00  0.00     0.011 C 
ATOM     14  C   UNL     1      11.916  18.394   3.084  1.00  0.00     0.017 C 
ATOM     15  C   UNL     1      12.233  15.984   3.952  1.00  0.00    -0.020 C 
ATOM     16  C   UNL     1      12.578  14.259   2.047  1.00  0.00     0.032 C 
ATOM     17  C   UNL     1      12.778  14.544   3.565  1.00  0.00     0.006 C 
ATOM     18  C   UNL     1      10.668  15.899   3.903  1.00  0.00     0.008 C 
ATOM     19  C   UNL     1      12.650  16.399   5.415  1.00  0.00     0.012 C 
ATOM     20  C   UNL     1      12.186  13.331   4.447  1.00  0.00    -0.025 C 
ATOM     21  C   UNL     1      10.050  14.774   4.765  1.00  0.00     0.005 C 
ATOM     22  C   UNL     1      10.606  13.376   4.416  1.00  0.00     0.003 C 
ATOM     23  C   UNL     1      12.631  11.944   3.862  1.00  0.00     0.010 C 
ATOM     24  C   UNL     1      12.779  13.415   5.889  1.00  0.00     0.012 C 
ATOM     25  C   UNL     1       9.862  12.158   5.110  1.00  0.00    -0.006 C 
ATOM     26  C   UNL     1      11.967  10.729   4.537  1.00  0.00     0.033 C 
ATOM     27  C   UNL     1      10.429  10.828   4.507  1.00  0.00     0.120 C 
ATOM     28  C   UNL     1       8.347  12.210   4.763  1.00  0.00     0.014 C 
ATOM     29  C   UNL     1       9.967  12.163   6.660  1.00  0.00     0.014 C 
ENDROOT
BRANCH   1  30
ATOM     30  C   UNL     1      15.913  17.760  -0.226  1.00  0.00     0.048 C 
ATOM     31  O   UNL     1      17.107  18.149  -0.107  1.00  0.00    -0.550 OA
ATOM     32  O   UNL     1      15.616  16.833  -1.222  1.00  0.00    -0.550 OA
ENDBRANCH   1  30
BRANCH  27  33
ATOM     33  O   UNL     1       9.845   9.690   5.100  1.00  0.00    -0.393 OA
ATOM     34  H   UNL     1       9.022   9.465   4.593  1.00  0.00     0.210 HD
ENDBRANCH  27  33
TORSDOF 2
ENDMDL
MODEL 7
REMARK VINA RESULT:    -8.419      3.833      6.926
REMARK INTER + INTRA:          -9.422
REMARK INTER:                  -9.209
REMARK INTRA:                  -0.213
REMARK UNBOUND:                -0.264
REMARK SMILES CC1(C)CC[C@@]2(C(=O)[O-])CC[C@@]3(C)C(=CC[C@@H]4[C@]5(C)CC[C@@H](O)C(C)(C)[C@H]5CC[C@@]43C)[C@H]2C1
REMARK SMILES IDX 6 1 5 2 10 3 32 4 4 5 11 6 14 7 33 8 2 9 12 10 15 11 1 12
REMARK SMILES IDX 3 13 13 14 30 15 16 16 17 17 29 18 31 19 18 20 28 21 27 22
REMARK SMILES IDX 20 23 19 24 24 25 21 26 22 27 25 28 26 29 7 30 8 31 9 32
REMARK SMILES IDX 23 33
REMARK H PARENT 23 34
REMARK Flexibility Score: inf
ROOT
ATOM      1  C   UNL     1      17.118  19.752   2.086  1.00  0.00     0.017 C 
ATOM      2  C   UNL     1      18.593  19.567   1.633  1.00  0.00     0.014 C 
ATOM      3  C   UNL     1      16.153  19.051   1.086  1.00  0.00     0.014 C 
ATOM      4  C   UNL     1      16.920  19.197   3.553  1.00  0.00     0.028 C 
ATOM      5  C   UNL     1      19.607  20.230   2.589  1.00  0.00     0.007 C 
ATOM      6  C   UNL     1      16.122  17.509   1.146  1.00  0.00     0.013 C 
ATOM      7  C   UNL     1      15.914  18.021   3.590  1.00  0.00    -0.064 C 
ATOM      8  C   UNL     1      18.233  18.919   4.334  1.00  0.00     0.015 C 
ATOM      9  C   UNL     1      19.326  20.002   4.114  1.00  0.00    -0.035 C 
ATOM     10  C   UNL     1      16.042  16.855   2.585  1.00  0.00    -0.006 C 
ATOM     11  C   UNL     1      14.748  18.277   4.205  1.00  0.00    -0.027 C 
ATOM     12  C   UNL     1      18.908  21.329   4.789  1.00  0.00     0.011 C 
ATOM     13  C   UNL     1      20.625  19.525   4.805  1.00  0.00     0.011 C 
ATOM     14  C   UNL     1      17.394  16.119   2.859  1.00  0.00     0.017 C 
ATOM     15  C   UNL     1      14.844  15.757   2.695  1.00  0.00    -0.020 C 
ATOM     16  C   UNL     1      13.483  17.522   4.020  1.00  0.00     0.032 C 
ATOM     17  C   UNL     1      13.435  16.464   2.877  1.00  0.00     0.006 C 
ATOM     18  C   UNL     1      15.031  14.805   3.927  1.00  0.00     0.008 C 
ATOM     19  C   UNL     1      14.896  14.873   1.390  1.00  0.00     0.012 C 
ATOM     20  C   UNL     1      12.191  15.461   3.092  1.00  0.00    -0.025 C 
ATOM     21  C   UNL     1      13.880  13.797   4.151  1.00  0.00     0.005 C 
ATOM     22  C   UNL     1      12.502  14.481   4.292  1.00  0.00     0.003 C 
ATOM     23  C   UNL     1      10.887  16.256   3.457  1.00  0.00     0.010 C 
ATOM     24  C   UNL     1      11.897  14.721   1.749  1.00  0.00     0.012 C 
ATOM     25  C   UNL     1      11.315  13.527   4.737  1.00  0.00    -0.006 C 
ATOM     26  C   UNL     1       9.693  15.367   3.852  1.00  0.00     0.033 C 
ATOM     27  C   UNL     1      10.049  14.410   5.007  1.00  0.00     0.120 C 
ATOM     28  C   UNL     1      11.682  12.831   6.079  1.00  0.00     0.014 C 
ATOM     29  C   UNL     1      11.005  12.397   3.717  1.00  0.00     0.014 C 
ENDROOT
BRANCH   1  30
ATOM     30  C   UNL     1      16.751  21.238   2.006  1.00  0.00     0.048 C 
ATOM     31  O   UNL     1      16.058  21.782   2.908  1.00  0.00    -0.550 OA
ATOM     32  O   UNL     1      17.307  22.048   1.019  1.00  0.00    -0.550 OA
ENDBRANCH   1  30
BRANCH  27  33
ATOM     33  O   UNL     1       8.932  13.632   5.373  1.00  0.00    -0.393 OA
ATOM     34  H   UNL     1       8.325  14.199   5.916  1.00  0.00     0.210 HD
ENDBRANCH  27  33
TORSDOF 2
ENDMDL
MODEL 8
REMARK VINA RESULT:    -8.416      2.882      8.461
REMARK INTER + INTRA:          -9.418
REMARK INTER:                  -9.186
REMARK INTRA:                  -0.232
REMARK UNBOUND:                -0.264
REMARK SMILES CC1(C)CC[C@@]2(C(=O)[O-])CC[C@@]3(C)C(=CC[C@@H]4[C@]5(C)CC[C@@H](O)C(C)(C)[C@H]5CC[C@@]43C)[C@H]2C1
REMARK SMILES IDX 6 1 5 2 10 3 32 4 4 5 11 6 14 7 33 8 2 9 12 10 15 11 1 12
REMARK SMILES IDX 3 13 13 14 30 15 16 16 17 17 29 18 31 19 18 20 28 21 27 22
REMARK SMILES IDX 20 23 19 24 24 25 21 26 22 27 25 28 26 29 7 30 8 31 9 32
REMARK SMILES IDX 23 33
REMARK H PARENT 23 34
REMARK Flexibility Score: inf
ROOT
ATOM      1  C   UNL     1       9.356  13.240   4.417  1.00  0.00     0.017 C 
ATOM      2  C   UNL     1       8.081  13.479   5.272  1.00  0.00     0.014 C 
ATOM      3  C   UNL     1       9.438  14.283   3.264  1.00  0.00     0.014 C 
ATOM      4  C   UNL     1      10.647  13.296   5.328  1.00  0.00     0.028 C 
ATOM      5  C   UNL     1       7.942  12.483   6.442  1.00  0.00     0.007 C 
ATOM      6  C   UNL     1       9.819  15.720   3.680  1.00  0.00     0.013 C 
ATOM      7  C   UNL     1      11.592  14.450   4.915  1.00  0.00    -0.064 C 
ATOM      8  C   UNL     1      10.377  13.228   6.856  1.00  0.00     0.015 C 
ATOM      9  C   UNL     1       9.262  12.216   7.244  1.00  0.00    -0.035 C 
ATOM     10  C   UNL     1      11.031  15.871   4.687  1.00  0.00    -0.006 C 
ATOM     11  C   UNL     1      12.760  14.074   4.370  1.00  0.00    -0.027 C 
ATOM     12  C   UNL     1       9.751  10.766   7.010  1.00  0.00     0.011 C 
ATOM     13  C   UNL     1       8.979  12.366   8.757  1.00  0.00     0.011 C 
ATOM     14  C   UNL     1      10.469  16.399   6.047  1.00  0.00     0.017 C 
ATOM     15  C   UNL     1      12.141  16.940   4.157  1.00  0.00    -0.020 C 
ATOM     16  C   UNL     1      13.634  14.919   3.518  1.00  0.00     0.032 C 
ATOM     17  C   UNL     1      13.072  16.294   3.046  1.00  0.00     0.006 C 
ATOM     18  C   UNL     1      13.088  17.424   5.310  1.00  0.00     0.008 C 
ATOM     19  C   UNL     1      11.360  18.197   3.613  1.00  0.00     0.012 C 
ATOM     20  C   UNL     1      14.268  17.240   2.523  1.00  0.00    -0.025 C 
ATOM     21  C   UNL     1      14.228  18.367   4.863  1.00  0.00     0.005 C 
ATOM     22  C   UNL     1      15.114  17.754   3.755  1.00  0.00     0.003 C 
ATOM     23  C   UNL     1      15.240  16.445   1.581  1.00  0.00     0.010 C 
ATOM     24  C   UNL     1      13.663  18.394   1.663  1.00  0.00     0.012 C 
ATOM     25  C   UNL     1      16.424  18.577   3.404  1.00  0.00    -0.006 C 
ATOM     26  C   UNL     1      16.507  17.223   1.177  1.00  0.00     0.033 C 
ATOM     27  C   UNL     1      17.286  17.727   2.408  1.00  0.00     0.120 C 
ATOM     28  C   UNL     1      17.275  18.773   4.691  1.00  0.00     0.014 C 
ATOM     29  C   UNL     1      16.140  19.994   2.834  1.00  0.00     0.014 C 
ENDROOT
BRANCH   1  30
ATOM     30  C   UNL     1       9.240  11.886   3.710  1.00  0.00     0.048 C 
ATOM     31  O   UNL     1       8.246  11.620   2.981  1.00  0.00    -0.550 OA
ATOM     32  O   UNL     1      10.303  10.986   3.732  1.00  0.00    -0.550 OA
ENDBRANCH   1  30
BRANCH  27  33
ATOM     33  O   UNL     1      18.457  18.405   2.013  1.00  0.00    -0.393 OA
ATOM     34  H   UNL     1      18.198  19.304   1.684  1.00  0.00     0.210 HD
ENDBRANCH  27  33
TORSDOF 2
ENDMDL
MODEL 9
REMARK VINA RESULT:    -8.396      6.245     11.730
REMARK INTER + INTRA:          -9.396
REMARK INTER:                  -9.234
REMARK INTRA:                  -0.161
REMARK UNBOUND:                -0.264
REMARK SMILES CC1(C)CC[C@@]2(C(=O)[O-])CC[C@@]3(C)C(=CC[C@@H]4[C@]5(C)CC[C@@H](O)C(C)(C)[C@H]5CC[C@@]43C)[C@H]2C1
REMARK SMILES IDX 6 1 5 2 10 3 32 4 4 5 11 6 14 7 33 8 2 9 12 10 15 11 1 12
REMARK SMILES IDX 3 13 13 14 30 15 16 16 17 17 29 18 31 19 18 20 28 21 27 22
REMARK SMILES IDX 20 23 19 24 24 25 21 26 22 27 25 28 26 29 7 30 8 31 9 32
REMARK SMILES IDX 23 33
REMARK H PARENT 23 34
REMARK Flexibility Score: inf
ROOT
ATOM      1  C   UNL     1      15.139  18.217   0.709  1.00  0.00     0.017 C 
ATOM      2  C   UNL     1      13.684  18.418   1.215  1.00  0.00     0.014 C 
ATOM      3  C   UNL     1      15.917  19.565   0.751  1.00  0.00     0.014 C 
ATOM      4  C   UNL     1      15.871  17.109   1.566  1.00  0.00     0.028 C 
ATOM      5  C   UNL     1      12.856  17.116   1.209  1.00  0.00     0.007 C 
ATOM      6  C   UNL     1      16.327  20.063   2.153  1.00  0.00     0.013 C 
ATOM      7  C   UNL     1      17.094  17.683   2.322  1.00  0.00    -0.064 C 
ATOM      8  C   UNL     1      14.938  16.244   2.457  1.00  0.00     0.015 C 
ATOM      9  C   UNL     1      13.603  15.854   1.762  1.00  0.00    -0.035 C 
ATOM     10  C   UNL     1      16.965  18.993   3.130  1.00  0.00    -0.006 C 
ATOM     11  C   UNL     1      18.291  17.250   1.896  1.00  0.00    -0.027 C 
ATOM     12  C   UNL     1      13.870  14.843   0.621  1.00  0.00     0.011 C 
ATOM     13  C   UNL     1      12.706  15.145   2.802  1.00  0.00     0.011 C 
ATOM     14  C   UNL     1      15.960  18.748   4.302  1.00  0.00     0.017 C 
ATOM     15  C   UNL     1      18.369  19.510   3.775  1.00  0.00    -0.020 C 
ATOM     16  C   UNL     1      19.593  17.928   2.125  1.00  0.00     0.032 C 
ATOM     17  C   UNL     1      19.563  19.359   2.741  1.00  0.00     0.006 C 
ATOM     18  C   UNL     1      18.770  18.684   5.047  1.00  0.00     0.008 C 
ATOM     19  C   UNL     1      18.159  21.009   4.218  1.00  0.00     0.012 C 
ATOM     20  C   UNL     1      21.017  19.753   3.314  1.00  0.00    -0.025 C 
ATOM     21  C   UNL     1      20.141  19.055   5.657  1.00  0.00     0.005 C 
ATOM     22  C   UNL     1      21.300  18.944   4.642  1.00  0.00     0.003 C 
ATOM     23  C   UNL     1      22.145  19.384   2.286  1.00  0.00     0.010 C 
ATOM     24  C   UNL     1      21.084  21.301   3.508  1.00  0.00     0.012 C 
ATOM     25  C   UNL     1      22.755  19.101   5.256  1.00  0.00    -0.006 C 
ATOM     26  C   UNL     1      23.577  19.564   2.825  1.00  0.00     0.033 C 
ATOM     27  C   UNL     1      23.799  18.779   4.132  1.00  0.00     0.120 C 
ATOM     28  C   UNL     1      22.959  18.050   6.384  1.00  0.00     0.014 C 
ATOM     29  C   UNL     1      23.020  20.495   5.888  1.00  0.00     0.014 C 
ENDROOT
BRANCH   1  30
ATOM     30  C   UNL     1      15.106  17.832  -0.774  1.00  0.00     0.048 C 
ATOM     31  O   UNL     1      14.622  18.616  -1.635  1.00  0.00    -0.550 OA
ATOM     32  O   UNL     1      15.752  16.680  -1.217  1.00  0.00    -0.550 OA
ENDBRANCH   1  30
BRANCH  27  33
ATOM     33  O   UNL     1      25.125  18.932   4.586  1.00  0.00    -0.393 OA
ATOM     34  H   UNL     1      25.735  18.602   3.877  1.00  0.00     0.210 HD
ENDBRANCH  27  33
TORSDOF 2
ENDMDL
