MODEL 1
REMARK VINA RESULT:    -5.506      0.000      0.000
REMARK INTER + INTRA:          -5.828
REMARK INTER:                  -5.828
REMARK INTRA:                   0.000
REMARK UNBOUND:                 0.000
REMARK SMILES O=c1ccc2cc(O)c(O)cc2o1
REMARK SMILES IDX 4 1 3 2 2 3 1 4 13 5 12 6 11 7 9 8 7 9 6 10 5 11 8 12 10 14
REMARK H PARENT 8 13 10 15
REMARK Flexibility Score: inf
ROOT
ATOM      1  C   UNL     1      10.159  -7.390  -9.521  1.00  0.00     0.019 A 
ATOM      2  C   UNL     1       9.375  -8.119 -10.415  1.00  0.00     0.094 A 
ATOM      3  C   UNL     1       8.001  -8.229 -10.178  1.00  0.00     0.336 A 
ATOM      4  O   UNL     1       7.276  -8.883 -10.974  1.00  0.00    -0.246 OA
ATOM      5  O   UNL     1       7.452  -7.646  -9.115  1.00  0.00    -0.423 OA
ATOM      6  C   UNL     1       8.163  -6.942  -8.238  1.00  0.00     0.142 A 
ATOM      7  C   UNL     1       7.530  -6.352  -7.139  1.00  0.00     0.098 A 
ATOM      8  C   UNL     1       8.276  -5.608  -6.212  1.00  0.00     0.161 A 
ATOM      9  C   UNL     1       9.659  -5.455  -6.385  1.00  0.00     0.158 A 
ATOM     10  C   UNL     1      10.298  -6.045  -7.485  1.00  0.00     0.062 A 
ATOM     11  C   UNL     1       9.555  -6.788  -8.413  1.00  0.00     0.022 A 
ENDROOT
BRANCH   9  12
ATOM     12  O   UNL     1      10.391  -4.714  -5.458  1.00  0.00    -0.504 OA
ATOM     13  H   UNL     1      11.299  -4.326  -5.689  1.00  0.00     0.293 HD
ENDBRANCH   9  12
BRANCH   8  14
ATOM     14  O   UNL     1       7.648  -5.019  -5.115  1.00  0.00    -0.504 OA
ATOM     15  H   UNL     1       8.180  -4.631  -4.346  1.00  0.00     0.293 HD
ENDBRANCH   8  14
TORSDOF 2
ENDMDL
MODEL 2
REMARK VINA RESULT:    -5.346      1.259      2.305
REMARK INTER + INTRA:          -5.658
REMARK INTER:                  -5.658
REMARK INTRA:                   0.000
REMARK UNBOUND:                 0.000
REMARK SMILES O=c1ccc2cc(O)c(O)cc2o1
REMARK SMILES IDX 4 1 3 2 2 3 1 4 13 5 12 6 11 7 9 8 7 9 6 10 5 11 8 12 10 14
REMARK H PARENT 8 13 10 15
REMARK Flexibility Score: inf
ROOT
ATOM      1  C   UNL     1       7.628  -8.034  -9.022  1.00  0.00     0.019 A 
ATOM      2  C   UNL     1       8.360  -8.651 -10.036  1.00  0.00     0.094 A 
ATOM      3  C   UNL     1       9.734  -8.405 -10.125  1.00  0.00     0.336 A 
ATOM      4  O   UNL     1      10.413  -8.953 -11.034  1.00  0.00    -0.246 OA
ATOM      5  O   UNL     1      10.331  -7.593  -9.257  1.00  0.00    -0.423 OA
ATOM      6  C   UNL     1       9.670  -6.983  -8.275  1.00  0.00     0.142 A 
ATOM      7  C   UNL     1      10.352  -6.141  -7.392  1.00  0.00     0.098 A 
ATOM      8  C   UNL     1       9.659  -5.496  -6.356  1.00  0.00     0.161 A 
ATOM      9  C   UNL     1       8.280  -5.697  -6.204  1.00  0.00     0.158 A 
ATOM     10  C   UNL     1       7.591  -6.541  -7.087  1.00  0.00     0.062 A 
ATOM     11  C   UNL     1       8.282  -7.186  -8.123  1.00  0.00     0.022 A 
ENDROOT
BRANCH   9  12
ATOM     12  O   UNL     1       7.600  -5.052  -5.171  1.00  0.00    -0.504 OA
ATOM     13  H   UNL     1       6.922  -4.322  -5.358  1.00  0.00     0.293 HD
ENDBRANCH   9  12
BRANCH   8  14
ATOM     14  O   UNL     1      10.336  -4.656  -5.474  1.00  0.00    -0.504 OA
ATOM     15  H   UNL     1      11.125  -4.096  -5.775  1.00  0.00     0.293 HD
ENDBRANCH   8  14
TORSDOF 2
ENDMDL
MODEL 3
REMARK VINA RESULT:    -5.331     17.617     18.756
REMARK INTER + INTRA:          -5.643
REMARK INTER:                  -5.643
REMARK INTRA:                   0.000
REMARK UNBOUND:                 0.000
REMARK SMILES O=c1ccc2cc(O)c(O)cc2o1
REMARK SMILES IDX 4 1 3 2 2 3 1 4 13 5 12 6 11 7 9 8 7 9 6 10 5 11 8 12 10 14
REMARK H PARENT 8 13 10 15
REMARK Flexibility Score: inf
ROOT
ATOM      1  C   UNL     1      21.236  -0.976 -22.424  1.00  0.00     0.019 A 
ATOM      2  C   UNL     1      21.837   0.071 -23.122  1.00  0.00     0.094 A 
ATOM      3  C   UNL     1      21.954   1.320 -22.504  1.00  0.00     0.336 A 
ATOM      4  O   UNL     1      22.493   2.278 -23.118  1.00  0.00    -0.246 OA
ATOM      5  O   UNL     1      21.496   1.505 -21.268  1.00  0.00    -0.423 OA
ATOM      6  C   UNL     1      20.916   0.534 -20.566  1.00  0.00     0.142 A 
ATOM      7  C   UNL     1      20.455   0.788 -19.271  1.00  0.00     0.098 A 
ATOM      8  C   UNL     1      19.843  -0.233 -18.528  1.00  0.00     0.161 A 
ATOM      9  C   UNL     1      19.693  -1.512 -19.083  1.00  0.00     0.158 A 
ATOM     10  C   UNL     1      20.154  -1.772 -20.382  1.00  0.00     0.062 A 
ATOM     11  C   UNL     1      20.765  -0.753 -21.127  1.00  0.00     0.022 A 
ENDROOT
BRANCH   9  12
ATOM     12  O   UNL     1      19.083  -2.520 -18.337  1.00  0.00    -0.504 OA
ATOM     13  H   UNL     1      18.576  -3.276 -18.784  1.00  0.00     0.293 HD
ENDBRANCH   9  12
BRANCH   8  14
ATOM     14  O   UNL     1      19.382   0.017 -17.236  1.00  0.00    -0.504 OA
ATOM     15  H   UNL     1      18.471   0.427 -17.069  1.00  0.00     0.293 HD
ENDBRANCH   8  14
TORSDOF 2
ENDMDL
MODEL 4
REMARK VINA RESULT:    -5.210     16.634     18.069
REMARK INTER + INTRA:          -5.515
REMARK INTER:                  -5.515
REMARK INTRA:                   0.000
REMARK UNBOUND:                 0.000
REMARK SMILES O=c1ccc2cc(O)c(O)cc2o1
REMARK SMILES IDX 4 1 3 2 2 3 1 4 13 5 12 6 11 7 9 8 7 9 6 10 5 11 8 12 10 14
REMARK H PARENT 8 13 10 15
REMARK Flexibility Score: inf
ROOT
ATOM      1  C   UNL     1      19.294  -2.277 -19.018  1.00  0.00     0.019 A 
ATOM      2  C   UNL     1      18.848  -1.907 -17.750  1.00  0.00     0.094 A 
ATOM      3  C   UNL     1      19.091  -0.605 -17.299  1.00  0.00     0.336 A 
ATOM      4  O   UNL     1      18.696  -0.252 -16.157  1.00  0.00    -0.246 OA
ATOM      5  O   UNL     1      19.740   0.264 -18.069  1.00  0.00    -0.423 OA
ATOM      6  C   UNL     1      20.183  -0.047 -19.285  1.00  0.00     0.142 A 
ATOM      7  C   UNL     1      20.859   0.909 -20.048  1.00  0.00     0.098 A 
ATOM      8  C   UNL     1      21.328   0.585 -21.331  1.00  0.00     0.161 A 
ATOM      9  C   UNL     1      21.119  -0.701 -21.850  1.00  0.00     0.158 A 
ATOM     10  C   UNL     1      20.442  -1.664 -21.087  1.00  0.00     0.062 A 
ATOM     11  C   UNL     1      19.973  -1.342 -19.806  1.00  0.00     0.022 A 
ENDROOT
BRANCH   9  12
ATOM     12  O   UNL     1      21.589  -1.014 -23.124  1.00  0.00    -0.504 OA
ATOM     13  H   UNL     1      22.422  -0.578 -23.504  1.00  0.00     0.293 HD
ENDBRANCH   9  12
BRANCH   8  14
ATOM     14  O   UNL     1      22.002   1.536 -22.094  1.00  0.00    -0.504 OA
ATOM     15  H   UNL     1      22.093   2.497 -21.785  1.00  0.00     0.293 HD
ENDBRANCH   8  14
TORSDOF 2
ENDMDL
MODEL 5
REMARK VINA RESULT:    -4.934      1.696      2.186
REMARK INTER + INTRA:          -5.223
REMARK INTER:                  -5.223
REMARK INTRA:                   0.000
REMARK UNBOUND:                 0.000
REMARK SMILES O=c1ccc2cc(O)c(O)cc2o1
REMARK SMILES IDX 4 1 3 2 2 3 1 4 13 5 12 6 11 7 9 8 7 9 6 10 5 11 8 12 10 14
REMARK H PARENT 8 13 10 15
REMARK Flexibility Score: inf
ROOT
ATOM      1  C   UNL     1      10.423  -8.111  -7.729  1.00  0.00     0.019 A 
ATOM      2  C   UNL     1      10.811  -8.751  -8.905  1.00  0.00     0.094 A 
ATOM      3  C   UNL     1      10.107  -8.488 -10.084  1.00  0.00     0.336 A 
ATOM      4  O   UNL     1      10.442  -9.056 -11.157  1.00  0.00    -0.246 OA
ATOM      5  O   UNL     1       9.081  -7.641 -10.081  1.00  0.00    -0.423 OA
ATOM      6  C   UNL     1       8.677  -7.010  -8.982  1.00  0.00     0.142 A 
ATOM      7  C   UNL     1       7.591  -6.130  -9.040  1.00  0.00     0.098 A 
ATOM      8  C   UNL     1       7.162  -5.462  -7.883  1.00  0.00     0.161 A 
ATOM      9  C   UNL     1       7.822  -5.676  -6.664  1.00  0.00     0.158 A 
ATOM     10  C   UNL     1       8.911  -6.558  -6.600  1.00  0.00     0.062 A 
ATOM     11  C   UNL     1       9.341  -7.226  -7.755  1.00  0.00     0.022 A 
ENDROOT
BRANCH   9  12
ATOM     12  O   UNL     1       7.388  -5.008  -5.520  1.00  0.00    -0.504 OA
ATOM     13  H   UNL     1       6.838  -4.158  -5.579  1.00  0.00     0.293 HD
ENDBRANCH   9  12
BRANCH   8  14
ATOM     14  O   UNL     1       6.080  -4.585  -7.938  1.00  0.00    -0.504 OA
ATOM     15  H   UNL     1       6.027  -3.853  -8.636  1.00  0.00     0.293 HD
ENDBRANCH   8  14
TORSDOF 2
ENDMDL
MODEL 6
REMARK VINA RESULT:    -4.896      1.524      1.995
REMARK INTER + INTRA:          -5.182
REMARK INTER:                  -5.182
REMARK INTRA:                   0.000
REMARK UNBOUND:                 0.000
REMARK SMILES O=c1ccc2cc(O)c(O)cc2o1
REMARK SMILES IDX 4 1 3 2 2 3 1 4 13 5 12 6 11 7 9 8 7 9 6 10 5 11 8 12 10 14
REMARK H PARENT 8 13 10 15
REMARK Flexibility Score: inf
ROOT
ATOM      1  C   UNL     1       8.497  -5.458  -8.861  1.00  0.00     0.019 A 
ATOM      2  C   UNL     1       8.399  -6.229 -10.019  1.00  0.00     0.094 A 
ATOM      3  C   UNL     1       8.046  -7.578  -9.907  1.00  0.00     0.336 A 
ATOM      4  O   UNL     1       7.953  -8.291 -10.941  1.00  0.00    -0.246 OA
ATOM      5  O   UNL     1       7.808  -8.116  -8.714  1.00  0.00    -0.423 OA
ATOM      6  C   UNL     1       7.889  -7.416  -7.584  1.00  0.00     0.142 A 
ATOM      7  C   UNL     1       7.627  -8.035  -6.359  1.00  0.00     0.098 A 
ATOM      8  C   UNL     1       7.712  -7.302  -5.165  1.00  0.00     0.161 A 
ATOM      9  C   UNL     1       8.061  -5.944  -5.200  1.00  0.00     0.158 A 
ATOM     10  C   UNL     1       8.325  -5.318  -6.427  1.00  0.00     0.062 A 
ATOM     11  C   UNL     1       8.240  -6.049  -7.620  1.00  0.00     0.022 A 
ENDROOT
BRANCH   9  12
ATOM     12  O   UNL     1       8.143  -5.224  -4.009  1.00  0.00    -0.504 OA
ATOM     13  H   UNL     1       7.375  -4.644  -3.687  1.00  0.00     0.293 HD
ENDBRANCH   9  12
BRANCH   8  14
ATOM     14  O   UNL     1       7.452  -7.917  -3.942  1.00  0.00    -0.504 OA
ATOM     15  H   UNL     1       6.767  -8.659  -3.857  1.00  0.00     0.293 HD
ENDBRANCH   8  14
TORSDOF 2
ENDMDL
MODEL 7
REMARK VINA RESULT:    -4.884      1.937      2.637
REMARK INTER + INTRA:          -5.170
REMARK INTER:                  -5.170
REMARK INTRA:                   0.000
REMARK UNBOUND:                 0.000
REMARK SMILES O=c1ccc2cc(O)c(O)cc2o1
REMARK SMILES IDX 4 1 3 2 2 3 1 4 13 5 12 6 11 7 9 8 7 9 6 10 5 11 8 12 10 14
REMARK H PARENT 8 13 10 15
REMARK Flexibility Score: inf
ROOT
ATOM      1  C   UNL     1       7.993  -8.000  -8.788  1.00  0.00     0.019 A 
ATOM      2  C   UNL     1       8.370  -7.306  -9.937  1.00  0.00     0.094 A 
ATOM      3  C   UNL     1       8.765  -5.970  -9.822  1.00  0.00     0.336 A 
ATOM      4  O   UNL     1       9.110  -5.325 -10.848  1.00  0.00    -0.246 OA
ATOM      5  O   UNL     1       8.779  -5.370  -8.634  1.00  0.00    -0.423 OA
ATOM      6  C   UNL     1       8.427  -5.995  -7.513  1.00  0.00     0.142 A 
ATOM      7  C   UNL     1       8.461  -5.314  -6.293  1.00  0.00     0.098 A 
ATOM      8  C   UNL     1       8.091  -5.969  -5.108  1.00  0.00     0.161 A 
ATOM      9  C   UNL     1       7.684  -7.311  -5.146  1.00  0.00     0.158 A 
ATOM     10  C   UNL     1       7.647  -7.999  -6.368  1.00  0.00     0.062 A 
ATOM     11  C   UNL     1       8.017  -7.346  -7.552  1.00  0.00     0.022 A 
ENDROOT
BRANCH   9  12
ATOM     12  O   UNL     1       7.317  -7.953  -3.964  1.00  0.00    -0.504 OA
ATOM     13  H   UNL     1       6.635  -8.703  -3.959  1.00  0.00     0.293 HD
ENDBRANCH   9  12
BRANCH   8  14
ATOM     14  O   UNL     1       8.124  -5.292  -3.890  1.00  0.00    -0.504 OA
ATOM     15  H   UNL     1       8.930  -5.341  -3.279  1.00  0.00     0.293 HD
ENDBRANCH   8  14
TORSDOF 2
ENDMDL
MODEL 8
REMARK VINA RESULT:    -4.847      2.356      3.229
REMARK INTER + INTRA:          -5.130
REMARK INTER:                  -5.130
REMARK INTRA:                   0.000
REMARK UNBOUND:                 0.000
REMARK SMILES O=c1ccc2cc(O)c(O)cc2o1
REMARK SMILES IDX 4 1 3 2 2 3 1 4 13 5 12 6 11 7 9 8 7 9 6 10 5 11 8 12 10 14
REMARK H PARENT 8 13 10 15
REMARK Flexibility Score: inf
ROOT
ATOM      1  C   UNL     1       8.722  -7.184 -11.860  1.00  0.00     0.019 A 
ATOM      2  C   UNL     1       9.604  -7.951 -12.620  1.00  0.00     0.094 A 
ATOM      3  C   UNL     1      10.865  -8.251 -12.095  1.00  0.00     0.336 A 
ATOM      4  O   UNL     1      11.677  -8.942 -12.766  1.00  0.00    -0.246 OA
ATOM      5  O   UNL     1      11.217  -7.810 -10.890  1.00  0.00    -0.423 OA
ATOM      6  C   UNL     1      10.405  -7.075 -10.132  1.00  0.00     0.142 A 
ATOM      7  C   UNL     1      10.829  -6.640  -8.873  1.00  0.00     0.098 A 
ATOM      8  C   UNL     1       9.978  -5.865  -8.071  1.00  0.00     0.161 A 
ATOM      9  C   UNL     1       8.697  -5.526  -8.532  1.00  0.00     0.158 A 
ATOM     10  C   UNL     1       8.267  -5.960  -9.794  1.00  0.00     0.062 A 
ATOM     11  C   UNL     1       9.117  -6.734 -10.597  1.00  0.00     0.022 A 
ENDROOT
BRANCH   9  12
ATOM     12  O   UNL     1       7.858  -4.755  -7.728  1.00  0.00    -0.504 OA
ATOM     13  H   UNL     1       6.894  -5.022  -7.560  1.00  0.00     0.293 HD
ENDBRANCH   9  12
BRANCH   8  14
ATOM     14  O   UNL     1      10.398  -5.429  -6.816  1.00  0.00    -0.504 OA
ATOM     15  H   UNL     1       9.825  -5.561  -5.990  1.00  0.00     0.293 HD
ENDBRANCH   8  14
TORSDOF 2
ENDMDL
MODEL 9
REMARK VINA RESULT:    -4.683      2.417      4.534
REMARK INTER + INTRA:          -4.957
REMARK INTER:                  -4.957
REMARK INTRA:                   0.000
REMARK UNBOUND:                 0.000
REMARK SMILES O=c1ccc2cc(O)c(O)cc2o1
REMARK SMILES IDX 4 1 3 2 2 3 1 4 13 5 12 6 11 7 9 8 7 9 6 10 5 11 8 12 10 14
REMARK H PARENT 8 13 10 15
REMARK Flexibility Score: inf
ROOT
ATOM      1  C   UNL     1       7.992  -5.703  -7.556  1.00  0.00     0.019 A 
ATOM      2  C   UNL     1       8.020  -6.782  -6.673  1.00  0.00     0.094 A 
ATOM      3  C   UNL     1       8.062  -8.080  -7.192  1.00  0.00     0.336 A 
ATOM      4  O   UNL     1       8.088  -9.069  -6.412  1.00  0.00    -0.246 OA
ATOM      5  O   UNL     1       8.073  -8.281  -8.507  1.00  0.00    -0.423 OA
ATOM      6  C   UNL     1       8.046  -7.280  -9.384  1.00  0.00     0.142 A 
ATOM      7  C   UNL     1       8.060  -7.551 -10.755  1.00  0.00     0.098 A 
ATOM      8  C   UNL     1       8.032  -6.499 -11.683  1.00  0.00     0.161 A 
ATOM      9  C   UNL     1       7.990  -5.170 -11.236  1.00  0.00     0.158 A 
ATOM     10  C   UNL     1       7.977  -4.893  -9.862  1.00  0.00     0.062 A 
ATOM     11  C   UNL     1       8.004  -5.943  -8.933  1.00  0.00     0.022 A 
ENDROOT
BRANCH   9  12
ATOM     12  O   UNL     1       7.963  -4.132 -12.166  1.00  0.00    -0.504 OA
ATOM     13  H   UNL     1       7.472  -3.265 -11.976  1.00  0.00     0.293 HD
ENDBRANCH   9  12
BRANCH   8  14
ATOM     14  O   UNL     1       8.045  -6.767 -13.051  1.00  0.00    -0.504 OA
ATOM     15  H   UNL     1       8.335  -6.068 -13.725  1.00  0.00     0.293 HD
ENDBRANCH   8  14
TORSDOF 2
ENDMDL
