MODEL 1
REMARK VINA RESULT:    -4.949      0.000      0.000
REMARK INTER + INTRA:          -9.168
REMARK INTER:                  -7.842
REMARK INTRA:                  -1.326
REMARK UNBOUND:                -1.326
REMARK SMILES CCCCCCCCCCCC(=O)[O-]
REMARK SMILES IDX 7 1 8 2 9 3 10 4 11 5 12 6 13 7 14 8 6 9 5 10 4 11 3 12 2 13
REMARK SMILES IDX 1 14
REMARK H PARENT
REMARK Flexibility Score: inf
ROOT
ATOM      1  C   UNL     1      17.503   7.082  49.290  1.00  0.00     0.000 C 
ENDROOT
BRANCH   1   2
ATOM      2  C   UNL     1      18.508   8.221  49.041  1.00  0.00     0.000 C 
BRANCH   2   3
ATOM      3  C   UNL     1      18.024   9.571  49.589  1.00  0.00     0.000 C 
BRANCH   3   4
ATOM      4  C   UNL     1      18.957  10.081  50.697  1.00  0.00     0.006 C 
BRANCH   4   5
ATOM      5  C   UNL     1      18.361   9.883  52.096  1.00  0.00     0.053 C 
BRANCH   5   6
ATOM      6  C   UNL     1      19.156   8.905  52.907  1.00  0.00     0.041 C 
ATOM      7  O   UNL     1      19.592   9.231  54.043  1.00  0.00    -0.550 OA
ATOM      8  O   UNL     1      19.445   7.648  52.393  1.00  0.00    -0.550 OA
ENDBRANCH   5   6
ENDBRANCH   4   5
ENDBRANCH   3   4
ENDBRANCH   2   3
ENDBRANCH   1   2
BRANCH   1   9
ATOM      9  C   UNL     1      16.380   7.412  50.293  1.00  0.00     0.000 C 
BRANCH   9  10
ATOM     10  C   UNL     1      14.947   7.178  49.773  1.00  0.00    -0.000 C 
BRANCH  10  11
ATOM     11  C   UNL     1      14.861   6.627  48.338  1.00  0.00    -0.000 C 
BRANCH  11  12
ATOM     12  C   UNL     1      14.173   7.602  47.368  1.00  0.00    -0.000 C 
BRANCH  12  13
ATOM     13  C   UNL     1      15.149   8.627  46.773  1.00  0.00    -0.003 C 
ATOM     14  C   UNL     1      16.261   7.975  45.951  1.00  0.00     0.004 C 
ENDBRANCH  12  13
ENDBRANCH  11  12
ENDBRANCH  10  11
ENDBRANCH   9  10
ENDBRANCH   1   9
TORSDOF 10
ENDMDL
MODEL 2
REMARK VINA RESULT:    -4.806      3.017      6.291
REMARK INTER + INTRA:          -8.942
REMARK INTER:                  -8.214
REMARK INTRA:                  -0.727
REMARK UNBOUND:                -1.326
REMARK SMILES CCCCCCCCCCCC(=O)[O-]
REMARK SMILES IDX 7 1 8 2 9 3 10 4 11 5 12 6 13 7 14 8 6 9 5 10 4 11 3 12 2 13
REMARK SMILES IDX 1 14
REMARK H PARENT
REMARK Flexibility Score: inf
ROOT
ATOM      1  C   UNL     1      17.159   7.382  49.590  1.00  0.00     0.000 C 
ENDROOT
BRANCH   1   2
ATOM      2  C   UNL     1      15.947   6.501  49.938  1.00  0.00     0.000 C 
BRANCH   2   3
ATOM      3  C   UNL     1      14.621   7.083  49.427  1.00  0.00     0.000 C 
BRANCH   3   4
ATOM      4  C   UNL     1      14.470   6.863  47.914  1.00  0.00     0.006 C 
BRANCH   4   5
ATOM      5  C   UNL     1      14.667   8.158  47.116  1.00  0.00     0.053 C 
BRANCH   5   6
ATOM      6  C   UNL     1      15.687   7.993  46.030  1.00  0.00     0.041 C 
ATOM      7  O   UNL     1      16.833   7.549  46.300  1.00  0.00    -0.550 OA
ATOM      8  O   UNL     1      15.379   8.362  44.726  1.00  0.00    -0.550 OA
ENDBRANCH   5   6
ENDBRANCH   4   5
ENDBRANCH   3   4
ENDBRANCH   2   3
ENDBRANCH   1   2
BRANCH   1   9
ATOM      9  C   UNL     1      17.018   8.867  49.980  1.00  0.00     0.000 C 
BRANCH   9  10
ATOM     10  C   UNL     1      18.241   9.749  49.656  1.00  0.00    -0.000 C 
BRANCH  10  11
ATOM     11  C   UNL     1      19.132  10.090  50.864  1.00  0.00    -0.000 C 
BRANCH  11  12
ATOM     12  C   UNL     1      18.593   9.508  52.183  1.00  0.00    -0.000 C 
BRANCH  12  13
ATOM     13  C   UNL     1      19.499   8.406  52.752  1.00  0.00    -0.003 C 
ATOM     14  C   UNL     1      19.936   8.687  54.190  1.00  0.00     0.004 C 
ENDBRANCH  12  13
ENDBRANCH  11  12
ENDBRANCH  10  11
ENDBRANCH   9  10
ENDBRANCH   1   9
TORSDOF 10
ENDMDL
MODEL 3
REMARK VINA RESULT:    -4.725      0.951      2.038
REMARK INTER + INTRA:          -8.813
REMARK INTER:                  -7.871
REMARK INTRA:                  -0.942
REMARK UNBOUND:                -1.326
REMARK SMILES CCCCCCCCCCCC(=O)[O-]
REMARK SMILES IDX 7 1 8 2 9 3 10 4 11 5 12 6 13 7 14 8 6 9 5 10 4 11 3 12 2 13
REMARK SMILES IDX 1 14
REMARK H PARENT
REMARK Flexibility Score: inf
ROOT
ATOM      1  C   UNL     1      17.819   7.354  49.355  1.00  0.00     0.000 C 
ENDROOT
BRANCH   1   2
ATOM      2  C   UNL     1      17.116   8.515  50.081  1.00  0.00     0.000 C 
BRANCH   2   3
ATOM      3  C   UNL     1      17.865   9.847  49.938  1.00  0.00     0.000 C 
BRANCH   3   4
ATOM      4  C   UNL     1      18.456  10.292  51.285  1.00  0.00     0.006 C 
BRANCH   4   5
ATOM      5  C   UNL     1      18.352   9.199  52.355  1.00  0.00     0.053 C 
BRANCH   5   6
ATOM      6  C   UNL     1      19.670   8.525  52.592  1.00  0.00     0.041 C 
ATOM      7  O   UNL     1      20.077   8.326  53.767  1.00  0.00    -0.550 OA
ATOM      8  O   UNL     1      20.462   8.148  51.515  1.00  0.00    -0.550 OA
ENDBRANCH   5   6
ENDBRANCH   4   5
ENDBRANCH   3   4
ENDBRANCH   2   3
ENDBRANCH   1   2
BRANCH   1   9
ATOM      9  C   UNL     1      18.141   7.614  47.870  1.00  0.00     0.000 C 
BRANCH   9  10
ATOM     10  C   UNL     1      17.124   7.033  46.868  1.00  0.00    -0.000 C 
BRANCH  10  11
ATOM     11  C   UNL     1      16.154   8.062  46.260  1.00  0.00    -0.000 C 
BRANCH  11  12
ATOM     12  C   UNL     1      14.989   8.410  47.202  1.00  0.00    -0.000 C 
BRANCH  12  13
ATOM     13  C   UNL     1      14.092   7.200  47.499  1.00  0.00    -0.003 C 
ATOM     14  C   UNL     1      14.272   6.666  48.920  1.00  0.00     0.004 C 
ENDBRANCH  12  13
ENDBRANCH  11  12
ENDBRANCH  10  11
ENDBRANCH   9  10
ENDBRANCH   1   9
TORSDOF 10
ENDMDL
MODEL 4
REMARK VINA RESULT:    -4.639      3.133      6.314
REMARK INTER + INTRA:          -8.677
REMARK INTER:                  -7.980
REMARK INTRA:                  -0.698
REMARK UNBOUND:                -1.326
REMARK SMILES CCCCCCCCCCCC(=O)[O-]
REMARK SMILES IDX 7 1 8 2 9 3 10 4 11 5 12 6 13 7 14 8 6 9 5 10 4 11 3 12 2 13
REMARK SMILES IDX 1 14
REMARK H PARENT
REMARK Flexibility Score: inf
ROOT
ATOM      1  C   UNL     1      17.531   8.573  49.322  1.00  0.00     0.000 C 
ENDROOT
BRANCH   1   2
ATOM      2  C   UNL     1      16.361   8.013  50.151  1.00  0.00     0.000 C 
BRANCH   2   3
ATOM      3  C   UNL     1      16.100   6.524  49.883  1.00  0.00     0.000 C 
BRANCH   3   4
ATOM      4  C   UNL     1      15.632   6.300  48.437  1.00  0.00     0.006 C 
BRANCH   4   5
ATOM      5  C   UNL     1      14.484   7.238  48.046  1.00  0.00     0.053 C 
BRANCH   5   6
ATOM      6  C   UNL     1      14.735   7.906  46.728  1.00  0.00     0.041 C 
ATOM      7  O   UNL     1      13.770   8.319  46.033  1.00  0.00    -0.550 OA
ATOM      8  O   UNL     1      16.034   8.040  46.253  1.00  0.00    -0.550 OA
ENDBRANCH   5   6
ENDBRANCH   4   5
ENDBRANCH   3   4
ENDBRANCH   2   3
ENDBRANCH   1   2
BRANCH   1   9
ATOM      9  C   UNL     1      17.972  10.001  49.700  1.00  0.00     0.000 C 
BRANCH   9  10
ATOM     10  C   UNL     1      19.309  10.094  50.461  1.00  0.00    -0.000 C 
BRANCH  10  11
ATOM     11  C   UNL     1      20.069   8.763  50.600  1.00  0.00    -0.000 C 
BRANCH  11  12
ATOM     12  C   UNL     1      19.648   7.966  51.846  1.00  0.00    -0.000 C 
BRANCH  12  13
ATOM     13  C   UNL     1      19.078   8.863  52.954  1.00  0.00    -0.003 C 
ATOM     14  C   UNL     1      19.892   8.796  54.246  1.00  0.00     0.004 C 
ENDBRANCH  12  13
ENDBRANCH  11  12
ENDBRANCH  10  11
ENDBRANCH   9  10
ENDBRANCH   1   9
TORSDOF 10
ENDMDL
MODEL 5
REMARK VINA RESULT:    -4.613      2.436      5.826
REMARK INTER + INTRA:          -8.636
REMARK INTER:                  -8.069
REMARK INTRA:                  -0.567
REMARK UNBOUND:                -1.326
REMARK SMILES CCCCCCCCCCCC(=O)[O-]
REMARK SMILES IDX 7 1 8 2 9 3 10 4 11 5 12 6 13 7 14 8 6 9 5 10 4 11 3 12 2 13
REMARK SMILES IDX 1 14
REMARK H PARENT
REMARK Flexibility Score: inf
ROOT
ATOM      1  C   UNL     1      18.350   7.764  47.755  1.00  0.00     0.000 C 
ENDROOT
BRANCH   1   2
ATOM      2  C   UNL     1      17.296   6.940  46.995  1.00  0.00     0.000 C 
BRANCH   2   3
ATOM      3  C   UNL     1      16.312   7.816  46.205  1.00  0.00     0.000 C 
BRANCH   3   4
ATOM      4  C   UNL     1      15.270   8.451  47.138  1.00  0.00     0.006 C 
BRANCH   4   5
ATOM      5  C   UNL     1      14.112   7.496  47.453  1.00  0.00     0.053 C 
BRANCH   5   6
ATOM      6  C   UNL     1      14.395   6.659  48.664  1.00  0.00     0.041 C 
ATOM      7  O   UNL     1      14.249   5.410  48.619  1.00  0.00    -0.550 OA
ATOM      8  O   UNL     1      14.786   7.265  49.852  1.00  0.00    -0.550 OA
ENDBRANCH   5   6
ENDBRANCH   4   5
ENDBRANCH   3   4
ENDBRANCH   2   3
ENDBRANCH   1   2
BRANCH   1   9
ATOM      9  C   UNL     1      18.092   7.914  49.268  1.00  0.00     0.000 C 
BRANCH   9  10
ATOM     10  C   UNL     1      17.754   9.344  49.736  1.00  0.00    -0.000 C 
BRANCH  10  11
ATOM     11  C   UNL     1      18.758   9.953  50.731  1.00  0.00    -0.000 C 
BRANCH  11  12
ATOM     12  C   UNL     1      18.423   9.616  52.194  1.00  0.00    -0.000 C 
BRANCH  12  13
ATOM     13  C   UNL     1      19.238   8.427  52.725  1.00  0.00    -0.003 C 
ATOM     14  C   UNL     1      19.888   8.714  54.078  1.00  0.00     0.004 C 
ENDBRANCH  12  13
ENDBRANCH  11  12
ENDBRANCH  10  11
ENDBRANCH   9  10
ENDBRANCH   1   9
TORSDOF 10
ENDMDL
MODEL 6
REMARK VINA RESULT:    -4.383      2.072      2.474
REMARK INTER + INTRA:          -8.272
REMARK INTER:                  -7.554
REMARK INTRA:                  -0.718
REMARK UNBOUND:                -1.326
REMARK SMILES CCCCCCCCCCCC(=O)[O-]
REMARK SMILES IDX 7 1 8 2 9 3 10 4 11 5 12 6 13 7 14 8 6 9 5 10 4 11 3 12 2 13
REMARK SMILES IDX 1 14
REMARK H PARENT
REMARK Flexibility Score: inf
ROOT
ATOM      1  C   UNL     1      16.515   6.509  49.346  1.00  0.00     0.000 C 
ENDROOT
BRANCH   1   2
ATOM      2  C   UNL     1      17.742   7.308  49.819  1.00  0.00     0.000 C 
BRANCH   2   3
ATOM      3  C   UNL     1      17.364   8.565  50.615  1.00  0.00     0.000 C 
BRANCH   3   4
ATOM      4  C   UNL     1      17.807   9.838  49.877  1.00  0.00     0.006 C 
BRANCH   4   5
ATOM      5  C   UNL     1      19.118  10.406  50.435  1.00  0.00     0.053 C 
BRANCH   5   6
ATOM      6  C   UNL     1      20.267  10.173  49.501  1.00  0.00     0.041 C 
ATOM      7  O   UNL     1      20.419   9.051  48.950  1.00  0.00    -0.550 OA
ATOM      8  O   UNL     1      21.189  11.186  49.266  1.00  0.00    -0.550 OA
ENDBRANCH   5   6
ENDBRANCH   4   5
ENDBRANCH   3   4
ENDBRANCH   2   3
ENDBRANCH   1   2
BRANCH   1   9
ATOM      9  C   UNL     1      15.180   6.917  50.001  1.00  0.00     0.000 C 
BRANCH   9  10
ATOM     10  C   UNL     1      13.974   6.985  49.043  1.00  0.00    -0.000 C 
BRANCH  10  11
ATOM     11  C   UNL     1      14.336   7.040  47.548  1.00  0.00    -0.000 C 
BRANCH  11  12
ATOM     12  C   UNL     1      14.854   8.422  47.113  1.00  0.00    -0.000 C 
BRANCH  12  13
ATOM     13  C   UNL     1      15.843   8.336  45.940  1.00  0.00    -0.003 C 
ATOM     14  C   UNL     1      17.002   7.378  46.215  1.00  0.00     0.004 C 
ENDBRANCH  12  13
ENDBRANCH  11  12
ENDBRANCH  10  11
ENDBRANCH   9  10
ENDBRANCH   1   9
TORSDOF 10
ENDMDL
MODEL 7
REMARK VINA RESULT:    -4.227      2.661      5.860
REMARK INTER + INTRA:          -8.024
REMARK INTER:                  -7.237
REMARK INTRA:                  -0.787
REMARK UNBOUND:                -1.326
REMARK SMILES CCCCCCCCCCCC(=O)[O-]
REMARK SMILES IDX 7 1 8 2 9 3 10 4 11 5 12 6 13 7 14 8 6 9 5 10 4 11 3 12 2 13
REMARK SMILES IDX 1 14
REMARK H PARENT
REMARK Flexibility Score: inf
ROOT
ATOM      1  C   UNL     1      19.170  10.360  49.762  1.00  0.00     0.000 C 
ENDROOT
BRANCH   1   2
ATOM      2  C   UNL     1      17.664  10.069  49.629  1.00  0.00     0.000 C 
BRANCH   2   3
ATOM      3  C   UNL     1      17.376   8.675  49.054  1.00  0.00     0.000 C 
BRANCH   3   4
ATOM      4  C   UNL     1      16.096   8.684  48.205  1.00  0.00     0.006 C 
BRANCH   4   5
ATOM      5  C   UNL     1      15.750   7.293  47.660  1.00  0.00     0.053 C 
BRANCH   5   6
ATOM      6  C   UNL     1      15.052   6.451  48.684  1.00  0.00     0.041 C 
ATOM      7  O   UNL     1      15.718   5.722  49.466  1.00  0.00    -0.550 OA
ATOM      8  O   UNL     1      13.664   6.446  48.752  1.00  0.00    -0.550 OA
ENDBRANCH   5   6
ENDBRANCH   4   5
ENDBRANCH   3   4
ENDBRANCH   2   3
ENDBRANCH   1   2
BRANCH   1   9
ATOM      9  C   UNL     1      20.084   9.122  49.667  1.00  0.00     0.000 C 
BRANCH   9  10
ATOM     10  C   UNL     1      20.473   8.490  51.018  1.00  0.00    -0.000 C 
BRANCH  10  11
ATOM     11  C   UNL     1      19.496   7.421  51.538  1.00  0.00    -0.000 C 
BRANCH  11  12
ATOM     12  C   UNL     1      18.499   7.978  52.569  1.00  0.00    -0.000 C 
BRANCH  12  13
ATOM     13  C   UNL     1      19.049   9.202  53.316  1.00  0.00    -0.003 C 
ATOM     14  C   UNL     1      19.990   8.821  54.459  1.00  0.00     0.004 C 
ENDBRANCH  12  13
ENDBRANCH  11  12
ENDBRANCH  10  11
ENDBRANCH   9  10
ENDBRANCH   1   9
TORSDOF 10
ENDMDL
MODEL 8
REMARK VINA RESULT:    -3.874      3.769      4.486
REMARK INTER + INTRA:          -7.464
REMARK INTER:                  -7.013
REMARK INTRA:                  -0.451
REMARK UNBOUND:                -1.326
REMARK SMILES CCCCCCCCCCCC(=O)[O-]
REMARK SMILES IDX 7 1 8 2 9 3 10 4 11 5 12 6 13 7 14 8 6 9 5 10 4 11 3 12 2 13
REMARK SMILES IDX 1 14
REMARK H PARENT
REMARK Flexibility Score: inf
ROOT
ATOM      1  C   UNL     1      18.816  10.319  50.570  1.00  0.00     0.000 C 
ENDROOT
BRANCH   1   2
ATOM      2  C   UNL     1      19.789  10.294  49.378  1.00  0.00     0.000 C 
BRANCH   2   3
ATOM      3  C   UNL     1      21.222  10.680  49.772  1.00  0.00     0.000 C 
BRANCH   3   4
ATOM      4  C   UNL     1      21.705  11.896  48.967  1.00  0.00     0.006 C 
BRANCH   4   5
ATOM      5  C   UNL     1      22.399  12.940  49.851  1.00  0.00     0.053 C 
BRANCH   5   6
ATOM      6  C   UNL     1      23.884  12.945  49.645  1.00  0.00     0.041 C 
ATOM      7  O   UNL     1      24.609  13.753  50.282  1.00  0.00    -0.550 OA
ATOM      8  O   UNL     1      24.460  12.080  48.723  1.00  0.00    -0.550 OA
ENDBRANCH   5   6
ENDBRANCH   4   5
ENDBRANCH   3   4
ENDBRANCH   2   3
ENDBRANCH   1   2
BRANCH   1   9
ATOM      9  C   UNL     1      17.624   9.347  50.457  1.00  0.00     0.000 C 
BRANCH   9  10
ATOM     10  C   UNL     1      17.999   7.882  50.153  1.00  0.00    -0.000 C 
BRANCH  10  11
ATOM     11  C   UNL     1      17.036   7.151  49.201  1.00  0.00    -0.000 C 
BRANCH  11  12
ATOM     12  C   UNL     1      15.565   7.273  49.635  1.00  0.00    -0.000 C 
BRANCH  12  13
ATOM     13  C   UNL     1      14.587   6.911  48.508  1.00  0.00    -0.003 C 
ATOM     14  C   UNL     1      14.765   7.789  47.269  1.00  0.00     0.004 C 
ENDBRANCH  12  13
ENDBRANCH  11  12
ENDBRANCH  10  11
ENDBRANCH   9  10
ENDBRANCH   1   9
TORSDOF 10
ENDMDL
MODEL 9
REMARK VINA RESULT:    -3.822      8.427     10.527
REMARK INTER + INTRA:          -7.382
REMARK INTER:                  -6.840
REMARK INTRA:                  -0.542
REMARK UNBOUND:                -1.326
REMARK SMILES CCCCCCCCCCCC(=O)[O-]
REMARK SMILES IDX 7 1 8 2 9 3 10 4 11 5 12 6 13 7 14 8 6 9 5 10 4 11 3 12 2 13
REMARK SMILES IDX 1 14
REMARK H PARENT
REMARK Flexibility Score: inf
ROOT
ATOM      1  C   UNL     1      18.458  -1.139  47.869  1.00  0.00     0.000 C 
ENDROOT
BRANCH   1   2
ATOM      2  C   UNL     1      17.003  -0.873  47.443  1.00  0.00     0.000 C 
BRANCH   2   3
ATOM      3  C   UNL     1      16.735   0.606  47.132  1.00  0.00     0.000 C 
BRANCH   3   4
ATOM      4  C   UNL     1      15.706   1.195  48.109  1.00  0.00     0.006 C 
BRANCH   4   5
ATOM      5  C   UNL     1      14.359   0.463  48.047  1.00  0.00     0.053 C 
BRANCH   5   6
ATOM      6  C   UNL     1      13.703   0.619  46.709  1.00  0.00     0.041 C 
ATOM      7  O   UNL     1      13.251   1.739  46.352  1.00  0.00    -0.550 OA
ATOM      8  O   UNL     1      13.560  -0.480  45.872  1.00  0.00    -0.550 OA
ENDBRANCH   5   6
ENDBRANCH   4   5
ENDBRANCH   3   4
ENDBRANCH   2   3
ENDBRANCH   1   2
BRANCH   1   9
ATOM      9  C   UNL     1      19.516  -0.286  47.141  1.00  0.00     0.000 C 
BRANCH   9  10
ATOM     10  C   UNL     1      20.368   0.619  48.053  1.00  0.00    -0.000 C 
BRANCH  10  11
ATOM     11  C   UNL     1      21.628   1.204  47.390  1.00  0.00    -0.000 C 
BRANCH  11  12
ATOM     12  C   UNL     1      22.868   1.127  48.298  1.00  0.00    -0.000 C 
BRANCH  12  13
ATOM     13  C   UNL     1      23.640  -0.189  48.128  1.00  0.00    -0.003 C 
ATOM     14  C   UNL     1      24.584  -0.474  49.295  1.00  0.00     0.004 C 
ENDBRANCH  12  13
ENDBRANCH  11  12
ENDBRANCH  10  11
ENDBRANCH   9  10
ENDBRANCH   1   9
TORSDOF 10
ENDMDL
