MODEL 1
REMARK VINA RESULT:    -8.304      0.000      0.000
REMARK INTER + INTRA:         -16.692
REMARK INTER:                 -13.644
REMARK INTRA:                  -3.048
REMARK UNBOUND:                -3.048
REMARK SMILES C[C@H]1O[C@@H](OC[C@@H]2O[C@@H](Oc3c(-c4ccc(O)c(O)c4)oc4cc(O)cc(O)c4c3=O)[C@@H](O)[C@@H](O)[C@@H]2O)[C@@H](O)[C@@H](O)[C@@H]1O
REMARK SMILES IDX 7 1 36 2 34 3 32 4 9 5 8 6 6 7 5 8 4 9 1 10 2 11 42 12 3 13
REMARK SMILES IDX 40 14 38 15 43 16 41 18 39 20 37 22 35 24 10 26 11 27 12 28
REMARK SMILES IDX 30 29 21 30 29 31 31 32 22 33 27 34 23 35 26 36 24 37 13 38
REMARK SMILES IDX 20 39 14 40 18 41 15 42 16 43 19 44 17 46 28 48 25 50 33 52
REMARK H PARENT 43 17 41 19 39 21 37 23 35 25 19 45 17 47 28 49 25 51 33 53
REMARK Flexibility Score: inf
ROOT
ATOM      1  C   UNL     1      16.047   1.283  29.516  1.00  0.00     0.180 C 
ATOM      2  C   UNL     1      16.719   1.649  30.871  1.00  0.00     0.177 C 
ATOM      3  C   UNL     1      17.496   0.445  31.470  1.00  0.00     0.180 C 
ATOM      4  C   UNL     1      16.640  -0.827  31.399  1.00  0.00     0.214 C 
ATOM      5  C   UNL     1      16.065  -1.016  29.988  1.00  0.00     0.339 C 
ATOM      6  O   UNL     1      15.274   0.098  29.614  1.00  0.00    -0.332 OA
ENDROOT
BRANCH   1   7
ATOM      7  C   UNL     1      15.108   2.406  29.041  1.00  0.00     0.198 C 
BRANCH   7   8
ATOM      8  O   UNL     1      13.766   1.982  29.116  1.00  0.00    -0.347 OA
BRANCH   8   9
ATOM      9  C   UNL     1      13.073   2.618  30.182  1.00  0.00     0.281 C 
ATOM     10  C   UNL     1      12.199  -0.363  29.806  1.00  0.00     0.041 C 
ATOM     11  C   UNL     1      11.619   0.779  30.660  1.00  0.00     0.150 C 
ATOM     12  C   UNL     1      10.406   1.497  30.020  1.00  0.00     0.174 C 
ATOM     13  O   UNL     1      12.629   1.661  31.138  1.00  0.00    -0.344 OA
ATOM     14  C   UNL     1      10.838   2.561  29.002  1.00  0.00     0.179 C 
ATOM     15  C   UNL     1      11.918   3.460  29.619  1.00  0.00     0.202 C 
BRANCH  12  16
ATOM     16  O   UNL     1       9.646   2.125  31.027  1.00  0.00    -0.388 OA
ATOM     17  H   UNL     1       9.997   1.787  31.897  1.00  0.00     0.211 HD
ENDBRANCH  12  16
BRANCH  14  18
ATOM     18  O   UNL     1      11.307   1.962  27.821  1.00  0.00    -0.387 OA
ATOM     19  H   UNL     1      11.588   1.037  28.057  1.00  0.00     0.211 HD
ENDBRANCH  14  18
BRANCH  15  20
ATOM     20  O   UNL     1      12.422   4.364  28.666  1.00  0.00    -0.385 OA
ATOM     21  H   UNL     1      11.900   5.211  28.774  1.00  0.00     0.211 HD
ENDBRANCH  15  20
ENDBRANCH   8   9
ENDBRANCH   7   8
ENDBRANCH   1   7
BRANCH   2  22
ATOM     22  O   UNL     1      15.733   2.073  31.781  1.00  0.00    -0.387 OA
ATOM     23  H   UNL     1      14.948   2.364  31.241  1.00  0.00     0.211 HD
ENDBRANCH   2  22
BRANCH   3  24
ATOM     24  O   UNL     1      18.761   0.236  30.880  1.00  0.00    -0.387 OA
ATOM     25  H   UNL     1      19.252  -0.451  31.389  1.00  0.00     0.211 HD
ENDBRANCH   3  24
BRANCH   5  26
ATOM     26  O   UNL     1      17.113  -1.240  29.045  1.00  0.00    -0.454 OA
BRANCH  26  27
ATOM     27  C   UNL     1      17.114  -2.324  28.159  1.00  0.00     0.214 A 
ATOM     28  C   UNL     1      16.724  -2.122  26.829  1.00  0.00     0.180 A 
ATOM     29  C   UNL     1      17.469  -3.608  28.582  1.00  0.00     0.239 A 
ATOM     30  O   UNL     1      16.693  -3.143  25.980  1.00  0.00    -0.452 OA
ATOM     31  C   UNL     1      17.424  -4.680  27.660  1.00  0.00     0.111 A 
ATOM     32  O   UNL     1      17.783  -3.791  29.787  1.00  0.00    -0.285 OA
ATOM     33  C   UNL     1      16.989  -4.389  26.337  1.00  0.00     0.146 A 
ATOM     34  C   UNL     1      17.738  -6.027  27.993  1.00  0.00     0.134 A 
ATOM     35  C   UNL     1      16.834  -5.412  25.398  1.00  0.00     0.094 A 
ATOM     36  C   UNL     1      17.498  -7.046  27.051  1.00  0.00     0.093 A 
ATOM     37  C   UNL     1      17.052  -6.741  25.757  1.00  0.00     0.123 A 
BRANCH  28  38
ATOM     38  C   UNL     1      16.338  -0.783  26.355  1.00  0.00     0.025 A 
ATOM     39  C   UNL     1      14.987  -0.422  26.273  1.00  0.00     0.062 A 
ATOM     40  C   UNL     1      17.319   0.128  25.956  1.00  0.00     0.016 A 
ATOM     41  C   UNL     1      14.606   0.845  25.819  1.00  0.00     0.158 A 
ATOM     42  C   UNL     1      16.955   1.409  25.528  1.00  0.00     0.051 A 
ATOM     43  C   UNL     1      15.603   1.782  25.453  1.00  0.00     0.157 A 
BRANCH  41  44
ATOM     44  O   UNL     1      13.241   1.127  25.726  1.00  0.00    -0.504 OA
ATOM     45  H   UNL     1      12.868   2.057  25.595  1.00  0.00     0.293 HD
ENDBRANCH  41  44
BRANCH  43  46
ATOM     46  O   UNL     1      15.301   3.066  24.993  1.00  0.00    -0.504 OA
ATOM     47  H   UNL     1      15.997   3.773  24.803  1.00  0.00     0.293 HD
ENDBRANCH  43  46
ENDBRANCH  28  38
BRANCH  34  48
ATOM     48  O   UNL     1      18.305  -6.403  29.215  1.00  0.00    -0.507 OA
ATOM     49  H   UNL     1      17.757  -6.889  29.928  1.00  0.00     0.293 HD
ENDBRANCH  34  48
BRANCH  37  50
ATOM     50  O   UNL     1      16.814  -7.746  24.823  1.00  0.00    -0.508 OA
ATOM     51  H   UNL     1      17.496  -8.476  24.649  1.00  0.00     0.293 HD
ENDBRANCH  37  50
ENDBRANCH  26  27
ENDBRANCH   5  26
BRANCH   4  52
ATOM     52  O   UNL     1      17.400  -1.946  31.777  1.00  0.00    -0.384 OA
ATOM     53  H   UNL     1      18.058  -1.640  32.451  1.00  0.00     0.211 HD
ENDBRANCH   4  52
TORSDOF 16
ENDMDL
MODEL 2
REMARK VINA RESULT:    -8.209      3.765      7.952
REMARK INTER + INTRA:         -16.536
REMARK INTER:                 -13.135
REMARK INTRA:                  -3.402
REMARK UNBOUND:                -3.048
REMARK SMILES C[C@H]1O[C@@H](OC[C@@H]2O[C@@H](Oc3c(-c4ccc(O)c(O)c4)oc4cc(O)cc(O)c4c3=O)[C@@H](O)[C@@H](O)[C@@H]2O)[C@@H](O)[C@@H](O)[C@@H]1O
REMARK SMILES IDX 7 1 36 2 34 3 32 4 9 5 8 6 6 7 5 8 4 9 1 10 2 11 42 12 3 13
REMARK SMILES IDX 40 14 38 15 43 16 41 18 39 20 37 22 35 24 10 26 11 27 12 28
REMARK SMILES IDX 30 29 21 30 29 31 31 32 22 33 27 34 23 35 26 36 24 37 13 38
REMARK SMILES IDX 20 39 14 40 18 41 15 42 16 43 19 44 17 46 28 48 25 50 33 52
REMARK H PARENT 43 17 41 19 39 21 37 23 35 25 19 45 17 47 28 49 25 51 33 53
REMARK Flexibility Score: inf
ROOT
ATOM      1  C   UNL     1      16.922  -0.498  26.242  1.00  0.00     0.180 C 
ATOM      2  C   UNL     1      17.749  -1.723  25.753  1.00  0.00     0.177 C 
ATOM      3  C   UNL     1      19.276  -1.477  25.896  1.00  0.00     0.180 C 
ATOM      4  C   UNL     1      19.642  -0.086  25.360  1.00  0.00     0.214 C 
ATOM      5  C   UNL     1      18.717   0.985  25.955  1.00  0.00     0.339 C 
ATOM      6  O   UNL     1      17.363   0.710  25.644  1.00  0.00    -0.332 OA
ENDROOT
BRANCH   1   7
ATOM      7  C   UNL     1      15.431  -0.663  25.899  1.00  0.00     0.198 C 
BRANCH   7   8
ATOM      8  O   UNL     1      15.215  -0.398  24.531  1.00  0.00    -0.347 OA
BRANCH   8   9
ATOM      9  C   UNL     1      14.006   0.321  24.320  1.00  0.00     0.281 C 
ATOM     10  C   UNL     1      14.829  -1.384  21.827  1.00  0.00     0.041 C 
ATOM     11  C   UNL     1      13.749  -0.304  22.024  1.00  0.00     0.150 C 
ATOM     12  C   UNL     1      14.163   1.104  21.534  1.00  0.00     0.174 C 
ATOM     13  O   UNL     1      13.201  -0.324  23.338  1.00  0.00    -0.344 OA
ATOM     14  C   UNL     1      15.011   1.849  22.575  1.00  0.00     0.179 C 
ATOM     15  C   UNL     1      14.328   1.775  23.948  1.00  0.00     0.202 C 
BRANCH  12  16
ATOM     16  O   UNL     1      13.010   1.868  21.268  1.00  0.00    -0.388 OA
ATOM     17  H   UNL     1      12.275   1.217  21.094  1.00  0.00     0.211 HD
ENDBRANCH  12  16
BRANCH  14  18
ATOM     18  O   UNL     1      16.308   1.317  22.638  1.00  0.00    -0.387 OA
ATOM     19  H   UNL     1      16.912   1.971  22.192  1.00  0.00     0.211 HD
ENDBRANCH  14  18
BRANCH  15  20
ATOM     20  O   UNL     1      15.144   2.342  24.944  1.00  0.00    -0.385 OA
ATOM     21  H   UNL     1      16.090   2.165  24.670  1.00  0.00     0.211 HD
ENDBRANCH  15  20
ENDBRANCH   8   9
ENDBRANCH   7   8
ENDBRANCH   1   7
BRANCH   2  22
ATOM     22  O   UNL     1      17.438  -1.987  24.406  1.00  0.00    -0.387 OA
ATOM     23  H   UNL     1      16.697  -2.653  24.406  1.00  0.00     0.211 HD
ENDBRANCH   2  22
BRANCH   3  24
ATOM     24  O   UNL     1      19.758  -1.656  27.211  1.00  0.00    -0.387 OA
ATOM     25  H   UNL     1      19.017  -1.940  27.796  1.00  0.00     0.211 HD
ENDBRANCH   3  24
BRANCH   5  26
ATOM     26  O   UNL     1      18.909   1.085  27.366  1.00  0.00    -0.454 OA
BRANCH  26  27
ATOM     27  C   UNL     1      19.116   2.309  28.016  1.00  0.00     0.214 A 
ATOM     28  C   UNL     1      18.091   2.849  28.803  1.00  0.00     0.180 A 
ATOM     29  C   UNL     1      20.314   3.015  27.871  1.00  0.00     0.239 A 
ATOM     30  O   UNL     1      18.259   4.020  29.405  1.00  0.00    -0.452 OA
ATOM     31  C   UNL     1      20.467   4.262  28.520  1.00  0.00     0.111 A 
ATOM     32  O   UNL     1      21.218   2.543  27.133  1.00  0.00    -0.285 OA
ATOM     33  C   UNL     1      19.364   4.747  29.276  1.00  0.00     0.146 A 
ATOM     34  C   UNL     1      21.632   5.073  28.417  1.00  0.00     0.134 A 
ATOM     35  C   UNL     1      19.409   6.012  29.870  1.00  0.00     0.094 A 
ATOM     36  C   UNL     1      21.620   6.372  28.959  1.00  0.00     0.093 A 
ATOM     37  C   UNL     1      20.516   6.840  29.686  1.00  0.00     0.123 A 
BRANCH  28  38
ATOM     38  C   UNL     1      16.816   2.132  28.969  1.00  0.00     0.025 A 
ATOM     39  C   UNL     1      15.709   2.463  28.175  1.00  0.00     0.062 A 
ATOM     40  C   UNL     1      16.693   1.136  29.941  1.00  0.00     0.016 A 
ATOM     41  C   UNL     1      14.489   1.795  28.327  1.00  0.00     0.158 A 
ATOM     42  C   UNL     1      15.490   0.440  30.083  1.00  0.00     0.051 A 
ATOM     43  C   UNL     1      14.379   0.757  29.285  1.00  0.00     0.157 A 
BRANCH  41  44
ATOM     44  O   UNL     1      13.415   2.199  27.530  1.00  0.00    -0.504 OA
ATOM     45  H   UNL     1      12.484   2.363  27.886  1.00  0.00     0.293 HD
ENDBRANCH  41  44
BRANCH  43  46
ATOM     46  O   UNL     1      13.195   0.043  29.491  1.00  0.00    -0.504 OA
ATOM     47  H   UNL     1      13.148  -0.965  29.532  1.00  0.00     0.293 HD
ENDBRANCH  43  46
ENDBRANCH  28  38
BRANCH  34  48
ATOM     48  O   UNL     1      22.819   4.637  27.820  1.00  0.00    -0.507 OA
ATOM     49  H   UNL     1      22.909   3.689  27.447  1.00  0.00     0.293 HD
ENDBRANCH  34  48
BRANCH  37  50
ATOM     50  O   UNL     1      20.501   8.125  30.224  1.00  0.00    -0.508 OA
ATOM     51  H   UNL     1      20.750   8.933  29.665  1.00  0.00     0.293 HD
ENDBRANCH  37  50
ENDBRANCH  26  27
ENDBRANCH   5  26
BRANCH   4  52
ATOM     52  O   UNL     1      20.986   0.206  25.646  1.00  0.00    -0.384 OA
ATOM     53  H   UNL     1      21.026   1.152  25.932  1.00  0.00     0.211 HD
ENDBRANCH   4  52
TORSDOF 16
ENDMDL
MODEL 3
REMARK VINA RESULT:    -8.106      2.398      8.571
REMARK INTER + INTRA:         -16.367
REMARK INTER:                 -13.044
REMARK INTRA:                  -3.323
REMARK UNBOUND:                -3.048
REMARK SMILES C[C@H]1O[C@@H](OC[C@@H]2O[C@@H](Oc3c(-c4ccc(O)c(O)c4)oc4cc(O)cc(O)c4c3=O)[C@@H](O)[C@@H](O)[C@@H]2O)[C@@H](O)[C@@H](O)[C@@H]1O
REMARK SMILES IDX 7 1 36 2 34 3 32 4 9 5 8 6 6 7 5 8 4 9 1 10 2 11 42 12 3 13
REMARK SMILES IDX 40 14 38 15 43 16 41 18 39 20 37 22 35 24 10 26 11 27 12 28
REMARK SMILES IDX 30 29 21 30 29 31 31 32 22 33 27 34 23 35 26 36 24 37 13 38
REMARK SMILES IDX 20 39 14 40 18 41 15 42 16 43 19 44 17 46 28 48 25 50 33 52
REMARK H PARENT 43 17 41 19 39 21 37 23 35 25 19 45 17 47 28 49 25 51 33 53
REMARK Flexibility Score: inf
ROOT
ATOM      1  C   UNL     1      17.384  -0.506  24.097  1.00  0.00     0.180 C 
ATOM      2  C   UNL     1      16.914  -0.270  22.632  1.00  0.00     0.177 C 
ATOM      3  C   UNL     1      15.538   0.449  22.580  1.00  0.00     0.180 C 
ATOM      4  C   UNL     1      14.559  -0.206  23.566  1.00  0.00     0.214 C 
ATOM      5  C   UNL     1      15.204  -0.355  24.952  1.00  0.00     0.339 C 
ATOM      6  O   UNL     1      16.382  -1.137  24.878  1.00  0.00    -0.332 OA
ENDROOT
BRANCH   1   7
ATOM      7  C   UNL     1      18.634  -1.403  24.140  1.00  0.00     0.198 C 
BRANCH   7   8
ATOM      8  O   UNL     1      18.267  -2.734  24.429  1.00  0.00    -0.347 OA
BRANCH   8   9
ATOM      9  C   UNL     1      19.185  -3.350  25.323  1.00  0.00     0.281 C 
ATOM     10  C   UNL     1      18.681  -5.073  22.760  1.00  0.00     0.041 C 
ATOM     11  C   UNL     1      19.407  -5.383  24.081  1.00  0.00     0.150 C 
ATOM     12  C   UNL     1      18.553  -6.170  25.105  1.00  0.00     0.174 C 
ATOM     13  O   UNL     1      20.053  -4.236  24.623  1.00  0.00    -0.344 OA
ATOM     14  C   UNL     1      17.621  -5.249  25.905  1.00  0.00     0.179 C 
ATOM     15  C   UNL     1      18.417  -4.054  26.450  1.00  0.00     0.202 C 
BRANCH  12  16
ATOM     16  O   UNL     1      19.401  -6.840  26.009  1.00  0.00    -0.388 OA
ATOM     17  H   UNL     1      18.807  -7.320  26.650  1.00  0.00     0.211 HD
ENDBRANCH  12  16
BRANCH  14  18
ATOM     18  O   UNL     1      16.550  -4.810  25.111  1.00  0.00    -0.387 OA
ATOM     19  H   UNL     1      16.937  -4.244  24.389  1.00  0.00     0.211 HD
ENDBRANCH  14  18
BRANCH  15  20
ATOM     20  O   UNL     1      17.563  -3.130  27.080  1.00  0.00    -0.385 OA
ATOM     21  H   UNL     1      16.646  -3.531  27.059  1.00  0.00     0.211 HD
ENDBRANCH  15  20
ENDBRANCH   8   9
ENDBRANCH   7   8
ENDBRANCH   1   7
BRANCH   2  22
ATOM     22  O   UNL     1      16.824  -1.506  21.966  1.00  0.00    -0.387 OA
ATOM     23  H   UNL     1      16.250  -1.361  21.165  1.00  0.00     0.211 HD
ENDBRANCH   2  22
BRANCH   3  24
ATOM     24  O   UNL     1      15.617   1.842  22.798  1.00  0.00    -0.387 OA
ATOM     25  H   UNL     1      16.541   2.083  23.044  1.00  0.00     0.211 HD
ENDBRANCH   3  24
BRANCH   5  26
ATOM     26  O   UNL     1      15.474   0.927  25.519  1.00  0.00    -0.454 OA
BRANCH  26  27
ATOM     27  C   UNL     1      15.121   1.263  26.831  1.00  0.00     0.214 A 
ATOM     28  C   UNL     1      16.123   1.385  27.802  1.00  0.00     0.180 A 
ATOM     29  C   UNL     1      13.784   1.450  27.198  1.00  0.00     0.239 A 
ATOM     30  O   UNL     1      15.805   1.677  29.057  1.00  0.00    -0.452 OA
ATOM     31  C   UNL     1      13.471   1.758  28.543  1.00  0.00     0.111 A 
ATOM     32  O   UNL     1      12.884   1.304  26.331  1.00  0.00    -0.285 OA
ATOM     33  C   UNL     1      14.549   1.834  29.466  1.00  0.00     0.146 A 
ATOM     34  C   UNL     1      12.145   1.940  29.027  1.00  0.00     0.134 A 
ATOM     35  C   UNL     1      14.308   2.044  30.827  1.00  0.00     0.094 A 
ATOM     36  C   UNL     1      11.926   2.072  30.411  1.00  0.00     0.093 A 
ATOM     37  C   UNL     1      13.002   2.128  31.309  1.00  0.00     0.123 A 
BRANCH  28  38
ATOM     38  C   UNL     1      17.538   1.187  27.447  1.00  0.00     0.025 A 
ATOM     39  C   UNL     1      18.204   0.011  27.821  1.00  0.00     0.062 A 
ATOM     40  C   UNL     1      18.235   2.184  26.761  1.00  0.00     0.016 A 
ATOM     41  C   UNL     1      19.550  -0.188  27.496  1.00  0.00     0.158 A 
ATOM     42  C   UNL     1      19.572   1.987  26.404  1.00  0.00     0.051 A 
ATOM     43  C   UNL     1      20.243   0.807  26.765  1.00  0.00     0.157 A 
BRANCH  41  44
ATOM     44  O   UNL     1      20.164  -1.365  27.931  1.00  0.00    -0.504 OA
ATOM     45  H   UNL     1      19.695  -2.258  27.975  1.00  0.00     0.293 HD
ENDBRANCH  41  44
BRANCH  43  46
ATOM     46  O   UNL     1      21.587   0.679  26.402  1.00  0.00    -0.504 OA
ATOM     47  H   UNL     1      22.016   1.192  25.645  1.00  0.00     0.293 HD
ENDBRANCH  43  46
ENDBRANCH  28  38
BRANCH  34  48
ATOM     48  O   UNL     1      11.028   2.024  28.189  1.00  0.00    -0.507 OA
ATOM     49  H   UNL     1      11.128   2.196  27.186  1.00  0.00     0.293 HD
ENDBRANCH  34  48
BRANCH  37  50
ATOM     50  O   UNL     1      12.790   2.259  32.679  1.00  0.00    -0.508 OA
ATOM     51  H   UNL     1      12.430   1.489  33.232  1.00  0.00     0.293 HD
ENDBRANCH  37  50
ENDBRANCH  26  27
ENDBRANCH   5  26
BRANCH   4  52
ATOM     52  O   UNL     1      13.377   0.546  23.648  1.00  0.00    -0.384 OA
ATOM     53  H   UNL     1      13.621   1.494  23.505  1.00  0.00     0.211 HD
ENDBRANCH   4  52
TORSDOF 16
ENDMDL
MODEL 4
REMARK VINA RESULT:    -8.078      2.619      6.339
REMARK INTER + INTRA:         -16.321
REMARK INTER:                 -13.306
REMARK INTRA:                  -3.015
REMARK UNBOUND:                -3.048
REMARK SMILES C[C@H]1O[C@@H](OC[C@@H]2O[C@@H](Oc3c(-c4ccc(O)c(O)c4)oc4cc(O)cc(O)c4c3=O)[C@@H](O)[C@@H](O)[C@@H]2O)[C@@H](O)[C@@H](O)[C@@H]1O
REMARK SMILES IDX 7 1 36 2 34 3 32 4 9 5 8 6 6 7 5 8 4 9 1 10 2 11 42 12 3 13
REMARK SMILES IDX 40 14 38 15 43 16 41 18 39 20 37 22 35 24 10 26 11 27 12 28
REMARK SMILES IDX 30 29 21 30 29 31 31 32 22 33 27 34 23 35 26 36 24 37 13 38
REMARK SMILES IDX 20 39 14 40 18 41 15 42 16 43 19 44 17 46 28 48 25 50 33 52
REMARK H PARENT 43 17 41 19 39 21 37 23 35 25 19 45 17 47 28 49 25 51 33 53
REMARK Flexibility Score: inf
ROOT
ATOM      1  C   UNL     1      16.610  -0.489  27.271  1.00  0.00     0.180 C 
ATOM      2  C   UNL     1      16.099  -0.304  25.813  1.00  0.00     0.177 C 
ATOM      3  C   UNL     1      16.031  -1.657  25.053  1.00  0.00     0.180 C 
ATOM      4  C   UNL     1      17.321  -2.458  25.280  1.00  0.00     0.214 C 
ATOM      5  C   UNL     1      17.660  -2.528  26.776  1.00  0.00     0.339 C 
ATOM      6  O   UNL     1      17.819  -1.229  27.317  1.00  0.00    -0.332 OA
ENDROOT
BRANCH   1   7
ATOM      7  C   UNL     1      16.877   0.870  27.942  1.00  0.00     0.198 C 
BRANCH   7   8
ATOM      8  O   UNL     1      18.229   0.962  28.332  1.00  0.00    -0.347 OA
BRANCH   8   9
ATOM      9  C   UNL     1      18.627   2.313  28.532  1.00  0.00     0.281 C 
ATOM     10  C   UNL     1      20.251   0.920  26.249  1.00  0.00     0.041 C 
ATOM     11  C   UNL     1      20.437   2.269  26.967  1.00  0.00     0.150 C 
ATOM     12  C   UNL     1      21.492   2.245  28.099  1.00  0.00     0.174 C 
ATOM     13  O   UNL     1      19.194   2.854  27.344  1.00  0.00    -0.344 OA
ATOM     14  C   UNL     1      20.916   1.695  29.412  1.00  0.00     0.179 C 
ATOM     15  C   UNL     1      19.587   2.397  29.728  1.00  0.00     0.202 C 
BRANCH  12  16
ATOM     16  O   UNL     1      21.962   3.553  28.332  1.00  0.00    -0.388 OA
ATOM     17  H   UNL     1      21.241   4.170  28.027  1.00  0.00     0.211 HD
ENDBRANCH  12  16
BRANCH  14  18
ATOM     18  O   UNL     1      20.736   0.305  29.335  1.00  0.00    -0.387 OA
ATOM     19  H   UNL     1      21.643  -0.104  29.311  1.00  0.00     0.211 HD
ENDBRANCH  14  18
BRANCH  15  20
ATOM     20  O   UNL     1      18.976   1.824  30.858  1.00  0.00    -0.385 OA
ATOM     21  H   UNL     1      19.687   1.303  31.332  1.00  0.00     0.211 HD
ENDBRANCH  15  20
ENDBRANCH   8   9
ENDBRANCH   7   8
ENDBRANCH   1   7
BRANCH   2  22
ATOM     22  O   UNL     1      16.954   0.579  25.128  1.00  0.00    -0.387 OA
ATOM     23  H   UNL     1      16.375   1.268  24.701  1.00  0.00     0.211 HD
ENDBRANCH   2  22
BRANCH   3  24
ATOM     24  O   UNL     1      14.894  -2.430  25.372  1.00  0.00    -0.387 OA
ATOM     25  H   UNL     1      14.507  -2.802  24.544  1.00  0.00     0.211 HD
ENDBRANCH   3  24
BRANCH   5  26
ATOM     26  O   UNL     1      16.659  -3.260  27.483  1.00  0.00    -0.454 OA
BRANCH  26  27
ATOM     27  C   UNL     1      16.968  -4.198  28.476  1.00  0.00     0.214 A 
ATOM     28  C   UNL     1      16.674  -3.903  29.813  1.00  0.00     0.180 A 
ATOM     29  C   UNL     1      17.588  -5.411  28.160  1.00  0.00     0.239 A 
ATOM     30  O   UNL     1      16.983  -4.769  30.770  1.00  0.00    -0.452 OA
ATOM     31  C   UNL     1      17.910  -6.315  29.199  1.00  0.00     0.111 A 
ATOM     32  O   UNL     1      17.882  -5.655  26.961  1.00  0.00    -0.285 OA
ATOM     33  C   UNL     1      17.602  -5.922  30.530  1.00  0.00     0.146 A 
ATOM     34  C   UNL     1      18.565  -7.561  28.991  1.00  0.00     0.134 A 
ATOM     35  C   UNL     1      17.973  -6.723  31.614  1.00  0.00     0.094 A 
ATOM     36  C   UNL     1      18.995  -8.310  30.103  1.00  0.00     0.093 A 
ATOM     37  C   UNL     1      18.698  -7.897  31.409  1.00  0.00     0.123 A 
BRANCH  28  38
ATOM     38  C   UNL     1      16.028  -2.632  30.176  1.00  0.00     0.025 A 
ATOM     39  C   UNL     1      16.736  -1.655  30.889  1.00  0.00     0.062 A 
ATOM     40  C   UNL     1      14.692  -2.403  29.838  1.00  0.00     0.016 A 
ATOM     41  C   UNL     1      16.132  -0.444  31.247  1.00  0.00     0.158 A 
ATOM     42  C   UNL     1      14.084  -1.187  30.162  1.00  0.00     0.051 A 
ATOM     43  C   UNL     1      14.790  -0.198  30.867  1.00  0.00     0.157 A 
BRANCH  41  44
ATOM     44  O   UNL     1      16.883   0.470  31.989  1.00  0.00    -0.504 OA
ATOM     45  H   UNL     1      16.503   1.322  32.378  1.00  0.00     0.293 HD
ENDBRANCH  41  44
BRANCH  43  46
ATOM     46  O   UNL     1      14.121   0.987  31.185  1.00  0.00    -0.504 OA
ATOM     47  H   UNL     1      14.201   1.838  30.649  1.00  0.00     0.293 HD
ENDBRANCH  43  46
ENDBRANCH  28  38
BRANCH  34  48
ATOM     48  O   UNL     1      18.788  -8.108  27.724  1.00  0.00    -0.507 OA
ATOM     49  H   UNL     1      19.459  -8.867  27.583  1.00  0.00     0.293 HD
ENDBRANCH  34  48
BRANCH  37  50
ATOM     50  O   UNL     1      19.121  -8.635  32.512  1.00  0.00    -0.508 OA
ATOM     51  H   UNL     1      19.831  -9.354  32.424  1.00  0.00     0.293 HD
ENDBRANCH  37  50
ENDBRANCH  26  27
ENDBRANCH   5  26
BRANCH   4  52
ATOM     52  O   UNL     1      17.193  -3.748  24.741  1.00  0.00    -0.384 OA
ATOM     53  H   UNL     1      18.032  -4.234  24.939  1.00  0.00     0.211 HD
ENDBRANCH   4  52
TORSDOF 16
ENDMDL
MODEL 5
REMARK VINA RESULT:    -7.990      2.592      8.552
REMARK INTER + INTRA:         -16.176
REMARK INTER:                 -12.541
REMARK INTRA:                  -3.635
REMARK UNBOUND:                -3.048
REMARK SMILES C[C@H]1O[C@@H](OC[C@@H]2O[C@@H](Oc3c(-c4ccc(O)c(O)c4)oc4cc(O)cc(O)c4c3=O)[C@@H](O)[C@@H](O)[C@@H]2O)[C@@H](O)[C@@H](O)[C@@H]1O
REMARK SMILES IDX 7 1 36 2 34 3 32 4 9 5 8 6 6 7 5 8 4 9 1 10 2 11 42 12 3 13
REMARK SMILES IDX 40 14 38 15 43 16 41 18 39 20 37 22 35 24 10 26 11 27 12 28
REMARK SMILES IDX 30 29 21 30 29 31 31 32 22 33 27 34 23 35 26 36 24 37 13 38
REMARK SMILES IDX 20 39 14 40 18 41 15 42 16 43 19 44 17 46 28 48 25 50 33 52
REMARK H PARENT 43 17 41 19 39 21 37 23 35 25 19 45 17 47 28 49 25 51 33 53
REMARK Flexibility Score: inf
ROOT
ATOM      1  C   UNL     1      16.578   0.176  24.526  1.00  0.00     0.180 C 
ATOM      2  C   UNL     1      15.448   0.060  23.462  1.00  0.00     0.177 C 
ATOM      3  C   UNL     1      14.045   0.295  24.087  1.00  0.00     0.180 C 
ATOM      4  C   UNL     1      13.905  -0.500  25.392  1.00  0.00     0.214 C 
ATOM      5  C   UNL     1      15.113  -0.257  26.308  1.00  0.00     0.339 C 
ATOM      6  O   UNL     1      16.317  -0.631  25.663  1.00  0.00    -0.332 OA
ENDROOT
BRANCH   1   7
ATOM      7  C   UNL     1      17.933  -0.268  23.948  1.00  0.00     0.198 C 
BRANCH   7   8
ATOM      8  O   UNL     1      18.231  -1.582  24.364  1.00  0.00    -0.347 OA
BRANCH   8   9
ATOM      9  C   UNL     1      18.728  -2.373  23.291  1.00  0.00     0.281 C 
ATOM     10  C   UNL     1      16.577  -3.885  24.989  1.00  0.00     0.041 C 
ATOM     11  C   UNL     1      17.536  -4.362  23.882  1.00  0.00     0.150 C 
ATOM     12  C   UNL     1      18.821  -5.046  24.408  1.00  0.00     0.174 C 
ATOM     13  O   UNL     1      17.772  -3.355  22.904  1.00  0.00    -0.344 OA
ATOM     14  C   UNL     1      19.893  -4.023  24.811  1.00  0.00     0.179 C 
ATOM     15  C   UNL     1      20.075  -2.994  23.687  1.00  0.00     0.202 C 
BRANCH  12  16
ATOM     16  O   UNL     1      19.354  -5.879  23.405  1.00  0.00    -0.388 OA
ATOM     17  H   UNL     1      19.798  -5.277  22.745  1.00  0.00     0.211 HD
ENDBRANCH  12  16
BRANCH  14  18
ATOM     18  O   UNL     1      19.551  -3.387  26.015  1.00  0.00    -0.387 OA
ATOM     19  H   UNL     1      18.572  -3.518  26.143  1.00  0.00     0.211 HD
ENDBRANCH  14  18
BRANCH  15  20
ATOM     20  O   UNL     1      20.961  -1.974  24.081  1.00  0.00    -0.385 OA
ATOM     21  H   UNL     1      20.683  -1.150  23.586  1.00  0.00     0.211 HD
ENDBRANCH  15  20
ENDBRANCH   8   9
ENDBRANCH   7   8
ENDBRANCH   1   7
BRANCH   2  22
ATOM     22  O   UNL     1      15.493  -1.218  22.873  1.00  0.00    -0.387 OA
ATOM     23  H   UNL     1      16.446  -1.506  22.881  1.00  0.00     0.211 HD
ENDBRANCH   2  22
BRANCH   3  24
ATOM     24  O   UNL     1      13.737   1.658  24.290  1.00  0.00    -0.387 OA
ATOM     25  H   UNL     1      13.042   1.737  24.986  1.00  0.00     0.211 HD
ENDBRANCH   3  24
BRANCH   5  26
ATOM     26  O   UNL     1      15.158   1.107  26.726  1.00  0.00    -0.454 OA
BRANCH  26  27
ATOM     27  C   UNL     1      15.174   1.484  28.075  1.00  0.00     0.214 A 
ATOM     28  C   UNL     1      16.399   1.559  28.751  1.00  0.00     0.180 A 
ATOM     29  C   UNL     1      13.990   1.759  28.766  1.00  0.00     0.239 A 
ATOM     30  O   UNL     1      16.431   1.890  30.037  1.00  0.00    -0.452 OA
ATOM     31  C   UNL     1      14.052   2.106  30.136  1.00  0.00     0.111 A 
ATOM     32  O   UNL     1      12.890   1.655  28.164  1.00  0.00    -0.285 OA
ATOM     33  C   UNL     1      15.335   2.130  30.749  1.00  0.00     0.146 A 
ATOM     34  C   UNL     1      12.908   2.377  30.938  1.00  0.00     0.134 A 
ATOM     35  C   UNL     1      15.465   2.375  32.120  1.00  0.00     0.094 A 
ATOM     36  C   UNL     1      13.062   2.544  32.328  1.00  0.00     0.093 A 
ATOM     37  C   UNL     1      14.334   2.547  32.917  1.00  0.00     0.123 A 
BRANCH  28  38
ATOM     38  C   UNL     1      17.660   1.269  28.052  1.00  0.00     0.025 A 
ATOM     39  C   UNL     1      18.326   0.054  28.266  1.00  0.00     0.062 A 
ATOM     40  C   UNL     1      18.219   2.217  27.191  1.00  0.00     0.016 A 
ATOM     41  C   UNL     1      19.530  -0.233  27.613  1.00  0.00     0.158 A 
ATOM     42  C   UNL     1      19.406   1.932  26.509  1.00  0.00     0.051 A 
ATOM     43  C   UNL     1      20.073   0.713  26.709  1.00  0.00     0.157 A 
BRANCH  41  44
ATOM     44  O   UNL     1      20.160  -1.446  27.899  1.00  0.00    -0.504 OA
ATOM     45  H   UNL     1      20.452  -1.720  28.826  1.00  0.00     0.293 HD
ENDBRANCH  41  44
BRANCH  43  46
ATOM     46  O   UNL     1      21.269   0.497  26.019  1.00  0.00    -0.504 OA
ATOM     47  H   UNL     1      21.410  -0.259  25.365  1.00  0.00     0.293 HD
ENDBRANCH  43  46
ENDBRANCH  28  38
BRANCH  34  48
ATOM     48  O   UNL     1      11.620   2.517  30.413  1.00  0.00    -0.507 OA
ATOM     49  H   UNL     1      11.430   3.148  29.632  1.00  0.00     0.293 HD
ENDBRANCH  34  48
BRANCH  37  50
ATOM     50  O   UNL     1      14.490   2.711  34.292  1.00  0.00    -0.508 OA
ATOM     51  H   UNL     1      15.201   2.203  34.805  1.00  0.00     0.293 HD
ENDBRANCH  37  50
ENDBRANCH  26  27
ENDBRANCH   5  26
BRANCH   4  52
ATOM     52  O   UNL     1      12.711  -0.155  26.045  1.00  0.00    -0.384 OA
ATOM     53  H   UNL     1      12.229   0.480  25.459  1.00  0.00     0.211 HD
ENDBRANCH   4  52
TORSDOF 16
ENDMDL
MODEL 6
REMARK VINA RESULT:    -7.973      3.002      7.328
REMARK INTER + INTRA:         -16.149
REMARK INTER:                 -12.262
REMARK INTRA:                  -3.887
REMARK UNBOUND:                -3.048
REMARK SMILES C[C@H]1O[C@@H](OC[C@@H]2O[C@@H](Oc3c(-c4ccc(O)c(O)c4)oc4cc(O)cc(O)c4c3=O)[C@@H](O)[C@@H](O)[C@@H]2O)[C@@H](O)[C@@H](O)[C@@H]1O
REMARK SMILES IDX 7 1 36 2 34 3 32 4 9 5 8 6 6 7 5 8 4 9 1 10 2 11 42 12 3 13
REMARK SMILES IDX 40 14 38 15 43 16 41 18 39 20 37 22 35 24 10 26 11 27 12 28
REMARK SMILES IDX 30 29 21 30 29 31 31 32 22 33 27 34 23 35 26 36 24 37 13 38
REMARK SMILES IDX 20 39 14 40 18 41 15 42 16 43 19 44 17 46 28 48 25 50 33 52
REMARK H PARENT 43 17 41 19 39 21 37 23 35 25 19 45 17 47 28 49 25 51 33 53
REMARK Flexibility Score: inf
ROOT
ATOM      1  C   UNL     1      16.065  -3.018  26.978  1.00  0.00     0.180 C 
ATOM      2  C   UNL     1      17.073  -4.145  26.608  1.00  0.00     0.177 C 
ATOM      3  C   UNL     1      18.543  -3.697  26.835  1.00  0.00     0.180 C 
ATOM      4  C   UNL     1      18.767  -2.295  26.250  1.00  0.00     0.214 C 
ATOM      5  C   UNL     1      17.673  -1.327  26.727  1.00  0.00     0.339 C 
ATOM      6  O   UNL     1      16.391  -1.790  26.346  1.00  0.00    -0.332 OA
ENDROOT
BRANCH   1   7
ATOM      7  C   UNL     1      14.635  -3.390  26.549  1.00  0.00     0.198 C 
BRANCH   7   8
ATOM      8  O   UNL     1      14.282  -2.694  25.375  1.00  0.00    -0.347 OA
BRANCH   8   9
ATOM      9  C   UNL     1      13.428  -3.467  24.542  1.00  0.00     0.281 C 
ATOM     10  C   UNL     1      15.840  -2.245  22.966  1.00  0.00     0.041 C 
ATOM     11  C   UNL     1      14.563  -2.965  22.496  1.00  0.00     0.150 C 
ATOM     12  C   UNL     1      13.433  -2.014  22.034  1.00  0.00     0.174 C 
ATOM     13  O   UNL     1      14.141  -3.967  23.415  1.00  0.00    -0.344 OA
ATOM     14  C   UNL     1      12.618  -1.472  23.217  1.00  0.00     0.179 C 
ATOM     15  C   UNL     1      12.206  -2.631  24.136  1.00  0.00     0.202 C 
BRANCH  12  16
ATOM     16  O   UNL     1      12.560  -2.706  21.170  1.00  0.00    -0.388 OA
ATOM     17  H   UNL     1      12.905  -3.639  21.111  1.00  0.00     0.211 HD
ENDBRANCH  12  16
BRANCH  14  18
ATOM     18  O   UNL     1      13.350  -0.510  23.930  1.00  0.00    -0.387 OA
ATOM     19  H   UNL     1      12.810  -0.271  24.732  1.00  0.00     0.211 HD
ENDBRANCH  14  18
BRANCH  15  20
ATOM     20  O   UNL     1      11.566  -2.149  25.293  1.00  0.00    -0.385 OA
ATOM     21  H   UNL     1      12.218  -1.540  25.745  1.00  0.00     0.211 HD
ENDBRANCH  15  20
ENDBRANCH   8   9
ENDBRANCH   7   8
ENDBRANCH   1   7
BRANCH   2  22
ATOM     22  O   UNL     1      16.894  -4.507  25.260  1.00  0.00    -0.387 OA
ATOM     23  H   UNL     1      16.439  -3.741  24.814  1.00  0.00     0.211 HD
ENDBRANCH   2  22
BRANCH   3  24
ATOM     24  O   UNL     1      18.950  -3.752  28.186  1.00  0.00    -0.387 OA
ATOM     25  H   UNL     1      19.500  -4.558  28.330  1.00  0.00     0.211 HD
ENDBRANCH   3  24
BRANCH   5  26
ATOM     26  O   UNL     1      17.752  -1.140  28.140  1.00  0.00    -0.454 OA
BRANCH  26  27
ATOM     27  C   UNL     1      17.845   0.127  28.730  1.00  0.00     0.214 A 
ATOM     28  C   UNL     1      16.673   0.803  29.092  1.00  0.00     0.180 A 
ATOM     29  C   UNL     1      19.084   0.741  28.940  1.00  0.00     0.239 A 
ATOM     30  O   UNL     1      16.741   2.015  29.629  1.00  0.00    -0.452 OA
ATOM     31  C   UNL     1      19.129   2.034  29.510  1.00  0.00     0.111 A 
ATOM     32  O   UNL     1      20.133   0.145  28.580  1.00  0.00    -0.285 OA
ATOM     33  C   UNL     1      17.889   2.658  29.820  1.00  0.00     0.146 A 
ATOM     34  C   UNL     1      20.332   2.759  29.740  1.00  0.00     0.134 A 
ATOM     35  C   UNL     1      17.852   3.970  30.302  1.00  0.00     0.094 A 
ATOM     36  C   UNL     1      20.262   4.103  30.152  1.00  0.00     0.093 A 
ATOM     37  C   UNL     1      19.028   4.707  30.435  1.00  0.00     0.123 A 
BRANCH  28  38
ATOM     38  C   UNL     1      15.355   0.185  28.877  1.00  0.00     0.025 A 
ATOM     39  C   UNL     1      14.569   0.555  27.777  1.00  0.00     0.062 A 
ATOM     40  C   UNL     1      14.865  -0.755  29.788  1.00  0.00     0.016 A 
ATOM     41  C   UNL     1      13.311  -0.019  27.565  1.00  0.00     0.158 A 
ATOM     42  C   UNL     1      13.623  -1.359  29.572  1.00  0.00     0.051 A 
ATOM     43  C   UNL     1      12.834  -1.002  28.467  1.00  0.00     0.157 A 
BRANCH  41  44
ATOM     44  O   UNL     1      12.564   0.421  26.470  1.00  0.00    -0.504 OA
ATOM     45  H   UNL     1      12.806   0.223  25.510  1.00  0.00     0.293 HD
ENDBRANCH  41  44
BRANCH  43  46
ATOM     46  O   UNL     1      11.590  -1.622  28.319  1.00  0.00    -0.504 OA
ATOM     47  H   UNL     1      10.724  -1.231  28.660  1.00  0.00     0.293 HD
ENDBRANCH  43  46
ENDBRANCH  28  38
BRANCH  34  48
ATOM     48  O   UNL     1      21.604   2.195  29.603  1.00  0.00    -0.507 OA
ATOM     49  H   UNL     1      22.450   2.752  29.741  1.00  0.00     0.293 HD
ENDBRANCH  34  48
BRANCH  37  50
ATOM     50  O   UNL     1      18.954   6.037  30.843  1.00  0.00    -0.508 OA
ATOM     51  H   UNL     1      18.154   6.386  31.358  1.00  0.00     0.293 HD
ENDBRANCH  37  50
ENDBRANCH  26  27
ENDBRANCH   5  26
BRANCH   4  52
ATOM     52  O   UNL     1      20.039  -1.818  26.605  1.00  0.00    -0.384 OA
ATOM     53  H   UNL     1      20.499  -2.545  27.095  1.00  0.00     0.211 HD
ENDBRANCH   4  52
TORSDOF 16
ENDMDL
MODEL 7
REMARK VINA RESULT:    -7.915      3.621      6.685
REMARK INTER + INTRA:         -16.053
REMARK INTER:                 -12.831
REMARK INTRA:                  -3.222
REMARK UNBOUND:                -3.048
REMARK SMILES C[C@H]1O[C@@H](OC[C@@H]2O[C@@H](Oc3c(-c4ccc(O)c(O)c4)oc4cc(O)cc(O)c4c3=O)[C@@H](O)[C@@H](O)[C@@H]2O)[C@@H](O)[C@@H](O)[C@@H]1O
REMARK SMILES IDX 7 1 36 2 34 3 32 4 9 5 8 6 6 7 5 8 4 9 1 10 2 11 42 12 3 13
REMARK SMILES IDX 40 14 38 15 43 16 41 18 39 20 37 22 35 24 10 26 11 27 12 28
REMARK SMILES IDX 30 29 21 30 29 31 31 32 22 33 27 34 23 35 26 36 24 37 13 38
REMARK SMILES IDX 20 39 14 40 18 41 15 42 16 43 19 44 17 46 28 48 25 50 33 52
REMARK H PARENT 43 17 41 19 39 21 37 23 35 25 19 45 17 47 28 49 25 51 33 53
REMARK Flexibility Score: inf
ROOT
ATOM      1  C   UNL     1      17.317   2.538  25.846  1.00  0.00     0.180 C 
ATOM      2  C   UNL     1      16.605   3.496  24.846  1.00  0.00     0.177 C 
ATOM      3  C   UNL     1      15.696   2.718  23.855  1.00  0.00     0.180 C 
ATOM      4  C   UNL     1      16.443   1.499  23.295  1.00  0.00     0.214 C 
ATOM      5  C   UNL     1      17.077   0.682  24.431  1.00  0.00     0.339 C 
ATOM      6  O   UNL     1      17.980   1.476  25.179  1.00  0.00    -0.332 OA
ENDROOT
BRANCH   1   7
ATOM      7  C   UNL     1      18.373   3.289  26.676  1.00  0.00     0.198 C 
BRANCH   7   8
ATOM      8  O   UNL     1      19.313   2.380  27.203  1.00  0.00    -0.347 OA
BRANCH   8   9
ATOM      9  C   UNL     1      20.023   2.937  28.302  1.00  0.00     0.281 C 
ATOM     10  C   UNL     1      21.886   1.316  26.379  1.00  0.00     0.041 C 
ATOM     11  C   UNL     1      22.124   1.919  27.776  1.00  0.00     0.150 C 
ATOM     12  C   UNL     1      21.989   0.904  28.936  1.00  0.00     0.174 C 
ATOM     13  O   UNL     1      21.395   3.126  27.973  1.00  0.00    -0.344 OA
ATOM     14  C   UNL     1      20.525   0.689  29.346  1.00  0.00     0.179 C 
ATOM     15  C   UNL     1      19.838   2.048  29.541  1.00  0.00     0.202 C 
BRANCH  12  16
ATOM     16  O   UNL     1      22.702   1.373  30.057  1.00  0.00    -0.388 OA
ATOM     17  H   UNL     1      23.258   2.137  29.738  1.00  0.00     0.211 HD
ENDBRANCH  12  16
BRANCH  14  18
ATOM     18  O   UNL     1      19.844  -0.077  28.387  1.00  0.00    -0.387 OA
ATOM     19  H   UNL     1      19.104  -0.544  28.861  1.00  0.00     0.211 HD
ENDBRANCH  14  18
BRANCH  15  20
ATOM     20  O   UNL     1      18.464   1.882  29.794  1.00  0.00    -0.385 OA
ATOM     21  H   UNL     1      18.174   2.680  30.324  1.00  0.00     0.211 HD
ENDBRANCH  15  20
ENDBRANCH   8   9
ENDBRANCH   7   8
ENDBRANCH   1   7
BRANCH   2  22
ATOM     22  O   UNL     1      17.573   4.222  24.127  1.00  0.00    -0.387 OA
ATOM     23  H   UNL     1      17.094   4.970  23.674  1.00  0.00     0.211 HD
ENDBRANCH   2  22
BRANCH   3  24
ATOM     24  O   UNL     1      14.452   2.339  24.405  1.00  0.00    -0.387 OA
ATOM     25  H   UNL     1      14.258   1.403  24.162  1.00  0.00     0.211 HD
ENDBRANCH   3  24
BRANCH   5  26
ATOM     26  O   UNL     1      16.066   0.124  25.271  1.00  0.00    -0.454 OA
BRANCH  26  27
ATOM     27  C   UNL     1      16.286  -1.005  26.069  1.00  0.00     0.214 A 
ATOM     28  C   UNL     1      16.137  -2.280  25.509  1.00  0.00     0.180 A 
ATOM     29  C   UNL     1      16.623  -0.885  27.420  1.00  0.00     0.239 A 
ATOM     30  O   UNL     1      16.316  -3.362  26.257  1.00  0.00    -0.452 OA
ATOM     31  C   UNL     1      16.805  -2.053  28.197  1.00  0.00     0.111 A 
ATOM     32  O   UNL     1      16.721   0.263  27.928  1.00  0.00    -0.285 OA
ATOM     33  C   UNL     1      16.606  -3.305  27.553  1.00  0.00     0.146 A 
ATOM     34  C   UNL     1      17.122  -2.043  29.584  1.00  0.00     0.134 A 
ATOM     35  C   UNL     1      16.679  -4.498  28.278  1.00  0.00     0.094 A 
ATOM     36  C   UNL     1      17.113  -3.252  30.304  1.00  0.00     0.093 A 
ATOM     37  C   UNL     1      16.897  -4.476  29.655  1.00  0.00     0.123 A 
BRANCH  28  38
ATOM     38  C   UNL     1      15.776  -2.439  24.091  1.00  0.00     0.025 A 
ATOM     39  C   UNL     1      14.430  -2.434  23.698  1.00  0.00     0.062 A 
ATOM     40  C   UNL     1      16.773  -2.625  23.130  1.00  0.00     0.016 A 
ATOM     41  C   UNL     1      14.072  -2.590  22.354  1.00  0.00     0.158 A 
ATOM     42  C   UNL     1      16.431  -2.753  21.781  1.00  0.00     0.051 A 
ATOM     43  C   UNL     1      15.087  -2.738  21.377  1.00  0.00     0.157 A 
BRANCH  41  44
ATOM     44  O   UNL     1      12.712  -2.613  22.035  1.00  0.00    -0.504 OA
ATOM     45  H   UNL     1      12.316  -3.198  21.313  1.00  0.00     0.293 HD
ENDBRANCH  41  44
BRANCH  43  46
ATOM     46  O   UNL     1      14.807  -2.896  20.017  1.00  0.00    -0.504 OA
ATOM     47  H   UNL     1      13.916  -3.208  19.659  1.00  0.00     0.293 HD
ENDBRANCH  43  46
ENDBRANCH  28  38
BRANCH  34  48
ATOM     48  O   UNL     1      17.474  -0.883  30.281  1.00  0.00    -0.507 OA
ATOM     49  H   UNL     1      17.192  -0.741  31.254  1.00  0.00     0.293 HD
ENDBRANCH  34  48
BRANCH  37  50
ATOM     50  O   UNL     1      16.888  -5.675  30.364  1.00  0.00    -0.508 OA
ATOM     51  H   UNL     1      17.628  -5.906  31.017  1.00  0.00     0.293 HD
ENDBRANCH  37  50
ENDBRANCH  26  27
ENDBRANCH   5  26
BRANCH   4  52
ATOM     52  O   UNL     1      15.571   0.700  22.538  1.00  0.00    -0.384 OA
ATOM     53  H   UNL     1      15.548   1.076  21.623  1.00  0.00     0.211 HD
ENDBRANCH   4  52
TORSDOF 16
ENDMDL
MODEL 8
REMARK VINA RESULT:    -7.908      2.258      3.048
REMARK INTER + INTRA:         -16.041
REMARK INTER:                 -12.230
REMARK INTRA:                  -3.811
REMARK UNBOUND:                -3.048
REMARK SMILES C[C@H]1O[C@@H](OC[C@@H]2O[C@@H](Oc3c(-c4ccc(O)c(O)c4)oc4cc(O)cc(O)c4c3=O)[C@@H](O)[C@@H](O)[C@@H]2O)[C@@H](O)[C@@H](O)[C@@H]1O
REMARK SMILES IDX 7 1 36 2 34 3 32 4 9 5 8 6 6 7 5 8 4 9 1 10 2 11 42 12 3 13
REMARK SMILES IDX 40 14 38 15 43 16 41 18 39 20 37 22 35 24 10 26 11 27 12 28
REMARK SMILES IDX 30 29 21 30 29 31 31 32 22 33 27 34 23 35 26 36 24 37 13 38
REMARK SMILES IDX 20 39 14 40 18 41 15 42 16 43 19 44 17 46 28 48 25 50 33 52
REMARK H PARENT 43 17 41 19 39 21 37 23 35 25 19 45 17 47 28 49 25 51 33 53
REMARK Flexibility Score: inf
ROOT
ATOM      1  C   UNL     1      17.037  -0.583  30.388  1.00  0.00     0.180 C 
ATOM      2  C   UNL     1      16.531  -1.344  31.647  1.00  0.00     0.177 C 
ATOM      3  C   UNL     1      16.480  -2.878  31.408  1.00  0.00     0.180 C 
ATOM      4  C   UNL     1      15.821  -3.183  30.056  1.00  0.00     0.214 C 
ATOM      5  C   UNL     1      16.452  -2.336  28.942  1.00  0.00     0.339 C 
ATOM      6  O   UNL     1      16.318  -0.954  29.222  1.00  0.00    -0.332 OA
ENDROOT
BRANCH   1   7
ATOM      7  C   UNL     1      16.880   0.939  30.559  1.00  0.00     0.198 C 
BRANCH   7   8
ATOM      8  O   UNL     1      15.690   1.377  29.943  1.00  0.00    -0.347 OA
BRANCH   8   9
ATOM      9  C   UNL     1      15.102   2.463  30.649  1.00  0.00     0.281 C 
ATOM     10  C   UNL     1      12.999   0.289  29.845  1.00  0.00     0.041 C 
ATOM     11  C   UNL     1      12.843   1.708  30.421  1.00  0.00     0.150 C 
ATOM     12  C   UNL     1      12.526   2.792  29.362  1.00  0.00     0.174 C 
ATOM     13  O   UNL     1      13.906   2.052  31.303  1.00  0.00    -0.344 OA
ATOM     14  C   UNL     1      13.793   3.287  28.649  1.00  0.00     0.179 C 
ATOM     15  C   UNL     1      14.868   3.637  29.688  1.00  0.00     0.202 C 
BRANCH  12  16
ATOM     16  O   UNL     1      11.906   3.892  29.985  1.00  0.00    -0.388 OA
ATOM     17  H   UNL     1      12.615   4.353  30.513  1.00  0.00     0.211 HD
ENDBRANCH  12  16
BRANCH  14  18
ATOM     18  O   UNL     1      14.270   2.321  27.748  1.00  0.00    -0.387 OA
ATOM     19  H   UNL     1      14.281   2.745  26.848  1.00  0.00     0.211 HD
ENDBRANCH  14  18
BRANCH  15  20
ATOM     20  O   UNL     1      16.080   3.974  29.058  1.00  0.00    -0.385 OA
ATOM     21  H   UNL     1      16.489   4.707  29.604  1.00  0.00     0.211 HD
ENDBRANCH  15  20
ENDBRANCH   8   9
ENDBRANCH   7   8
ENDBRANCH   1   7
BRANCH   2  22
ATOM     22  O   UNL     1      15.248  -0.878  31.990  1.00  0.00    -0.387 OA
ATOM     23  H   UNL     1      14.669  -1.681  32.097  1.00  0.00     0.211 HD
ENDBRANCH   2  22
BRANCH   3  24
ATOM     24  O   UNL     1      17.738  -3.510  31.511  1.00  0.00    -0.387 OA
ATOM     25  H   UNL     1      17.658  -4.311  32.080  1.00  0.00     0.211 HD
ENDBRANCH   3  24
BRANCH   5  26
ATOM     26  O   UNL     1      17.822  -2.692  28.757  1.00  0.00    -0.454 OA
BRANCH  26  27
ATOM     27  C   UNL     1      18.344  -3.070  27.514  1.00  0.00     0.214 A 
ATOM     28  C   UNL     1      18.875  -2.089  26.667  1.00  0.00     0.180 A 
ATOM     29  C   UNL     1      18.319  -4.402  27.091  1.00  0.00     0.239 A 
ATOM     30  O   UNL     1      19.351  -2.425  25.473  1.00  0.00    -0.452 OA
ATOM     31  C   UNL     1      18.829  -4.734  25.814  1.00  0.00     0.111 A 
ATOM     32  O   UNL     1      17.808  -5.274  27.841  1.00  0.00    -0.285 OA
ATOM     33  C   UNL     1      19.323  -3.671  25.009  1.00  0.00     0.146 A 
ATOM     34  C   UNL     1      18.826  -6.051  25.276  1.00  0.00     0.134 A 
ATOM     35  C   UNL     1      19.758  -3.910  23.702  1.00  0.00     0.094 A 
ATOM     36  C   UNL     1      19.197  -6.250  23.932  1.00  0.00     0.093 A 
ATOM     37  C   UNL     1      19.665  -5.186  23.148  1.00  0.00     0.123 A 
BRANCH  28  38
ATOM     38  C   UNL     1      18.909  -0.678  27.081  1.00  0.00     0.025 A 
ATOM     39  C   UNL     1      17.916   0.212  26.649  1.00  0.00     0.062 A 
ATOM     40  C   UNL     1      19.950  -0.209  27.887  1.00  0.00     0.016 A 
ATOM     41  C   UNL     1      17.939   1.558  27.031  1.00  0.00     0.158 A 
ATOM     42  C   UNL     1      19.970   1.127  28.300  1.00  0.00     0.051 A 
ATOM     43  C   UNL     1      18.973   2.022  27.880  1.00  0.00     0.157 A 
BRANCH  41  44
ATOM     44  O   UNL     1      16.940   2.399  26.535  1.00  0.00    -0.504 OA
ATOM     45  H   UNL     1      17.121   3.187  25.930  1.00  0.00     0.293 HD
ENDBRANCH  41  44
BRANCH  43  46
ATOM     46  O   UNL     1      19.061   3.351  28.306  1.00  0.00    -0.504 OA
ATOM     47  H   UNL     1      19.392   3.627  29.219  1.00  0.00     0.293 HD
ENDBRANCH  43  46
ENDBRANCH  28  38
BRANCH  34  48
ATOM     48  O   UNL     1      18.496  -7.184  26.025  1.00  0.00    -0.507 OA
ATOM     49  H   UNL     1      19.184  -7.645  26.624  1.00  0.00     0.293 HD
ENDBRANCH  34  48
BRANCH  37  50
ATOM     50  O   UNL     1      20.033  -5.379  21.819  1.00  0.00    -0.508 OA
ATOM     51  H   UNL     1      20.599  -6.173  21.539  1.00  0.00     0.293 HD
ENDBRANCH  37  50
ENDBRANCH  26  27
ENDBRANCH   5  26
BRANCH   4  52
ATOM     52  O   UNL     1      15.930  -4.551  29.760  1.00  0.00    -0.384 OA
ATOM     53  H   UNL     1      15.150  -5.003  30.168  1.00  0.00     0.211 HD
ENDBRANCH   4  52
TORSDOF 16
ENDMDL
MODEL 9
REMARK VINA RESULT:    -7.900      2.284      8.414
REMARK INTER + INTRA:         -16.029
REMARK INTER:                 -12.456
REMARK INTRA:                  -3.573
REMARK UNBOUND:                -3.048
REMARK SMILES C[C@H]1O[C@@H](OC[C@@H]2O[C@@H](Oc3c(-c4ccc(O)c(O)c4)oc4cc(O)cc(O)c4c3=O)[C@@H](O)[C@@H](O)[C@@H]2O)[C@@H](O)[C@@H](O)[C@@H]1O
REMARK SMILES IDX 7 1 36 2 34 3 32 4 9 5 8 6 6 7 5 8 4 9 1 10 2 11 42 12 3 13
REMARK SMILES IDX 40 14 38 15 43 16 41 18 39 20 37 22 35 24 10 26 11 27 12 28
REMARK SMILES IDX 30 29 21 30 29 31 31 32 22 33 27 34 23 35 26 36 24 37 13 38
REMARK SMILES IDX 20 39 14 40 18 41 15 42 16 43 19 44 17 46 28 48 25 50 33 52
REMARK H PARENT 43 17 41 19 39 21 37 23 35 25 19 45 17 47 28 49 25 51 33 53
REMARK Flexibility Score: inf
ROOT
ATOM      1  C   UNL     1      15.572  -1.868  25.479  1.00  0.00     0.180 C 
ATOM      2  C   UNL     1      14.338  -2.369  24.674  1.00  0.00     0.177 C 
ATOM      3  C   UNL     1      13.004  -2.010  25.386  1.00  0.00     0.180 C 
ATOM      4  C   UNL     1      13.091  -2.353  26.879  1.00  0.00     0.214 C 
ATOM      5  C   UNL     1      14.374  -1.775  27.495  1.00  0.00     0.339 C 
ATOM      6  O   UNL     1      15.521  -2.281  26.835  1.00  0.00    -0.332 OA
ENDROOT
BRANCH   1   7
ATOM      7  C   UNL     1      16.882  -2.412  24.882  1.00  0.00     0.198 C 
BRANCH   7   8
ATOM      8  O   UNL     1      17.055  -3.764  25.242  1.00  0.00    -0.347 OA
BRANCH   8   9
ATOM      9  C   UNL     1      18.389  -4.030  25.658  1.00  0.00     0.281 C 
ATOM     10  C   UNL     1      17.306  -6.195  23.674  1.00  0.00     0.041 C 
ATOM     11  C   UNL     1      18.575  -6.140  24.544  1.00  0.00     0.150 C 
ATOM     12  C   UNL     1      18.465  -6.919  25.877  1.00  0.00     0.174 C 
ATOM     13  O   UNL     1      19.074  -4.813  24.686  1.00  0.00    -0.344 OA
ATOM     14  C   UNL     1      17.758  -6.099  26.966  1.00  0.00     0.179 C 
ATOM     15  C   UNL     1      18.376  -4.696  27.041  1.00  0.00     0.202 C 
BRANCH  12  16
ATOM     16  O   UNL     1      19.756  -7.250  26.336  1.00  0.00    -0.388 OA
ATOM     17  H   UNL     1      20.167  -7.822  25.630  1.00  0.00     0.211 HD
ENDBRANCH  12  16
BRANCH  14  18
ATOM     18  O   UNL     1      16.379  -6.020  26.716  1.00  0.00    -0.387 OA
ATOM     19  H   UNL     1      16.070  -5.142  27.069  1.00  0.00     0.211 HD
ENDBRANCH  14  18
BRANCH  15  20
ATOM     20  O   UNL     1      17.665  -3.884  27.943  1.00  0.00    -0.385 OA
ATOM     21  H   UNL     1      16.712  -4.186  27.907  1.00  0.00     0.211 HD
ENDBRANCH  15  20
ENDBRANCH   8   9
ENDBRANCH   7   8
ENDBRANCH   1   7
BRANCH   2  22
ATOM     22  O   UNL     1      14.423  -3.764  24.510  1.00  0.00    -0.387 OA
ATOM     23  H   UNL     1      13.510  -4.083  24.270  1.00  0.00     0.211 HD
ENDBRANCH   2  22
BRANCH   3  24
ATOM     24  O   UNL     1      12.604  -0.669  25.197  1.00  0.00    -0.387 OA
ATOM     25  H   UNL     1      11.619  -0.619  25.191  1.00  0.00     0.211 HD
ENDBRANCH   3  24
BRANCH   5  26
ATOM     26  O   UNL     1      14.348  -0.348  27.459  1.00  0.00    -0.454 OA
BRANCH  26  27
ATOM     27  C   UNL     1      14.538   0.440  28.600  1.00  0.00     0.214 A 
ATOM     28  C   UNL     1      15.823   0.906  28.905  1.00  0.00     0.180 A 
ATOM     29  C   UNL     1      13.476   0.748  29.455  1.00  0.00     0.239 A 
ATOM     30  O   UNL     1      16.027   1.633  29.997  1.00  0.00    -0.452 OA
ATOM     31  C   UNL     1      13.720   1.521  30.614  1.00  0.00     0.111 A 
ATOM     32  O   UNL     1      12.330   0.296  29.196  1.00  0.00    -0.285 OA
ATOM     33  C   UNL     1      15.060   1.928  30.861  1.00  0.00     0.146 A 
ATOM     34  C   UNL     1      12.717   1.867  31.564  1.00  0.00     0.134 A 
ATOM     35  C   UNL     1      15.391   2.616  32.032  1.00  0.00     0.094 A 
ATOM     36  C   UNL     1      13.092   2.491  32.768  1.00  0.00     0.093 A 
ATOM     37  C   UNL     1      14.422   2.869  33.001  1.00  0.00     0.123 A 
BRANCH  28  38
ATOM     38  C   UNL     1      16.963   0.593  28.028  1.00  0.00     0.025 A 
ATOM     39  C   UNL     1      17.869  -0.417  28.377  1.00  0.00     0.062 A 
ATOM     40  C   UNL     1      17.164   1.324  26.854  1.00  0.00     0.016 A 
ATOM     41  C   UNL     1      18.960  -0.721  27.555  1.00  0.00     0.158 A 
ATOM     42  C   UNL     1      18.233   1.012  26.009  1.00  0.00     0.051 A 
ATOM     43  C   UNL     1      19.139  -0.007  26.345  1.00  0.00     0.157 A 
BRANCH  41  44
ATOM     44  O   UNL     1      19.846  -1.714  27.980  1.00  0.00    -0.504 OA
ATOM     45  H   UNL     1      20.071  -1.887  28.949  1.00  0.00     0.293 HD
ENDBRANCH  41  44
BRANCH  43  46
ATOM     46  O   UNL     1      20.203  -0.255  25.473  1.00  0.00    -0.504 OA
ATOM     47  H   UNL     1      20.159  -0.913  24.708  1.00  0.00     0.293 HD
ENDBRANCH  43  46
ENDBRANCH  28  38
BRANCH  34  48
ATOM     48  O   UNL     1      11.353   1.641  31.354  1.00  0.00    -0.507 OA
ATOM     49  H   UNL     1      11.000   1.322  30.449  1.00  0.00     0.293 HD
ENDBRANCH  34  48
BRANCH  37  50
ATOM     50  O   UNL     1      14.796   3.488  34.192  1.00  0.00    -0.508 OA
ATOM     51  H   UNL     1      14.889   4.495  34.255  1.00  0.00     0.293 HD
ENDBRANCH  37  50
ENDBRANCH  26  27
ENDBRANCH   5  26
BRANCH   4  52
ATOM     52  O   UNL     1      11.958  -1.871  27.554  1.00  0.00    -0.384 OA
ATOM     53  H   UNL     1      11.167  -2.123  27.016  1.00  0.00     0.211 HD
ENDBRANCH   4  52
TORSDOF 16
ENDMDL
