MODEL 1
REMARK VINA RESULT:    -3.013      0.000      0.000
REMARK INTER + INTRA:          -7.202
REMARK INTER:                  -5.479
REMARK INTRA:                  -1.723
REMARK UNBOUND:                -1.723
REMARK SMILES CCCCCCCCCCCCCCCC(=O)[O-]
REMARK SMILES IDX 9 1 10 2 11 3 12 4 13 5 14 6 15 7 16 8 17 9 18 10 8 11 7 12
REMARK SMILES IDX 6 13 5 14 4 15 3 16 2 17 1 18
REMARK H PARENT
REMARK Flexibility Score: inf
ROOT
ATOM      1  C   UNL     1       6.963  -0.586  -3.183  1.00  0.00     0.000 C 
ENDROOT
BRANCH   1   2
ATOM      2  C   UNL     1       7.646   0.167  -2.026  1.00  0.00     0.000 C 
BRANCH   2   3
ATOM      3  C   UNL     1       7.577   1.703  -2.119  1.00  0.00     0.000 C 
BRANCH   3   4
ATOM      4  C   UNL     1       8.445   2.406  -1.066  1.00  0.00     0.000 C 
BRANCH   4   5
ATOM      5  C   UNL     1       7.576   3.104  -0.013  1.00  0.00     0.000 C 
BRANCH   5   6
ATOM      6  C   UNL     1       8.333   3.255   1.314  1.00  0.00     0.006 C 
BRANCH   6   7
ATOM      7  C   UNL     1       7.574   2.628   2.490  1.00  0.00     0.053 C 
BRANCH   7   8
ATOM      8  C   UNL     1       7.408   3.596   3.622  1.00  0.00     0.041 C 
ATOM      9  O   UNL     1       7.069   4.787   3.394  1.00  0.00    -0.550 OA
ATOM     10  O   UNL     1       7.595   3.172   4.932  1.00  0.00    -0.550 OA
ENDBRANCH   7   8
ENDBRANCH   6   7
ENDBRANCH   5   6
ENDBRANCH   4   5
ENDBRANCH   3   4
ENDBRANCH   2   3
ENDBRANCH   1   2
BRANCH   1  11
ATOM     11  C   UNL     1       7.239  -2.102  -3.229  1.00  0.00     0.000 C 
BRANCH  11  12
ATOM     12  C   UNL     1       8.563  -2.514  -2.550  1.00  0.00    -0.000 C 
BRANCH  12  13
ATOM     13  C   UNL     1       8.501  -3.924  -1.946  1.00  0.00    -0.000 C 
BRANCH  13  14
ATOM     14  C   UNL     1       8.824  -3.897  -0.448  1.00  0.00    -0.000 C 
BRANCH  14  15
ATOM     15  C   UNL     1       9.488  -2.569  -0.053  1.00  0.00    -0.000 C 
BRANCH  15  16
ATOM     16  C   UNL     1       8.893  -1.968   1.231  1.00  0.00    -0.000 C 
BRANCH  16  17
ATOM     17  C   UNL     1       9.135  -0.456   1.341  1.00  0.00    -0.003 C 
ATOM     18  C   UNL     1      10.433  -0.056   0.646  1.00  0.00     0.004 C 
ENDBRANCH  16  17
ENDBRANCH  15  16
ENDBRANCH  14  15
ENDBRANCH  13  14
ENDBRANCH  12  13
ENDBRANCH  11  12
ENDBRANCH   1  11
TORSDOF 14
ENDMDL
MODEL 2
REMARK VINA RESULT:    -2.964      1.299      1.961
REMARK INTER + INTRA:          -7.113
REMARK INTER:                  -5.024
REMARK INTRA:                  -2.090
REMARK UNBOUND:                -1.723
REMARK SMILES CCCCCCCCCCCCCCCC(=O)[O-]
REMARK SMILES IDX 9 1 10 2 11 3 12 4 13 5 14 6 15 7 16 8 17 9 18 10 8 11 7 12
REMARK SMILES IDX 6 13 5 14 4 15 3 16 2 17 1 18
REMARK H PARENT
REMARK Flexibility Score: inf
ROOT
ATOM      1  C   UNL     1       7.799  -1.633  -3.854  1.00  0.00     0.000 C 
ENDROOT
BRANCH   1   2
ATOM      2  C   UNL     1       6.878  -0.454  -3.487  1.00  0.00     0.000 C 
BRANCH   2   3
ATOM      3  C   UNL     1       7.335   0.375  -2.271  1.00  0.00     0.000 C 
BRANCH   3   4
ATOM      4  C   UNL     1       8.782   0.874  -2.397  1.00  0.00     0.000 C 
BRANCH   4   5
ATOM      5  C   UNL     1       9.150   1.793  -1.226  1.00  0.00     0.000 C 
BRANCH   5   6
ATOM      6  C   UNL     1       7.894   2.406  -0.591  1.00  0.00     0.006 C 
BRANCH   6   7
ATOM      7  C   UNL     1       8.132   2.848   0.859  1.00  0.00     0.053 C 
BRANCH   7   8
ATOM      8  C   UNL     1       7.158   3.903   1.285  1.00  0.00     0.041 C 
ATOM      9  O   UNL     1       7.064   4.228   2.498  1.00  0.00    -0.550 OA
ATOM     10  O   UNL     1       6.377   4.552   0.336  1.00  0.00    -0.550 OA
ENDBRANCH   7   8
ENDBRANCH   6   7
ENDBRANCH   5   6
ENDBRANCH   4   5
ENDBRANCH   3   4
ENDBRANCH   2   3
ENDBRANCH   1   2
BRANCH   1  11
ATOM     11  C   UNL     1       7.406  -2.986  -3.230  1.00  0.00     0.000 C 
BRANCH  11  12
ATOM     12  C   UNL     1       8.397  -3.488  -2.157  1.00  0.00    -0.000 C 
BRANCH  12  13
ATOM     13  C   UNL     1       9.701  -2.676  -2.136  1.00  0.00    -0.000 C 
BRANCH  13  14
ATOM     14  C   UNL     1      10.036  -2.211  -0.714  1.00  0.00    -0.000 C 
BRANCH  14  15
ATOM     15  C   UNL     1       8.757  -1.919   0.085  1.00  0.00    -0.000 C 
BRANCH  15  16
ATOM     16  C   UNL     1       8.983  -1.973   1.604  1.00  0.00    -0.000 C 
BRANCH  16  17
ATOM     17  C   UNL     1       8.989  -0.580   2.250  1.00  0.00    -0.003 C 
ATOM     18  C   UNL     1      10.326   0.121   2.027  1.00  0.00     0.004 C 
ENDBRANCH  16  17
ENDBRANCH  15  16
ENDBRANCH  14  15
ENDBRANCH  13  14
ENDBRANCH  12  13
ENDBRANCH  11  12
ENDBRANCH   1  11
TORSDOF 14
ENDMDL
MODEL 3
REMARK VINA RESULT:    -2.958      1.236      4.350
REMARK INTER + INTRA:          -7.103
REMARK INTER:                  -5.076
REMARK INTRA:                  -2.027
REMARK UNBOUND:                -1.723
REMARK SMILES CCCCCCCCCCCCCCCC(=O)[O-]
REMARK SMILES IDX 9 1 10 2 11 3 12 4 13 5 14 6 15 7 16 8 17 9 18 10 8 11 7 12
REMARK SMILES IDX 6 13 5 14 4 15 3 16 2 17 1 18
REMARK H PARENT
REMARK Flexibility Score: inf
ROOT
ATOM      1  C   UNL     1      10.890  -0.212  -0.751  1.00  0.00     0.000 C 
ENDROOT
BRANCH   1   2
ATOM      2  C   UNL     1      10.672  -0.949   0.583  1.00  0.00     0.000 C 
BRANCH   2   3
ATOM      3  C   UNL     1       9.268  -1.555   0.770  1.00  0.00     0.000 C 
BRANCH   3   4
ATOM      4  C   UNL     1       8.652  -1.228   2.137  1.00  0.00     0.000 C 
BRANCH   4   5
ATOM      5  C   UNL     1       9.175   0.110   2.671  1.00  0.00     0.000 C 
BRANCH   5   6
ATOM      6  C   UNL     1       8.035   1.126   2.824  1.00  0.00     0.006 C 
BRANCH   6   7
ATOM      7  C   UNL     1       8.433   2.525   2.333  1.00  0.00     0.053 C 
BRANCH   7   8
ATOM      8  C   UNL     1       7.286   3.486   2.408  1.00  0.00     0.041 C 
ATOM      9  O   UNL     1       6.883   3.908   3.524  1.00  0.00    -0.550 OA
ATOM     10  O   UNL     1       6.684   3.942   1.242  1.00  0.00    -0.550 OA
ENDBRANCH   7   8
ENDBRANCH   6   7
ENDBRANCH   5   6
ENDBRANCH   4   5
ENDBRANCH   3   4
ENDBRANCH   2   3
ENDBRANCH   1   2
BRANCH   1  11
ATOM     11  C   UNL     1      11.095   1.311  -0.629  1.00  0.00     0.000 C 
BRANCH  11  12
ATOM     12  C   UNL     1       9.987   2.145  -1.308  1.00  0.00    -0.000 C 
BRANCH  12  13
ATOM     13  C   UNL     1       8.586   1.562  -1.073  1.00  0.00    -0.000 C 
BRANCH  13  14
ATOM     14  C   UNL     1       7.772   1.542  -2.372  1.00  0.00    -0.000 C 
BRANCH  14  15
ATOM     15  C   UNL     1       7.095   0.179  -2.577  1.00  0.00    -0.000 C 
BRANCH  15  16
ATOM     16  C   UNL     1       8.075  -0.904  -3.055  1.00  0.00    -0.000 C 
BRANCH  16  17
ATOM     17  C   UNL     1       7.442  -2.303  -3.078  1.00  0.00    -0.003 C 
ATOM     18  C   UNL     1       8.248  -3.283  -2.229  1.00  0.00     0.004 C 
ENDBRANCH  16  17
ENDBRANCH  15  16
ENDBRANCH  14  15
ENDBRANCH  13  14
ENDBRANCH  12  13
ENDBRANCH  11  12
ENDBRANCH   1  11
TORSDOF 14
ENDMDL
MODEL 4
REMARK VINA RESULT:    -2.928      3.342      5.637
REMARK INTER + INTRA:          -7.048
REMARK INTER:                  -4.703
REMARK INTRA:                  -2.345
REMARK UNBOUND:                -1.723
REMARK SMILES CCCCCCCCCCCCCCCC(=O)[O-]
REMARK SMILES IDX 9 1 10 2 11 3 12 4 13 5 14 6 15 7 16 8 17 9 18 10 8 11 7 12
REMARK SMILES IDX 6 13 5 14 4 15 3 16 2 17 1 18
REMARK H PARENT
REMARK Flexibility Score: inf
ROOT
ATOM      1  C   UNL     1      11.267   1.185  -2.608  1.00  0.00     0.000 C 
ENDROOT
BRANCH   1   2
ATOM      2  C   UNL     1      11.490   0.283  -1.379  1.00  0.00     0.000 C 
BRANCH   2   3
ATOM      3  C   UNL     1      11.315  -1.225  -1.640  1.00  0.00     0.000 C 
BRANCH   3   4
ATOM      4  C   UNL     1      10.812  -1.991  -0.408  1.00  0.00     0.000 C 
BRANCH   4   5
ATOM      5  C   UNL     1      10.301  -1.027   0.668  1.00  0.00     0.000 C 
BRANCH   5   6
ATOM      6  C   UNL     1       9.045  -1.583   1.355  1.00  0.00     0.006 C 
BRANCH   6   7
ATOM      7  C   UNL     1       8.832  -3.072   1.057  1.00  0.00     0.053 C 
BRANCH   7   8
ATOM      8  C   UNL     1       8.649  -3.869   2.313  1.00  0.00     0.041 C 
ATOM      9  O   UNL     1       7.805  -4.802   2.356  1.00  0.00    -0.550 OA
ATOM     10  O   UNL     1       9.434  -3.600   3.427  1.00  0.00    -0.550 OA
ENDBRANCH   7   8
ENDBRANCH   6   7
ENDBRANCH   5   6
ENDBRANCH   4   5
ENDBRANCH   3   4
ENDBRANCH   2   3
ENDBRANCH   1   2
BRANCH   1  11
ATOM     11  C   UNL     1       9.973   2.022  -2.577  1.00  0.00     0.000 C 
BRANCH  11  12
ATOM     12  C   UNL     1       9.220   1.954  -1.231  1.00  0.00    -0.000 C 
BRANCH  12  13
ATOM     13  C   UNL     1       7.979   1.052  -1.295  1.00  0.00    -0.000 C 
BRANCH  13  14
ATOM     14  C   UNL     1       7.327   1.110  -2.681  1.00  0.00    -0.000 C 
BRANCH  14  15
ATOM     15  C   UNL     1       6.909  -0.292  -3.151  1.00  0.00    -0.000 C 
BRANCH  15  16
ATOM     16  C   UNL     1       7.682  -1.412  -2.437  1.00  0.00    -0.000 C 
BRANCH  16  17
ATOM     17  C   UNL     1       7.511  -2.776  -3.120  1.00  0.00    -0.003 C 
ATOM     18  C   UNL     1       8.348  -3.847  -2.426  1.00  0.00     0.004 C 
ENDBRANCH  16  17
ENDBRANCH  15  16
ENDBRANCH  14  15
ENDBRANCH  13  14
ENDBRANCH  12  13
ENDBRANCH  11  12
ENDBRANCH   1  11
TORSDOF 14
ENDMDL
MODEL 5
REMARK VINA RESULT:    -2.921      2.336      5.301
REMARK INTER + INTRA:          -7.035
REMARK INTER:                  -5.909
REMARK INTRA:                  -1.126
REMARK UNBOUND:                -1.723
REMARK SMILES CCCCCCCCCCCCCCCC(=O)[O-]
REMARK SMILES IDX 9 1 10 2 11 3 12 4 13 5 14 6 15 7 16 8 17 9 18 10 8 11 7 12
REMARK SMILES IDX 6 13 5 14 4 15 3 16 2 17 1 18
REMARK H PARENT
REMARK Flexibility Score: inf
ROOT
ATOM      1  C   UNL     1       7.891  -1.305  -2.561  1.00  0.00     0.000 C 
ENDROOT
BRANCH   1   2
ATOM      2  C   UNL     1       7.634  -2.786  -2.895  1.00  0.00     0.000 C 
BRANCH   2   3
ATOM      3  C   UNL     1       8.369  -3.794  -1.990  1.00  0.00     0.000 C 
BRANCH   3   4
ATOM      4  C   UNL     1       8.880  -3.166  -0.686  1.00  0.00     0.000 C 
BRANCH   4   5
ATOM      5  C   UNL     1       8.993  -4.218   0.424  1.00  0.00     0.000 C 
BRANCH   5   6
ATOM      6  C   UNL     1       8.610  -3.625   1.787  1.00  0.00     0.006 C 
BRANCH   6   7
ATOM      7  C   UNL     1       8.776  -2.100   1.824  1.00  0.00     0.053 C 
BRANCH   7   8
ATOM      8  C   UNL     1       9.860  -1.682   2.771  1.00  0.00     0.041 C 
ATOM      9  O   UNL     1       9.654  -1.684   4.013  1.00  0.00    -0.550 OA
ATOM     10  O   UNL     1      11.110  -1.323   2.281  1.00  0.00    -0.550 OA
ENDBRANCH   7   8
ENDBRANCH   6   7
ENDBRANCH   5   6
ENDBRANCH   4   5
ENDBRANCH   3   4
ENDBRANCH   2   3
ENDBRANCH   1   2
BRANCH   1  11
ATOM     11  C   UNL     1       6.916  -0.309  -3.218  1.00  0.00     0.000 C 
BRANCH  11  12
ATOM     12  C   UNL     1       7.087   1.145  -2.727  1.00  0.00    -0.000 C 
BRANCH  12  13
ATOM     13  C   UNL     1       7.932   1.239  -1.449  1.00  0.00    -0.000 C 
BRANCH  13  14
ATOM     14  C   UNL     1       7.927   2.666  -0.888  1.00  0.00    -0.000 C 
BRANCH  14  15
ATOM     15  C   UNL     1       8.425   2.688   0.565  1.00  0.00    -0.000 C 
BRANCH  15  16
ATOM     16  C   UNL     1       7.520   3.518   1.489  1.00  0.00    -0.000 C 
BRANCH  16  17
ATOM     17  C   UNL     1       7.261   2.827   2.836  1.00  0.00    -0.003 C 
ATOM     18  C   UNL     1       7.949   1.466   2.896  1.00  0.00     0.004 C 
ENDBRANCH  16  17
ENDBRANCH  15  16
ENDBRANCH  14  15
ENDBRANCH  13  14
ENDBRANCH  12  13
ENDBRANCH  11  12
ENDBRANCH   1  11
TORSDOF 14
ENDMDL
MODEL 6
REMARK VINA RESULT:    -2.916      1.175      3.594
REMARK INTER + INTRA:          -7.025
REMARK INTER:                  -5.303
REMARK INTRA:                  -1.722
REMARK UNBOUND:                -1.723
REMARK SMILES CCCCCCCCCCCCCCCC(=O)[O-]
REMARK SMILES IDX 9 1 10 2 11 3 12 4 13 5 14 6 15 7 16 8 17 9 18 10 8 11 7 12
REMARK SMILES IDX 6 13 5 14 4 15 3 16 2 17 1 18
REMARK H PARENT
REMARK Flexibility Score: inf
ROOT
ATOM      1  C   UNL     1       9.085  -4.277  -0.778  1.00  0.00     0.000 C 
ENDROOT
BRANCH   1   2
ATOM      2  C   UNL     1       9.440  -2.987  -0.016  1.00  0.00     0.000 C 
BRANCH   2   3
ATOM      3  C   UNL     1       9.099  -3.004   1.487  1.00  0.00     0.000 C 
BRANCH   3   4
ATOM      4  C   UNL     1       8.631  -1.639   2.010  1.00  0.00     0.000 C 
BRANCH   4   5
ATOM      5  C   UNL     1       9.112  -0.505   1.098  1.00  0.00     0.000 C 
BRANCH   5   6
ATOM      6  C   UNL     1       9.299   0.797   1.890  1.00  0.00     0.006 C 
BRANCH   6   7
ATOM      7  C   UNL     1       8.312   1.888   1.456  1.00  0.00     0.053 C 
BRANCH   7   8
ATOM      8  C   UNL     1       7.542   2.435   2.619  1.00  0.00     0.041 C 
ATOM      9  O   UNL     1       6.814   3.452   2.477  1.00  0.00    -0.550 OA
ATOM     10  O   UNL     1       7.604   1.800   3.853  1.00  0.00    -0.550 OA
ENDBRANCH   7   8
ENDBRANCH   6   7
ENDBRANCH   5   6
ENDBRANCH   4   5
ENDBRANCH   3   4
ENDBRANCH   2   3
ENDBRANCH   1   2
BRANCH   1  11
ATOM     11  C   UNL     1       9.634  -4.358  -2.216  1.00  0.00     0.000 C 
BRANCH  11  12
ATOM     12  C   UNL     1       9.120  -3.235  -3.142  1.00  0.00    -0.000 C 
BRANCH  12  13
ATOM     13  C   UNL     1       7.590  -3.227  -3.264  1.00  0.00    -0.000 C 
BRANCH  13  14
ATOM     14  C   UNL     1       7.057  -1.799  -3.424  1.00  0.00    -0.000 C 
BRANCH  14  15
ATOM     15  C   UNL     1       7.576  -0.889  -2.300  1.00  0.00    -0.000 C 
BRANCH  15  16
ATOM     16  C   UNL     1       7.184   0.583  -2.500  1.00  0.00    -0.000 C 
BRANCH  16  17
ATOM     17  C   UNL     1       8.308   1.552  -2.107  1.00  0.00    -0.003 C 
ATOM     18  C   UNL     1       9.677   0.894  -2.260  1.00  0.00     0.004 C 
ENDBRANCH  16  17
ENDBRANCH  15  16
ENDBRANCH  14  15
ENDBRANCH  13  14
ENDBRANCH  12  13
ENDBRANCH  11  12
ENDBRANCH   1  11
TORSDOF 14
ENDMDL
MODEL 7
REMARK VINA RESULT:    -2.889      1.107      2.608
REMARK INTER + INTRA:          -6.977
REMARK INTER:                  -5.581
REMARK INTRA:                  -1.397
REMARK UNBOUND:                -1.723
REMARK SMILES CCCCCCCCCCCCCCCC(=O)[O-]
REMARK SMILES IDX 9 1 10 2 11 3 12 4 13 5 14 6 15 7 16 8 17 9 18 10 8 11 7 12
REMARK SMILES IDX 6 13 5 14 4 15 3 16 2 17 1 18
REMARK H PARENT
REMARK Flexibility Score: inf
ROOT
ATOM      1  C   UNL     1       8.403   1.011  -1.938  1.00  0.00     0.000 C 
ENDROOT
BRANCH   1   2
ATOM      2  C   UNL     1       9.072   1.575  -0.671  1.00  0.00     0.000 C 
BRANCH   2   3
ATOM      3  C   UNL     1       9.156   0.593   0.513  1.00  0.00     0.000 C 
BRANCH   3   4
ATOM      4  C   UNL     1       9.285   1.299   1.870  1.00  0.00     0.000 C 
BRANCH   4   5
ATOM      5  C   UNL     1       8.242   0.776   2.864  1.00  0.00     0.000 C 
BRANCH   5   6
ATOM      6  C   UNL     1       7.319   1.907   3.341  1.00  0.00     0.006 C 
BRANCH   6   7
ATOM      7  C   UNL     1       7.490   3.185   2.511  1.00  0.00     0.053 C 
BRANCH   7   8
ATOM      8  C   UNL     1       7.621   4.399   3.381  1.00  0.00     0.041 C 
ATOM      9  O   UNL     1       6.745   4.654   4.249  1.00  0.00    -0.550 OA
ATOM     10  O   UNL     1       8.728   5.228   3.256  1.00  0.00    -0.550 OA
ENDBRANCH   7   8
ENDBRANCH   6   7
ENDBRANCH   5   6
ENDBRANCH   4   5
ENDBRANCH   3   4
ENDBRANCH   2   3
ENDBRANCH   1   2
BRANCH   1  11
ATOM     11  C   UNL     1       7.812  -0.404  -1.789  1.00  0.00     0.000 C 
BRANCH  11  12
ATOM     12  C   UNL     1       7.226  -0.975  -3.098  1.00  0.00    -0.000 C 
BRANCH  12  13
ATOM     13  C   UNL     1       7.369  -2.501  -3.192  1.00  0.00    -0.000 C 
BRANCH  13  14
ATOM     14  C   UNL     1       8.675  -2.972  -2.541  1.00  0.00    -0.000 C 
BRANCH  14  15
ATOM     15  C   UNL     1       8.503  -4.361  -1.907  1.00  0.00    -0.000 C 
BRANCH  15  16
ATOM     16  C   UNL     1       9.095  -4.443  -0.491  1.00  0.00    -0.000 C 
BRANCH  16  17
ATOM     17  C   UNL     1       9.248  -3.064   0.165  1.00  0.00    -0.003 C 
ATOM     18  C   UNL     1       8.640  -3.052   1.565  1.00  0.00     0.004 C 
ENDBRANCH  16  17
ENDBRANCH  15  16
ENDBRANCH  14  15
ENDBRANCH  13  14
ENDBRANCH  12  13
ENDBRANCH  11  12
ENDBRANCH   1  11
TORSDOF 14
ENDMDL
MODEL 8
REMARK VINA RESULT:    -2.884      1.057      3.667
REMARK INTER + INTRA:          -6.968
REMARK INTER:                  -5.448
REMARK INTRA:                  -1.520
REMARK UNBOUND:                -1.723
REMARK SMILES CCCCCCCCCCCCCCCC(=O)[O-]
REMARK SMILES IDX 9 1 10 2 11 3 12 4 13 5 14 6 15 7 16 8 17 9 18 10 8 11 7 12
REMARK SMILES IDX 6 13 5 14 4 15 3 16 2 17 1 18
REMARK H PARENT
REMARK Flexibility Score: inf
ROOT
ATOM      1  C   UNL     1       9.005  -2.874   0.849  1.00  0.00     0.000 C 
ENDROOT
BRANCH   1   2
ATOM      2  C   UNL     1      10.385  -2.504   1.424  1.00  0.00     0.000 C 
BRANCH   2   3
ATOM      3  C   UNL     1      10.715  -0.999   1.406  1.00  0.00     0.000 C 
BRANCH   3   4
ATOM      4  C   UNL     1       9.465  -0.113   1.308  1.00  0.00     0.000 C 
BRANCH   4   5
ATOM      5  C   UNL     1       9.746   1.146   0.480  1.00  0.00     0.000 C 
BRANCH   5   6
ATOM      6  C   UNL     1       8.806   2.291   0.881  1.00  0.00     0.006 C 
BRANCH   6   7
ATOM      7  C   UNL     1       8.190   2.077   2.270  1.00  0.00     0.053 C 
BRANCH   7   8
ATOM      8  C   UNL     1       7.263   3.194   2.644  1.00  0.00     0.041 C 
ATOM      9  O   UNL     1       6.897   3.342   3.839  1.00  0.00    -0.550 OA
ATOM     10  O   UNL     1       6.830   4.092   1.676  1.00  0.00    -0.550 OA
ENDBRANCH   7   8
ENDBRANCH   6   7
ENDBRANCH   5   6
ENDBRANCH   4   5
ENDBRANCH   3   4
ENDBRANCH   2   3
ENDBRANCH   1   2
BRANCH   1  11
ATOM     11  C   UNL     1       8.965  -4.185   0.039  1.00  0.00     0.000 C 
BRANCH  11  12
ATOM     12  C   UNL     1       9.131  -3.982  -1.482  1.00  0.00    -0.000 C 
BRANCH  12  13
ATOM     13  C   UNL     1       8.812  -2.545  -1.922  1.00  0.00    -0.000 C 
BRANCH  13  14
ATOM     14  C   UNL     1       7.540  -2.500  -2.776  1.00  0.00    -0.000 C 
BRANCH  14  15
ATOM     15  C   UNL     1       7.192  -1.056  -3.169  1.00  0.00    -0.000 C 
BRANCH  15  16
ATOM     16  C   UNL     1       7.510  -0.046  -2.056  1.00  0.00    -0.000 C 
BRANCH  16  17
ATOM     17  C   UNL     1       7.757   1.370  -2.597  1.00  0.00    -0.003 C 
ATOM     18  C   UNL     1       6.456   2.010  -3.072  1.00  0.00     0.004 C 
ENDBRANCH  16  17
ENDBRANCH  15  16
ENDBRANCH  14  15
ENDBRANCH  13  14
ENDBRANCH  12  13
ENDBRANCH  11  12
ENDBRANCH   1  11
TORSDOF 14
ENDMDL
MODEL 9
REMARK VINA RESULT:    -2.819      1.163      3.384
REMARK INTER + INTRA:          -6.850
REMARK INTER:                  -5.311
REMARK INTRA:                  -1.539
REMARK UNBOUND:                -1.723
REMARK SMILES CCCCCCCCCCCCCCCC(=O)[O-]
REMARK SMILES IDX 9 1 10 2 11 3 12 4 13 5 14 6 15 7 16 8 17 9 18 10 8 11 7 12
REMARK SMILES IDX 6 13 5 14 4 15 3 16 2 17 1 18
REMARK H PARENT
REMARK Flexibility Score: inf
ROOT
ATOM      1  C   UNL     1      10.411  -1.681   0.733  1.00  0.00     0.000 C 
ENDROOT
BRANCH   1   2
ATOM      2  C   UNL     1       9.025  -1.203   1.206  1.00  0.00     0.000 C 
BRANCH   2   3
ATOM      3  C   UNL     1       8.993  -0.609   2.627  1.00  0.00     0.000 C 
BRANCH   3   4
ATOM      4  C   UNL     1       8.416   0.813   2.669  1.00  0.00     0.000 C 
BRANCH   4   5
ATOM      5  C   UNL     1       8.723   1.570   1.372  1.00  0.00     0.000 C 
BRANCH   5   6
ATOM      6  C   UNL     1       7.998   2.923   1.338  1.00  0.00     0.006 C 
BRANCH   6   7
ATOM      7  C   UNL     1       8.686   3.972   2.222  1.00  0.00     0.053 C 
BRANCH   7   8
ATOM      8  C   UNL     1       7.690   4.846   2.922  1.00  0.00     0.041 C 
ATOM      9  O   UNL     1       7.587   6.063   2.614  1.00  0.00    -0.550 OA
ATOM     10  O   UNL     1       6.854   4.309   3.892  1.00  0.00    -0.550 OA
ENDBRANCH   7   8
ENDBRANCH   6   7
ENDBRANCH   5   6
ENDBRANCH   4   5
ENDBRANCH   3   4
ENDBRANCH   2   3
ENDBRANCH   1   2
BRANCH   1  11
ATOM     11  C   UNL     1      10.449  -3.115   0.171  1.00  0.00     0.000 C 
BRANCH  11  12
ATOM     12  C   UNL     1       9.058  -3.774   0.052  1.00  0.00    -0.000 C 
BRANCH  12  13
ATOM     13  C   UNL     1       8.840  -4.448  -1.311  1.00  0.00    -0.000 C 
BRANCH  13  14
ATOM     14  C   UNL     1       8.939  -3.428  -2.451  1.00  0.00    -0.000 C 
BRANCH  14  15
ATOM     15  C   UNL     1       7.557  -3.151  -3.062  1.00  0.00    -0.000 C 
BRANCH  15  16
ATOM     16  C   UNL     1       7.217  -1.653  -3.102  1.00  0.00    -0.000 C 
BRANCH  16  17
ATOM     17  C   UNL     1       8.188  -0.805  -2.268  1.00  0.00    -0.003 C 
ATOM     18  C   UNL     1       7.601   0.573  -1.975  1.00  0.00     0.004 C 
ENDBRANCH  16  17
ENDBRANCH  15  16
ENDBRANCH  14  15
ENDBRANCH  13  14
ENDBRANCH  12  13
ENDBRANCH  11  12
ENDBRANCH   1  11
TORSDOF 14
ENDMDL
