MODEL 1
REMARK VINA RESULT:    -8.766      0.000      0.000
REMARK INTER + INTRA:         -13.863
REMARK INTER:                 -12.097
REMARK INTRA:                  -1.766
REMARK UNBOUND:                -1.766
REMARK SMILES CC[C@H](CC[C@H](C)[C@H]1CC[C@H]2[C@H]3CC=C4C[C@@H](O)CC[C@@]4(C)[C@@H]3CC[C@@]12C)C(C)C
REMARK SMILES IDX 5 1 4 2 3 3 2 4 1 5 28 6 29 7 30 8 6 9 7 10 8 11 9 12 26 13
REMARK SMILES IDX 10 14 11 15 25 16 27 17 12 18 24 19 23 20 13 21 21 22 14 23
REMARK SMILES IDX 15 24 20 25 22 26 16 27 19 28 17 29 18 30
REMARK H PARENT 18 31
REMARK Flexibility Score: inf
ROOT
ATOM      1  C   UNL     1     -13.094 -27.430 -10.360  1.00  0.00     0.004 C 
ENDROOT
BRANCH   1   2
ATOM      2  C   UNL     1     -11.814 -27.504  -9.483  1.00  0.00     0.004 C 
BRANCH   2   3
ATOM      3  C   UNL     1     -11.103 -28.893  -9.312  1.00  0.00    -0.009 C 
BRANCH   3   4
ATOM      4  C   UNL     1      -9.832 -29.023 -10.204  1.00  0.00     0.000 C 
ATOM      5  C   UNL     1      -9.758 -30.362 -10.948  1.00  0.00     0.004 C 
ENDBRANCH   3   4
BRANCH   3   6
ATOM      6  C   UNL     1     -10.883 -29.294  -7.805  1.00  0.00    -0.014 C 
ATOM      7  C   UNL     1     -11.414 -30.713  -7.516  1.00  0.00     0.007 C 
ATOM      8  C   UNL     1      -9.408 -29.240  -7.366  1.00  0.00     0.007 C 
ENDBRANCH   3   6
ENDBRANCH   2   3
ENDBRANCH   1   2
BRANCH   1   9
ATOM      9  C   UNL     1     -13.035 -28.111 -11.754  1.00  0.00    -0.011 C 
ATOM     10  C   UNL     1     -12.985 -27.041 -12.867  1.00  0.00     0.008 C 
BRANCH   9  11
ATOM     11  C   UNL     1     -14.213 -29.149 -11.893  1.00  0.00    -0.002 C 
ATOM     12  C   UNL     1     -15.220 -28.913 -13.027  1.00  0.00     0.005 C 
ATOM     13  C   UNL     1     -13.838 -30.657 -11.977  1.00  0.00    -0.026 C 
ATOM     14  C   UNL     1     -15.840 -30.281 -13.333  1.00  0.00     0.005 C 
ATOM     15  C   UNL     1     -15.194 -31.290 -12.362  1.00  0.00    -0.001 C 
ATOM     16  C   UNL     1     -12.784 -30.933 -13.088  1.00  0.00     0.007 C 
ATOM     17  C   UNL     1     -13.346 -31.180 -10.603  1.00  0.00     0.012 C 
ATOM     18  C   UNL     1     -15.110 -32.766 -12.865  1.00  0.00     0.000 C 
ATOM     19  C   UNL     1     -12.661 -32.417 -13.436  1.00  0.00     0.005 C 
ATOM     20  C   UNL     1     -14.011 -32.994 -13.934  1.00  0.00     0.003 C 
ATOM     21  C   UNL     1     -16.475 -33.249 -13.383  1.00  0.00     0.031 C 
ATOM     22  C   UNL     1     -13.916 -34.511 -14.373  1.00  0.00    -0.008 C 
ATOM     23  C   UNL     1     -16.420 -34.607 -14.015  1.00  0.00    -0.027 C 
ATOM     24  C   UNL     1     -15.314 -35.111 -14.602  1.00  0.00    -0.065 C 
ATOM     25  C   UNL     1     -13.115 -34.594 -15.713  1.00  0.00     0.014 C 
ATOM     26  C   UNL     1     -13.200 -35.372 -13.295  1.00  0.00     0.016 C 
ATOM     27  C   UNL     1     -15.434 -36.426 -15.353  1.00  0.00     0.063 C 
ATOM     28  C   UNL     1     -13.187 -35.968 -16.397  1.00  0.00     0.033 C 
ATOM     29  C   UNL     1     -14.639 -36.392 -16.660  1.00  0.00     0.118 C 
BRANCH  29  30
ATOM     30  O   UNL     1     -15.253 -35.506 -17.563  1.00  0.00    -0.393 OA
ATOM     31  H   UNL     1     -15.576 -36.054 -18.325  1.00  0.00     0.210 HD
ENDBRANCH  29  30
ENDBRANCH   9  11
ENDBRANCH   1   9
TORSDOF 7
ENDMDL
MODEL 2
REMARK VINA RESULT:    -7.809      2.135      4.561
REMARK INTER + INTRA:         -12.542
REMARK INTER:                 -11.044
REMARK INTRA:                  -1.498
REMARK UNBOUND:                -1.766
REMARK SMILES CC[C@H](CC[C@H](C)[C@H]1CC[C@H]2[C@H]3CC=C4C[C@@H](O)CC[C@@]4(C)[C@@H]3CC[C@@]12C)C(C)C
REMARK SMILES IDX 5 1 4 2 3 3 2 4 1 5 28 6 29 7 30 8 6 9 7 10 8 11 9 12 26 13
REMARK SMILES IDX 10 14 11 15 25 16 27 17 12 18 24 19 23 20 13 21 21 22 14 23
REMARK SMILES IDX 15 24 20 25 22 26 16 27 19 28 17 29 18 30
REMARK H PARENT 18 31
REMARK Flexibility Score: inf
ROOT
ATOM      1  C   UNL     1      -9.153 -30.578  -7.975  1.00  0.00     0.004 C 
ENDROOT
BRANCH   1   2
ATOM      2  C   UNL     1     -10.071 -29.472  -7.385  1.00  0.00     0.004 C 
BRANCH   2   3
ATOM      3  C   UNL     1     -10.505 -28.285  -8.313  1.00  0.00    -0.009 C 
BRANCH   3   4
ATOM      4  C   UNL     1      -9.306 -27.677  -9.101  1.00  0.00     0.000 C 
ATOM      5  C   UNL     1      -9.148 -26.168  -8.879  1.00  0.00     0.004 C 
ENDBRANCH   3   4
BRANCH   3   6
ATOM      6  C   UNL     1     -11.762 -28.622  -9.202  1.00  0.00    -0.014 C 
ATOM      7  C   UNL     1     -12.692 -29.633  -8.502  1.00  0.00     0.007 C 
ATOM      8  C   UNL     1     -12.599 -27.385  -9.575  1.00  0.00     0.007 C 
ENDBRANCH   3   6
ENDBRANCH   2   3
ENDBRANCH   1   2
BRANCH   1   9
ATOM      9  C   UNL     1      -9.764 -31.997  -8.125  1.00  0.00    -0.011 C 
ATOM     10  C   UNL     1      -9.371 -32.876  -6.917  1.00  0.00     0.008 C 
BRANCH   9  11
ATOM     11  C   UNL     1      -9.379 -32.600  -9.529  1.00  0.00    -0.002 C 
ATOM     12  C   UNL     1      -9.125 -34.114  -9.592  1.00  0.00     0.005 C 
ATOM     13  C   UNL     1     -10.316 -32.286 -10.730  1.00  0.00    -0.026 C 
ATOM     14  C   UNL     1      -9.378 -34.523 -11.047  1.00  0.00     0.005 C 
ATOM     15  C   UNL     1      -9.762 -33.241 -11.811  1.00  0.00    -0.001 C 
ATOM     16  C   UNL     1     -11.800 -32.636 -10.417  1.00  0.00     0.007 C 
ATOM     17  C   UNL     1     -10.175 -30.805 -11.167  1.00  0.00     0.012 C 
ATOM     18  C   UNL     1     -10.689 -33.435 -13.053  1.00  0.00     0.000 C 
ATOM     19  C   UNL     1     -12.677 -32.678 -11.669  1.00  0.00     0.005 C 
ATOM     20  C   UNL     1     -12.164 -33.732 -12.683  1.00  0.00     0.003 C 
ATOM     21  C   UNL     1     -10.137 -34.526 -13.986  1.00  0.00     0.031 C 
ATOM     22  C   UNL     1     -13.083 -33.862 -13.965  1.00  0.00    -0.008 C 
ATOM     23  C   UNL     1     -11.061 -34.859 -15.118  1.00  0.00    -0.027 C 
ATOM     24  C   UNL     1     -12.401 -34.712 -15.052  1.00  0.00    -0.065 C 
ATOM     25  C   UNL     1     -14.419 -34.561 -13.553  1.00  0.00     0.014 C 
ATOM     26  C   UNL     1     -13.402 -32.471 -14.580  1.00  0.00     0.016 C 
ATOM     27  C   UNL     1     -13.240 -35.242 -16.201  1.00  0.00     0.063 C 
ATOM     28  C   UNL     1     -15.283 -35.003 -14.745  1.00  0.00     0.033 C 
ATOM     29  C   UNL     1     -14.507 -35.931 -15.690  1.00  0.00     0.118 C 
BRANCH  29  30
ATOM     30  O   UNL     1     -14.162 -37.125 -15.033  1.00  0.00    -0.393 OA
ATOM     31  H   UNL     1     -13.858 -37.760 -15.733  1.00  0.00     0.210 HD
ENDBRANCH  29  30
ENDBRANCH   9  11
ENDBRANCH   1   9
TORSDOF 7
ENDMDL
MODEL 3
REMARK VINA RESULT:    -7.559      3.569      6.790
REMARK INTER + INTRA:         -12.197
REMARK INTER:                 -11.826
REMARK INTRA:                  -0.370
REMARK UNBOUND:                -1.766
REMARK SMILES CC[C@H](CC[C@H](C)[C@H]1CC[C@H]2[C@H]3CC=C4C[C@@H](O)CC[C@@]4(C)[C@@H]3CC[C@@]12C)C(C)C
REMARK SMILES IDX 5 1 4 2 3 3 2 4 1 5 28 6 29 7 30 8 6 9 7 10 8 11 9 12 26 13
REMARK SMILES IDX 10 14 11 15 25 16 27 17 12 18 24 19 23 20 13 21 21 22 14 23
REMARK SMILES IDX 15 24 20 25 22 26 16 27 19 28 17 29 18 30
REMARK H PARENT 18 31
REMARK Flexibility Score: inf
ROOT
ATOM      1  C   UNL     1      -8.924 -31.780  -9.451  1.00  0.00     0.004 C 
ENDROOT
BRANCH   1   2
ATOM      2  C   UNL     1      -8.878 -33.331  -9.369  1.00  0.00     0.004 C 
BRANCH   2   3
ATOM      3  C   UNL     1      -9.330 -34.161 -10.621  1.00  0.00    -0.009 C 
BRANCH   3   4
ATOM      4  C   UNL     1      -9.631 -35.649 -10.271  1.00  0.00     0.000 C 
ATOM      5  C   UNL     1      -9.199 -36.622 -11.375  1.00  0.00     0.004 C 
ENDBRANCH   3   4
BRANCH   3   6
ATOM      6  C   UNL     1     -10.460 -33.450 -11.459  1.00  0.00    -0.014 C 
ATOM      7  C   UNL     1     -10.134 -33.462 -12.966  1.00  0.00     0.007 C 
ATOM      8  C   UNL     1     -11.852 -34.080 -11.268  1.00  0.00     0.007 C 
ENDBRANCH   3   6
ENDBRANCH   2   3
ENDBRANCH   1   2
BRANCH   1   9
ATOM      9  C   UNL     1      -8.876 -31.000  -8.110  1.00  0.00    -0.011 C 
ATOM     10  C   UNL     1      -8.935 -31.982  -6.919  1.00  0.00     0.008 C 
BRANCH   9  11
ATOM     11  C   UNL     1      -9.991 -29.886  -8.098  1.00  0.00    -0.002 C 
ATOM     12  C   UNL     1      -9.533 -28.439  -8.334  1.00  0.00     0.005 C 
ATOM     13  C   UNL     1     -11.222 -30.089  -9.027  1.00  0.00    -0.026 C 
ATOM     14  C   UNL     1     -10.759 -27.692  -8.871  1.00  0.00     0.005 C 
ATOM     15  C   UNL     1     -11.914 -28.711  -8.926  1.00  0.00    -0.001 C 
ATOM     16  C   UNL     1     -10.801 -30.370 -10.499  1.00  0.00     0.007 C 
ATOM     17  C   UNL     1     -12.140 -31.216  -8.488  1.00  0.00     0.012 C 
ATOM     18  C   UNL     1     -13.010 -28.446 -10.008  1.00  0.00     0.000 C 
ATOM     19  C   UNL     1     -11.958 -30.220 -11.487  1.00  0.00     0.005 C 
ATOM     20  C   UNL     1     -12.552 -28.789 -11.448  1.00  0.00     0.003 C 
ATOM     21  C   UNL     1     -13.516 -26.995  -9.933  1.00  0.00     0.031 C 
ATOM     22  C   UNL     1     -13.708 -28.565 -12.506  1.00  0.00    -0.008 C 
ATOM     23  C   UNL     1     -14.460 -26.642 -11.042  1.00  0.00    -0.027 C 
ATOM     24  C   UNL     1     -14.442 -27.237 -12.253  1.00  0.00    -0.065 C 
ATOM     25  C   UNL     1     -13.075 -28.519 -13.934  1.00  0.00     0.014 C 
ATOM     26  C   UNL     1     -14.761 -29.707 -12.450  1.00  0.00     0.016 C 
ATOM     27  C   UNL     1     -15.336 -26.674 -13.345  1.00  0.00     0.063 C 
ATOM     28  C   UNL     1     -14.039 -28.029 -15.027  1.00  0.00     0.033 C 
ATOM     29  C   UNL     1     -14.613 -26.646 -14.693  1.00  0.00     0.118 C 
BRANCH  29  30
ATOM     30  O   UNL     1     -13.589 -25.684 -14.659  1.00  0.00    -0.393 OA
ATOM     31  H   UNL     1     -12.822 -26.099 -14.183  1.00  0.00     0.210 HD
ENDBRANCH  29  30
ENDBRANCH   9  11
ENDBRANCH   1   9
TORSDOF 7
ENDMDL
MODEL 4
REMARK VINA RESULT:    -7.382      2.682      7.730
REMARK INTER + INTRA:         -11.953
REMARK INTER:                 -11.274
REMARK INTRA:                  -0.679
REMARK UNBOUND:                -1.766
REMARK SMILES CC[C@H](CC[C@H](C)[C@H]1CC[C@H]2[C@H]3CC=C4C[C@@H](O)CC[C@@]4(C)[C@@H]3CC[C@@]12C)C(C)C
REMARK SMILES IDX 5 1 4 2 3 3 2 4 1 5 28 6 29 7 30 8 6 9 7 10 8 11 9 12 26 13
REMARK SMILES IDX 10 14 11 15 25 16 27 17 12 18 24 19 23 20 13 21 21 22 14 23
REMARK SMILES IDX 15 24 20 25 22 26 16 27 19 28 17 29 18 30
REMARK H PARENT 18 31
REMARK Flexibility Score: inf
ROOT
ATOM      1  C   UNL     1     -15.252 -34.862 -14.577  1.00  0.00     0.004 C 
ENDROOT
BRANCH   1   2
ATOM      2  C   UNL     1     -14.123 -35.641 -13.849  1.00  0.00     0.004 C 
BRANCH   2   3
ATOM      3  C   UNL     1     -12.880 -36.110 -14.682  1.00  0.00    -0.009 C 
BRANCH   3   4
ATOM      4  C   UNL     1     -12.926 -35.605 -16.155  1.00  0.00     0.000 C 
ATOM      5  C   UNL     1     -13.941 -36.367 -17.017  1.00  0.00     0.004 C 
ENDBRANCH   3   4
BRANCH   3   6
ATOM      6  C   UNL     1     -11.510 -35.849 -13.949  1.00  0.00    -0.014 C 
ATOM      7  C   UNL     1     -10.611 -34.892 -14.759  1.00  0.00     0.007 C 
ATOM      8  C   UNL     1     -11.673 -35.265 -12.534  1.00  0.00     0.007 C 
ENDBRANCH   3   6
ENDBRANCH   2   3
ENDBRANCH   1   2
BRANCH   1   9
ATOM      9  C   UNL     1     -16.175 -33.972 -13.701  1.00  0.00    -0.011 C 
ATOM     10  C   UNL     1     -17.656 -34.321 -13.963  1.00  0.00     0.008 C 
BRANCH   9  11
ATOM     11  C   UNL     1     -15.810 -32.453 -13.912  1.00  0.00    -0.002 C 
ATOM     12  C   UNL     1     -16.802 -31.416 -13.365  1.00  0.00     0.005 C 
ATOM     13  C   UNL     1     -14.407 -31.976 -13.439  1.00  0.00    -0.026 C 
ATOM     14  C   UNL     1     -15.991 -30.135 -13.139  1.00  0.00     0.005 C 
ATOM     15  C   UNL     1     -14.543 -30.442 -13.570  1.00  0.00    -0.001 C 
ATOM     16  C   UNL     1     -14.130 -32.364 -11.957  1.00  0.00     0.007 C 
ATOM     17  C   UNL     1     -13.296 -32.521 -14.373  1.00  0.00     0.012 C 
ATOM     18  C   UNL     1     -13.426 -29.620 -12.852  1.00  0.00     0.000 C 
ATOM     19  C   UNL     1     -12.937 -31.615 -11.361  1.00  0.00     0.005 C 
ATOM     20  C   UNL     1     -13.157 -30.081 -11.398  1.00  0.00     0.003 C 
ATOM     21  C   UNL     1     -13.738 -28.115 -12.893  1.00  0.00     0.031 C 
ATOM     22  C   UNL     1     -11.979 -29.266 -10.725  1.00  0.00    -0.008 C 
ATOM     23  C   UNL     1     -12.778 -27.290 -12.091  1.00  0.00    -0.027 C 
ATOM     24  C   UNL     1     -12.107 -27.762 -11.019  1.00  0.00    -0.065 C 
ATOM     25  C   UNL     1     -12.045 -29.478  -9.178  1.00  0.00     0.014 C 
ATOM     26  C   UNL     1     -10.592 -29.736 -11.246  1.00  0.00     0.016 C 
ATOM     27  C   UNL     1     -11.294 -26.781 -10.192  1.00  0.00     0.063 C 
ATOM     28  C   UNL     1     -11.139 -28.526  -8.380  1.00  0.00     0.033 C 
ATOM     29  C   UNL     1     -11.450 -27.056  -8.695  1.00  0.00     0.118 C 
BRANCH  29  30
ATOM     30  O   UNL     1     -12.757 -26.733  -8.290  1.00  0.00    -0.393 OA
ATOM     31  H   UNL     1     -12.712 -26.514  -7.323  1.00  0.00     0.210 HD
ENDBRANCH  29  30
ENDBRANCH   9  11
ENDBRANCH   1   9
TORSDOF 7
ENDMDL
MODEL 5
REMARK VINA RESULT:    -7.272      2.947      7.528
REMARK INTER + INTRA:         -11.802
REMARK INTER:                 -10.692
REMARK INTRA:                  -1.110
REMARK UNBOUND:                -1.766
REMARK SMILES CC[C@H](CC[C@H](C)[C@H]1CC[C@H]2[C@H]3CC=C4C[C@@H](O)CC[C@@]4(C)[C@@H]3CC[C@@]12C)C(C)C
REMARK SMILES IDX 5 1 4 2 3 3 2 4 1 5 28 6 29 7 30 8 6 9 7 10 8 11 9 12 26 13
REMARK SMILES IDX 10 14 11 15 25 16 27 17 12 18 24 19 23 20 13 21 21 22 14 23
REMARK SMILES IDX 15 24 20 25 22 26 16 27 19 28 17 29 18 30
REMARK H PARENT 18 31
REMARK Flexibility Score: inf
ROOT
ATOM      1  C   UNL     1     -13.415 -35.638 -15.102  1.00  0.00     0.004 C 
ENDROOT
BRANCH   1   2
ATOM      2  C   UNL     1     -12.356 -36.537 -14.408  1.00  0.00     0.004 C 
BRANCH   2   3
ATOM      3  C   UNL     1     -11.215 -35.848 -13.581  1.00  0.00    -0.009 C 
BRANCH   3   4
ATOM      4  C   UNL     1     -11.040 -36.481 -12.168  1.00  0.00     0.000 C 
ATOM      5  C   UNL     1     -10.507 -35.487 -11.129  1.00  0.00     0.004 C 
ENDBRANCH   3   4
BRANCH   3   6
ATOM      6  C   UNL     1      -9.874 -35.687 -14.391  1.00  0.00    -0.014 C 
ATOM      7  C   UNL     1      -9.158 -34.366 -14.039  1.00  0.00     0.007 C 
ATOM      8  C   UNL     1      -8.880 -36.841 -14.167  1.00  0.00     0.007 C 
ENDBRANCH   3   6
ENDBRANCH   2   3
ENDBRANCH   1   2
BRANCH   1   9
ATOM      9  C   UNL     1     -14.612 -35.159 -14.237  1.00  0.00    -0.011 C 
ATOM     10  C   UNL     1     -15.896 -35.918 -14.636  1.00  0.00     0.008 C 
BRANCH   9  11
ATOM     11  C   UNL     1     -14.728 -33.589 -14.306  1.00  0.00    -0.002 C 
ATOM     12  C   UNL     1     -16.034 -32.963 -13.793  1.00  0.00     0.005 C 
ATOM     13  C   UNL     1     -13.586 -32.752 -13.663  1.00  0.00    -0.026 C 
ATOM     14  C   UNL     1     -15.685 -31.524 -13.401  1.00  0.00     0.005 C 
ATOM     15  C   UNL     1     -14.186 -31.328 -13.704  1.00  0.00    -0.001 C 
ATOM     16  C   UNL     1     -13.312 -33.176 -12.191  1.00  0.00     0.007 C 
ATOM     17  C   UNL     1     -12.293 -32.837 -14.515  1.00  0.00     0.012 C 
ATOM     18  C   UNL     1     -13.441 -30.276 -12.823  1.00  0.00     0.000 C 
ATOM     19  C   UNL     1     -12.463 -32.158 -11.428  1.00  0.00     0.005 C 
ATOM     20  C   UNL     1     -13.150 -30.770 -11.383  1.00  0.00     0.003 C 
ATOM     21  C   UNL     1     -14.206 -28.943 -12.793  1.00  0.00     0.031 C 
ATOM     22  C   UNL     1     -12.342 -29.700 -10.542  1.00  0.00    -0.008 C 
ATOM     23  C   UNL     1     -13.616 -27.944 -11.845  1.00  0.00    -0.027 C 
ATOM     24  C   UNL     1     -12.914 -28.287 -10.745  1.00  0.00    -0.065 C 
ATOM     25  C   UNL     1     -12.453 -30.069  -9.027  1.00  0.00     0.014 C 
ATOM     26  C   UNL     1     -10.842 -29.670 -10.951  1.00  0.00     0.016 C 
ATOM     27  C   UNL     1     -12.513 -27.187  -9.776  1.00  0.00     0.063 C 
ATOM     28  C   UNL     1     -11.954 -28.966  -8.080  1.00  0.00     0.033 C 
ATOM     29  C   UNL     1     -12.686 -27.639  -8.324  1.00  0.00     0.118 C 
BRANCH  29  30
ATOM     30  O   UNL     1     -14.055 -27.773  -8.032  1.00  0.00    -0.393 OA
ATOM     31  H   UNL     1     -14.118 -28.227  -7.152  1.00  0.00     0.210 HD
ENDBRANCH  29  30
ENDBRANCH   9  11
ENDBRANCH   1   9
TORSDOF 7
ENDMDL
MODEL 6
REMARK VINA RESULT:    -7.123      2.595      7.892
REMARK INTER + INTRA:         -11.596
REMARK INTER:                 -11.351
REMARK INTRA:                  -0.245
REMARK UNBOUND:                -1.766
REMARK SMILES CC[C@H](CC[C@H](C)[C@H]1CC[C@H]2[C@H]3CC=C4C[C@@H](O)CC[C@@]4(C)[C@@H]3CC[C@@]12C)C(C)C
REMARK SMILES IDX 5 1 4 2 3 3 2 4 1 5 28 6 29 7 30 8 6 9 7 10 8 11 9 12 26 13
REMARK SMILES IDX 10 14 11 15 25 16 27 17 12 18 24 19 23 20 13 21 21 22 14 23
REMARK SMILES IDX 15 24 20 25 22 26 16 27 19 28 17 29 18 30
REMARK H PARENT 18 31
REMARK Flexibility Score: inf
ROOT
ATOM      1  C   UNL     1     -11.419 -35.272 -14.903  1.00  0.00     0.004 C 
ENDROOT
BRANCH   1   2
ATOM      2  C   UNL     1     -12.583 -36.298 -14.830  1.00  0.00     0.004 C 
BRANCH   2   3
ATOM      3  C   UNL     1     -13.946 -35.933 -15.514  1.00  0.00    -0.009 C 
BRANCH   3   4
ATOM      4  C   UNL     1     -14.166 -36.705 -16.850  1.00  0.00     0.000 C 
ATOM      5  C   UNL     1     -14.338 -35.774 -18.057  1.00  0.00     0.004 C 
ENDBRANCH   3   4
BRANCH   3   6
ATOM      6  C   UNL     1     -15.170 -35.988 -14.524  1.00  0.00    -0.014 C 
ATOM      7  C   UNL     1     -15.547 -34.582 -14.015  1.00  0.00     0.007 C 
ATOM      8  C   UNL     1     -16.429 -36.625 -15.140  1.00  0.00     0.007 C 
ENDBRANCH   3   6
ENDBRANCH   2   3
ENDBRANCH   1   2
BRANCH   1   9
ATOM      9  C   UNL     1     -10.263 -35.441 -13.880  1.00  0.00    -0.011 C 
ATOM     10  C   UNL     1     -10.346 -36.829 -13.206  1.00  0.00     0.008 C 
BRANCH   9  11
ATOM     11  C   UNL     1     -10.251 -34.224 -12.878  1.00  0.00    -0.002 C 
ATOM     12  C   UNL     1      -9.199 -33.132 -13.121  1.00  0.00     0.005 C 
ATOM     13  C   UNL     1     -11.591 -33.467 -12.649  1.00  0.00    -0.026 C 
ATOM     14  C   UNL     1      -9.755 -31.860 -12.470  1.00  0.00     0.005 C 
ATOM     15  C   UNL     1     -11.114 -32.235 -11.847  1.00  0.00    -0.001 C 
ATOM     16  C   UNL     1     -12.241 -33.016 -13.988  1.00  0.00     0.007 C 
ATOM     17  C   UNL     1     -12.575 -34.329 -11.816  1.00  0.00     0.012 C 
ATOM     18  C   UNL     1     -12.159 -31.079 -11.738  1.00  0.00     0.000 C 
ATOM     19  C   UNL     1     -13.348 -31.979 -13.791  1.00  0.00     0.005 C 
ATOM     20  C   UNL     1     -12.811 -30.705 -13.092  1.00  0.00     0.003 C 
ATOM     21  C   UNL     1     -11.538 -29.838 -11.076  1.00  0.00     0.031 C 
ATOM     22  C   UNL     1     -13.906 -29.573 -12.931  1.00  0.00    -0.008 C 
ATOM     23  C   UNL     1     -12.449 -28.648 -11.079  1.00  0.00    -0.027 C 
ATOM     24  C   UNL     1     -13.409 -28.449 -12.006  1.00  0.00    -0.065 C 
ATOM     25  C   UNL     1     -14.205 -28.964 -14.339  1.00  0.00     0.014 C 
ATOM     26  C   UNL     1     -15.223 -30.138 -12.328  1.00  0.00     0.016 C 
ATOM     27  C   UNL     1     -14.153 -27.124 -11.998  1.00  0.00     0.063 C 
ATOM     28  C   UNL     1     -15.037 -27.672 -14.293  1.00  0.00     0.033 C 
ATOM     29  C   UNL     1     -14.369 -26.601 -13.420  1.00  0.00     0.118 C 
BRANCH  29  30
ATOM     30  O   UNL     1     -13.135 -26.216 -13.972  1.00  0.00    -0.393 OA
ATOM     31  H   UNL     1     -12.433 -26.726 -13.489  1.00  0.00     0.210 HD
ENDBRANCH  29  30
ENDBRANCH   9  11
ENDBRANCH   1   9
TORSDOF 7
ENDMDL
MODEL 7
REMARK VINA RESULT:    -7.092      2.531      5.255
REMARK INTER + INTRA:         -11.553
REMARK INTER:                 -11.163
REMARK INTRA:                  -0.390
REMARK UNBOUND:                -1.766
REMARK SMILES CC[C@H](CC[C@H](C)[C@H]1CC[C@H]2[C@H]3CC=C4C[C@@H](O)CC[C@@]4(C)[C@@H]3CC[C@@]12C)C(C)C
REMARK SMILES IDX 5 1 4 2 3 3 2 4 1 5 28 6 29 7 30 8 6 9 7 10 8 11 9 12 26 13
REMARK SMILES IDX 10 14 11 15 25 16 27 17 12 18 24 19 23 20 13 21 21 22 14 23
REMARK SMILES IDX 15 24 20 25 22 26 16 27 19 28 17 29 18 30
REMARK H PARENT 18 31
REMARK Flexibility Score: inf
ROOT
ATOM      1  C   UNL     1     -12.973 -28.279  -9.690  1.00  0.00     0.004 C 
ENDROOT
BRANCH   1   2
ATOM      2  C   UNL     1     -13.209 -27.409 -10.954  1.00  0.00     0.004 C 
BRANCH   2   3
ATOM      3  C   UNL     1     -13.545 -28.130 -12.307  1.00  0.00    -0.009 C 
BRANCH   3   4
ATOM      4  C   UNL     1     -14.586 -29.276 -12.127  1.00  0.00     0.000 C 
ATOM      5  C   UNL     1     -14.105 -30.615 -12.698  1.00  0.00     0.004 C 
ENDBRANCH   3   4
BRANCH   3   6
ATOM      6  C   UNL     1     -13.879 -27.127 -13.476  1.00  0.00    -0.014 C 
ATOM      7  C   UNL     1     -13.731 -27.801 -14.855  1.00  0.00     0.007 C 
ATOM      8  C   UNL     1     -15.296 -26.532 -13.387  1.00  0.00     0.007 C 
ENDBRANCH   3   6
ENDBRANCH   2   3
ENDBRANCH   1   2
BRANCH   1   9
ATOM      9  C   UNL     1     -11.593 -28.148  -8.990  1.00  0.00    -0.011 C 
ATOM     10  C   UNL     1     -10.688 -27.173  -9.774  1.00  0.00     0.008 C 
BRANCH   9  11
ATOM     11  C   UNL     1     -10.972 -29.578  -8.757  1.00  0.00    -0.002 C 
ATOM     12  C   UNL     1     -11.894 -30.649  -8.154  1.00  0.00     0.005 C 
ATOM     13  C   UNL     1     -10.272 -30.265  -9.965  1.00  0.00    -0.026 C 
ATOM     14  C   UNL     1     -11.310 -31.998  -8.585  1.00  0.00     0.005 C 
ATOM     15  C   UNL     1     -10.050 -31.694  -9.420  1.00  0.00    -0.001 C 
ATOM     16  C   UNL     1     -11.189 -30.308 -11.221  1.00  0.00     0.007 C 
ATOM     17  C   UNL     1      -8.922 -29.573 -10.286  1.00  0.00     0.012 C 
ATOM     18  C   UNL     1      -9.671 -32.757 -10.500  1.00  0.00     0.000 C 
ATOM     19  C   UNL     1     -10.682 -31.273 -12.294  1.00  0.00     0.005 C 
ATOM     20  C   UNL     1     -10.585 -32.721 -11.750  1.00  0.00     0.003 C 
ATOM     21  C   UNL     1      -9.639 -34.169  -9.893  1.00  0.00     0.031 C 
ATOM     22  C   UNL     1     -10.133 -33.770 -12.846  1.00  0.00    -0.008 C 
ATOM     23  C   UNL     1      -9.427 -35.246 -10.914  1.00  0.00    -0.027 C 
ATOM     24  C   UNL     1      -9.794 -35.128 -12.207  1.00  0.00    -0.065 C 
ATOM     25  C   UNL     1     -11.307 -33.974 -13.856  1.00  0.00     0.014 C 
ATOM     26  C   UNL     1      -8.875 -33.280 -13.617  1.00  0.00     0.016 C 
ATOM     27  C   UNL     1      -9.679 -36.350 -13.102  1.00  0.00     0.063 C 
ATOM     28  C   UNL     1     -11.111 -35.168 -14.805  1.00  0.00     0.033 C 
ATOM     29  C   UNL     1     -10.889 -36.474 -14.030  1.00  0.00     0.118 C 
BRANCH  29  30
ATOM     30  O   UNL     1     -12.030 -36.797 -13.275  1.00  0.00    -0.393 OA
ATOM     31  H   UNL     1     -11.895 -36.410 -12.371  1.00  0.00     0.210 HD
ENDBRANCH  29  30
ENDBRANCH   9  11
ENDBRANCH   1   9
TORSDOF 7
ENDMDL
MODEL 8
REMARK VINA RESULT:    -6.232      2.328      3.167
REMARK INTER + INTRA:         -10.366
REMARK INTER:                  -9.358
REMARK INTRA:                  -1.008
REMARK UNBOUND:                -1.766
REMARK SMILES CC[C@H](CC[C@H](C)[C@H]1CC[C@H]2[C@H]3CC=C4C[C@@H](O)CC[C@@]4(C)[C@@H]3CC[C@@]12C)C(C)C
REMARK SMILES IDX 5 1 4 2 3 3 2 4 1 5 28 6 29 7 30 8 6 9 7 10 8 11 9 12 26 13
REMARK SMILES IDX 10 14 11 15 25 16 27 17 12 18 24 19 23 20 13 21 21 22 14 23
REMARK SMILES IDX 15 24 20 25 22 26 16 27 19 28 17 29 18 30
REMARK H PARENT 18 31
REMARK Flexibility Score: inf
ROOT
ATOM      1  C   UNL     1     -13.721 -27.870 -11.171  1.00  0.00     0.004 C 
ENDROOT
BRANCH   1   2
ATOM      2  C   UNL     1     -12.499 -27.409 -10.330  1.00  0.00     0.004 C 
BRANCH   2   3
ATOM      3  C   UNL     1     -11.472 -28.492  -9.848  1.00  0.00    -0.009 C 
BRANCH   3   4
ATOM      4  C   UNL     1      -9.997 -28.087 -10.147  1.00  0.00     0.000 C 
ATOM      5  C   UNL     1      -9.665 -26.660  -9.693  1.00  0.00     0.004 C 
ENDBRANCH   3   4
BRANCH   3   6
ATOM      6  C   UNL     1     -11.726 -28.971  -8.369  1.00  0.00    -0.014 C 
ATOM      7  C   UNL     1     -13.100 -28.497  -7.852  1.00  0.00     0.007 C 
ATOM      8  C   UNL     1     -11.656 -30.500  -8.199  1.00  0.00     0.007 C 
ENDBRANCH   3   6
ENDBRANCH   2   3
ENDBRANCH   1   2
BRANCH   1   9
ATOM      9  C   UNL     1     -13.507 -28.028 -12.701  1.00  0.00    -0.011 C 
ATOM     10  C   UNL     1     -14.179 -26.861 -13.457  1.00  0.00     0.008 C 
BRANCH   9  11
ATOM     11  C   UNL     1     -13.970 -29.462 -13.161  1.00  0.00    -0.002 C 
ATOM     12  C   UNL     1     -13.731 -29.833 -14.633  1.00  0.00     0.005 C 
ATOM     13  C   UNL     1     -13.464 -30.682 -12.338  1.00  0.00    -0.026 C 
ATOM     14  C   UNL     1     -13.679 -31.364 -14.678  1.00  0.00     0.005 C 
ATOM     15  C   UNL     1     -13.902 -31.861 -13.236  1.00  0.00    -0.001 C 
ATOM     16  C   UNL     1     -11.917 -30.675 -12.179  1.00  0.00     0.007 C 
ATOM     17  C   UNL     1     -14.164 -30.742 -10.956  1.00  0.00     0.012 C 
ATOM     18  C   UNL     1     -13.251 -33.235 -12.877  1.00  0.00     0.000 C 
ATOM     19  C   UNL     1     -11.363 -32.017 -11.697  1.00  0.00     0.005 C 
ATOM     20  C   UNL     1     -11.716 -33.160 -12.682  1.00  0.00     0.003 C 
ATOM     21  C   UNL     1     -13.611 -34.304 -13.923  1.00  0.00     0.031 C 
ATOM     22  C   UNL     1     -11.103 -34.557 -12.261  1.00  0.00    -0.008 C 
ATOM     23  C   UNL     1     -12.895 -35.603 -13.711  1.00  0.00    -0.027 C 
ATOM     24  C   UNL     1     -11.692 -35.699 -13.106  1.00  0.00    -0.065 C 
ATOM     25  C   UNL     1      -9.558 -34.514 -12.491  1.00  0.00     0.014 C 
ATOM     26  C   UNL     1     -11.387 -34.876 -10.766  1.00  0.00     0.016 C 
ATOM     27  C   UNL     1     -10.995 -37.049 -13.103  1.00  0.00     0.063 C 
ATOM     28  C   UNL     1      -8.875 -35.888 -12.391  1.00  0.00     0.033 C 
ATOM     29  C   UNL     1      -9.495 -36.898 -13.366  1.00  0.00     0.118 C 
BRANCH  29  30
ATOM     30  O   UNL     1      -9.289 -36.489 -14.695  1.00  0.00    -0.393 OA
ATOM     31  H   UNL     1      -9.794 -37.121 -15.271  1.00  0.00     0.210 HD
ENDBRANCH  29  30
ENDBRANCH   9  11
ENDBRANCH   1   9
TORSDOF 7
ENDMDL
