MODEL 1
REMARK VINA RESULT:    -2.935      0.000      0.000
REMARK INTER + INTRA:         -11.133
REMARK INTER:                  -6.710
REMARK INTRA:                  -4.423
REMARK UNBOUND:                -4.423
REMARK SMILES CCCCCCCCCCCCCCCCCCCCCCCC(=O)[O-]
REMARK SMILES IDX 13 1 14 2 15 3 16 4 17 5 18 6 19 7 20 8 21 9 22 10 23 11
REMARK SMILES IDX 24 12 25 13 26 14 12 15 11 16 10 17 9 18 8 19 7 20 6 21 5 22
REMARK SMILES IDX 4 23 3 24 2 25 1 26
REMARK H PARENT
REMARK Flexibility Score: inf
ROOT
ATOM      1  C   UNL     1       6.213   8.223   9.756  1.00  0.00     0.000 C 
ENDROOT
BRANCH   1   2
ATOM      2  C   UNL     1       6.484   7.683   8.340  1.00  0.00     0.000 C 
BRANCH   2   3
ATOM      3  C   UNL     1       5.554   8.305   7.286  1.00  0.00     0.000 C 
BRANCH   3   4
ATOM      4  C   UNL     1       4.241   8.827   7.896  1.00  0.00     0.000 C 
BRANCH   4   5
ATOM      5  C   UNL     1       3.986  10.316   7.593  1.00  0.00     0.000 C 
BRANCH   5   6
ATOM      6  C   UNL     1       5.239  11.212   7.587  1.00  0.00     0.000 C 
BRANCH   6   7
ATOM      7  C   UNL     1       4.977  12.617   8.154  1.00  0.00     0.000 C 
BRANCH   7   8
ATOM      8  C   UNL     1       6.230  13.507   8.122  1.00  0.00     0.000 C 
BRANCH   8   9
ATOM      9  C   UNL     1       6.923  13.606   9.493  1.00  0.00     0.000 C 
BRANCH   9  10
ATOM     10  C   UNL     1       6.118  12.926  10.615  1.00  0.00     0.006 C 
BRANCH  10  11
ATOM     11  C   UNL     1       6.942  12.595  11.872  1.00  0.00     0.053 C 
BRANCH  11  12
ATOM     12  C   UNL     1       8.131  13.495  12.016  1.00  0.00     0.041 C 
ATOM     13  O   UNL     1       7.983  14.683  12.405  1.00  0.00    -0.550 OA
ATOM     14  O   UNL     1       9.399  13.034  11.685  1.00  0.00    -0.550 OA
ENDBRANCH  11  12
ENDBRANCH  10  11
ENDBRANCH   9  10
ENDBRANCH   8   9
ENDBRANCH   7   8
ENDBRANCH   6   7
ENDBRANCH   5   6
ENDBRANCH   4   5
ENDBRANCH   3   4
ENDBRANCH   2   3
ENDBRANCH   1   2
BRANCH   1  15
ATOM     15  C   UNL     1       7.211   9.314  10.173  1.00  0.00     0.000 C 
BRANCH  15  16
ATOM     16  C   UNL     1       8.496   9.300   9.325  1.00  0.00     0.000 C 
BRANCH  16  17
ATOM     17  C   UNL     1       9.030  10.710   9.036  1.00  0.00     0.000 C 
BRANCH  17  18
ATOM     18  C   UNL     1       8.886  11.107   7.554  1.00  0.00    -0.000 C 
BRANCH  18  19
ATOM     19  C   UNL     1       8.883   9.888   6.607  1.00  0.00    -0.000 C 
BRANCH  19  20
ATOM     20  C   UNL     1      10.144   9.772   5.729  1.00  0.00    -0.000 C 
BRANCH  20  21
ATOM     21  C   UNL     1      10.821   8.389   5.731  1.00  0.00    -0.000 C 
BRANCH  21  22
ATOM     22  C   UNL     1      10.827   7.669   7.095  1.00  0.00    -0.000 C 
BRANCH  22  23
ATOM     23  C   UNL     1       9.822   6.507   7.223  1.00  0.00    -0.000 C 
BRANCH  23  24
ATOM     24  C   UNL     1       9.437   5.829   5.893  1.00  0.00    -0.000 C 
BRANCH  24  25
ATOM     25  C   UNL     1       7.945   5.920   5.528  1.00  0.00    -0.003 C 
ATOM     26  C   UNL     1       7.659   6.966   4.450  1.00  0.00     0.004 C 
ENDBRANCH  24  25
ENDBRANCH  23  24
ENDBRANCH  22  23
ENDBRANCH  21  22
ENDBRANCH  20  21
ENDBRANCH  19  20
ENDBRANCH  18  19
ENDBRANCH  17  18
ENDBRANCH  16  17
ENDBRANCH  15  16
ENDBRANCH   1  15
TORSDOF 22
ENDMDL
MODEL 2
REMARK VINA RESULT:    -2.926      1.575      2.937
REMARK INTER + INTRA:         -11.112
REMARK INTER:                  -6.873
REMARK INTRA:                  -4.239
REMARK UNBOUND:                -4.423
REMARK SMILES CCCCCCCCCCCCCCCCCCCCCCCC(=O)[O-]
REMARK SMILES IDX 13 1 14 2 15 3 16 4 17 5 18 6 19 7 20 8 21 9 22 10 23 11
REMARK SMILES IDX 24 12 25 13 26 14 12 15 11 16 10 17 9 18 8 19 7 20 6 21 5 22
REMARK SMILES IDX 4 23 3 24 2 25 1 26
REMARK H PARENT
REMARK Flexibility Score: inf
ROOT
ATOM      1  C   UNL     1       6.155   9.028   8.732  1.00  0.00     0.000 C 
ENDROOT
BRANCH   1   2
ATOM      2  C   UNL     1       5.119  10.148   8.936  1.00  0.00     0.000 C 
BRANCH   2   3
ATOM      3  C   UNL     1       4.407  10.535   7.629  1.00  0.00     0.000 C 
BRANCH   3   4
ATOM      4  C   UNL     1       3.656  11.874   7.745  1.00  0.00     0.000 C 
BRANCH   4   5
ATOM      5  C   UNL     1       4.543  13.018   8.274  1.00  0.00     0.000 C 
BRANCH   5   6
ATOM      6  C   UNL     1       5.519  13.624   7.248  1.00  0.00     0.000 C 
BRANCH   6   7
ATOM      7  C   UNL     1       6.926  13.861   7.823  1.00  0.00     0.000 C 
BRANCH   7   8
ATOM      8  C   UNL     1       7.757  12.569   7.896  1.00  0.00     0.000 C 
BRANCH   8   9
ATOM      9  C   UNL     1       8.152  12.197   9.336  1.00  0.00     0.000 C 
BRANCH   9  10
ATOM     10  C   UNL     1       9.105  10.990   9.397  1.00  0.00     0.006 C 
BRANCH  10  11
ATOM     11  C   UNL     1       9.439  10.519  10.823  1.00  0.00     0.053 C 
BRANCH  11  12
ATOM     12  C   UNL     1       9.729  11.668  11.739  1.00  0.00     0.041 C 
ATOM     13  O   UNL     1      10.800  12.320  11.619  1.00  0.00    -0.550 OA
ATOM     14  O   UNL     1       8.836  11.996  12.751  1.00  0.00    -0.550 OA
ENDBRANCH  11  12
ENDBRANCH  10  11
ENDBRANCH   9  10
ENDBRANCH   8   9
ENDBRANCH   7   8
ENDBRANCH   6   7
ENDBRANCH   5   6
ENDBRANCH   4   5
ENDBRANCH   3   4
ENDBRANCH   2   3
ENDBRANCH   1   2
BRANCH   1  15
ATOM     15  C   UNL     1       6.244   8.566   7.270  1.00  0.00     0.000 C 
BRANCH  15  16
ATOM     16  C   UNL     1       6.822   7.146   7.129  1.00  0.00     0.000 C 
BRANCH  16  17
ATOM     17  C   UNL     1       7.285   6.559   8.471  1.00  0.00     0.000 C 
BRANCH  17  18
ATOM     18  C   UNL     1       8.757   6.109   8.445  1.00  0.00    -0.000 C 
BRANCH  18  19
ATOM     19  C   UNL     1       9.744   7.286   8.603  1.00  0.00    -0.000 C 
BRANCH  19  20
ATOM     20  C   UNL     1      11.006   7.169   7.727  1.00  0.00    -0.000 C 
BRANCH  20  21
ATOM     21  C   UNL     1      11.013   8.050   6.464  1.00  0.00    -0.000 C 
BRANCH  21  22
ATOM     22  C   UNL     1       9.901   9.117   6.408  1.00  0.00    -0.000 C 
BRANCH  22  23
ATOM     23  C   UNL     1       9.119   9.174   5.082  1.00  0.00    -0.000 C 
BRANCH  23  24
ATOM     24  C   UNL     1       9.478   8.072   4.065  1.00  0.00    -0.000 C 
BRANCH  24  25
ATOM     25  C   UNL     1       8.446   6.937   3.949  1.00  0.00    -0.003 C 
ATOM     26  C   UNL     1       8.942   5.618   4.543  1.00  0.00     0.004 C 
ENDBRANCH  24  25
ENDBRANCH  23  24
ENDBRANCH  22  23
ENDBRANCH  21  22
ENDBRANCH  20  21
ENDBRANCH  19  20
ENDBRANCH  18  19
ENDBRANCH  17  18
ENDBRANCH  16  17
ENDBRANCH  15  16
ENDBRANCH   1  15
TORSDOF 22
ENDMDL
MODEL 3
REMARK VINA RESULT:    -2.908      4.356      7.089
REMARK INTER + INTRA:         -11.070
REMARK INTER:                  -8.340
REMARK INTRA:                  -2.730
REMARK UNBOUND:                -4.423
REMARK SMILES CCCCCCCCCCCCCCCCCCCCCCCC(=O)[O-]
REMARK SMILES IDX 13 1 14 2 15 3 16 4 17 5 18 6 19 7 20 8 21 9 22 10 23 11
REMARK SMILES IDX 24 12 25 13 26 14 12 15 11 16 10 17 9 18 8 19 7 20 6 21 5 22
REMARK SMILES IDX 4 23 3 24 2 25 1 26
REMARK H PARENT
REMARK Flexibility Score: inf
ROOT
ATOM      1  C   UNL     1      12.526   7.216  12.332  1.00  0.00     0.000 C 
ENDROOT
BRANCH   1   2
ATOM      2  C   UNL     1      11.965   5.800  12.116  1.00  0.00     0.000 C 
BRANCH   2   3
ATOM      3  C   UNL     1      12.026   5.360  10.645  1.00  0.00     0.000 C 
BRANCH   3   4
ATOM      4  C   UNL     1      11.720   6.515   9.675  1.00  0.00     0.000 C 
BRANCH   4   5
ATOM      5  C   UNL     1      12.114   6.198   8.219  1.00  0.00     0.000 C 
BRANCH   5   6
ATOM      6  C   UNL     1      11.014   5.537   7.368  1.00  0.00     0.000 C 
BRANCH   6   7
ATOM      7  C   UNL     1      10.099   6.556   6.668  1.00  0.00     0.000 C 
BRANCH   7   8
ATOM      8  C   UNL     1      10.771   7.928   6.496  1.00  0.00     0.000 C 
BRANCH   8   9
ATOM      9  C   UNL     1      10.091   8.792   5.419  1.00  0.00     0.000 C 
BRANCH   9  10
ATOM     10  C   UNL     1       9.861  10.243   5.881  1.00  0.00     0.006 C 
BRANCH  10  11
ATOM     11  C   UNL     1       9.212  10.369   7.270  1.00  0.00     0.053 C 
BRANCH  11  12
ATOM     12  C   UNL     1       8.861  11.788   7.598  1.00  0.00     0.041 C 
ATOM     13  O   UNL     1       9.460  12.737   7.028  1.00  0.00    -0.550 OA
ATOM     14  O   UNL     1       7.899  12.064   8.561  1.00  0.00    -0.550 OA
ENDBRANCH  11  12
ENDBRANCH  10  11
ENDBRANCH   9  10
ENDBRANCH   8   9
ENDBRANCH   7   8
ENDBRANCH   6   7
ENDBRANCH   5   6
ENDBRANCH   4   5
ENDBRANCH   3   4
ENDBRANCH   2   3
ENDBRANCH   1   2
BRANCH   1  15
ATOM     15  C   UNL     1      13.978   7.205  12.836  1.00  0.00     0.000 C 
BRANCH  15  16
ATOM     16  C   UNL     1      14.948   7.909  11.869  1.00  0.00     0.000 C 
BRANCH  16  17
ATOM     17  C   UNL     1      15.149   7.130  10.561  1.00  0.00     0.000 C 
BRANCH  17  18
ATOM     18  C   UNL     1      15.876   5.789  10.774  1.00  0.00    -0.000 C 
BRANCH  18  19
ATOM     19  C   UNL     1      16.331   5.140   9.450  1.00  0.00    -0.000 C 
BRANCH  19  20
ATOM     20  C   UNL     1      15.580   5.654   8.207  1.00  0.00    -0.000 C 
BRANCH  20  21
ATOM     21  C   UNL     1      16.394   5.649   6.900  1.00  0.00    -0.000 C 
BRANCH  21  22
ATOM     22  C   UNL     1      16.339   6.962   6.092  1.00  0.00    -0.000 C 
BRANCH  22  23
ATOM     23  C   UNL     1      15.535   6.886   4.779  1.00  0.00    -0.000 C 
BRANCH  23  24
ATOM     24  C   UNL     1      14.052   7.294   4.898  1.00  0.00    -0.000 C 
BRANCH  24  25
ATOM     25  C   UNL     1      13.654   8.534   4.080  1.00  0.00    -0.003 C 
ATOM     26  C   UNL     1      14.813   9.509   3.872  1.00  0.00     0.004 C 
ENDBRANCH  24  25
ENDBRANCH  23  24
ENDBRANCH  22  23
ENDBRANCH  21  22
ENDBRANCH  20  21
ENDBRANCH  19  20
ENDBRANCH  18  19
ENDBRANCH  17  18
ENDBRANCH  16  17
ENDBRANCH  15  16
ENDBRANCH   1  15
TORSDOF 22
ENDMDL
MODEL 4
REMARK VINA RESULT:    -2.890      3.012      6.890
REMARK INTER + INTRA:         -11.029
REMARK INTER:                  -5.990
REMARK INTRA:                  -5.039
REMARK UNBOUND:                -4.423
REMARK SMILES CCCCCCCCCCCCCCCCCCCCCCCC(=O)[O-]
REMARK SMILES IDX 13 1 14 2 15 3 16 4 17 5 18 6 19 7 20 8 21 9 22 10 23 11
REMARK SMILES IDX 24 12 25 13 26 14 12 15 11 16 10 17 9 18 8 19 7 20 6 21 5 22
REMARK SMILES IDX 4 23 3 24 2 25 1 26
REMARK H PARENT
REMARK Flexibility Score: inf
ROOT
ATOM      1  C   UNL     1       8.547  10.370   7.158  1.00  0.00     0.000 C 
ENDROOT
BRANCH   1   2
ATOM      2  C   UNL     1       9.547  10.220   5.998  1.00  0.00     0.000 C 
BRANCH   2   3
ATOM      3  C   UNL     1       9.219   9.025   5.089  1.00  0.00     0.000 C 
BRANCH   3   4
ATOM      4  C   UNL     1       9.788   7.702   5.631  1.00  0.00     0.000 C 
BRANCH   4   5
ATOM      5  C   UNL     1      10.997   7.905   6.565  1.00  0.00     0.000 C 
BRANCH   5   6
ATOM      6  C   UNL     1      11.035   6.987   7.802  1.00  0.00     0.000 C 
BRANCH   6   7
ATOM      7  C   UNL     1       9.656   6.417   8.171  1.00  0.00     0.000 C 
BRANCH   7   8
ATOM      8  C   UNL     1       8.929   7.271   9.223  1.00  0.00     0.000 C 
BRANCH   8   9
ATOM      9  C   UNL     1       7.414   7.369   8.965  1.00  0.00     0.000 C 
BRANCH   9  10
ATOM     10  C   UNL     1       6.967   6.549   7.741  1.00  0.00     0.006 C 
BRANCH  10  11
ATOM     11  C   UNL     1       6.179   7.355   6.694  1.00  0.00     0.053 C 
BRANCH  11  12
ATOM     12  C   UNL     1       4.739   6.945   6.638  1.00  0.00     0.041 C 
ATOM     13  O   UNL     1       4.058   6.878   7.695  1.00  0.00    -0.550 OA
ATOM     14  O   UNL     1       4.158   6.599   5.425  1.00  0.00    -0.550 OA
ENDBRANCH  11  12
ENDBRANCH  10  11
ENDBRANCH   9  10
ENDBRANCH   8   9
ENDBRANCH   7   8
ENDBRANCH   6   7
ENDBRANCH   5   6
ENDBRANCH   4   5
ENDBRANCH   3   4
ENDBRANCH   2   3
ENDBRANCH   1   2
BRANCH   1  15
ATOM     15  C   UNL     1       9.174  11.027   8.397  1.00  0.00     0.000 C 
BRANCH  15  16
ATOM     16  C   UNL     1       8.319  10.843   9.665  1.00  0.00     0.000 C 
BRANCH  16  17
ATOM     17  C   UNL     1       8.288  12.100  10.546  1.00  0.00     0.000 C 
BRANCH  17  18
ATOM     18  C   UNL     1       7.028  12.175  11.427  1.00  0.00    -0.000 C 
BRANCH  18  19
ATOM     19  C   UNL     1       6.191  10.879  11.385  1.00  0.00    -0.000 C 
BRANCH  19  20
ATOM     20  C   UNL     1       4.668  11.113  11.395  1.00  0.00    -0.000 C 
BRANCH  20  21
ATOM     21  C   UNL     1       3.951  10.829  10.062  1.00  0.00    -0.000 C 
BRANCH  21  22
ATOM     22  C   UNL     1       4.783  10.041   9.030  1.00  0.00    -0.000 C 
BRANCH  22  23
ATOM     23  C   UNL     1       4.990  10.752   7.678  1.00  0.00    -0.000 C 
BRANCH  23  24
ATOM     24  C   UNL     1       4.785  12.280   7.708  1.00  0.00    -0.000 C 
BRANCH  24  25
ATOM     25  C   UNL     1       6.079  13.109   7.650  1.00  0.00    -0.003 C 
ATOM     26  C   UNL     1       6.049  14.327   8.573  1.00  0.00     0.004 C 
ENDBRANCH  24  25
ENDBRANCH  23  24
ENDBRANCH  22  23
ENDBRANCH  21  22
ENDBRANCH  20  21
ENDBRANCH  19  20
ENDBRANCH  18  19
ENDBRANCH  17  18
ENDBRANCH  16  17
ENDBRANCH  15  16
ENDBRANCH   1  15
TORSDOF 22
ENDMDL
MODEL 5
REMARK VINA RESULT:    -2.880      4.320      5.905
REMARK INTER + INTRA:         -11.006
REMARK INTER:                  -7.499
REMARK INTRA:                  -3.507
REMARK UNBOUND:                -4.423
REMARK SMILES CCCCCCCCCCCCCCCCCCCCCCCC(=O)[O-]
REMARK SMILES IDX 13 1 14 2 15 3 16 4 17 5 18 6 19 7 20 8 21 9 22 10 23 11
REMARK SMILES IDX 24 12 25 13 26 14 12 15 11 16 10 17 9 18 8 19 7 20 6 21 5 22
REMARK SMILES IDX 4 23 3 24 2 25 1 26
REMARK H PARENT
REMARK Flexibility Score: inf
ROOT
ATOM      1  C   UNL     1      10.430   7.999  13.878  1.00  0.00     0.000 C 
ENDROOT
BRANCH   1   2
ATOM      2  C   UNL     1      10.669   8.588  12.476  1.00  0.00     0.000 C 
BRANCH   2   3
ATOM      3  C   UNL     1       9.848   9.863  12.226  1.00  0.00     0.000 C 
BRANCH   3   4
ATOM      4  C   UNL     1       9.150   9.852  10.855  1.00  0.00     0.000 C 
BRANCH   4   5
ATOM      5  C   UNL     1       8.750   8.437  10.394  1.00  0.00     0.000 C 
BRANCH   5   6
ATOM      6  C   UNL     1       8.795   8.202   8.872  1.00  0.00     0.000 C 
BRANCH   6   7
ATOM      7  C   UNL     1       9.500   9.336   8.109  1.00  0.00     0.000 C 
BRANCH   7   8
ATOM      8  C   UNL     1       8.584  10.005   7.071  1.00  0.00     0.000 C 
BRANCH   8   9
ATOM      9  C   UNL     1       7.090   9.782   7.366  1.00  0.00     0.000 C 
BRANCH   9  10
ATOM     10  C   UNL     1       6.379  11.067   7.830  1.00  0.00     0.006 C 
BRANCH  10  11
ATOM     11  C   UNL     1       7.313  12.109   8.470  1.00  0.00     0.053 C 
BRANCH  11  12
ATOM     12  C   UNL     1       7.365  13.378   7.675  1.00  0.00     0.041 C 
ATOM     13  O   UNL     1       6.316  14.046   7.479  1.00  0.00    -0.550 OA
ATOM     14  O   UNL     1       8.564  13.804   7.118  1.00  0.00    -0.550 OA
ENDBRANCH  11  12
ENDBRANCH  10  11
ENDBRANCH   9  10
ENDBRANCH   8   9
ENDBRANCH   7   8
ENDBRANCH   6   7
ENDBRANCH   5   6
ENDBRANCH   4   5
ENDBRANCH   3   4
ENDBRANCH   2   3
ENDBRANCH   1   2
BRANCH   1  15
ATOM     15  C   UNL     1      11.638   7.205  14.398  1.00  0.00     0.000 C 
BRANCH  15  16
ATOM     16  C   UNL     1      12.687   6.934  13.304  1.00  0.00     0.000 C 
BRANCH  16  17
ATOM     17  C   UNL     1      14.094   6.708  13.876  1.00  0.00     0.000 C 
BRANCH  17  18
ATOM     18  C   UNL     1      15.194   7.371  13.026  1.00  0.00    -0.000 C 
BRANCH  18  19
ATOM     19  C   UNL     1      14.732   7.675  11.585  1.00  0.00    -0.000 C 
BRANCH  19  20
ATOM     20  C   UNL     1      15.402   6.796  10.511  1.00  0.00    -0.000 C 
BRANCH  20  21
ATOM     21  C   UNL     1      14.439   6.142   9.504  1.00  0.00    -0.000 C 
BRANCH  21  22
ATOM     22  C   UNL     1      13.193   5.481  10.128  1.00  0.00    -0.000 C 
BRANCH  22  23
ATOM     23  C   UNL     1      11.854   6.166   9.791  1.00  0.00    -0.000 C 
BRANCH  23  24
ATOM     24  C   UNL     1      10.611   5.262   9.912  1.00  0.00    -0.000 C 
BRANCH  24  25
ATOM     25  C   UNL     1      10.429   4.592  11.285  1.00  0.00    -0.003 C 
ATOM     26  C   UNL     1       9.199   5.100  12.038  1.00  0.00     0.004 C 
ENDBRANCH  24  25
ENDBRANCH  23  24
ENDBRANCH  22  23
ENDBRANCH  21  22
ENDBRANCH  20  21
ENDBRANCH  19  20
ENDBRANCH  18  19
ENDBRANCH  17  18
ENDBRANCH  16  17
ENDBRANCH  15  16
ENDBRANCH   1  15
TORSDOF 22
ENDMDL
MODEL 6
REMARK VINA RESULT:    -2.862      4.758      8.453
REMARK INTER + INTRA:         -10.965
REMARK INTER:                  -6.593
REMARK INTRA:                  -4.371
REMARK UNBOUND:                -4.423
REMARK SMILES CCCCCCCCCCCCCCCCCCCCCCCC(=O)[O-]
REMARK SMILES IDX 13 1 14 2 15 3 16 4 17 5 18 6 19 7 20 8 21 9 22 10 23 11
REMARK SMILES IDX 24 12 25 13 26 14 12 15 11 16 10 17 9 18 8 19 7 20 6 21 5 22
REMARK SMILES IDX 4 23 3 24 2 25 1 26
REMARK H PARENT
REMARK Flexibility Score: inf
ROOT
ATOM      1  C   UNL     1      12.086   5.256   9.597  1.00  0.00     0.000 C 
ENDROOT
BRANCH   1   2
ATOM      2  C   UNL     1      11.539   6.649   9.957  1.00  0.00     0.000 C 
BRANCH   2   3
ATOM      3  C   UNL     1      11.546   6.909  11.472  1.00  0.00     0.000 C 
BRANCH   3   4
ATOM      4  C   UNL     1      12.882   6.522  12.128  1.00  0.00     0.000 C 
BRANCH   4   5
ATOM      5  C   UNL     1      13.949   7.629  12.021  1.00  0.00     0.000 C 
BRANCH   5   6
ATOM      6  C   UNL     1      15.109   7.335  11.051  1.00  0.00     0.000 C 
BRANCH   6   7
ATOM      7  C   UNL     1      15.655   5.903  11.182  1.00  0.00     0.000 C 
BRANCH   7   8
ATOM      8  C   UNL     1      15.987   5.273   9.819  1.00  0.00     0.000 C 
BRANCH   8   9
ATOM      9  C   UNL     1      15.547   6.152   8.635  1.00  0.00     0.000 C 
BRANCH   9  10
ATOM     10  C   UNL     1      16.228   5.752   7.314  1.00  0.00     0.006 C 
BRANCH  10  11
ATOM     11  C   UNL     1      15.280   5.705   6.103  1.00  0.00     0.053 C 
BRANCH  11  12
ATOM     12  C   UNL     1      15.407   6.925   5.243  1.00  0.00     0.041 C 
ATOM     13  O   UNL     1      16.476   7.589   5.241  1.00  0.00    -0.550 OA
ATOM     14  O   UNL     1      14.332   7.351   4.474  1.00  0.00    -0.550 OA
ENDBRANCH  11  12
ENDBRANCH  10  11
ENDBRANCH   9  10
ENDBRANCH   8   9
ENDBRANCH   7   8
ENDBRANCH   6   7
ENDBRANCH   5   6
ENDBRANCH   4   5
ENDBRANCH   3   4
ENDBRANCH   2   3
ENDBRANCH   1   2
BRANCH   1  15
ATOM     15  C   UNL     1      12.086   4.996   8.082  1.00  0.00     0.000 C 
BRANCH  15  16
ATOM     16  C   UNL     1      11.842   6.274   7.259  1.00  0.00     0.000 C 
BRANCH  16  17
ATOM     17  C   UNL     1      11.359   5.976   5.833  1.00  0.00     0.000 C 
BRANCH  17  18
ATOM     18  C   UNL     1      10.809   7.225   5.120  1.00  0.00    -0.000 C 
BRANCH  18  19
ATOM     19  C   UNL     1      11.049   8.524   5.920  1.00  0.00    -0.000 C 
BRANCH  19  20
ATOM     20  C   UNL     1       9.999   9.622   5.667  1.00  0.00    -0.000 C 
BRANCH  20  21
ATOM     21  C   UNL     1       9.200  10.064   6.907  1.00  0.00    -0.000 C 
BRANCH  21  22
ATOM     22  C   UNL     1       9.480   9.250   8.187  1.00  0.00    -0.000 C 
BRANCH  22  23
ATOM     23  C   UNL     1       8.341   8.309   8.624  1.00  0.00    -0.000 C 
BRANCH  23  24
ATOM     24  C   UNL     1       8.371   6.907   7.984  1.00  0.00    -0.000 C 
BRANCH  24  25
ATOM     25  C   UNL     1       7.506   6.753   6.721  1.00  0.00    -0.003 C 
ATOM     26  C   UNL     1       6.320   7.716   6.689  1.00  0.00     0.004 C 
ENDBRANCH  24  25
ENDBRANCH  23  24
ENDBRANCH  22  23
ENDBRANCH  21  22
ENDBRANCH  20  21
ENDBRANCH  19  20
ENDBRANCH  18  19
ENDBRANCH  17  18
ENDBRANCH  16  17
ENDBRANCH  15  16
ENDBRANCH   1  15
TORSDOF 22
ENDMDL
MODEL 7
REMARK VINA RESULT:    -2.847      2.945      4.603
REMARK INTER + INTRA:         -10.932
REMARK INTER:                  -7.827
REMARK INTRA:                  -3.105
REMARK UNBOUND:                -4.423
REMARK SMILES CCCCCCCCCCCCCCCCCCCCCCCC(=O)[O-]
REMARK SMILES IDX 13 1 14 2 15 3 16 4 17 5 18 6 19 7 20 8 21 9 22 10 23 11
REMARK SMILES IDX 24 12 25 13 26 14 12 15 11 16 10 17 9 18 8 19 7 20 6 21 5 22
REMARK SMILES IDX 4 23 3 24 2 25 1 26
REMARK H PARENT
REMARK Flexibility Score: inf
ROOT
ATOM      1  C   UNL     1       9.139   9.810   6.345  1.00  0.00     0.000 C 
ENDROOT
BRANCH   1   2
ATOM      2  C   UNL     1       9.191  10.607   7.661  1.00  0.00     0.000 C 
BRANCH   2   3
ATOM      3  C   UNL     1       8.439   9.906   8.803  1.00  0.00     0.000 C 
BRANCH   3   4
ATOM      4  C   UNL     1       7.427   8.868   8.289  1.00  0.00     0.000 C 
BRANCH   4   5
ATOM      5  C   UNL     1       5.963   9.322   8.452  1.00  0.00     0.000 C 
BRANCH   5   6
ATOM      6  C   UNL     1       5.528  10.483   7.538  1.00  0.00     0.000 C 
BRANCH   6   7
ATOM      7  C   UNL     1       5.104  11.738   8.319  1.00  0.00     0.000 C 
BRANCH   7   8
ATOM      8  C   UNL     1       5.799  13.011   7.809  1.00  0.00     0.000 C 
BRANCH   8   9
ATOM      9  C   UNL     1       6.996  13.426   8.683  1.00  0.00     0.000 C 
BRANCH   9  10
ATOM     10  C   UNL     1       6.939  12.814  10.095  1.00  0.00     0.006 C 
BRANCH  10  11
ATOM     11  C   UNL     1       7.515  13.719  11.199  1.00  0.00     0.053 C 
BRANCH  11  12
ATOM     12  C   UNL     1       8.673  13.079  11.901  1.00  0.00     0.041 C 
ATOM     13  O   UNL     1       9.522  12.417  11.247  1.00  0.00    -0.550 OA
ATOM     14  O   UNL     1       8.796  13.180  13.280  1.00  0.00    -0.550 OA
ENDBRANCH  11  12
ENDBRANCH  10  11
ENDBRANCH   9  10
ENDBRANCH   8   9
ENDBRANCH   7   8
ENDBRANCH   6   7
ENDBRANCH   5   6
ENDBRANCH   4   5
ENDBRANCH   3   4
ENDBRANCH   2   3
ENDBRANCH   1   2
BRANCH   1  15
ATOM     15  C   UNL     1      10.467   9.105   6.029  1.00  0.00     0.000 C 
BRANCH  15  16
ATOM     16  C   UNL     1      10.418   7.592   6.308  1.00  0.00     0.000 C 
BRANCH  16  17
ATOM     17  C   UNL     1      11.143   7.206   7.606  1.00  0.00     0.000 C 
BRANCH  17  18
ATOM     18  C   UNL     1      10.202   6.561   8.641  1.00  0.00    -0.000 C 
BRANCH  18  19
ATOM     19  C   UNL     1      10.503   7.014  10.086  1.00  0.00    -0.000 C 
BRANCH  19  20
ATOM     20  C   UNL     1      11.975   6.840  10.505  1.00  0.00    -0.000 C 
BRANCH  20  21
ATOM     21  C   UNL     1      12.282   7.175  11.977  1.00  0.00    -0.000 C 
BRANCH  21  22
ATOM     22  C   UNL     1      13.782   7.225  12.334  1.00  0.00    -0.000 C 
BRANCH  22  23
ATOM     23  C   UNL     1      14.724   7.525  11.152  1.00  0.00    -0.000 C 
BRANCH  23  24
ATOM     24  C   UNL     1      15.567   6.327  10.671  1.00  0.00    -0.000 C 
BRANCH  24  25
ATOM     25  C   UNL     1      15.514   6.064   9.156  1.00  0.00    -0.003 C 
ATOM     26  C   UNL     1      14.560   4.930   8.780  1.00  0.00     0.004 C 
ENDBRANCH  24  25
ENDBRANCH  23  24
ENDBRANCH  22  23
ENDBRANCH  21  22
ENDBRANCH  20  21
ENDBRANCH  19  20
ENDBRANCH  18  19
ENDBRANCH  17  18
ENDBRANCH  16  17
ENDBRANCH  15  16
ENDBRANCH   1  15
TORSDOF 22
ENDMDL
MODEL 8
REMARK VINA RESULT:    -2.814      3.220      5.753
REMARK INTER + INTRA:         -10.855
REMARK INTER:                  -6.596
REMARK INTRA:                  -4.259
REMARK UNBOUND:                -4.423
REMARK SMILES CCCCCCCCCCCCCCCCCCCCCCCC(=O)[O-]
REMARK SMILES IDX 13 1 14 2 15 3 16 4 17 5 18 6 19 7 20 8 21 9 22 10 23 11
REMARK SMILES IDX 24 12 25 13 26 14 12 15 11 16 10 17 9 18 8 19 7 20 6 21 5 22
REMARK SMILES IDX 4 23 3 24 2 25 1 26
REMARK H PARENT
REMARK Flexibility Score: inf
ROOT
ATOM      1  C   UNL     1       4.954  12.994   8.503  1.00  0.00     0.000 C 
ENDROOT
BRANCH   1   2
ATOM      2  C   UNL     1       4.562  11.519   8.702  1.00  0.00     0.000 C 
BRANCH   2   3
ATOM      3  C   UNL     1       5.007  10.629   7.530  1.00  0.00     0.000 C 
BRANCH   3   4
ATOM      4  C   UNL     1       4.496   9.184   7.664  1.00  0.00     0.000 C 
BRANCH   4   5
ATOM      5  C   UNL     1       5.630   8.140   7.654  1.00  0.00     0.000 C 
BRANCH   5   6
ATOM      6  C   UNL     1       6.878   8.532   6.840  1.00  0.00     0.000 C 
BRANCH   6   7
ATOM      7  C   UNL     1       7.215   7.520   5.731  1.00  0.00     0.000 C 
BRANCH   7   8
ATOM      8  C   UNL     1       8.707   7.531   5.359  1.00  0.00     0.000 C 
BRANCH   8   9
ATOM      9  C   UNL     1       9.217   8.935   4.991  1.00  0.00     0.000 C 
BRANCH   9  10
ATOM     10  C   UNL     1      10.596   9.245   5.604  1.00  0.00     0.006 C 
BRANCH  10  11
ATOM     11  C   UNL     1      11.562   8.048   5.623  1.00  0.00     0.053 C 
BRANCH  11  12
ATOM     12  C   UNL     1      12.559   8.114   4.508  1.00  0.00     0.041 C 
ATOM     13  O   UNL     1      12.997   7.055   3.986  1.00  0.00    -0.550 OA
ATOM     14  O   UNL     1      13.035   9.343   4.069  1.00  0.00    -0.550 OA
ENDBRANCH  11  12
ENDBRANCH  10  11
ENDBRANCH   9  10
ENDBRANCH   8   9
ENDBRANCH   7   8
ENDBRANCH   6   7
ENDBRANCH   5   6
ENDBRANCH   4   5
ENDBRANCH   3   4
ENDBRANCH   2   3
ENDBRANCH   1   2
BRANCH   1  15
ATOM     15  C   UNL     1       6.116  13.167   7.513  1.00  0.00     0.000 C 
BRANCH  15  16
ATOM     16  C   UNL     1       7.480  13.300   8.214  1.00  0.00     0.000 C 
BRANCH  16  17
ATOM     17  C   UNL     1       8.594  12.526   7.494  1.00  0.00     0.000 C 
BRANCH  17  18
ATOM     18  C   UNL     1       8.823  11.124   8.089  1.00  0.00    -0.000 C 
BRANCH  18  19
ATOM     19  C   UNL     1       8.700  11.101   9.628  1.00  0.00    -0.000 C 
BRANCH  19  20
ATOM     20  C   UNL     1       7.589  10.174  10.156  1.00  0.00    -0.000 C 
BRANCH  20  21
ATOM     21  C   UNL     1       8.035   8.738  10.489  1.00  0.00    -0.000 C 
BRANCH  21  22
ATOM     22  C   UNL     1       9.521   8.435  10.207  1.00  0.00    -0.000 C 
BRANCH  22  23
ATOM     23  C   UNL     1       9.793   7.657   8.905  1.00  0.00    -0.000 C 
BRANCH  23  24
ATOM     24  C   UNL     1      10.347   6.231   9.102  1.00  0.00    -0.000 C 
BRANCH  24  25
ATOM     25  C   UNL     1       9.461   5.109   8.534  1.00  0.00    -0.003 C 
ATOM     26  C   UNL     1       7.967   5.394   8.685  1.00  0.00     0.004 C 
ENDBRANCH  24  25
ENDBRANCH  23  24
ENDBRANCH  22  23
ENDBRANCH  21  22
ENDBRANCH  20  21
ENDBRANCH  19  20
ENDBRANCH  18  19
ENDBRANCH  17  18
ENDBRANCH  16  17
ENDBRANCH  15  16
ENDBRANCH   1  15
TORSDOF 22
ENDMDL
MODEL 9
REMARK VINA RESULT:    -2.776      1.919      3.558
REMARK INTER + INTRA:         -10.768
REMARK INTER:                  -6.281
REMARK INTRA:                  -4.487
REMARK UNBOUND:                -4.423
REMARK SMILES CCCCCCCCCCCCCCCCCCCCCCCC(=O)[O-]
REMARK SMILES IDX 13 1 14 2 15 3 16 4 17 5 18 6 19 7 20 8 21 9 22 10 23 11
REMARK SMILES IDX 24 12 25 13 26 14 12 15 11 16 10 17 9 18 8 19 7 20 6 21 5 22
REMARK SMILES IDX 4 23 3 24 2 25 1 26
REMARK H PARENT
REMARK Flexibility Score: inf
ROOT
ATOM      1  C   UNL     1       5.691  11.363  11.194  1.00  0.00     0.000 C 
ENDROOT
BRANCH   1   2
ATOM      2  C   UNL     1       4.845  10.078  11.173  1.00  0.00     0.000 C 
BRANCH   2   3
ATOM      3  C   UNL     1       5.708   8.806  11.201  1.00  0.00     0.000 C 
BRANCH   3   4
ATOM      4  C   UNL     1       5.503   7.930   9.952  1.00  0.00     0.000 C 
BRANCH   4   5
ATOM      5  C   UNL     1       6.426   8.325   8.782  1.00  0.00     0.000 C 
BRANCH   5   6
ATOM      6  C   UNL     1       5.705   8.795   7.505  1.00  0.00     0.000 C 
BRANCH   6   7
ATOM      7  C   UNL     1       5.418  10.306   7.496  1.00  0.00     0.000 C 
BRANCH   7   8
ATOM      8  C   UNL     1       3.919  10.620   7.625  1.00  0.00     0.000 C 
BRANCH   8   9
ATOM      9  C   UNL     1       3.646  12.105   7.926  1.00  0.00     0.000 C 
BRANCH   9  10
ATOM     10  C   UNL     1       4.916  12.972   7.832  1.00  0.00     0.006 C 
BRANCH  10  11
ATOM     11  C   UNL     1       4.650  14.446   7.482  1.00  0.00     0.053 C 
BRANCH  11  12
ATOM     12  C   UNL     1       4.937  15.357   8.637  1.00  0.00     0.041 C 
ATOM     13  O   UNL     1       4.185  16.338   8.871  1.00  0.00    -0.550 OA
ATOM     14  O   UNL     1       6.056  15.144   9.431  1.00  0.00    -0.550 OA
ENDBRANCH  11  12
ENDBRANCH  10  11
ENDBRANCH   9  10
ENDBRANCH   8   9
ENDBRANCH   7   8
ENDBRANCH   6   7
ENDBRANCH   5   6
ENDBRANCH   4   5
ENDBRANCH   3   4
ENDBRANCH   2   3
ENDBRANCH   1   2
BRANCH   1  15
ATOM     15  C   UNL     1       7.200  11.076  11.247  1.00  0.00     0.000 C 
BRANCH  15  16
ATOM     16  C   UNL     1       8.042  12.206  10.627  1.00  0.00     0.000 C 
BRANCH  16  17
ATOM     17  C   UNL     1       8.089  12.137   9.094  1.00  0.00     0.000 C 
BRANCH  17  18
ATOM     18  C   UNL     1       8.978  10.990   8.578  1.00  0.00    -0.000 C 
BRANCH  18  19
ATOM     19  C   UNL     1       9.283  11.102   7.070  1.00  0.00    -0.000 C 
BRANCH  19  20
ATOM     20  C   UNL     1       9.058   9.797   6.283  1.00  0.00    -0.000 C 
BRANCH  20  21
ATOM     21  C   UNL     1      10.332   9.143   5.718  1.00  0.00    -0.000 C 
BRANCH  21  22
ATOM     22  C   UNL     1      10.902   7.986   6.564  1.00  0.00    -0.000 C 
BRANCH  22  23
ATOM     23  C   UNL     1       9.918   7.375   7.580  1.00  0.00    -0.000 C 
BRANCH  23  24
ATOM     24  C   UNL     1      10.471   7.219   9.011  1.00  0.00    -0.000 C 
BRANCH  24  25
ATOM     25  C   UNL     1       9.409   7.262  10.124  1.00  0.00    -0.003 C 
ATOM     26  C   UNL     1       9.683   8.345  11.168  1.00  0.00     0.004 C 
ENDBRANCH  24  25
ENDBRANCH  23  24
ENDBRANCH  22  23
ENDBRANCH  21  22
ENDBRANCH  20  21
ENDBRANCH  19  20
ENDBRANCH  18  19
ENDBRANCH  17  18
ENDBRANCH  16  17
ENDBRANCH  15  16
ENDBRANCH   1  15
TORSDOF 22
ENDMDL
