MODEL 1
REMARK VINA RESULT:    -5.360      0.000      0.000
REMARK INTER + INTRA:          -8.327
REMARK INTER:                  -7.083
REMARK INTRA:                  -1.244
REMARK UNBOUND:                -1.244
REMARK SMILES CC[C@H](C=C[C@@H](C)[C@H]1CC[C@H]2[C@H]3CC=C4C[C@@H](O)CC[C@@]4(C)[C@@H]3CC[C@@]12C)C(C)C
REMARK SMILES IDX 6 1 7 2 5 3 4 4 3 5 2 6 1 7 28 8 29 9 30 10 8 11 9 12 26 13
REMARK SMILES IDX 10 14 11 15 25 16 27 17 12 18 24 19 23 20 13 21 21 22 14 23
REMARK SMILES IDX 15 24 20 25 22 26 16 27 19 28 17 29 18 30
REMARK H PARENT 18 31
REMARK Flexibility Score: inf
ROOT
ATOM      1  C   UNL     1     111.420 119.056 102.662  1.00  0.00     0.012 C 
ATOM      2  C   UNL     1     110.276 118.093 103.011  1.00  0.00     0.012 C 
ENDROOT
BRANCH   1   3
ATOM      3  C   UNL     1     110.996 119.853 101.445  1.00  0.00    -0.028 C 
ATOM      4  C   UNL     1     109.898 119.537 100.737  1.00  0.00    -0.027 C 
BRANCH   4   5
ATOM      5  C   UNL     1     109.449 120.343  99.533  1.00  0.00     0.014 C 
BRANCH   5   6
ATOM      6  C   UNL     1     108.154 121.134  99.884  1.00  0.00     0.004 C 
ATOM      7  C   UNL     1     107.255 120.385 100.868  1.00  0.00     0.004 C 
ENDBRANCH   5   6
BRANCH   5   8
ATOM      8  C   UNL     1     110.606 121.252  99.002  1.00  0.00    -0.011 C 
ATOM      9  C   UNL     1     111.280 120.635  97.763  1.00  0.00     0.008 C 
ATOM     10  C   UNL     1     110.116 122.665  98.649  1.00  0.00     0.008 C 
ENDBRANCH   5   8
ENDBRANCH   4   5
ENDBRANCH   1   3
BRANCH   1  11
ATOM     11  C   UNL     1     112.771 118.325 102.366  1.00  0.00     0.002 C 
ATOM     12  C   UNL     1     113.113 118.358 100.863  1.00  0.00     0.005 C 
ATOM     13  C   UNL     1     114.061 118.836 103.084  1.00  0.00    -0.026 C 
ATOM     14  C   UNL     1     114.630 118.425 100.742  1.00  0.00     0.005 C 
ATOM     15  C   UNL     1     115.185 118.297 102.165  1.00  0.00    -0.001 C 
ATOM     16  C   UNL     1     114.108 120.393 103.132  1.00  0.00     0.007 C 
ATOM     17  C   UNL     1     114.207 118.225 104.503  1.00  0.00     0.012 C 
ATOM     18  C   UNL     1     116.594 118.935 102.397  1.00  0.00     0.000 C 
ATOM     19  C   UNL     1     115.491 120.938 103.490  1.00  0.00     0.005 C 
ATOM     20  C   UNL     1     116.566 120.481 102.475  1.00  0.00     0.003 C 
ATOM     21  C   UNL     1     117.594 118.468 101.327  1.00  0.00     0.031 C 
ATOM     22  C   UNL     1     117.999 121.087 102.770  1.00  0.00    -0.008 C 
ATOM     23  C   UNL     1     118.921 119.159 101.419  1.00  0.00    -0.027 C 
ATOM     24  C   UNL     1     119.078 120.404 101.914  1.00  0.00    -0.065 C 
ATOM     25  C   UNL     1     117.976 122.611 102.425  1.00  0.00     0.014 C 
ATOM     26  C   UNL     1     118.396 120.906 104.262  1.00  0.00     0.016 C 
ATOM     27  C   UNL     1     120.447 121.051 101.799  1.00  0.00     0.063 C 
ATOM     28  C   UNL     1     119.364 123.272 102.402  1.00  0.00     0.033 C 
ATOM     29  C   UNL     1     120.340 122.547 101.462  1.00  0.00     0.118 C 
BRANCH  29  30
ATOM     30  O   UNL     1     119.998 122.757 100.113  1.00  0.00    -0.393 OA
ATOM     31  H   UNL     1     119.090 122.387  99.960  1.00  0.00     0.210 HD
ENDBRANCH  29  30
ENDBRANCH   1  11
TORSDOF 6
ENDMDL
MODEL 2
REMARK VINA RESULT:    -5.252     14.248     17.370
REMARK INTER + INTRA:          -8.185
REMARK INTER:                  -6.471
REMARK INTRA:                  -1.714
REMARK UNBOUND:                -1.244
REMARK SMILES CC[C@H](C=C[C@@H](C)[C@H]1CC[C@H]2[C@H]3CC=C4C[C@@H](O)CC[C@@]4(C)[C@@H]3CC[C@@]12C)C(C)C
REMARK SMILES IDX 6 1 7 2 5 3 4 4 3 5 2 6 1 7 28 8 29 9 30 10 8 11 9 12 26 13
REMARK SMILES IDX 10 14 11 15 25 16 27 17 12 18 24 19 23 20 13 21 21 22 14 23
REMARK SMILES IDX 15 24 20 25 22 26 16 27 19 28 17 29 18 30
REMARK H PARENT 18 31
REMARK Flexibility Score: inf
ROOT
ATOM      1  C   UNL     1     112.090 104.956  94.993  1.00  0.00     0.012 C 
ATOM      2  C   UNL     1     111.742 103.875  96.027  1.00  0.00     0.012 C 
ENDROOT
BRANCH   1   3
ATOM      3  C   UNL     1     112.956 105.991  95.683  1.00  0.00    -0.028 C 
ATOM      4  C   UNL     1     114.187 106.298  95.238  1.00  0.00    -0.027 C 
BRANCH   4   5
ATOM      5  C   UNL     1     115.052 107.351  95.903  1.00  0.00     0.014 C 
BRANCH   5   6
ATOM      6  C   UNL     1     116.519 106.839  96.003  1.00  0.00     0.004 C 
ATOM      7  C   UNL     1     116.681 105.412  95.479  1.00  0.00     0.004 C 
ENDBRANCH   5   6
BRANCH   5   8
ATOM      8  C   UNL     1     114.924 108.727  95.171  1.00  0.00    -0.011 C 
ATOM      9  C   UNL     1     114.673 108.539  93.663  1.00  0.00     0.008 C 
ATOM     10  C   UNL     1     113.796 109.592  95.757  1.00  0.00     0.008 C 
ENDBRANCH   5   8
ENDBRANCH   4   5
ENDBRANCH   1   3
BRANCH   1  11
ATOM     11  C   UNL     1     110.829 105.651  94.382  1.00  0.00     0.002 C 
ATOM     12  C   UNL     1     110.671 107.093  94.901  1.00  0.00     0.005 C 
ATOM     13  C   UNL     1     110.731 105.770  92.826  1.00  0.00    -0.026 C 
ATOM     14  C   UNL     1     110.055 107.918  93.777  1.00  0.00     0.005 C 
ATOM     15  C   UNL     1     109.728 106.936  92.648  1.00  0.00    -0.001 C 
ATOM     16  C   UNL     1     112.106 106.144  92.197  1.00  0.00     0.007 C 
ATOM     17  C   UNL     1     110.153 104.478  92.188  1.00  0.00     0.012 C 
ATOM     18  C   UNL     1     109.680 107.554  91.212  1.00  0.00     0.000 C 
ATOM     19  C   UNL     1     111.990 106.620  90.748  1.00  0.00     0.005 C 
ATOM     20  C   UNL     1     111.079 107.865  90.627  1.00  0.00     0.003 C 
ATOM     21  C   UNL     1     108.792 108.809  91.181  1.00  0.00     0.031 C 
ATOM     22  C   UNL     1     110.993 108.434  89.152  1.00  0.00    -0.008 C 
ATOM     23  C   UNL     1     108.825 109.522  89.864  1.00  0.00    -0.027 C 
ATOM     24  C   UNL     1     109.882 109.490  89.027  1.00  0.00    -0.065 C 
ATOM     25  C   UNL     1     112.360 109.101  88.794  1.00  0.00     0.014 C 
ATOM     26  C   UNL     1     110.690 107.306  88.125  1.00  0.00     0.016 C 
ATOM     27  C   UNL     1     109.852 110.387  87.802  1.00  0.00     0.063 C 
ATOM     28  C   UNL     1     112.336 109.932  87.502  1.00  0.00     0.033 C 
ATOM     29  C   UNL     1     111.231 111.001  87.515  1.00  0.00     0.118 C 
BRANCH  29  30
ATOM     30  O   UNL     1     111.539 112.040  88.413  1.00  0.00    -0.393 OA
ATOM     31  H   UNL     1     111.792 112.842  87.888  1.00  0.00     0.210 HD
ENDBRANCH  29  30
ENDBRANCH   1  11
TORSDOF 6
ENDMDL
MODEL 3
REMARK VINA RESULT:    -5.131     13.555     15.249
REMARK INTER + INTRA:          -8.025
REMARK INTER:                  -6.394
REMARK INTRA:                  -1.631
REMARK UNBOUND:                -1.244
REMARK SMILES CC[C@H](C=C[C@@H](C)[C@H]1CC[C@H]2[C@H]3CC=C4C[C@@H](O)CC[C@@]4(C)[C@@H]3CC[C@@]12C)C(C)C
REMARK SMILES IDX 6 1 7 2 5 3 4 4 3 5 2 6 1 7 28 8 29 9 30 10 8 11 9 12 26 13
REMARK SMILES IDX 10 14 11 15 25 16 27 17 12 18 24 19 23 20 13 21 21 22 14 23
REMARK SMILES IDX 15 24 20 25 22 26 16 27 19 28 17 29 18 30
REMARK H PARENT 18 31
REMARK Flexibility Score: inf
ROOT
ATOM      1  C   UNL     1     109.720 105.121  93.487  1.00  0.00     0.012 C 
ATOM      2  C   UNL     1     108.749 103.935  93.384  1.00  0.00     0.012 C 
ENDROOT
BRANCH   1   3
ATOM      3  C   UNL     1     109.806 105.765  92.119  1.00  0.00    -0.028 C 
ATOM      4  C   UNL     1     109.713 107.096  91.954  1.00  0.00    -0.027 C 
BRANCH   4   5
ATOM      5  C   UNL     1     109.825 107.755  90.592  1.00  0.00     0.014 C 
BRANCH   5   6
ATOM      6  C   UNL     1     108.916 109.019  90.545  1.00  0.00     0.004 C 
ATOM      7  C   UNL     1     108.710 109.542  89.122  1.00  0.00     0.004 C 
ENDBRANCH   5   6
BRANCH   5   8
ATOM      8  C   UNL     1     111.318 108.052  90.233  1.00  0.00    -0.011 C 
ATOM      9  C   UNL     1     112.113 108.506  91.472  1.00  0.00     0.008 C 
ATOM     10  C   UNL     1     112.018 106.832  89.614  1.00  0.00     0.008 C 
ENDBRANCH   5   8
ENDBRANCH   4   5
ENDBRANCH   1   3
BRANCH   1  11
ATOM     11  C   UNL     1     111.151 104.703  93.961  1.00  0.00     0.002 C 
ATOM     12  C   UNL     1     112.142 104.643  92.782  1.00  0.00     0.005 C 
ATOM     13  C   UNL     1     111.861 105.586  95.038  1.00  0.00    -0.026 C 
ATOM     14  C   UNL     1     113.509 105.055  93.313  1.00  0.00     0.005 C 
ATOM     15  C   UNL     1     113.352 105.228  94.827  1.00  0.00    -0.001 C 
ATOM     16  C   UNL     1     111.631 107.104  94.770  1.00  0.00     0.007 C 
ATOM     17  C   UNL     1     111.426 105.197  96.476  1.00  0.00     0.012 C 
ATOM     18  C   UNL     1     114.370 106.206  95.501  1.00  0.00     0.000 C 
ATOM     19  C   UNL     1     112.582 108.001  95.563  1.00  0.00     0.005 C 
ATOM     20  C   UNL     1     114.062 107.699  95.230  1.00  0.00     0.003 C 
ATOM     21  C   UNL     1     115.813 105.870  95.089  1.00  0.00     0.031 C 
ATOM     22  C   UNL     1     115.078 108.659  95.975  1.00  0.00    -0.008 C 
ATOM     23  C   UNL     1     116.816 106.863  95.593  1.00  0.00    -0.027 C 
ATOM     24  C   UNL     1     116.524 108.159  95.831  1.00  0.00    -0.065 C 
ATOM     25  C   UNL     1     114.975 110.083  95.341  1.00  0.00     0.014 C 
ATOM     26  C   UNL     1     114.760 108.753  97.495  1.00  0.00     0.016 C 
ATOM     27  C   UNL     1     117.667 109.096  96.181  1.00  0.00     0.063 C 
ATOM     28  C   UNL     1     116.089 111.048  95.776  1.00  0.00     0.033 C 
ATOM     29  C   UNL     1     117.491 110.474  95.523  1.00  0.00     0.118 C 
BRANCH  29  30
ATOM     30  O   UNL     1     117.786 110.437  94.147  1.00  0.00    -0.393 OA
ATOM     31  H   UNL     1     118.421 109.693  93.983  1.00  0.00     0.210 HD
ENDBRANCH  29  30
ENDBRANCH   1  11
TORSDOF 6
ENDMDL
MODEL 4
REMARK VINA RESULT:    -4.978     11.970     14.724
REMARK INTER + INTRA:          -7.823
REMARK INTER:                  -6.329
REMARK INTRA:                  -1.494
REMARK UNBOUND:                -1.244
REMARK SMILES CC[C@H](C=C[C@@H](C)[C@H]1CC[C@H]2[C@H]3CC=C4C[C@@H](O)CC[C@@]4(C)[C@@H]3CC[C@@]12C)C(C)C
REMARK SMILES IDX 6 1 7 2 5 3 4 4 3 5 2 6 1 7 28 8 29 9 30 10 8 11 9 12 26 13
REMARK SMILES IDX 10 14 11 15 25 16 27 17 12 18 24 19 23 20 13 21 21 22 14 23
REMARK SMILES IDX 15 24 20 25 22 26 16 27 19 28 17 29 18 30
REMARK H PARENT 18 31
REMARK Flexibility Score: inf
ROOT
ATOM      1  C   UNL     1     113.639 111.956  96.669  1.00  0.00     0.012 C 
ATOM      2  C   UNL     1     114.581 112.740  97.594  1.00  0.00     0.012 C 
ENDROOT
BRANCH   1   3
ATOM      3  C   UNL     1     112.410 112.809  96.432  1.00  0.00    -0.028 C 
ATOM      4  C   UNL     1     111.945 113.057  95.195  1.00  0.00    -0.027 C 
BRANCH   4   5
ATOM      5  C   UNL     1     110.700 113.887  94.947  1.00  0.00     0.014 C 
BRANCH   5   6
ATOM      6  C   UNL     1     111.086 115.206  94.213  1.00  0.00     0.004 C 
ATOM      7  C   UNL     1     112.586 115.305  93.932  1.00  0.00     0.004 C 
ENDBRANCH   5   6
BRANCH   5   8
ATOM      8  C   UNL     1     109.611 113.055  94.193  1.00  0.00    -0.011 C 
ATOM      9  C   UNL     1     109.750 111.550  94.490  1.00  0.00     0.008 C 
ATOM     10  C   UNL     1     108.186 113.503  94.556  1.00  0.00     0.008 C 
ENDBRANCH   5   8
ENDBRANCH   4   5
ENDBRANCH   1   3
BRANCH   1  11
ATOM     11  C   UNL     1     113.211 110.571  97.258  1.00  0.00     0.002 C 
ATOM     12  C   UNL     1     111.727 110.570  97.677  1.00  0.00     0.005 C 
ATOM     13  C   UNL     1     113.376 109.302  96.361  1.00  0.00    -0.026 C 
ATOM     14  C   UNL     1     111.187 109.165  97.440  1.00  0.00     0.005 C 
ATOM     15  C   UNL     1     112.381 108.308  97.009  1.00  0.00    -0.001 C 
ATOM     16  C   UNL     1     112.962 109.590  94.886  1.00  0.00     0.007 C 
ATOM     17  C   UNL     1     114.817 108.729  96.439  1.00  0.00     0.012 C 
ATOM     18  C   UNL     1     112.033 107.058  96.138  1.00  0.00     0.000 C 
ATOM     19  C   UNL     1     112.763 108.317  94.063  1.00  0.00     0.005 C 
ATOM     20  C   UNL     1     111.670 107.407  94.673  1.00  0.00     0.003 C 
ATOM     21  C   UNL     1     110.912 106.229  96.786  1.00  0.00     0.031 C 
ATOM     22  C   UNL     1     111.380 106.114  93.808  1.00  0.00    -0.008 C 
ATOM     23  C   UNL     1     110.440 105.098  95.924  1.00  0.00    -0.027 C 
ATOM     24  C   UNL     1     110.497 105.116  94.576  1.00  0.00    -0.065 C 
ATOM     25  C   UNL     1     110.634 106.542  92.504  1.00  0.00     0.014 C 
ATOM     26  C   UNL     1     112.697 105.379  93.425  1.00  0.00     0.016 C 
ATOM     27  C   UNL     1     109.836 103.980  93.817  1.00  0.00     0.063 C 
ATOM     28  C   UNL     1     110.049 105.371  91.699  1.00  0.00     0.033 C 
ATOM     29  C   UNL     1     109.128 104.481  92.548  1.00  0.00     0.118 C 
BRANCH  29  30
ATOM     30  O   UNL     1     107.920 105.138  92.849  1.00  0.00    -0.393 OA
ATOM     31  H   UNL     1     107.188 104.470  92.833  1.00  0.00     0.210 HD
ENDBRANCH  29  30
ENDBRANCH   1  11
TORSDOF 6
ENDMDL
MODEL 5
REMARK VINA RESULT:    -4.831     11.531     14.275
REMARK INTER + INTRA:          -7.628
REMARK INTER:                  -6.009
REMARK INTRA:                  -1.620
REMARK UNBOUND:                -1.244
REMARK SMILES CC[C@H](C=C[C@@H](C)[C@H]1CC[C@H]2[C@H]3CC=C4C[C@@H](O)CC[C@@]4(C)[C@@H]3CC[C@@]12C)C(C)C
REMARK SMILES IDX 6 1 7 2 5 3 4 4 3 5 2 6 1 7 28 8 29 9 30 10 8 11 9 12 26 13
REMARK SMILES IDX 10 14 11 15 25 16 27 17 12 18 24 19 23 20 13 21 21 22 14 23
REMARK SMILES IDX 15 24 20 25 22 26 16 27 19 28 17 29 18 30
REMARK H PARENT 18 31
REMARK Flexibility Score: inf
ROOT
ATOM      1  C   UNL     1     111.118 106.914  92.285  1.00  0.00     0.012 C 
ATOM      2  C   UNL     1     110.963 106.082  91.003  1.00  0.00     0.012 C 
ENDROOT
BRANCH   1   3
ATOM      3  C   UNL     1     110.576 106.092  93.436  1.00  0.00    -0.028 C 
ATOM      4  C   UNL     1     111.285 105.889  94.560  1.00  0.00    -0.027 C 
BRANCH   4   5
ATOM      5  C   UNL     1     110.742 105.091  95.729  1.00  0.00     0.014 C 
BRANCH   5   6
ATOM      6  C   UNL     1     111.780 104.010  96.154  1.00  0.00     0.004 C 
ATOM      7  C   UNL     1     113.184 104.301  95.622  1.00  0.00     0.004 C 
ENDBRANCH   5   6
BRANCH   5   8
ATOM      8  C   UNL     1     110.314 106.033  96.902  1.00  0.00    -0.011 C 
ATOM      9  C   UNL     1     110.502 105.348  98.269  1.00  0.00     0.008 C 
ATOM     10  C   UNL     1     111.099 107.355  96.899  1.00  0.00     0.008 C 
ENDBRANCH   5   8
ENDBRANCH   4   5
ENDBRANCH   1   3
BRANCH   1  11
ATOM     11  C   UNL     1     110.369 108.286  92.221  1.00  0.00     0.002 C 
ATOM     12  C   UNL     1     109.102 108.279  93.099  1.00  0.00     0.005 C 
ATOM     13  C   UNL     1     111.146 109.574  92.648  1.00  0.00    -0.026 C 
ATOM     14  C   UNL     1     108.919 109.689  93.647  1.00  0.00     0.005 C 
ATOM     15  C   UNL     1     109.998 110.554  92.989  1.00  0.00    -0.001 C 
ATOM     16  C   UNL     1     112.024 109.317  93.909  1.00  0.00     0.007 C 
ATOM     17  C   UNL     1     111.994 110.145  91.479  1.00  0.00     0.012 C 
ATOM     18  C   UNL     1     110.428 111.823  93.795  1.00  0.00     0.000 C 
ATOM     19  C   UNL     1     112.512 110.607  94.570  1.00  0.00     0.005 C 
ATOM     20  C   UNL     1     111.331 111.504  95.012  1.00  0.00     0.003 C 
ATOM     21  C   UNL     1     109.201 112.639  94.236  1.00  0.00     0.031 C 
ATOM     22  C   UNL     1     111.793 112.815  95.769  1.00  0.00    -0.008 C 
ATOM     23  C   UNL     1     109.548 113.787  95.133  1.00  0.00    -0.027 C 
ATOM     24  C   UNL     1     110.623 113.797  95.947  1.00  0.00    -0.065 C 
ATOM     25  C   UNL     1     112.331 112.414  97.180  1.00  0.00     0.014 C 
ATOM     26  C   UNL     1     112.915 113.557  94.987  1.00  0.00     0.016 C 
ATOM     27  C   UNL     1     110.770 114.949  96.925  1.00  0.00     0.063 C 
ATOM     28  C   UNL     1     112.560 113.602  98.127  1.00  0.00     0.033 C 
ATOM     29  C   UNL     1     111.305 114.475  98.285  1.00  0.00     0.118 C 
BRANCH  29  30
ATOM     30  O   UNL     1     110.315 113.812  99.034  1.00  0.00    -0.393 OA
ATOM     31  H   UNL     1     110.366 112.842  98.831  1.00  0.00     0.210 HD
ENDBRANCH  29  30
ENDBRANCH   1  11
TORSDOF 6
ENDMDL
MODEL 6
REMARK VINA RESULT:    -4.830     12.492     15.257
REMARK INTER + INTRA:          -7.628
REMARK INTER:                  -5.994
REMARK INTRA:                  -1.634
REMARK UNBOUND:                -1.244
REMARK SMILES CC[C@H](C=C[C@@H](C)[C@H]1CC[C@H]2[C@H]3CC=C4C[C@@H](O)CC[C@@]4(C)[C@@H]3CC[C@@]12C)C(C)C
REMARK SMILES IDX 6 1 7 2 5 3 4 4 3 5 2 6 1 7 28 8 29 9 30 10 8 11 9 12 26 13
REMARK SMILES IDX 10 14 11 15 25 16 27 17 12 18 24 19 23 20 13 21 21 22 14 23
REMARK SMILES IDX 15 24 20 25 22 26 16 27 19 28 17 29 18 30
REMARK H PARENT 18 31
REMARK Flexibility Score: inf
ROOT
ATOM      1  C   UNL     1     111.276 113.216  92.348  1.00  0.00     0.012 C 
ATOM      2  C   UNL     1     111.315 114.750  92.393  1.00  0.00     0.012 C 
ENDROOT
BRANCH   1   3
ATOM      3  C   UNL     1     110.292 112.812  91.269  1.00  0.00    -0.028 C 
ATOM      4  C   UNL     1     110.579 111.856  90.368  1.00  0.00    -0.027 C 
BRANCH   4   5
ATOM      5  C   UNL     1     109.592 111.425  89.300  1.00  0.00     0.014 C 
BRANCH   5   6
ATOM      6  C   UNL     1     110.283 111.451  87.905  1.00  0.00     0.004 C 
ATOM      7  C   UNL     1     111.803 111.310  87.999  1.00  0.00     0.004 C 
ENDBRANCH   5   6
BRANCH   5   8
ATOM      8  C   UNL     1     108.956 110.039  89.650  1.00  0.00    -0.011 C 
ATOM      9  C   UNL     1     108.907 109.117  88.417  1.00  0.00     0.008 C 
ATOM     10  C   UNL     1     109.716 109.321  90.776  1.00  0.00     0.008 C 
ENDBRANCH   5   8
ENDBRANCH   4   5
ENDBRANCH   1   3
BRANCH   1  11
ATOM     11  C   UNL     1     110.854 112.571  93.709  1.00  0.00     0.002 C 
ATOM     12  C   UNL     1     109.432 111.981  93.639  1.00  0.00     0.005 C 
ATOM     13  C   UNL     1     111.739 111.419  94.288  1.00  0.00    -0.026 C 
ATOM     14  C   UNL     1     109.400 110.756  94.545  1.00  0.00     0.005 C 
ATOM     15  C   UNL     1     110.760 110.703  95.250  1.00  0.00    -0.001 C 
ATOM     16  C   UNL     1     112.203 110.441  93.168  1.00  0.00     0.007 C 
ATOM     17  C   UNL     1     112.949 111.973  95.088  1.00  0.00     0.012 C 
ATOM     18  C   UNL     1     111.216 109.284  95.723  1.00  0.00     0.000 C 
ATOM     19  C   UNL     1     112.755 109.124  93.716  1.00  0.00     0.005 C 
ATOM     20  C   UNL     1     111.703 108.375  94.569  1.00  0.00     0.003 C 
ATOM     21  C   UNL     1     110.105 108.587  96.525  1.00  0.00     0.031 C 
ATOM     22  C   UNL     1     112.211 106.970  95.093  1.00  0.00    -0.008 C 
ATOM     23  C   UNL     1     110.436 107.169  96.882  1.00  0.00    -0.027 C 
ATOM     24  C   UNL     1     111.252 106.388  96.144  1.00  0.00    -0.065 C 
ATOM     25  C   UNL     1     112.286 105.983  93.883  1.00  0.00     0.014 C 
ATOM     26  C   UNL     1     113.617 107.083  95.748  1.00  0.00     0.016 C 
ATOM     27  C   UNL     1     111.375 104.923  96.524  1.00  0.00     0.063 C 
ATOM     28  C   UNL     1     112.501 104.515  94.281  1.00  0.00     0.033 C 
ATOM     29  C   UNL     1     111.446 104.020  95.282  1.00  0.00     0.118 C 
BRANCH  29  30
ATOM     30  O   UNL     1     110.188 103.877  94.667  1.00  0.00    -0.393 OA
ATOM     31  H   UNL     1     110.000 102.909  94.562  1.00  0.00     0.210 HD
ENDBRANCH  29  30
ENDBRANCH   1  11
TORSDOF 6
ENDMDL
MODEL 7
REMARK VINA RESULT:    -4.650     12.104     14.104
REMARK INTER + INTRA:          -7.389
REMARK INTER:                  -5.753
REMARK INTRA:                  -1.636
REMARK UNBOUND:                -1.244
REMARK SMILES CC[C@H](C=C[C@@H](C)[C@H]1CC[C@H]2[C@H]3CC=C4C[C@@H](O)CC[C@@]4(C)[C@@H]3CC[C@@]12C)C(C)C
REMARK SMILES IDX 6 1 7 2 5 3 4 4 3 5 2 6 1 7 28 8 29 9 30 10 8 11 9 12 26 13
REMARK SMILES IDX 10 14 11 15 25 16 27 17 12 18 24 19 23 20 13 21 21 22 14 23
REMARK SMILES IDX 15 24 20 25 22 26 16 27 19 28 17 29 18 30
REMARK H PARENT 18 31
REMARK Flexibility Score: inf
ROOT
ATOM      1  C   UNL     1     109.662 106.039  93.047  1.00  0.00     0.012 C 
ATOM      2  C   UNL     1     109.222 104.635  92.605  1.00  0.00     0.012 C 
ENDROOT
BRANCH   1   3
ATOM      3  C   UNL     1     109.876 106.869  91.799  1.00  0.00    -0.028 C 
ATOM      4  C   UNL     1     109.235 108.035  91.603  1.00  0.00    -0.027 C 
BRANCH   4   5
ATOM      5  C   UNL     1     109.462 108.888  90.369  1.00  0.00     0.014 C 
BRANCH   5   6
ATOM      6  C   UNL     1     109.962 110.301  90.793  1.00  0.00     0.004 C 
ATOM      7  C   UNL     1     110.144 110.432  92.305  1.00  0.00     0.004 C 
ENDBRANCH   5   6
BRANCH   5   8
ATOM      8  C   UNL     1     110.415 108.171  89.358  1.00  0.00    -0.011 C 
ATOM      9  C   UNL     1     109.917 108.329  87.909  1.00  0.00     0.008 C 
ATOM     10  C   UNL     1     111.857 108.698  89.447  1.00  0.00     0.008 C 
ENDBRANCH   5   8
ENDBRANCH   4   5
ENDBRANCH   1   3
BRANCH   1  11
ATOM     11  C   UNL     1     110.971 106.031  93.903  1.00  0.00     0.002 C 
ATOM     12  C   UNL     1     112.160 106.624  93.122  1.00  0.00     0.005 C 
ATOM     13  C   UNL     1     110.967 106.793  95.268  1.00  0.00    -0.026 C 
ATOM     14  C   UNL     1     113.062 107.329  94.128  1.00  0.00     0.005 C 
ATOM     15  C   UNL     1     112.476 107.038  95.514  1.00  0.00    -0.001 C 
ATOM     16  C   UNL     1     110.214 108.152  95.159  1.00  0.00     0.007 C 
ATOM     17  C   UNL     1     110.386 105.918  96.411  1.00  0.00     0.012 C 
ATOM     18  C   UNL     1     112.804 108.095  96.618  1.00  0.00     0.000 C 
ATOM     19  C   UNL     1     110.487 109.083  96.342  1.00  0.00     0.005 C 
ATOM     20  C   UNL     1     111.994 109.407  96.477  1.00  0.00     0.003 C 
ATOM     21  C   UNL     1     114.312 108.396  96.663  1.00  0.00     0.031 C 
ATOM     22  C   UNL     1     112.310 110.429  97.645  1.00  0.00    -0.008 C 
ATOM     23  C   UNL     1     114.663 109.506  97.606  1.00  0.00    -0.027 C 
ATOM     24  C   UNL     1     113.821 110.513  97.917  1.00  0.00    -0.065 C 
ATOM     25  C   UNL     1     111.798 111.843  97.222  1.00  0.00     0.014 C 
ATOM     26  C   UNL     1     111.614 110.009  98.971  1.00  0.00     0.016 C 
ATOM     27  C   UNL     1     114.356 111.660  98.755  1.00  0.00     0.063 C 
ATOM     28  C   UNL     1     112.276 112.984  98.134  1.00  0.00     0.033 C 
ATOM     29  C   UNL     1     113.805 113.014  98.279  1.00  0.00     0.118 C 
BRANCH  29  30
ATOM     30  O   UNL     1     114.422 113.441  97.088  1.00  0.00    -0.393 OA
ATOM     31  H   UNL     1     113.714 113.734  96.458  1.00  0.00     0.210 HD
ENDBRANCH  29  30
ENDBRANCH   1  11
TORSDOF 6
ENDMDL
MODEL 8
REMARK VINA RESULT:    -4.629     13.473     16.502
REMARK INTER + INTRA:          -7.361
REMARK INTER:                  -6.017
REMARK INTRA:                  -1.344
REMARK UNBOUND:                -1.244
REMARK SMILES CC[C@H](C=C[C@@H](C)[C@H]1CC[C@H]2[C@H]3CC=C4C[C@@H](O)CC[C@@]4(C)[C@@H]3CC[C@@]12C)C(C)C
REMARK SMILES IDX 6 1 7 2 5 3 4 4 3 5 2 6 1 7 28 8 29 9 30 10 8 11 9 12 26 13
REMARK SMILES IDX 10 14 11 15 25 16 27 17 12 18 24 19 23 20 13 21 21 22 14 23
REMARK SMILES IDX 15 24 20 25 22 26 16 27 19 28 17 29 18 30
REMARK H PARENT 18 31
REMARK Flexibility Score: inf
ROOT
ATOM      1  C   UNL     1     110.734 108.740  96.550  1.00  0.00     0.012 C 
ATOM      2  C   UNL     1     110.949 109.123  98.021  1.00  0.00     0.012 C 
ENDROOT
BRANCH   1   3
ATOM      3  C   UNL     1     111.597 107.530  96.258  1.00  0.00    -0.028 C 
ATOM      4  C   UNL     1     111.064 106.323  96.000  1.00  0.00    -0.027 C 
BRANCH   4   5
ATOM      5  C   UNL     1     111.917 105.110  95.680  1.00  0.00     0.014 C 
BRANCH   5   6
ATOM      6  C   UNL     1     111.708 104.018  96.771  1.00  0.00     0.004 C 
ATOM      7  C   UNL     1     110.954 104.545  97.993  1.00  0.00     0.004 C 
ENDBRANCH   5   6
BRANCH   5   8
ATOM      8  C   UNL     1     111.640 104.597  94.229  1.00  0.00    -0.011 C 
ATOM      9  C   UNL     1     110.162 104.787  93.839  1.00  0.00     0.008 C 
ATOM     10  C   UNL     1     112.523 105.302  93.187  1.00  0.00     0.008 C 
ENDBRANCH   5   8
ENDBRANCH   4   5
ENDBRANCH   1   3
BRANCH   1  11
ATOM     11  C   UNL     1     111.094 109.893  95.556  1.00  0.00     0.002 C 
ATOM     12  C   UNL     1     112.574 109.829  95.129  1.00  0.00     0.005 C 
ATOM     13  C   UNL     1     110.293 109.993  94.217  1.00  0.00    -0.026 C 
ATOM     14  C   UNL     1     112.656 110.332  93.693  1.00  0.00     0.005 C 
ATOM     15  C   UNL     1     111.251 110.815  93.320  1.00  0.00    -0.001 C 
ATOM     16  C   UNL     1     110.050 108.586  93.593  1.00  0.00     0.007 C 
ATOM     17  C   UNL     1     108.959 110.764  94.404  1.00  0.00     0.012 C 
ATOM     18  C   UNL     1     110.913 110.790  91.794  1.00  0.00     0.000 C 
ATOM     19  C   UNL     1     109.599 108.650  92.133  1.00  0.00     0.005 C 
ATOM     20  C   UNL     1     110.643 109.368  91.244  1.00  0.00     0.003 C 
ATOM     21  C   UNL     1     112.014 111.483  90.974  1.00  0.00     0.031 C 
ATOM     22  C   UNL     1     110.248 109.388  89.711  1.00  0.00    -0.008 C 
ATOM     23  C   UNL     1     111.812 111.363  89.494  1.00  0.00    -0.027 C 
ATOM     24  C   UNL     1     111.162 110.333  88.914  1.00  0.00    -0.065 C 
ATOM     25  C   UNL     1     110.399 107.943  89.138  1.00  0.00     0.014 C 
ATOM     26  C   UNL     1     108.782 109.868  89.509  1.00  0.00     0.016 C 
ATOM     27  C   UNL     1     111.169 110.246  87.398  1.00  0.00     0.063 C 
ATOM     28  C   UNL     1     110.313 107.861  87.606  1.00  0.00     0.033 C 
ATOM     29  C   UNL     1     111.317 108.795  86.914  1.00  0.00     0.118 C 
BRANCH  29  30
ATOM     30  O   UNL     1     112.636 108.326  87.064  1.00  0.00    -0.393 OA
ATOM     31  H   UNL     1     112.975 108.625  87.947  1.00  0.00     0.210 HD
ENDBRANCH  29  30
ENDBRANCH   1  11
TORSDOF 6
ENDMDL
MODEL 9
REMARK VINA RESULT:    -4.617     12.073     14.924
REMARK INTER + INTRA:          -7.346
REMARK INTER:                  -6.187
REMARK INTRA:                  -1.158
REMARK UNBOUND:                -1.244
REMARK SMILES CC[C@H](C=C[C@@H](C)[C@H]1CC[C@H]2[C@H]3CC=C4C[C@@H](O)CC[C@@]4(C)[C@@H]3CC[C@@]12C)C(C)C
REMARK SMILES IDX 6 1 7 2 5 3 4 4 3 5 2 6 1 7 28 8 29 9 30 10 8 11 9 12 26 13
REMARK SMILES IDX 10 14 11 15 25 16 27 17 12 18 24 19 23 20 13 21 21 22 14 23
REMARK SMILES IDX 15 24 20 25 22 26 16 27 19 28 17 29 18 30
REMARK H PARENT 18 31
REMARK Flexibility Score: inf
ROOT
ATOM      1  C   UNL     1     109.526 113.592  92.778  1.00  0.00     0.012 C 
ATOM      2  C   UNL     1     110.074 114.880  92.146  1.00  0.00     0.012 C 
ENDROOT
BRANCH   1   3
ATOM      3  C   UNL     1     108.524 113.991  93.841  1.00  0.00    -0.028 C 
ATOM      4  C   UNL     1     107.437 114.728  93.552  1.00  0.00    -0.027 C 
BRANCH   4   5
ATOM      5  C   UNL     1     106.412 115.111  94.602  1.00  0.00     0.014 C 
BRANCH   5   6
ATOM      6  C   UNL     1     104.989 115.115  93.970  1.00  0.00     0.004 C 
ATOM      7  C   UNL     1     104.167 116.338  94.379  1.00  0.00     0.004 C 
ENDBRANCH   5   6
BRANCH   5   8
ATOM      8  C   UNL     1     106.528 114.191  95.861  1.00  0.00    -0.011 C 
ATOM      9  C   UNL     1     106.641 115.021  97.154  1.00  0.00     0.008 C 
ATOM     10  C   UNL     1     105.333 113.232  95.990  1.00  0.00     0.008 C 
ENDBRANCH   5   8
ENDBRANCH   4   5
ENDBRANCH   1   3
BRANCH   1  11
ATOM     11  C   UNL     1     110.641 112.699  93.418  1.00  0.00     0.002 C 
ATOM     12  C   UNL     1     110.232 112.203  94.819  1.00  0.00     0.005 C 
ATOM     13  C   UNL     1     111.089 111.413  92.650  1.00  0.00    -0.026 C 
ATOM     14  C   UNL     1     110.843 110.820  95.009  1.00  0.00     0.005 C 
ATOM     15  C   UNL     1     111.717 110.559  93.778  1.00  0.00    -0.001 C 
ATOM     16  C   UNL     1     109.871 110.668  92.028  1.00  0.00     0.007 C 
ATOM     17  C   UNL     1     112.162 111.733  91.575  1.00  0.00     0.012 C 
ATOM     18  C   UNL     1     111.943 109.053  93.421  1.00  0.00     0.000 C 
ATOM     19  C   UNL     1     110.204 109.242  91.587  1.00  0.00     0.005 C 
ATOM     20  C   UNL     1     110.709 108.382  92.770  1.00  0.00     0.003 C 
ATOM     21  C   UNL     1     112.402 108.256  94.653  1.00  0.00     0.031 C 
ATOM     22  C   UNL     1     110.994 106.877  92.369  1.00  0.00    -0.008 C 
ATOM     23  C   UNL     1     112.495 106.782  94.401  1.00  0.00    -0.027 C 
ATOM     24  C   UNL     1     111.741 106.134  93.489  1.00  0.00    -0.065 C 
ATOM     25  C   UNL     1     109.629 106.160  92.117  1.00  0.00     0.014 C 
ATOM     26  C   UNL     1     111.864 106.786  91.082  1.00  0.00     0.016 C 
ATOM     27  C   UNL     1     111.815 104.618  93.447  1.00  0.00     0.063 C 
ATOM     28  C   UNL     1     109.734 104.633  91.987  1.00  0.00     0.033 C 
ATOM     29  C   UNL     1     110.436 103.990  93.193  1.00  0.00     0.118 C 
BRANCH  29  30
ATOM     30  O   UNL     1     109.621 104.036  94.340  1.00  0.00    -0.393 OA
ATOM     31  H   UNL     1     110.039 103.474  95.042  1.00  0.00     0.210 HD
ENDBRANCH  29  30
ENDBRANCH   1  11
TORSDOF 6
ENDMDL
