MODEL 1
REMARK VINA RESULT:     0.715      0.000      0.000
REMARK INTER + INTRA:          -0.773
REMARK INTER:                   1.635
REMARK INTRA:                  -2.408
REMARK UNBOUND:                -2.408
REMARK SMILES CCCCCCCCCCCCCCCCCCCCCCCC(=O)[O-]
REMARK SMILES IDX 13 1 14 2 15 3 16 4 17 5 18 6 19 7 20 8 21 9 22 10 23 11
REMARK SMILES IDX 24 12 25 13 26 14 12 15 11 16 10 17 9 18 8 19 7 20 6 21 5 22
REMARK SMILES IDX 4 23 3 24 2 25 1 26
REMARK H PARENT
REMARK Flexibility Score: inf
ROOT
ATOM      1  C   UNL     1      10.453  -3.721  -3.731  1.00  0.00     0.000 C 
ENDROOT
BRANCH   1   2
ATOM      2  C   UNL     1      11.928  -3.841  -4.130  1.00  0.00     0.000 C 
BRANCH   2   3
ATOM      3  C   UNL     1      12.119  -3.549  -5.626  1.00  0.00     0.000 C 
BRANCH   3   4
ATOM      4  C   UNL     1      11.371  -4.548  -6.528  1.00  0.00     0.000 C 
BRANCH   4   5
ATOM      5  C   UNL     1      12.057  -4.842  -7.876  1.00  0.00     0.000 C 
BRANCH   5   6
ATOM      6  C   UNL     1      12.121  -3.651  -8.853  1.00  0.00     0.000 C 
BRANCH   6   7
ATOM      7  C   UNL     1      11.264  -3.794 -10.124  1.00  0.00     0.000 C 
BRANCH   7   8
ATOM      8  C   UNL     1       9.981  -4.609  -9.891  1.00  0.00     0.000 C 
BRANCH   8   9
ATOM      9  C   UNL     1       8.699  -3.783 -10.102  1.00  0.00     0.000 C 
BRANCH   9  10
ATOM     10  C   UNL     1       7.384  -4.507  -9.747  1.00  0.00     0.006 C 
BRANCH  10  11
ATOM     11  C   UNL     1       6.448  -3.716  -8.820  1.00  0.00     0.053 C 
BRANCH  11  12
ATOM     12  C   UNL     1       5.019  -3.800  -9.263  1.00  0.00     0.041 C 
ATOM     13  O   UNL     1       4.547  -4.891  -9.677  1.00  0.00    -0.550 OA
ATOM     14  O   UNL     1       4.221  -2.663  -9.255  1.00  0.00    -0.550 OA
ENDBRANCH  11  12
ENDBRANCH  10  11
ENDBRANCH   9  10
ENDBRANCH   8   9
ENDBRANCH   7   8
ENDBRANCH   6   7
ENDBRANCH   5   6
ENDBRANCH   4   5
ENDBRANCH   3   4
ENDBRANCH   2   3
ENDBRANCH   1   2
BRANCH   1  15
ATOM     15  C   UNL     1      10.114  -4.674  -2.578  1.00  0.00     0.000 C 
BRANCH  15  16
ATOM     16  C   UNL     1      11.320  -4.856  -1.644  1.00  0.00     0.000 C 
BRANCH  16  17
ATOM     17  C   UNL     1      12.125  -6.126  -1.961  1.00  0.00     0.000 C 
BRANCH  17  18
ATOM     18  C   UNL     1      11.272  -7.215  -2.636  1.00  0.00    -0.000 C 
BRANCH  18  19
ATOM     19  C   UNL     1      12.099  -8.116  -3.567  1.00  0.00    -0.000 C 
BRANCH  19  20
ATOM     20  C   UNL     1      11.969  -7.714  -5.048  1.00  0.00    -0.000 C 
BRANCH  20  21
ATOM     21  C   UNL     1      10.605  -8.121  -5.645  1.00  0.00    -0.000 C 
BRANCH  21  22
ATOM     22  C   UNL     1       9.551  -7.002  -5.594  1.00  0.00    -0.000 C 
BRANCH  22  23
ATOM     23  C   UNL     1       9.030  -6.608  -6.983  1.00  0.00    -0.000 C 
BRANCH  23  24
ATOM     24  C   UNL     1       8.696  -7.853  -7.817  1.00  0.00    -0.000 C 
BRANCH  24  25
ATOM     25  C   UNL     1       9.525  -7.938  -9.108  1.00  0.00    -0.003 C 
ATOM     26  C   UNL     1      11.020  -8.102  -8.841  1.00  0.00     0.004 C 
ENDBRANCH  24  25
ENDBRANCH  23  24
ENDBRANCH  22  23
ENDBRANCH  21  22
ENDBRANCH  20  21
ENDBRANCH  19  20
ENDBRANCH  18  19
ENDBRANCH  17  18
ENDBRANCH  16  17
ENDBRANCH  15  16
ENDBRANCH   1  15
TORSDOF 22
ENDMDL
MODEL 2
REMARK VINA RESULT:     1.655      1.122      2.461
REMARK INTER + INTRA:           1.376
REMARK INTER:                  -0.833
REMARK INTRA:                   2.209
REMARK UNBOUND:                -2.408
REMARK SMILES CCCCCCCCCCCCCCCCCCCCCCCC(=O)[O-]
REMARK SMILES IDX 13 1 14 2 15 3 16 4 17 5 18 6 19 7 20 8 21 9 22 10 23 11
REMARK SMILES IDX 24 12 25 13 26 14 12 15 11 16 10 17 9 18 8 19 7 20 6 21 5 22
REMARK SMILES IDX 4 23 3 24 2 25 1 26
REMARK H PARENT
REMARK Flexibility Score: inf
ROOT
ATOM      1  C   UNL     1      10.290  -4.793  -2.609  1.00  0.00     0.000 C 
ENDROOT
BRANCH   1   2
ATOM      2  C   UNL     1      11.685  -4.342  -3.057  1.00  0.00     0.000 C 
BRANCH   2   3
ATOM      3  C   UNL     1      11.591  -3.228  -4.111  1.00  0.00     0.000 C 
BRANCH   3   4
ATOM      4  C   UNL     1      11.779  -3.750  -5.547  1.00  0.00     0.000 C 
BRANCH   4   5
ATOM      5  C   UNL     1      11.104  -5.105  -5.836  1.00  0.00     0.000 C 
BRANCH   5   6
ATOM      6  C   UNL     1      10.371  -5.196  -7.189  1.00  0.00     0.000 C 
BRANCH   6   7
ATOM      7  C   UNL     1       9.194  -4.220  -7.368  1.00  0.00     0.000 C 
BRANCH   7   8
ATOM      8  C   UNL     1       8.024  -4.831  -8.157  1.00  0.00     0.000 C 
BRANCH   8   9
ATOM      9  C   UNL     1       7.949  -4.322  -9.608  1.00  0.00     0.000 C 
BRANCH   9  10
ATOM     10  C   UNL     1       6.785  -3.354  -9.906  1.00  0.00     0.006 C 
BRANCH  10  11
ATOM     11  C   UNL     1       5.797  -3.164  -8.744  1.00  0.00     0.053 C 
BRANCH  11  12
ATOM     12  C   UNL     1       4.385  -3.450  -9.156  1.00  0.00     0.041 C 
ATOM     13  O   UNL     1       4.126  -4.453  -9.872  1.00  0.00    -0.550 OA
ATOM     14  O   UNL     1       3.363  -2.588  -8.781  1.00  0.00    -0.550 OA
ENDBRANCH  11  12
ENDBRANCH  10  11
ENDBRANCH   9  10
ENDBRANCH   8   9
ENDBRANCH   7   8
ENDBRANCH   6   7
ENDBRANCH   5   6
ENDBRANCH   4   5
ENDBRANCH   3   4
ENDBRANCH   2   3
ENDBRANCH   1   2
BRANCH   1  15
ATOM     15  C   UNL     1      10.344  -6.174  -1.941  1.00  0.00     0.000 C 
BRANCH  15  16
ATOM     16  C   UNL     1      11.639  -6.912  -2.314  1.00  0.00     0.000 C 
BRANCH  16  17
ATOM     17  C   UNL     1      11.394  -8.083  -3.279  1.00  0.00     0.000 C 
BRANCH  17  18
ATOM     18  C   UNL     1      11.907  -7.796  -4.702  1.00  0.00    -0.000 C 
BRANCH  18  19
ATOM     19  C   UNL     1      10.772  -7.439  -5.675  1.00  0.00    -0.000 C 
BRANCH  19  20
ATOM     20  C   UNL     1      10.935  -8.118  -7.047  1.00  0.00    -0.000 C 
BRANCH  20  21
ATOM     21  C   UNL     1       9.619  -8.124  -7.854  1.00  0.00    -0.000 C 
BRANCH  21  22
ATOM     22  C   UNL     1       9.792  -7.692  -9.320  1.00  0.00    -0.000 C 
BRANCH  22  23
ATOM     23  C   UNL     1      11.249  -7.769  -9.797  1.00  0.00    -0.000 C 
BRANCH  23  24
ATOM     24  C   UNL     1      12.031  -6.516  -9.377  1.00  0.00    -0.000 C 
BRANCH  24  25
ATOM     25  C   UNL     1      11.568  -5.254 -10.122  1.00  0.00    -0.003 C 
ATOM     26  C   UNL     1      12.116  -3.969  -9.503  1.00  0.00     0.004 C 
ENDBRANCH  24  25
ENDBRANCH  23  24
ENDBRANCH  22  23
ENDBRANCH  21  22
ENDBRANCH  20  21
ENDBRANCH  19  20
ENDBRANCH  18  19
ENDBRANCH  17  18
ENDBRANCH  16  17
ENDBRANCH  15  16
ENDBRANCH   1  15
TORSDOF 22
ENDMDL
MODEL 3
REMARK VINA RESULT:     3.125      6.560     10.189
REMARK INTER + INTRA:           4.737
REMARK INTER:                   5.942
REMARK INTRA:                  -1.205
REMARK UNBOUND:                -2.408
REMARK SMILES CCCCCCCCCCCCCCCCCCCCCCCC(=O)[O-]
REMARK SMILES IDX 13 1 14 2 15 3 16 4 17 5 18 6 19 7 20 8 21 9 22 10 23 11
REMARK SMILES IDX 24 12 25 13 26 14 12 15 11 16 10 17 9 18 8 19 7 20 6 21 5 22
REMARK SMILES IDX 4 23 3 24 2 25 1 26
REMARK H PARENT
REMARK Flexibility Score: inf
ROOT
ATOM      1  C   UNL     1       3.499  -5.124  -9.962  1.00  0.00     0.000 C 
ENDROOT
BRANCH   1   2
ATOM      2  C   UNL     1       2.021  -5.501 -10.116  1.00  0.00     0.000 C 
BRANCH   2   3
ATOM      3  C   UNL     1       1.820  -7.016  -9.962  1.00  0.00     0.000 C 
BRANCH   3   4
ATOM      4  C   UNL     1       0.725  -7.371  -8.940  1.00  0.00     0.000 C 
BRANCH   4   5
ATOM      5  C   UNL     1       0.518  -6.327  -7.825  1.00  0.00     0.000 C 
BRANCH   5   6
ATOM      6  C   UNL     1      -0.534  -6.703  -6.763  1.00  0.00     0.000 C 
BRANCH   6   7
ATOM      7  C   UNL     1      -1.721  -5.729  -6.638  1.00  0.00     0.000 C 
BRANCH   7   8
ATOM      8  C   UNL     1      -3.053  -6.443  -6.353  1.00  0.00     0.000 C 
BRANCH   8   9
ATOM      9  C   UNL     1      -4.099  -5.521  -5.700  1.00  0.00     0.000 C 
BRANCH   9  10
ATOM     10  C   UNL     1      -5.544  -6.060  -5.704  1.00  0.00     0.006 C 
BRANCH  10  11
ATOM     11  C   UNL     1      -6.613  -5.029  -5.311  1.00  0.00     0.053 C 
BRANCH  11  12
ATOM     12  C   UNL     1      -7.116  -4.263  -6.496  1.00  0.00     0.041 C 
ATOM     13  O   UNL     1      -7.224  -3.010  -6.441  1.00  0.00    -0.550 OA
ATOM     14  O   UNL     1      -7.503  -4.938  -7.647  1.00  0.00    -0.550 OA
ENDBRANCH  11  12
ENDBRANCH  10  11
ENDBRANCH   9  10
ENDBRANCH   8   9
ENDBRANCH   7   8
ENDBRANCH   6   7
ENDBRANCH   5   6
ENDBRANCH   4   5
ENDBRANCH   3   4
ENDBRANCH   2   3
ENDBRANCH   1   2
BRANCH   1  15
ATOM     15  C   UNL     1       3.671  -3.605  -9.836  1.00  0.00     0.000 C 
BRANCH  15  16
ATOM     16  C   UNL     1       5.138  -3.239  -9.558  1.00  0.00     0.000 C 
BRANCH  16  17
ATOM     17  C   UNL     1       5.947  -4.427  -9.013  1.00  0.00     0.000 C 
BRANCH  17  18
ATOM     18  C   UNL     1       7.466  -4.178  -9.055  1.00  0.00    -0.000 C 
BRANCH  18  19
ATOM     19  C   UNL     1       8.179  -4.679  -7.789  1.00  0.00    -0.000 C 
BRANCH  19  20
ATOM     20  C   UNL     1       8.757  -6.096  -7.957  1.00  0.00    -0.000 C 
BRANCH  20  21
ATOM     21  C   UNL     1       8.734  -6.895  -6.637  1.00  0.00    -0.000 C 
BRANCH  21  22
ATOM     22  C   UNL     1      10.000  -7.738  -6.405  1.00  0.00    -0.000 C 
BRANCH  22  23
ATOM     23  C   UNL     1      10.876  -7.200  -5.265  1.00  0.00    -0.000 C 
BRANCH  23  24
ATOM     24  C   UNL     1      11.755  -6.038  -5.750  1.00  0.00    -0.000 C 
BRANCH  24  25
ATOM     25  C   UNL     1      11.481  -4.732  -4.988  1.00  0.00    -0.003 C 
ATOM     26  C   UNL     1      10.907  -4.972  -3.592  1.00  0.00     0.004 C 
ENDBRANCH  24  25
ENDBRANCH  23  24
ENDBRANCH  22  23
ENDBRANCH  21  22
ENDBRANCH  20  21
ENDBRANCH  19  20
ENDBRANCH  18  19
ENDBRANCH  17  18
ENDBRANCH  16  17
ENDBRANCH  15  16
ENDBRANCH   1  15
TORSDOF 22
ENDMDL
MODEL 4
REMARK VINA RESULT:     3.387      7.874     12.432
REMARK INTER + INTRA:           5.336
REMARK INTER:                   6.329
REMARK INTRA:                  -0.993
REMARK UNBOUND:                -2.408
REMARK SMILES CCCCCCCCCCCCCCCCCCCCCCCC(=O)[O-]
REMARK SMILES IDX 13 1 14 2 15 3 16 4 17 5 18 6 19 7 20 8 21 9 22 10 23 11
REMARK SMILES IDX 24 12 25 13 26 14 12 15 11 16 10 17 9 18 8 19 7 20 6 21 5 22
REMARK SMILES IDX 4 23 3 24 2 25 1 26
REMARK H PARENT
REMARK Flexibility Score: inf
ROOT
ATOM      1  C   UNL     1       1.249  -6.639  -7.947  1.00  0.00     0.000 C 
ENDROOT
BRANCH   1   2
ATOM      2  C   UNL     1       1.608  -6.797  -9.429  1.00  0.00     0.000 C 
BRANCH   2   3
ATOM      3  C   UNL     1       1.955  -5.439 -10.058  1.00  0.00     0.000 C 
BRANCH   3   4
ATOM      4  C   UNL     1       3.464  -5.134 -10.022  1.00  0.00     0.000 C 
BRANCH   4   5
ATOM      5  C   UNL     1       3.830  -3.743  -9.468  1.00  0.00     0.000 C 
BRANCH   5   6
ATOM      6  C   UNL     1       5.289  -3.589  -8.995  1.00  0.00     0.000 C 
BRANCH   6   7
ATOM      7  C   UNL     1       6.337  -4.340  -9.836  1.00  0.00     0.000 C 
BRANCH   7   8
ATOM      8  C   UNL     1       7.743  -4.299  -9.215  1.00  0.00     0.000 C 
BRANCH   8   9
ATOM      9  C   UNL     1       7.734  -4.537  -7.695  1.00  0.00     0.000 C 
BRANCH   9  10
ATOM     10  C   UNL     1       7.891  -6.008  -7.257  1.00  0.00     0.006 C 
BRANCH  10  11
ATOM     11  C   UNL     1       9.160  -6.301  -6.442  1.00  0.00     0.053 C 
BRANCH  11  12
ATOM     12  C   UNL     1      10.188  -5.222  -6.597  1.00  0.00     0.041 C 
ATOM     13  O   UNL     1      10.462  -4.465  -5.630  1.00  0.00    -0.550 OA
ATOM     14  O   UNL     1      10.814  -5.029  -7.822  1.00  0.00    -0.550 OA
ENDBRANCH  11  12
ENDBRANCH  10  11
ENDBRANCH   9  10
ENDBRANCH   8   9
ENDBRANCH   7   8
ENDBRANCH   6   7
ENDBRANCH   5   6
ENDBRANCH   4   5
ENDBRANCH   3   4
ENDBRANCH   2   3
ENDBRANCH   1   2
BRANCH   1  15
ATOM     15  C   UNL     1      -0.234  -6.950  -7.703  1.00  0.00     0.000 C 
BRANCH  15  16
ATOM     16  C   UNL     1      -0.861  -5.918  -6.753  1.00  0.00     0.000 C 
BRANCH  16  17
ATOM     17  C   UNL     1      -2.115  -6.455  -6.045  1.00  0.00     0.000 C 
BRANCH  17  18
ATOM     18  C   UNL     1      -3.417  -5.862  -6.613  1.00  0.00    -0.000 C 
BRANCH  18  19
ATOM     19  C   UNL     1      -4.591  -5.970  -5.629  1.00  0.00    -0.000 C 
BRANCH  19  20
ATOM     20  C   UNL     1      -5.734  -6.851  -6.165  1.00  0.00    -0.000 C 
BRANCH  20  21
ATOM     21  C   UNL     1      -7.121  -6.215  -5.929  1.00  0.00    -0.000 C 
BRANCH  21  22
ATOM     22  C   UNL     1      -7.444  -5.065  -6.898  1.00  0.00    -0.000 C 
BRANCH  22  23
ATOM     23  C   UNL     1      -7.876  -3.780  -6.178  1.00  0.00    -0.000 C 
BRANCH  23  24
ATOM     24  C   UNL     1      -7.058  -2.576  -6.666  1.00  0.00    -0.000 C 
BRANCH  24  25
ATOM     25  C   UNL     1      -6.797  -2.614  -8.180  1.00  0.00    -0.003 C 
ATOM     26  C   UNL     1      -7.634  -1.594  -8.950  1.00  0.00     0.004 C 
ENDBRANCH  24  25
ENDBRANCH  23  24
ENDBRANCH  22  23
ENDBRANCH  21  22
ENDBRANCH  20  21
ENDBRANCH  19  20
ENDBRANCH  18  19
ENDBRANCH  17  18
ENDBRANCH  16  17
ENDBRANCH  15  16
ENDBRANCH   1  15
TORSDOF 22
ENDMDL
MODEL 5
REMARK VINA RESULT:     3.590      5.027      8.361
REMARK INTER + INTRA:           5.800
REMARK INTER:                   7.266
REMARK INTRA:                  -1.466
REMARK UNBOUND:                -2.408
REMARK SMILES CCCCCCCCCCCCCCCCCCCCCCCC(=O)[O-]
REMARK SMILES IDX 13 1 14 2 15 3 16 4 17 5 18 6 19 7 20 8 21 9 22 10 23 11
REMARK SMILES IDX 24 12 25 13 26 14 12 15 11 16 10 17 9 18 8 19 7 20 6 21 5 22
REMARK SMILES IDX 4 23 3 24 2 25 1 26
REMARK H PARENT
REMARK Flexibility Score: inf
ROOT
ATOM      1  C   UNL     1       5.745  -4.196  -8.926  1.00  0.00     0.000 C 
ENDROOT
BRANCH   1   2
ATOM      2  C   UNL     1       5.013  -3.196  -9.828  1.00  0.00     0.000 C 
BRANCH   2   3
ATOM      3  C   UNL     1       3.573  -3.655 -10.102  1.00  0.00     0.000 C 
BRANCH   3   4
ATOM      4  C   UNL     1       3.428  -5.187 -10.112  1.00  0.00     0.000 C 
BRANCH   4   5
ATOM      5  C   UNL     1       2.002  -5.704  -9.834  1.00  0.00     0.000 C 
BRANCH   5   6
ATOM      6  C   UNL     1       1.893  -6.756  -8.712  1.00  0.00     0.000 C 
BRANCH   6   7
ATOM      7  C   UNL     1       0.460  -7.082  -8.252  1.00  0.00     0.000 C 
BRANCH   7   8
ATOM      8  C   UNL     1      -0.104  -6.040  -7.272  1.00  0.00     0.000 C 
BRANCH   8   9
ATOM      9  C   UNL     1      -1.309  -6.564  -6.469  1.00  0.00     0.000 C 
BRANCH   9  10
ATOM     10  C   UNL     1      -2.490  -5.581  -6.338  1.00  0.00     0.006 C 
BRANCH  10  11
ATOM     11  C   UNL     1      -3.823  -6.232  -5.934  1.00  0.00     0.053 C 
BRANCH  11  12
ATOM     12  C   UNL     1      -4.792  -6.280  -7.076  1.00  0.00     0.041 C 
ATOM     13  O   UNL     1      -5.095  -7.381  -7.603  1.00  0.00    -0.550 OA
ATOM     14  O   UNL     1      -5.330  -5.103  -7.581  1.00  0.00    -0.550 OA
ENDBRANCH  11  12
ENDBRANCH  10  11
ENDBRANCH   9  10
ENDBRANCH   8   9
ENDBRANCH   7   8
ENDBRANCH   6   7
ENDBRANCH   5   6
ENDBRANCH   4   5
ENDBRANCH   3   4
ENDBRANCH   2   3
ENDBRANCH   1   2
BRANCH   1  15
ATOM     15  C   UNL     1       7.264  -3.985  -8.988  1.00  0.00     0.000 C 
BRANCH  15  16
ATOM     16  C   UNL     1       7.901  -4.894 -10.050  1.00  0.00     0.000 C 
BRANCH  16  17
ATOM     17  C   UNL     1       8.959  -5.840  -9.459  1.00  0.00     0.000 C 
BRANCH  17  18
ATOM     18  C   UNL     1      10.366  -5.216  -9.439  1.00  0.00    -0.000 C 
BRANCH  18  19
ATOM     19  C   UNL     1      11.476  -6.274  -9.339  1.00  0.00    -0.000 C 
BRANCH  19  20
ATOM     20  C   UNL     1      11.050  -7.504  -8.517  1.00  0.00    -0.000 C 
BRANCH  20  21
ATOM     21  C   UNL     1      11.853  -7.636  -7.205  1.00  0.00    -0.000 C 
BRANCH  21  22
ATOM     22  C   UNL     1      10.989  -7.510  -5.939  1.00  0.00    -0.000 C 
BRANCH  22  23
ATOM     23  C   UNL     1       9.830  -6.517  -6.102  1.00  0.00    -0.000 C 
BRANCH  23  24
ATOM     24  C   UNL     1      10.249  -5.108  -5.658  1.00  0.00    -0.000 C 
BRANCH  24  25
ATOM     25  C   UNL     1      11.585  -5.101  -4.899  1.00  0.00    -0.003 C 
ATOM     26  C   UNL     1      11.707  -3.927  -3.928  1.00  0.00     0.004 C 
ENDBRANCH  24  25
ENDBRANCH  23  24
ENDBRANCH  22  23
ENDBRANCH  21  22
ENDBRANCH  20  21
ENDBRANCH  19  20
ENDBRANCH  18  19
ENDBRANCH  17  18
ENDBRANCH  16  17
ENDBRANCH  15  16
ENDBRANCH   1  15
TORSDOF 22
ENDMDL
MODEL 6
REMARK VINA RESULT:     3.665      8.288     12.397
REMARK INTER + INTRA:           5.972
REMARK INTER:                   6.982
REMARK INTRA:                  -1.011
REMARK UNBOUND:                -2.408
REMARK SMILES CCCCCCCCCCCCCCCCCCCCCCCC(=O)[O-]
REMARK SMILES IDX 13 1 14 2 15 3 16 4 17 5 18 6 19 7 20 8 21 9 22 10 23 11
REMARK SMILES IDX 24 12 25 13 26 14 12 15 11 16 10 17 9 18 8 19 7 20 6 21 5 22
REMARK SMILES IDX 4 23 3 24 2 25 1 26
REMARK H PARENT
REMARK Flexibility Score: inf
ROOT
ATOM      1  C   UNL     1       0.625  -6.436  -7.681  1.00  0.00     0.000 C 
ENDROOT
BRANCH   1   2
ATOM      2  C   UNL     1      -0.823  -6.759  -7.294  1.00  0.00     0.000 C 
BRANCH   2   3
ATOM      3  C   UNL     1      -1.490  -5.558  -6.608  1.00  0.00     0.000 C 
BRANCH   3   4
ATOM      4  C   UNL     1      -2.677  -5.965  -5.716  1.00  0.00     0.000 C 
BRANCH   4   5
ATOM      5  C   UNL     1      -3.959  -6.348  -6.480  1.00  0.00     0.000 C 
BRANCH   5   6
ATOM      6  C   UNL     1      -5.275  -5.869  -5.835  1.00  0.00     0.000 C 
BRANCH   6   7
ATOM      7  C   UNL     1      -6.540  -6.075  -6.687  1.00  0.00     0.000 C 
BRANCH   7   8
ATOM      8  C   UNL     1      -7.780  -5.387  -6.094  1.00  0.00     0.000 C 
BRANCH   8   9
ATOM      9  C   UNL     1      -7.447  -4.065  -5.379  1.00  0.00     0.000 C 
BRANCH   9  10
ATOM     10  C   UNL     1      -6.989  -2.916  -6.300  1.00  0.00     0.006 C 
BRANCH  10  11
ATOM     11  C   UNL     1      -8.123  -2.220  -7.069  1.00  0.00     0.053 C 
BRANCH  11  12
ATOM     12  C   UNL     1      -7.888  -2.236  -8.549  1.00  0.00     0.041 C 
ATOM     13  O   UNL     1      -7.818  -1.155  -9.191  1.00  0.00    -0.550 OA
ATOM     14  O   UNL     1      -7.788  -3.446  -9.225  1.00  0.00    -0.550 OA
ENDBRANCH  11  12
ENDBRANCH  10  11
ENDBRANCH   9  10
ENDBRANCH   8   9
ENDBRANCH   7   8
ENDBRANCH   6   7
ENDBRANCH   5   6
ENDBRANCH   4   5
ENDBRANCH   3   4
ENDBRANCH   2   3
ENDBRANCH   1   2
BRANCH   1  15
ATOM     15  C   UNL     1       1.123  -7.375  -8.788  1.00  0.00     0.000 C 
BRANCH  15  16
ATOM     16  C   UNL     1       1.555  -6.579 -10.029  1.00  0.00     0.000 C 
BRANCH  16  17
ATOM     17  C   UNL     1       2.903  -5.867  -9.832  1.00  0.00     0.000 C 
BRANCH  17  18
ATOM     18  C   UNL     1       2.815  -4.351 -10.087  1.00  0.00    -0.000 C 
BRANCH  18  19
ATOM     19  C   UNL     1       3.989  -3.581  -9.464  1.00  0.00    -0.000 C 
BRANCH  19  20
ATOM     20  C   UNL     1       5.332  -4.316  -9.627  1.00  0.00    -0.000 C 
BRANCH  20  21
ATOM     21  C   UNL     1       6.268  -4.096  -8.420  1.00  0.00    -0.000 C 
BRANCH  21  22
ATOM     22  C   UNL     1       7.744  -4.407  -8.719  1.00  0.00    -0.000 C 
BRANCH  22  23
ATOM     23  C   UNL     1       8.135  -5.849  -8.366  1.00  0.00    -0.000 C 
BRANCH  23  24
ATOM     24  C   UNL     1       9.543  -6.178  -8.884  1.00  0.00    -0.000 C 
BRANCH  24  25
ATOM     25  C   UNL     1      10.508  -6.577  -7.756  1.00  0.00    -0.003 C 
ATOM     26  C   UNL     1      11.382  -5.414  -7.289  1.00  0.00     0.004 C 
ENDBRANCH  24  25
ENDBRANCH  23  24
ENDBRANCH  22  23
ENDBRANCH  21  22
ENDBRANCH  20  21
ENDBRANCH  19  20
ENDBRANCH  18  19
ENDBRANCH  17  18
ENDBRANCH  16  17
ENDBRANCH  15  16
ENDBRANCH   1  15
TORSDOF 22
ENDMDL
