MODEL 1
REMARK VINA RESULT:    -3.700      0.000      0.000
REMARK INTER + INTRA:         -12.397
REMARK INTER:                  -8.458
REMARK INTRA:                  -3.939
REMARK UNBOUND:                -3.939
REMARK SMILES CCCCCCCCCCCCCCCCCCCCCCCC(=O)[O-]
REMARK SMILES IDX 13 1 14 2 15 3 16 4 17 5 18 6 19 7 20 8 21 9 22 10 23 11
REMARK SMILES IDX 24 12 25 13 26 14 12 15 11 16 10 17 9 18 8 19 7 20 6 21 5 22
REMARK SMILES IDX 4 23 3 24 2 25 1 26
REMARK H PARENT
REMARK Flexibility Score: inf
ROOT
ATOM      1  C   UNL     1      40.098  21.307 222.933  1.00  0.00     0.000 C 
ENDROOT
BRANCH   1   2
ATOM      2  C   UNL     1      41.024  20.086 222.806  1.00  0.00     0.000 C 
BRANCH   2   3
ATOM      3  C   UNL     1      42.149  20.302 221.781  1.00  0.00     0.000 C 
BRANCH   3   4
ATOM      4  C   UNL     1      43.442  20.830 222.421  1.00  0.00     0.000 C 
BRANCH   4   5
ATOM      5  C   UNL     1      43.572  20.348 223.871  1.00  0.00     0.000 C 
BRANCH   5   6
ATOM      6  C   UNL     1      43.895  21.517 224.814  1.00  0.00     0.000 C 
BRANCH   6   7
ATOM      7  C   UNL     1      43.498  21.240 226.275  1.00  0.00     0.000 C 
BRANCH   7   8
ATOM      8  C   UNL     1      42.300  22.054 226.797  1.00  0.00     0.000 C 
BRANCH   8   9
ATOM      9  C   UNL     1      40.944  21.472 226.363  1.00  0.00     0.000 C 
BRANCH   9  10
ATOM     10  C   UNL     1      40.834  19.956 226.610  1.00  0.00     0.006 C 
BRANCH  10  11
ATOM     11  C   UNL     1      39.516  19.333 226.113  1.00  0.00     0.053 C 
BRANCH  11  12
ATOM     12  C   UNL     1      38.417  19.418 227.127  1.00  0.00     0.041 C 
ATOM     13  O   UNL     1      38.057  18.393 227.764  1.00  0.00    -0.550 OA
ATOM     14  O   UNL     1      37.770  20.627 227.350  1.00  0.00    -0.550 OA
ENDBRANCH  11  12
ENDBRANCH  10  11
ENDBRANCH   9  10
ENDBRANCH   8   9
ENDBRANCH   7   8
ENDBRANCH   6   7
ENDBRANCH   5   6
ENDBRANCH   4   5
ENDBRANCH   3   4
ENDBRANCH   2   3
ENDBRANCH   1   2
BRANCH   1  15
ATOM     15  C   UNL     1      40.238  22.285 221.752  1.00  0.00     0.000 C 
BRANCH  15  16
ATOM     16  C   UNL     1      40.554  23.743 222.144  1.00  0.00     0.000 C 
BRANCH  16  17
ATOM     17  C   UNL     1      41.098  23.928 223.575  1.00  0.00     0.000 C 
BRANCH  17  18
ATOM     18  C   UNL     1      40.297  24.910 224.453  1.00  0.00    -0.000 C 
BRANCH  18  19
ATOM     19  C   UNL     1      38.768  24.715 224.419  1.00  0.00    -0.000 C 
BRANCH  19  20
ATOM     20  C   UNL     1      37.990  25.809 223.661  1.00  0.00    -0.000 C 
BRANCH  20  21
ATOM     21  C   UNL     1      37.106  25.294 222.509  1.00  0.00    -0.000 C 
BRANCH  21  22
ATOM     22  C   UNL     1      36.751  23.795 222.577  1.00  0.00    -0.000 C 
BRANCH  22  23
ATOM     23  C   UNL     1      36.324  23.162 221.240  1.00  0.00    -0.000 C 
BRANCH  23  24
ATOM     24  C   UNL     1      37.317  23.446 220.099  1.00  0.00    -0.000 C 
BRANCH  24  25
ATOM     25  C   UNL     1      36.621  23.587 218.736  1.00  0.00    -0.003 C 
ATOM     26  C   UNL     1      35.201  24.139 218.849  1.00  0.00     0.004 C 
ENDBRANCH  24  25
ENDBRANCH  23  24
ENDBRANCH  22  23
ENDBRANCH  21  22
ENDBRANCH  20  21
ENDBRANCH  19  20
ENDBRANCH  18  19
ENDBRANCH  17  18
ENDBRANCH  16  17
ENDBRANCH  15  16
ENDBRANCH   1  15
TORSDOF 22
ENDMDL
MODEL 2
REMARK VINA RESULT:    -3.515      1.650      2.431
REMARK INTER + INTRA:         -11.973
REMARK INTER:                  -8.084
REMARK INTRA:                  -3.889
REMARK UNBOUND:                -3.939
REMARK SMILES CCCCCCCCCCCCCCCCCCCCCCCC(=O)[O-]
REMARK SMILES IDX 13 1 14 2 15 3 16 4 17 5 18 6 19 7 20 8 21 9 22 10 23 11
REMARK SMILES IDX 24 12 25 13 26 14 12 15 11 16 10 17 9 18 8 19 7 20 6 21 5 22
REMARK SMILES IDX 4 23 3 24 2 25 1 26
REMARK H PARENT
REMARK Flexibility Score: inf
ROOT
ATOM      1  C   UNL     1      39.657  21.230 223.618  1.00  0.00     0.000 C 
ENDROOT
BRANCH   1   2
ATOM      2  C   UNL     1      39.779  22.107 222.361  1.00  0.00     0.000 C 
BRANCH   2   3
ATOM      3  C   UNL     1      41.201  22.653 222.157  1.00  0.00     0.000 C 
BRANCH   3   4
ATOM      4  C   UNL     1      42.172  22.203 223.261  1.00  0.00     0.000 C 
BRANCH   4   5
ATOM      5  C   UNL     1      43.166  21.164 222.728  1.00  0.00     0.000 C 
BRANCH   5   6
ATOM      6  C   UNL     1      43.878  20.440 223.879  1.00  0.00     0.000 C 
BRANCH   6   7
ATOM      7  C   UNL     1      44.069  21.327 225.123  1.00  0.00     0.000 C 
BRANCH   7   8
ATOM      8  C   UNL     1      43.163  20.986 226.320  1.00  0.00     0.000 C 
BRANCH   8   9
ATOM      9  C   UNL     1      42.812  19.490 226.401  1.00  0.00     0.000 C 
BRANCH   9  10
ATOM     10  C   UNL     1      41.305  19.217 226.241  1.00  0.00     0.006 C 
BRANCH  10  11
ATOM     11  C   UNL     1      40.861  17.832 226.748  1.00  0.00     0.053 C 
BRANCH  11  12
ATOM     12  C   UNL     1      39.997  17.105 225.764  1.00  0.00     0.041 C 
ATOM     13  O   UNL     1      39.397  17.736 224.854  1.00  0.00    -0.550 OA
ATOM     14  O   UNL     1      39.832  15.729 225.868  1.00  0.00    -0.550 OA
ENDBRANCH  11  12
ENDBRANCH  10  11
ENDBRANCH   9  10
ENDBRANCH   8   9
ENDBRANCH   7   8
ENDBRANCH   6   7
ENDBRANCH   5   6
ENDBRANCH   4   5
ENDBRANCH   3   4
ENDBRANCH   2   3
ENDBRANCH   1   2
BRANCH   1  15
ATOM     15  C   UNL     1      38.329  21.445 224.367  1.00  0.00     0.000 C 
BRANCH  15  16
ATOM     16  C   UNL     1      38.440  22.255 225.675  1.00  0.00     0.000 C 
BRANCH  16  17
ATOM     17  C   UNL     1      39.860  22.750 226.016  1.00  0.00     0.000 C 
BRANCH  17  18
ATOM     18  C   UNL     1      40.064  24.273 225.900  1.00  0.00    -0.000 C 
BRANCH  18  19
ATOM     19  C   UNL     1      38.827  25.061 225.424  1.00  0.00    -0.000 C 
BRANCH  19  20
ATOM     20  C   UNL     1      39.034  25.879 224.134  1.00  0.00    -0.000 C 
BRANCH  20  21
ATOM     21  C   UNL     1      38.417  25.258 222.866  1.00  0.00    -0.000 C 
BRANCH  21  22
ATOM     22  C   UNL     1      36.889  25.423 222.736  1.00  0.00    -0.000 C 
BRANCH  22  23
ATOM     23  C   UNL     1      36.069  24.142 222.977  1.00  0.00    -0.000 C 
BRANCH  23  24
ATOM     24  C   UNL     1      36.174  23.136 221.817  1.00  0.00    -0.000 C 
BRANCH  24  25
ATOM     25  C   UNL     1      35.986  23.801 220.445  1.00  0.00    -0.003 C 
ATOM     26  C   UNL     1      37.017  23.339 219.415  1.00  0.00     0.004 C 
ENDBRANCH  24  25
ENDBRANCH  23  24
ENDBRANCH  22  23
ENDBRANCH  21  22
ENDBRANCH  20  21
ENDBRANCH  19  20
ENDBRANCH  18  19
ENDBRANCH  17  18
ENDBRANCH  16  17
ENDBRANCH  15  16
ENDBRANCH   1  15
TORSDOF 22
ENDMDL
MODEL 3
REMARK VINA RESULT:    -3.510      1.563      2.618
REMARK INTER + INTRA:         -11.962
REMARK INTER:                  -8.101
REMARK INTRA:                  -3.861
REMARK UNBOUND:                -3.939
REMARK SMILES CCCCCCCCCCCCCCCCCCCCCCCC(=O)[O-]
REMARK SMILES IDX 13 1 14 2 15 3 16 4 17 5 18 6 19 7 20 8 21 9 22 10 23 11
REMARK SMILES IDX 24 12 25 13 26 14 12 15 11 16 10 17 9 18 8 19 7 20 6 21 5 22
REMARK SMILES IDX 4 23 3 24 2 25 1 26
REMARK H PARENT
REMARK Flexibility Score: inf
ROOT
ATOM      1  C   UNL     1      40.976  22.771 222.312  1.00  0.00     0.000 C 
ENDROOT
BRANCH   1   2
ATOM      2  C   UNL     1      42.068  21.721 222.046  1.00  0.00     0.000 C 
BRANCH   2   3
ATOM      3  C   UNL     1      42.867  21.366 223.310  1.00  0.00     0.000 C 
BRANCH   3   4
ATOM      4  C   UNL     1      43.200  19.868 223.399  1.00  0.00     0.000 C 
BRANCH   4   5
ATOM      5  C   UNL     1      41.924  19.030 223.541  1.00  0.00     0.000 C 
BRANCH   5   6
ATOM      6  C   UNL     1      41.327  19.167 224.949  1.00  0.00     0.000 C 
BRANCH   6   7
ATOM      7  C   UNL     1      41.058  17.810 225.625  1.00  0.00     0.000 C 
BRANCH   7   8
ATOM      8  C   UNL     1      39.684  17.185 225.321  1.00  0.00     0.000 C 
BRANCH   8   9
ATOM      9  C   UNL     1      38.654  18.213 224.821  1.00  0.00     0.000 C 
BRANCH   9  10
ATOM     10  C   UNL     1      37.558  18.519 225.860  1.00  0.00     0.006 C 
BRANCH  10  11
ATOM     11  C   UNL     1      37.844  19.759 226.726  1.00  0.00     0.053 C 
BRANCH  11  12
ATOM     12  C   UNL     1      38.653  19.440 227.946  1.00  0.00     0.041 C 
ATOM     13  O   UNL     1      39.579  20.210 228.316  1.00  0.00    -0.550 OA
ATOM     14  O   UNL     1      38.401  18.276 228.661  1.00  0.00    -0.550 OA
ENDBRANCH  11  12
ENDBRANCH  10  11
ENDBRANCH   9  10
ENDBRANCH   8   9
ENDBRANCH   7   8
ENDBRANCH   6   7
ENDBRANCH   5   6
ENDBRANCH   4   5
ENDBRANCH   3   4
ENDBRANCH   2   3
ENDBRANCH   1   2
BRANCH   1  15
ATOM     15  C   UNL     1      39.568  22.155 222.403  1.00  0.00     0.000 C 
BRANCH  15  16
ATOM     16  C   UNL     1      39.084  21.840 223.832  1.00  0.00     0.000 C 
BRANCH  16  17
ATOM     17  C   UNL     1      39.823  22.598 224.953  1.00  0.00     0.000 C 
BRANCH  17  18
ATOM     18  C   UNL     1      39.024  23.748 225.597  1.00  0.00    -0.000 C 
BRANCH  18  19
ATOM     19  C   UNL     1      39.650  25.147 225.431  1.00  0.00    -0.000 C 
BRANCH  19  20
ATOM     20  C   UNL     1      38.844  26.119 224.546  1.00  0.00    -0.000 C 
BRANCH  20  21
ATOM     21  C   UNL     1      38.546  25.603 223.124  1.00  0.00    -0.000 C 
BRANCH  21  22
ATOM     22  C   UNL     1      37.049  25.526 222.759  1.00  0.00    -0.000 C 
BRANCH  22  23
ATOM     23  C   UNL     1      36.391  24.152 222.986  1.00  0.00    -0.000 C 
BRANCH  23  24
ATOM     24  C   UNL     1      35.442  23.747 221.844  1.00  0.00    -0.000 C 
BRANCH  24  25
ATOM     25  C   UNL     1      35.934  24.233 220.472  1.00  0.00    -0.003 C 
ATOM     26  C   UNL     1      36.986  23.310 219.857  1.00  0.00     0.004 C 
ENDBRANCH  24  25
ENDBRANCH  23  24
ENDBRANCH  22  23
ENDBRANCH  21  22
ENDBRANCH  20  21
ENDBRANCH  19  20
ENDBRANCH  18  19
ENDBRANCH  17  18
ENDBRANCH  16  17
ENDBRANCH  15  16
ENDBRANCH   1  15
TORSDOF 22
ENDMDL
MODEL 4
REMARK VINA RESULT:    -3.510      1.848      4.082
REMARK INTER + INTRA:         -11.962
REMARK INTER:                  -7.827
REMARK INTRA:                  -4.135
REMARK UNBOUND:                -3.939
REMARK SMILES CCCCCCCCCCCCCCCCCCCCCCCC(=O)[O-]
REMARK SMILES IDX 13 1 14 2 15 3 16 4 17 5 18 6 19 7 20 8 21 9 22 10 23 11
REMARK SMILES IDX 24 12 25 13 26 14 12 15 11 16 10 17 9 18 8 19 7 20 6 21 5 22
REMARK SMILES IDX 4 23 3 24 2 25 1 26
REMARK H PARENT
REMARK Flexibility Score: inf
ROOT
ATOM      1  C   UNL     1      41.173  22.832 225.218  1.00  0.00     0.000 C 
ENDROOT
BRANCH   1   2
ATOM      2  C   UNL     1      42.240  21.948 225.884  1.00  0.00     0.000 C 
BRANCH   2   3
ATOM      3  C   UNL     1      43.615  22.071 225.208  1.00  0.00     0.000 C 
BRANCH   3   4
ATOM      4  C   UNL     1      44.020  20.793 224.455  1.00  0.00     0.000 C 
BRANCH   4   5
ATOM      5  C   UNL     1      43.405  20.766 223.050  1.00  0.00     0.000 C 
BRANCH   5   6
ATOM      6  C   UNL     1      42.615  19.470 222.819  1.00  0.00     0.000 C 
BRANCH   6   7
ATOM      7  C   UNL     1      41.150  19.720 222.418  1.00  0.00     0.000 C 
BRANCH   7   8
ATOM      8  C   UNL     1      40.132  19.659 223.572  1.00  0.00     0.000 C 
BRANCH   8   9
ATOM      9  C   UNL     1      40.623  18.815 224.761  1.00  0.00     0.000 C 
BRANCH   9  10
ATOM     10  C   UNL     1      39.538  18.599 225.833  1.00  0.00     0.006 C 
BRANCH  10  11
ATOM     11  C   UNL     1      38.118  18.980 225.373  1.00  0.00     0.053 C 
BRANCH  11  12
ATOM     12  C   UNL     1      37.065  18.078 225.941  1.00  0.00     0.041 C 
ATOM     13  O   UNL     1      36.064  17.752 225.248  1.00  0.00    -0.550 OA
ATOM     14  O   UNL     1      37.175  17.617 227.247  1.00  0.00    -0.550 OA
ENDBRANCH  11  12
ENDBRANCH  10  11
ENDBRANCH   9  10
ENDBRANCH   8   9
ENDBRANCH   7   8
ENDBRANCH   6   7
ENDBRANCH   5   6
ENDBRANCH   4   5
ENDBRANCH   3   4
ENDBRANCH   2   3
ENDBRANCH   1   2
BRANCH   1  15
ATOM     15  C   UNL     1      41.767  23.806 224.185  1.00  0.00     0.000 C 
BRANCH  15  16
ATOM     16  C   UNL     1      40.810  24.215 223.046  1.00  0.00     0.000 C 
BRANCH  16  17
ATOM     17  C   UNL     1      40.667  23.180 221.913  1.00  0.00     0.000 C 
BRANCH  17  18
ATOM     18  C   UNL     1      39.215  22.844 221.518  1.00  0.00    -0.000 C 
BRANCH  18  19
ATOM     19  C   UNL     1      38.139  23.723 222.185  1.00  0.00    -0.000 C 
BRANCH  19  20
ATOM     20  C   UNL     1      37.292  23.012 223.258  1.00  0.00    -0.000 C 
BRANCH  20  21
ATOM     21  C   UNL     1      37.551  23.481 224.703  1.00  0.00    -0.000 C 
BRANCH  21  22
ATOM     22  C   UNL     1      37.423  25.002 224.929  1.00  0.00    -0.000 C 
BRANCH  22  23
ATOM     23  C   UNL     1      38.688  25.692 225.473  1.00  0.00    -0.000 C 
BRANCH  23  24
ATOM     24  C   UNL     1      39.215  26.796 224.539  1.00  0.00    -0.000 C 
BRANCH  24  25
ATOM     25  C   UNL     1      40.190  27.748 225.249  1.00  0.00    -0.003 C 
ATOM     26  C   UNL     1      41.357  27.018 225.913  1.00  0.00     0.004 C 
ENDBRANCH  24  25
ENDBRANCH  23  24
ENDBRANCH  22  23
ENDBRANCH  21  22
ENDBRANCH  20  21
ENDBRANCH  19  20
ENDBRANCH  18  19
ENDBRANCH  17  18
ENDBRANCH  16  17
ENDBRANCH  15  16
ENDBRANCH   1  15
TORSDOF 22
ENDMDL
MODEL 5
REMARK VINA RESULT:    -3.496      3.148      7.542
REMARK INTER + INTRA:         -11.931
REMARK INTER:                  -8.263
REMARK INTRA:                  -3.668
REMARK UNBOUND:                -3.939
REMARK SMILES CCCCCCCCCCCCCCCCCCCCCCCC(=O)[O-]
REMARK SMILES IDX 13 1 14 2 15 3 16 4 17 5 18 6 19 7 20 8 21 9 22 10 23 11
REMARK SMILES IDX 24 12 25 13 26 14 12 15 11 16 10 17 9 18 8 19 7 20 6 21 5 22
REMARK SMILES IDX 4 23 3 24 2 25 1 26
REMARK H PARENT
REMARK Flexibility Score: inf
ROOT
ATOM      1  C   UNL     1      39.581  22.634 221.798  1.00  0.00     0.000 C 
ENDROOT
BRANCH   1   2
ATOM      2  C   UNL     1      39.847  24.127 222.050  1.00  0.00     0.000 C 
BRANCH   2   3
ATOM      3  C   UNL     1      40.474  24.391 223.429  1.00  0.00     0.000 C 
BRANCH   3   4
ATOM      4  C   UNL     1      39.660  25.388 224.269  1.00  0.00     0.000 C 
BRANCH   4   5
ATOM      5  C   UNL     1      39.033  24.697 225.486  1.00  0.00     0.000 C 
BRANCH   5   6
ATOM      6  C   UNL     1      37.743  23.960 225.097  1.00  0.00     0.000 C 
BRANCH   6   7
ATOM      7  C   UNL     1      36.534  24.900 224.946  1.00  0.00     0.000 C 
BRANCH   7   8
ATOM      8  C   UNL     1      35.889  24.923 223.548  1.00  0.00     0.000 C 
BRANCH   8   9
ATOM      9  C   UNL     1      36.112  23.619 222.763  1.00  0.00     0.000 C 
BRANCH   9  10
ATOM     10  C   UNL     1      35.455  23.637 221.370  1.00  0.00     0.006 C 
BRANCH  10  11
ATOM     11  C   UNL     1      36.447  23.842 220.210  1.00  0.00     0.053 C 
BRANCH  11  12
ATOM     12  C   UNL     1      35.782  23.821 218.868  1.00  0.00     0.041 C 
ATOM     13  O   UNL     1      36.433  23.498 217.839  1.00  0.00    -0.550 OA
ATOM     14  O   UNL     1      34.447  24.187 218.749  1.00  0.00    -0.550 OA
ENDBRANCH  11  12
ENDBRANCH  10  11
ENDBRANCH   9  10
ENDBRANCH   8   9
ENDBRANCH   7   8
ENDBRANCH   6   7
ENDBRANCH   5   6
ENDBRANCH   4   5
ENDBRANCH   3   4
ENDBRANCH   2   3
ENDBRANCH   1   2
BRANCH   1  15
ATOM     15  C   UNL     1      40.822  21.757 222.048  1.00  0.00     0.000 C 
BRANCH  15  16
ATOM     16  C   UNL     1      40.599  20.567 223.002  1.00  0.00     0.000 C 
BRANCH  16  17
ATOM     17  C   UNL     1      39.567  20.812 224.121  1.00  0.00     0.000 C 
BRANCH  17  18
ATOM     18  C   UNL     1      40.168  21.158 225.497  1.00  0.00    -0.000 C 
BRANCH  18  19
ATOM     19  C   UNL     1      39.439  20.532 226.702  1.00  0.00    -0.000 C 
BRANCH  19  20
ATOM     20  C   UNL     1      39.892  19.104 227.066  1.00  0.00    -0.000 C 
BRANCH  20  21
ATOM     21  C   UNL     1      41.336  18.758 226.653  1.00  0.00    -0.000 C 
BRANCH  21  22
ATOM     22  C   UNL     1      42.425  19.195 227.655  1.00  0.00    -0.000 C 
BRANCH  22  23
ATOM     23  C   UNL     1      43.688  19.807 227.021  1.00  0.00    -0.000 C 
BRANCH  23  24
ATOM     24  C   UNL     1      43.551  21.316 226.750  1.00  0.00    -0.000 C 
BRANCH  24  25
ATOM     25  C   UNL     1      44.097  21.717 225.371  1.00  0.00    -0.003 C 
ATOM     26  C   UNL     1      44.109  20.556 224.377  1.00  0.00     0.004 C 
ENDBRANCH  24  25
ENDBRANCH  23  24
ENDBRANCH  22  23
ENDBRANCH  21  22
ENDBRANCH  20  21
ENDBRANCH  19  20
ENDBRANCH  18  19
ENDBRANCH  17  18
ENDBRANCH  16  17
ENDBRANCH  15  16
ENDBRANCH   1  15
TORSDOF 22
ENDMDL
MODEL 6
REMARK VINA RESULT:    -3.472      2.732      6.370
REMARK INTER + INTRA:         -11.877
REMARK INTER:                  -8.082
REMARK INTRA:                  -3.795
REMARK UNBOUND:                -3.939
REMARK SMILES CCCCCCCCCCCCCCCCCCCCCCCC(=O)[O-]
REMARK SMILES IDX 13 1 14 2 15 3 16 4 17 5 18 6 19 7 20 8 21 9 22 10 23 11
REMARK SMILES IDX 24 12 25 13 26 14 12 15 11 16 10 17 9 18 8 19 7 20 6 21 5 22
REMARK SMILES IDX 4 23 3 24 2 25 1 26
REMARK H PARENT
REMARK Flexibility Score: inf
ROOT
ATOM      1  C   UNL     1      41.539  20.264 222.299  1.00  0.00     0.000 C 
ENDROOT
BRANCH   1   2
ATOM      2  C   UNL     1      40.640  21.419 222.773  1.00  0.00     0.000 C 
BRANCH   2   3
ATOM      3  C   UNL     1      41.002  22.758 222.110  1.00  0.00     0.000 C 
BRANCH   3   4
ATOM      4  C   UNL     1      41.036  23.924 223.111  1.00  0.00     0.000 C 
BRANCH   4   5
ATOM      5  C   UNL     1      40.975  23.409 224.555  1.00  0.00     0.000 C 
BRANCH   5   6
ATOM      6  C   UNL     1      39.767  23.996 225.298  1.00  0.00     0.000 C 
BRANCH   6   7
ATOM      7  C   UNL     1      38.669  22.954 225.580  1.00  0.00     0.000 C 
BRANCH   7   8
ATOM      8  C   UNL     1      37.643  22.758 224.449  1.00  0.00     0.000 C 
BRANCH   8   9
ATOM      9  C   UNL     1      37.393  24.039 223.636  1.00  0.00     0.000 C 
BRANCH   9  10
ATOM     10  C   UNL     1      37.458  23.808 222.114  1.00  0.00     0.006 C 
BRANCH  10  11
ATOM     11  C   UNL     1      36.295  22.967 221.557  1.00  0.00     0.053 C 
BRANCH  11  12
ATOM     12  C   UNL     1      35.319  23.782 220.766  1.00  0.00     0.041 C 
ATOM     13  O   UNL     1      34.126  23.904 221.154  1.00  0.00    -0.550 OA
ATOM     14  O   UNL     1      35.719  24.388 219.581  1.00  0.00    -0.550 OA
ENDBRANCH  11  12
ENDBRANCH  10  11
ENDBRANCH   9  10
ENDBRANCH   8   9
ENDBRANCH   7   8
ENDBRANCH   6   7
ENDBRANCH   5   6
ENDBRANCH   4   5
ENDBRANCH   3   4
ENDBRANCH   2   3
ENDBRANCH   1   2
BRANCH   1  15
ATOM     15  C   UNL     1      42.972  20.722 221.968  1.00  0.00     0.000 C 
BRANCH  15  16
ATOM     16  C   UNL     1      44.090  19.805 222.503  1.00  0.00     0.000 C 
BRANCH  16  17
ATOM     17  C   UNL     1      44.366  19.927 224.015  1.00  0.00     0.000 C 
BRANCH  17  18
ATOM     18  C   UNL     1      44.121  21.328 224.610  1.00  0.00    -0.000 C 
BRANCH  18  19
ATOM     19  C   UNL     1      43.458  21.337 226.001  1.00  0.00    -0.000 C 
BRANCH  19  20
ATOM     20  C   UNL     1      42.899  19.977 226.465  1.00  0.00    -0.000 C 
BRANCH  20  21
ATOM     21  C   UNL     1      41.398  19.767 226.188  1.00  0.00    -0.000 C 
BRANCH  21  22
ATOM     22  C   UNL     1      41.038  18.421 225.526  1.00  0.00    -0.000 C 
BRANCH  22  23
ATOM     23  C   UNL     1      39.698  18.402 224.768  1.00  0.00    -0.000 C 
BRANCH  23  24
ATOM     24  C   UNL     1      38.498  18.088 225.680  1.00  0.00    -0.000 C 
BRANCH  24  25
ATOM     25  C   UNL     1      37.151  18.308 224.976  1.00  0.00    -0.003 C 
ATOM     26  C   UNL     1      35.968  17.751 225.768  1.00  0.00     0.004 C 
ENDBRANCH  24  25
ENDBRANCH  23  24
ENDBRANCH  22  23
ENDBRANCH  21  22
ENDBRANCH  20  21
ENDBRANCH  19  20
ENDBRANCH  18  19
ENDBRANCH  17  18
ENDBRANCH  16  17
ENDBRANCH  15  16
ENDBRANCH   1  15
TORSDOF 22
ENDMDL
MODEL 7
REMARK VINA RESULT:    -3.466      1.269      2.928
REMARK INTER + INTRA:         -11.862
REMARK INTER:                  -7.813
REMARK INTRA:                  -4.048
REMARK UNBOUND:                -3.939
REMARK SMILES CCCCCCCCCCCCCCCCCCCCCCCC(=O)[O-]
REMARK SMILES IDX 13 1 14 2 15 3 16 4 17 5 18 6 19 7 20 8 21 9 22 10 23 11
REMARK SMILES IDX 24 12 25 13 26 14 12 15 11 16 10 17 9 18 8 19 7 20 6 21 5 22
REMARK SMILES IDX 4 23 3 24 2 25 1 26
REMARK H PARENT
REMARK Flexibility Score: inf
ROOT
ATOM      1  C   UNL     1      42.615  19.423 222.870  1.00  0.00     0.000 C 
ENDROOT
BRANCH   1   2
ATOM      2  C   UNL     1      43.655  20.556 222.866  1.00  0.00     0.000 C 
BRANCH   2   3
ATOM      3  C   UNL     1      43.941  21.100 224.275  1.00  0.00     0.000 C 
BRANCH   3   4
ATOM      4  C   UNL     1      43.483  20.140 225.386  1.00  0.00     0.000 C 
BRANCH   4   5
ATOM      5  C   UNL     1      42.404  20.789 226.261  1.00  0.00     0.000 C 
BRANCH   5   6
ATOM      6  C   UNL     1      41.563  19.724 226.979  1.00  0.00     0.000 C 
BRANCH   6   7
ATOM      7  C   UNL     1      41.775  18.307 226.415  1.00  0.00     0.000 C 
BRANCH   7   8
ATOM      8  C   UNL     1      40.487  17.522 226.106  1.00  0.00     0.000 C 
BRANCH   8   9
ATOM      9  C   UNL     1      39.869  17.893 224.747  1.00  0.00     0.000 C 
BRANCH   9  10
ATOM     10  C   UNL     1      38.435  18.442 224.869  1.00  0.00     0.006 C 
BRANCH  10  11
ATOM     11  C   UNL     1      38.363  19.966 225.083  1.00  0.00     0.053 C 
BRANCH  11  12
ATOM     12  C   UNL     1      38.018  20.336 226.492  1.00  0.00     0.041 C 
ATOM     13  O   UNL     1      37.878  21.545 226.818  1.00  0.00    -0.550 OA
ATOM     14  O   UNL     1      37.878  19.346 227.457  1.00  0.00    -0.550 OA
ENDBRANCH  11  12
ENDBRANCH  10  11
ENDBRANCH   9  10
ENDBRANCH   8   9
ENDBRANCH   7   8
ENDBRANCH   6   7
ENDBRANCH   5   6
ENDBRANCH   4   5
ENDBRANCH   3   4
ENDBRANCH   2   3
ENDBRANCH   1   2
BRANCH   1  15
ATOM     15  C   UNL     1      41.357  19.767 222.052  1.00  0.00     0.000 C 
BRANCH  15  16
ATOM     16  C   UNL     1      41.225  21.250 221.649  1.00  0.00     0.000 C 
BRANCH  16  17
ATOM     17  C   UNL     1      40.243  22.072 222.507  1.00  0.00     0.000 C 
BRANCH  17  18
ATOM     18  C   UNL     1      40.873  23.261 223.258  1.00  0.00    -0.000 C 
BRANCH  18  19
ATOM     19  C   UNL     1      40.351  23.477 224.692  1.00  0.00    -0.000 C 
BRANCH  19  20
ATOM     20  C   UNL     1      39.000  24.212 224.789  1.00  0.00    -0.000 C 
BRANCH  20  21
ATOM     21  C   UNL     1      39.027  25.680 224.320  1.00  0.00    -0.000 C 
BRANCH  21  22
ATOM     22  C   UNL     1      38.096  26.004 223.133  1.00  0.00    -0.000 C 
BRANCH  22  23
ATOM     23  C   UNL     1      36.765  25.231 223.116  1.00  0.00    -0.000 C 
BRANCH  23  24
ATOM     24  C   UNL     1      36.252  24.953 221.692  1.00  0.00    -0.000 C 
BRANCH  24  25
ATOM     25  C   UNL     1      36.394  23.475 221.296  1.00  0.00    -0.003 C 
ATOM     26  C   UNL     1      36.509  22.545 222.503  1.00  0.00     0.004 C 
ENDBRANCH  24  25
ENDBRANCH  23  24
ENDBRANCH  22  23
ENDBRANCH  21  22
ENDBRANCH  20  21
ENDBRANCH  19  20
ENDBRANCH  18  19
ENDBRANCH  17  18
ENDBRANCH  16  17
ENDBRANCH  15  16
ENDBRANCH   1  15
TORSDOF 22
ENDMDL
MODEL 8
REMARK VINA RESULT:    -3.439      2.948      6.312
REMARK INTER + INTRA:         -11.800
REMARK INTER:                  -7.167
REMARK INTRA:                  -4.633
REMARK UNBOUND:                -3.939
REMARK SMILES CCCCCCCCCCCCCCCCCCCCCCCC(=O)[O-]
REMARK SMILES IDX 13 1 14 2 15 3 16 4 17 5 18 6 19 7 20 8 21 9 22 10 23 11
REMARK SMILES IDX 24 12 25 13 26 14 12 15 11 16 10 17 9 18 8 19 7 20 6 21 5 22
REMARK SMILES IDX 4 23 3 24 2 25 1 26
REMARK H PARENT
REMARK Flexibility Score: inf
ROOT
ATOM      1  C   UNL     1      40.473  18.830 224.080  1.00  0.00     0.000 C 
ENDROOT
BRANCH   1   2
ATOM      2  C   UNL     1      40.924  19.586 222.820  1.00  0.00     0.000 C 
BRANCH   2   3
ATOM      3  C   UNL     1      41.875  20.751 223.139  1.00  0.00     0.000 C 
BRANCH   3   4
ATOM      4  C   UNL     1      41.350  22.102 222.627  1.00  0.00     0.000 C 
BRANCH   4   5
ATOM      5  C   UNL     1      39.828  22.066 222.446  1.00  0.00     0.000 C 
BRANCH   5   6
ATOM      6  C   UNL     1      39.325  23.339 221.749  1.00  0.00     0.000 C 
BRANCH   6   7
ATOM      7  C   UNL     1      39.639  24.623 222.539  1.00  0.00     0.000 C 
BRANCH   7   8
ATOM      8  C   UNL     1      38.418  25.490 222.896  1.00  0.00     0.000 C 
BRANCH   8   9
ATOM      9  C   UNL     1      37.313  24.703 223.619  1.00  0.00     0.000 C 
BRANCH   9  10
ATOM     10  C   UNL     1      35.937  24.838 222.941  1.00  0.00     0.006 C 
BRANCH  10  11
ATOM     11  C   UNL     1      35.494  23.584 222.164  1.00  0.00     0.053 C 
BRANCH  11  12
ATOM     12  C   UNL     1      35.303  23.847 220.702  1.00  0.00     0.041 C 
ATOM     13  O   UNL     1      36.298  24.033 219.951  1.00  0.00    -0.550 OA
ATOM     14  O   UNL     1      34.021  23.915 220.170  1.00  0.00    -0.550 OA
ENDBRANCH  11  12
ENDBRANCH  10  11
ENDBRANCH   9  10
ENDBRANCH   8   9
ENDBRANCH   7   8
ENDBRANCH   6   7
ENDBRANCH   5   6
ENDBRANCH   4   5
ENDBRANCH   3   4
ENDBRANCH   2   3
ENDBRANCH   1   2
BRANCH   1  15
ATOM     15  C   UNL     1      40.926  19.518 225.382  1.00  0.00     0.000 C 
BRANCH  15  16
ATOM     16  C   UNL     1      39.783  19.988 226.304  1.00  0.00     0.000 C 
BRANCH  16  17
ATOM     17  C   UNL     1      38.684  20.817 225.608  1.00  0.00     0.000 C 
BRANCH  17  18
ATOM     18  C   UNL     1      38.417  22.200 226.234  1.00  0.00    -0.000 C 
BRANCH  18  19
ATOM     19  C   UNL     1      39.548  23.230 226.044  1.00  0.00    -0.000 C 
BRANCH  19  20
ATOM     20  C   UNL     1      40.228  23.697 227.346  1.00  0.00    -0.000 C 
BRANCH  20  21
ATOM     21  C   UNL     1      41.706  23.284 227.489  1.00  0.00    -0.000 C 
BRANCH  21  22
ATOM     22  C   UNL     1      42.390  22.839 226.180  1.00  0.00    -0.000 C 
BRANCH  22  23
ATOM     23  C   UNL     1      43.406  23.840 225.600  1.00  0.00    -0.000 C 
BRANCH  23  24
ATOM     24  C   UNL     1      42.778  24.812 224.587  1.00  0.00    -0.000 C 
BRANCH  24  25
ATOM     25  C   UNL     1      42.606  26.227 225.160  1.00  0.00    -0.003 C 
ATOM     26  C   UNL     1      41.141  26.651 225.266  1.00  0.00     0.004 C 
ENDBRANCH  24  25
ENDBRANCH  23  24
ENDBRANCH  22  23
ENDBRANCH  21  22
ENDBRANCH  20  21
ENDBRANCH  19  20
ENDBRANCH  18  19
ENDBRANCH  17  18
ENDBRANCH  16  17
ENDBRANCH  15  16
ENDBRANCH   1  15
TORSDOF 22
ENDMDL
MODEL 9
REMARK VINA RESULT:    -3.424      2.903      6.456
REMARK INTER + INTRA:         -11.766
REMARK INTER:                  -7.100
REMARK INTRA:                  -4.666
REMARK UNBOUND:                -3.939
REMARK SMILES CCCCCCCCCCCCCCCCCCCCCCCC(=O)[O-]
REMARK SMILES IDX 13 1 14 2 15 3 16 4 17 5 18 6 19 7 20 8 21 9 22 10 23 11
REMARK SMILES IDX 24 12 25 13 26 14 12 15 11 16 10 17 9 18 8 19 7 20 6 21 5 22
REMARK SMILES IDX 4 23 3 24 2 25 1 26
REMARK H PARENT
REMARK Flexibility Score: inf
ROOT
ATOM      1  C   UNL     1      42.035  20.998 221.546  1.00  0.00     0.000 C 
ENDROOT
BRANCH   1   2
ATOM      2  C   UNL     1      41.364  22.249 222.138  1.00  0.00     0.000 C 
BRANCH   2   3
ATOM      3  C   UNL     1      39.965  22.501 221.555  1.00  0.00     0.000 C 
BRANCH   3   4
ATOM      4  C   UNL     1      39.465  23.931 221.812  1.00  0.00     0.000 C 
BRANCH   4   5
ATOM      5  C   UNL     1      38.001  23.927 222.269  1.00  0.00     0.000 C 
BRANCH   5   6
ATOM      6  C   UNL     1      37.900  24.037 223.797  1.00  0.00     0.000 C 
BRANCH   6   7
ATOM      7  C   UNL     1      37.907  22.667 224.502  1.00  0.00     0.000 C 
BRANCH   7   8
ATOM      8  C   UNL     1      39.223  22.300 225.211  1.00  0.00     0.000 C 
BRANCH   8   9
ATOM      9  C   UNL     1      39.874  23.495 225.928  1.00  0.00     0.000 C 
BRANCH   9  10
ATOM     10  C   UNL     1      41.324  23.750 225.477  1.00  0.00     0.006 C 
BRANCH  10  11
ATOM     11  C   UNL     1      41.506  25.034 224.647  1.00  0.00     0.053 C 
BRANCH  11  12
ATOM     12  C   UNL     1      40.907  26.239 225.306  1.00  0.00     0.041 C 
ATOM     13  O   UNL     1      41.393  26.687 226.378  1.00  0.00    -0.550 OA
ATOM     14  O   UNL     1      39.791  26.852 224.749  1.00  0.00    -0.550 OA
ENDBRANCH  11  12
ENDBRANCH  10  11
ENDBRANCH   9  10
ENDBRANCH   8   9
ENDBRANCH   7   8
ENDBRANCH   6   7
ENDBRANCH   5   6
ENDBRANCH   4   5
ENDBRANCH   3   4
ENDBRANCH   2   3
ENDBRANCH   1   2
BRANCH   1  15
ATOM     15  C   UNL     1      43.296  20.575 222.322  1.00  0.00     0.000 C 
BRANCH  15  16
ATOM     16  C   UNL     1      43.545  21.345 223.635  1.00  0.00     0.000 C 
BRANCH  16  17
ATOM     17  C   UNL     1      43.586  20.472 224.905  1.00  0.00     0.000 C 
BRANCH  17  18
ATOM     18  C   UNL     1      42.210  20.157 225.523  1.00  0.00    -0.000 C 
BRANCH  18  19
ATOM     19  C   UNL     1      41.613  18.794 225.123  1.00  0.00    -0.000 C 
BRANCH  19  20
ATOM     20  C   UNL     1      40.349  18.870 224.245  1.00  0.00    -0.000 C 
BRANCH  20  21
ATOM     21  C   UNL     1      39.157  18.033 224.750  1.00  0.00    -0.000 C 
BRANCH  21  22
ATOM     22  C   UNL     1      37.882  18.840 225.073  1.00  0.00    -0.000 C 
BRANCH  22  23
ATOM     23  C   UNL     1      37.623  19.083 226.571  1.00  0.00    -0.000 C 
BRANCH  23  24
ATOM     24  C   UNL     1      38.338  18.063 227.475  1.00  0.00    -0.000 C 
BRANCH  24  25
ATOM     25  C   UNL     1      39.115  18.734 228.617  1.00  0.00    -0.003 C 
ATOM     26  C   UNL     1      39.680  20.100 228.228  1.00  0.00     0.004 C 
ENDBRANCH  24  25
ENDBRANCH  23  24
ENDBRANCH  22  23
ENDBRANCH  21  22
ENDBRANCH  20  21
ENDBRANCH  19  20
ENDBRANCH  18  19
ENDBRANCH  17  18
ENDBRANCH  16  17
ENDBRANCH  15  16
ENDBRANCH   1  15
TORSDOF 22
ENDMDL
