MODEL 1
REMARK VINA RESULT:    -4.055      0.000      0.000
REMARK INTER + INTRA:         -12.184
REMARK INTER:                 -10.692
REMARK INTRA:                  -1.491
REMARK UNBOUND:                -1.491
REMARK SMILES CCCCCCCCCCCCCCCCCCCCCCCCCCCCCC(=O)[O-]
REMARK SMILES IDX 16 1 17 2 18 3 19 4 20 5 21 6 22 7 23 8 24 9 25 10 26 11
REMARK SMILES IDX 27 12 28 13 29 14 30 15 31 16 32 17 15 18 14 19 13 20 12 21
REMARK SMILES IDX 11 22 10 23 9 24 8 25 7 26 6 27 5 28 4 29 3 30 2 31 1 32
REMARK H PARENT
REMARK Flexibility Score: inf
ROOT
ATOM      1  C   UNL     1       6.416  16.066  31.980  1.00  0.00     0.000 C 
ENDROOT
BRANCH   1   2
ATOM      2  C   UNL     1       6.295  16.544  33.439  1.00  0.00     0.000 C 
BRANCH   2   3
ATOM      3  C   UNL     1       6.340  18.076  33.573  1.00  0.00     0.000 C 
BRANCH   3   4
ATOM      4  C   UNL     1       5.079  18.756  33.012  1.00  0.00     0.000 C 
BRANCH   4   5
ATOM      5  C   UNL     1       3.764  18.356  33.708  1.00  0.00     0.000 C 
BRANCH   5   6
ATOM      6  C   UNL     1       2.651  19.417  33.585  1.00  0.00     0.000 C 
BRANCH   6   7
ATOM      7  C   UNL     1       2.484  20.237  34.874  1.00  0.00     0.000 C 
BRANCH   7   8
ATOM      8  C   UNL     1       1.666  21.510  34.613  1.00  0.00     0.000 C 
BRANCH   8   9
ATOM      9  C   UNL     1       0.236  21.206  34.127  1.00  0.00     0.000 C 
BRANCH   9  10
ATOM     10  C   UNL     1      -0.075  21.736  32.715  1.00  0.00     0.000 C 
BRANCH  10  11
ATOM     11  C   UNL     1      -0.042  20.630  31.649  1.00  0.00     0.000 C 
BRANCH  11  12
ATOM     12  C   UNL     1      -1.057  20.914  30.530  1.00  0.00     0.000 C 
BRANCH  12  13
ATOM     13  C   UNL     1      -1.174  19.756  29.520  1.00  0.00     0.006 C 
BRANCH  13  14
ATOM     14  C   UNL     1      -2.193  19.994  28.395  1.00  0.00     0.053 C 
BRANCH  14  15
ATOM     15  C   UNL     1      -2.733  18.710  27.843  1.00  0.00     0.041 C 
ATOM     16  O   UNL     1      -2.411  17.610  28.365  1.00  0.00    -0.550 OA
ATOM     17  O   UNL     1      -3.619  18.732  26.773  1.00  0.00    -0.550 OA
ENDBRANCH  14  15
ENDBRANCH  13  14
ENDBRANCH  12  13
ENDBRANCH  11  12
ENDBRANCH  10  11
ENDBRANCH   9  10
ENDBRANCH   8   9
ENDBRANCH   7   8
ENDBRANCH   6   7
ENDBRANCH   5   6
ENDBRANCH   4   5
ENDBRANCH   3   4
ENDBRANCH   2   3
ENDBRANCH   1   2
BRANCH   1  18
ATOM     18  C   UNL     1       7.761  15.406  31.615  1.00  0.00     0.000 C 
BRANCH  18  19
ATOM     19  C   UNL     1       7.702  14.395  30.452  1.00  0.00     0.000 C 
BRANCH  19  20
ATOM     20  C   UNL     1       8.813  14.554  29.400  1.00  0.00     0.000 C 
BRANCH  20  21
ATOM     21  C   UNL     1       8.726  13.506  28.279  1.00  0.00     0.000 C 
BRANCH  21  22
ATOM     22  C   UNL     1       9.709  13.834  27.145  1.00  0.00     0.000 C 
BRANCH  22  23
ATOM     23  C   UNL     1      11.154  13.434  27.483  1.00  0.00     0.000 C 
BRANCH  23  24
ATOM     24  C   UNL     1      12.192  14.237  26.680  1.00  0.00    -0.000 C 
BRANCH  24  25
ATOM     25  C   UNL     1      12.952  13.364  25.669  1.00  0.00    -0.000 C 
BRANCH  25  26
ATOM     26  C   UNL     1      12.735  13.821  24.216  1.00  0.00    -0.000 C 
BRANCH  26  27
ATOM     27  C   UNL     1      11.563  14.807  24.067  1.00  0.00    -0.000 C 
BRANCH  27  28
ATOM     28  C   UNL     1      10.322  14.235  23.359  1.00  0.00    -0.000 C 
BRANCH  28  29
ATOM     29  C   UNL     1       9.101  15.163  23.446  1.00  0.00    -0.000 C 
BRANCH  29  30
ATOM     30  C   UNL     1       8.095  14.652  24.489  1.00  0.00    -0.000 C 
BRANCH  30  31
ATOM     31  C   UNL     1       6.644  14.708  23.988  1.00  0.00    -0.003 C 
ATOM     32  C   UNL     1       5.698  15.362  24.993  1.00  0.00     0.004 C 
ENDBRANCH  30  31
ENDBRANCH  29  30
ENDBRANCH  28  29
ENDBRANCH  27  28
ENDBRANCH  26  27
ENDBRANCH  25  26
ENDBRANCH  24  25
ENDBRANCH  23  24
ENDBRANCH  22  23
ENDBRANCH  21  22
ENDBRANCH  20  21
ENDBRANCH  19  20
ENDBRANCH  18  19
ENDBRANCH   1  18
TORSDOF 28
ENDMDL
MODEL 2
REMARK VINA RESULT:    -3.852      8.045     13.537
REMARK INTER + INTRA:         -11.648
REMARK INTER:                  -9.758
REMARK INTRA:                  -1.889
REMARK UNBOUND:                -1.491
REMARK SMILES CCCCCCCCCCCCCCCCCCCCCCCCCCCCCC(=O)[O-]
REMARK SMILES IDX 16 1 17 2 18 3 19 4 20 5 21 6 22 7 23 8 24 9 25 10 26 11
REMARK SMILES IDX 27 12 28 13 29 14 30 15 31 16 32 17 15 18 14 19 13 20 12 21
REMARK SMILES IDX 11 22 10 23 9 24 8 25 7 26 6 27 5 28 4 29 3 30 2 31 1 32
REMARK H PARENT
REMARK Flexibility Score: inf
ROOT
ATOM      1  C   UNL     1       8.567  11.157  17.086  1.00  0.00     0.000 C 
ENDROOT
BRANCH   1   2
ATOM      2  C   UNL     1       8.109  12.091  15.951  1.00  0.00     0.000 C 
BRANCH   2   3
ATOM      3  C   UNL     1       7.024  11.464  15.060  1.00  0.00     0.000 C 
BRANCH   3   4
ATOM      4  C   UNL     1       6.642  10.041  15.505  1.00  0.00     0.000 C 
BRANCH   4   5
ATOM      5  C   UNL     1       5.361   9.952  16.358  1.00  0.00     0.000 C 
BRANCH   5   6
ATOM      6  C   UNL     1       4.062   9.969  15.526  1.00  0.00     0.000 C 
BRANCH   6   7
ATOM      7  C   UNL     1       2.836   9.557  16.356  1.00  0.00     0.000 C 
BRANCH   7   8
ATOM      8  C   UNL     1       1.807   8.819  15.485  1.00  0.00     0.000 C 
BRANCH   8   9
ATOM      9  C   UNL     1       0.450   8.642  16.194  1.00  0.00     0.000 C 
BRANCH   9  10
ATOM     10  C   UNL     1       0.313   9.447  17.499  1.00  0.00     0.000 C 
BRANCH  10  11
ATOM     11  C   UNL     1      -1.137   9.869  17.783  1.00  0.00     0.000 C 
BRANCH  11  12
ATOM     12  C   UNL     1      -1.184  11.210  18.532  1.00  0.00     0.000 C 
BRANCH  12  13
ATOM     13  C   UNL     1      -1.761  11.081  19.955  1.00  0.00     0.006 C 
BRANCH  13  14
ATOM     14  C   UNL     1      -1.085  10.006  20.820  1.00  0.00     0.053 C 
BRANCH  14  15
ATOM     15  C   UNL     1      -2.037   8.917  21.212  1.00  0.00     0.041 C 
ATOM     16  O   UNL     1      -1.755   8.141  22.162  1.00  0.00    -0.550 OA
ATOM     17  O   UNL     1      -3.249   8.782  20.547  1.00  0.00    -0.550 OA
ENDBRANCH  14  15
ENDBRANCH  13  14
ENDBRANCH  12  13
ENDBRANCH  11  12
ENDBRANCH  10  11
ENDBRANCH   9  10
ENDBRANCH   8   9
ENDBRANCH   7   8
ENDBRANCH   6   7
ENDBRANCH   5   6
ENDBRANCH   4   5
ENDBRANCH   3   4
ENDBRANCH   2   3
ENDBRANCH   1   2
BRANCH   1  18
ATOM     18  C   UNL     1       8.905  11.858  18.418  1.00  0.00     0.000 C 
BRANCH  18  19
ATOM     19  C   UNL     1       8.270  13.251  18.606  1.00  0.00     0.000 C 
BRANCH  19  20
ATOM     20  C   UNL     1       9.114  14.240  19.429  1.00  0.00     0.000 C 
BRANCH  20  21
ATOM     21  C   UNL     1       8.536  14.493  20.830  1.00  0.00     0.000 C 
BRANCH  21  22
ATOM     22  C   UNL     1       9.588  15.135  21.748  1.00  0.00     0.000 C 
BRANCH  22  23
ATOM     23  C   UNL     1      10.273  14.111  22.666  1.00  0.00     0.000 C 
BRANCH  23  24
ATOM     24  C   UNL     1      11.348  14.749  23.563  1.00  0.00    -0.000 C 
BRANCH  24  25
ATOM     25  C   UNL     1      12.177  13.699  24.320  1.00  0.00    -0.000 C 
BRANCH  25  26
ATOM     26  C   UNL     1      12.856  14.276  25.574  1.00  0.00    -0.000 C 
BRANCH  26  27
ATOM     27  C   UNL     1      11.918  14.332  26.792  1.00  0.00    -0.000 C 
BRANCH  27  28
ATOM     28  C   UNL     1      10.715  13.374  26.727  1.00  0.00    -0.000 C 
BRANCH  28  29
ATOM     29  C   UNL     1       9.365  14.106  26.746  1.00  0.00    -0.000 C 
BRANCH  29  30
ATOM     30  C   UNL     1       8.572  13.830  25.459  1.00  0.00    -0.000 C 
BRANCH  30  31
ATOM     31  C   UNL     1       7.571  14.949  25.130  1.00  0.00    -0.003 C 
ATOM     32  C   UNL     1       6.467  14.491  24.178  1.00  0.00     0.004 C 
ENDBRANCH  30  31
ENDBRANCH  29  30
ENDBRANCH  28  29
ENDBRANCH  27  28
ENDBRANCH  26  27
ENDBRANCH  25  26
ENDBRANCH  24  25
ENDBRANCH  23  24
ENDBRANCH  22  23
ENDBRANCH  21  22
ENDBRANCH  20  21
ENDBRANCH  19  20
ENDBRANCH  18  19
ENDBRANCH   1  18
TORSDOF 28
ENDMDL
MODEL 3
REMARK VINA RESULT:    -3.678      7.616     13.513
REMARK INTER + INTRA:         -11.190
REMARK INTER:                  -9.618
REMARK INTRA:                  -1.572
REMARK UNBOUND:                -1.491
REMARK SMILES CCCCCCCCCCCCCCCCCCCCCCCCCCCCCC(=O)[O-]
REMARK SMILES IDX 16 1 17 2 18 3 19 4 20 5 21 6 22 7 23 8 24 9 25 10 26 11
REMARK SMILES IDX 27 12 28 13 29 14 30 15 31 16 32 17 15 18 14 19 13 20 12 21
REMARK SMILES IDX 11 22 10 23 9 24 8 25 7 26 6 27 5 28 4 29 3 30 2 31 1 32
REMARK H PARENT
REMARK Flexibility Score: inf
ROOT
ATOM      1  C   UNL     1       9.194  12.950  18.857  1.00  0.00     0.000 C 
ENDROOT
BRANCH   1   2
ATOM      2  C   UNL     1       8.320  14.123  19.335  1.00  0.00     0.000 C 
BRANCH   2   3
ATOM      3  C   UNL     1       9.018  15.000  20.389  1.00  0.00     0.000 C 
BRANCH   3   4
ATOM      4  C   UNL     1       9.194  14.279  21.737  1.00  0.00     0.000 C 
BRANCH   4   5
ATOM      5  C   UNL     1      10.657  14.015  22.143  1.00  0.00     0.000 C 
BRANCH   5   6
ATOM      6  C   UNL     1      11.037  14.618  23.512  1.00  0.00     0.000 C 
BRANCH   6   7
ATOM      7  C   UNL     1      12.487  14.296  23.907  1.00  0.00     0.000 C 
BRANCH   7   8
ATOM      8  C   UNL     1      12.530  13.379  25.139  1.00  0.00     0.000 C 
BRANCH   8   9
ATOM      9  C   UNL     1      12.727  14.161  26.451  1.00  0.00     0.000 C 
BRANCH   9  10
ATOM     10  C   UNL     1      11.609  13.943  27.487  1.00  0.00     0.000 C 
BRANCH  10  11
ATOM     11  C   UNL     1      10.397  13.203  26.900  1.00  0.00     0.000 C 
BRANCH  11  12
ATOM     12  C   UNL     1       9.193  14.147  26.752  1.00  0.00     0.000 C 
BRANCH  12  13
ATOM     13  C   UNL     1       8.354  13.854  25.494  1.00  0.00     0.006 C 
BRANCH  13  14
ATOM     14  C   UNL     1       7.738  15.099  24.836  1.00  0.00     0.053 C 
BRANCH  14  15
ATOM     15  C   UNL     1       6.247  15.003  24.733  1.00  0.00     0.041 C 
ATOM     16  O   UNL     1       5.522  15.956  25.122  1.00  0.00    -0.550 OA
ATOM     17  O   UNL     1       5.660  13.872  24.178  1.00  0.00    -0.550 OA
ENDBRANCH  14  15
ENDBRANCH  13  14
ENDBRANCH  12  13
ENDBRANCH  11  12
ENDBRANCH  10  11
ENDBRANCH   9  10
ENDBRANCH   8   9
ENDBRANCH   7   8
ENDBRANCH   6   7
ENDBRANCH   5   6
ENDBRANCH   4   5
ENDBRANCH   3   4
ENDBRANCH   2   3
ENDBRANCH   1   2
BRANCH   1  18
ATOM     18  C   UNL     1       8.796  12.345  17.496  1.00  0.00     0.000 C 
BRANCH  18  19
ATOM     19  C   UNL     1       7.823  11.150  17.567  1.00  0.00     0.000 C 
BRANCH  19  20
ATOM     20  C   UNL     1       7.309  10.653  16.205  1.00  0.00     0.000 C 
BRANCH  20  21
ATOM     21  C   UNL     1       5.888  10.073  16.280  1.00  0.00     0.000 C 
BRANCH  21  22
ATOM     22  C   UNL     1       4.949  10.796  15.304  1.00  0.00     0.000 C 
BRANCH  22  23
ATOM     23  C   UNL     1       3.733   9.942  14.912  1.00  0.00     0.000 C 
BRANCH  23  24
ATOM     24  C   UNL     1       2.875   9.546  16.126  1.00  0.00    -0.000 C 
BRANCH  24  25
ATOM     25  C   UNL     1       1.900   8.402  15.804  1.00  0.00    -0.000 C 
BRANCH  25  26
ATOM     26  C   UNL     1       0.472   8.687  16.301  1.00  0.00    -0.000 C 
BRANCH  26  27
ATOM     27  C   UNL     1       0.436   9.662  17.491  1.00  0.00    -0.000 C 
BRANCH  27  28
ATOM     28  C   UNL     1      -0.949  10.261  17.795  1.00  0.00    -0.000 C 
BRANCH  28  29
ATOM     29  C   UNL     1      -1.018  10.945  19.169  1.00  0.00    -0.000 C 
BRANCH  29  30
ATOM     30  C   UNL     1      -1.366   9.931  20.270  1.00  0.00    -0.000 C 
BRANCH  30  31
ATOM     31  C   UNL     1      -2.862   9.582  20.301  1.00  0.00    -0.003 C 
ATOM     32  C   UNL     1      -3.702  10.509  19.422  1.00  0.00     0.004 C 
ENDBRANCH  30  31
ENDBRANCH  29  30
ENDBRANCH  28  29
ENDBRANCH  27  28
ENDBRANCH  26  27
ENDBRANCH  25  26
ENDBRANCH  24  25
ENDBRANCH  23  24
ENDBRANCH  22  23
ENDBRANCH  21  22
ENDBRANCH  20  21
ENDBRANCH  19  20
ENDBRANCH  18  19
ENDBRANCH   1  18
TORSDOF 28
ENDMDL
MODEL 4
REMARK VINA RESULT:    -3.428      8.121     13.916
REMARK INTER + INTRA:         -10.530
REMARK INTER:                  -9.284
REMARK INTRA:                  -1.246
REMARK UNBOUND:                -1.491
REMARK SMILES CCCCCCCCCCCCCCCCCCCCCCCCCCCCCC(=O)[O-]
REMARK SMILES IDX 16 1 17 2 18 3 19 4 20 5 21 6 22 7 23 8 24 9 25 10 26 11
REMARK SMILES IDX 27 12 28 13 29 14 30 15 31 16 32 17 15 18 14 19 13 20 12 21
REMARK SMILES IDX 11 22 10 23 9 24 8 25 7 26 6 27 5 28 4 29 3 30 2 31 1 32
REMARK H PARENT
REMARK Flexibility Score: inf
ROOT
ATOM      1  C   UNL     1       8.507  11.228  17.215  1.00  0.00     0.000 C 
ENDROOT
BRANCH   1   2
ATOM      2  C   UNL     1       8.024  12.181  16.107  1.00  0.00     0.000 C 
BRANCH   2   3
ATOM      3  C   UNL     1       6.858  11.604  15.286  1.00  0.00     0.000 C 
BRANCH   3   4
ATOM      4  C   UNL     1       7.061  10.121  14.932  1.00  0.00     0.000 C 
BRANCH   4   5
ATOM      5  C   UNL     1       5.773   9.274  14.930  1.00  0.00     0.000 C 
BRANCH   5   6
ATOM      6  C   UNL     1       4.618   9.904  15.735  1.00  0.00     0.000 C 
BRANCH   6   7
ATOM      7  C   UNL     1       3.240   9.462  15.218  1.00  0.00     0.000 C 
BRANCH   7   8
ATOM      8  C   UNL     1       2.220   9.391  16.365  1.00  0.00     0.000 C 
BRANCH   8   9
ATOM      9  C   UNL     1       0.999   8.518  16.018  1.00  0.00     0.000 C 
BRANCH   9  10
ATOM     10  C   UNL     1      -0.346   9.104  16.484  1.00  0.00     0.000 C 
BRANCH  10  11
ATOM     11  C   UNL     1      -0.517   9.049  18.010  1.00  0.00     0.000 C 
BRANCH  11  12
ATOM     12  C   UNL     1      -0.872  10.434  18.574  1.00  0.00     0.000 C 
BRANCH  12  13
ATOM     13  C   UNL     1      -2.336  10.530  19.047  1.00  0.00     0.006 C 
BRANCH  13  14
ATOM     14  C   UNL     1      -2.743   9.463  20.076  1.00  0.00     0.053 C 
BRANCH  14  15
ATOM     15  C   UNL     1      -1.723   9.309  21.161  1.00  0.00     0.041 C 
ATOM     16  O   UNL     1      -0.915  10.242  21.410  1.00  0.00    -0.550 OA
ATOM     17  O   UNL     1      -1.685   8.145  21.919  1.00  0.00    -0.550 OA
ENDBRANCH  14  15
ENDBRANCH  13  14
ENDBRANCH  12  13
ENDBRANCH  11  12
ENDBRANCH  10  11
ENDBRANCH   9  10
ENDBRANCH   8   9
ENDBRANCH   7   8
ENDBRANCH   6   7
ENDBRANCH   5   6
ENDBRANCH   4   5
ENDBRANCH   3   4
ENDBRANCH   2   3
ENDBRANCH   1   2
BRANCH   1  18
ATOM     18  C   UNL     1       9.130  11.914  18.447  1.00  0.00     0.000 C 
BRANCH  18  19
ATOM     19  C   UNL     1       8.691  13.374  18.678  1.00  0.00     0.000 C 
BRANCH  19  20
ATOM     20  C   UNL     1       9.579  14.171  19.649  1.00  0.00     0.000 C 
BRANCH  20  21
ATOM     21  C   UNL     1       8.811  14.681  20.877  1.00  0.00     0.000 C 
BRANCH  21  22
ATOM     22  C   UNL     1       9.664  14.556  22.148  1.00  0.00     0.000 C 
BRANCH  22  23
ATOM     23  C   UNL     1       9.055  15.303  23.344  1.00  0.00     0.000 C 
BRANCH  23  24
ATOM     24  C   UNL     1       7.853  14.560  23.954  1.00  0.00    -0.000 C 
BRANCH  24  25
ATOM     25  C   UNL     1       8.016  14.325  25.464  1.00  0.00    -0.000 C 
BRANCH  25  26
ATOM     26  C   UNL     1       9.417  13.805  25.832  1.00  0.00    -0.000 C 
BRANCH  26  27
ATOM     27  C   UNL     1       9.732  13.940  27.332  1.00  0.00    -0.000 C 
BRANCH  27  28
ATOM     28  C   UNL     1      11.188  13.625  27.718  1.00  0.00    -0.000 C 
BRANCH  28  29
ATOM     29  C   UNL     1      12.041  13.174  26.524  1.00  0.00    -0.000 C 
BRANCH  29  30
ATOM     30  C   UNL     1      13.060  14.258  26.136  1.00  0.00    -0.000 C 
BRANCH  30  31
ATOM     31  C   UNL     1      12.752  14.897  24.773  1.00  0.00    -0.003 C 
ATOM     32  C   UNL     1      12.627  13.866  23.653  1.00  0.00     0.004 C 
ENDBRANCH  30  31
ENDBRANCH  29  30
ENDBRANCH  28  29
ENDBRANCH  27  28
ENDBRANCH  26  27
ENDBRANCH  25  26
ENDBRANCH  24  25
ENDBRANCH  23  24
ENDBRANCH  22  23
ENDBRANCH  21  22
ENDBRANCH  20  21
ENDBRANCH  19  20
ENDBRANCH  18  19
ENDBRANCH   1  18
TORSDOF 28
ENDMDL
MODEL 5
REMARK VINA RESULT:    -3.295      5.069      8.658
REMARK INTER + INTRA:         -10.179
REMARK INTER:                  -8.876
REMARK INTRA:                  -1.303
REMARK UNBOUND:                -1.491
REMARK SMILES CCCCCCCCCCCCCCCCCCCCCCCCCCCCCC(=O)[O-]
REMARK SMILES IDX 16 1 17 2 18 3 19 4 20 5 21 6 22 7 23 8 24 9 25 10 26 11
REMARK SMILES IDX 27 12 28 13 29 14 30 15 31 16 32 17 15 18 14 19 13 20 12 21
REMARK SMILES IDX 11 22 10 23 9 24 8 25 7 26 6 27 5 28 4 29 3 30 2 31 1 32
REMARK H PARENT
REMARK Flexibility Score: inf
ROOT
ATOM      1  C   UNL     1      12.362  14.310  25.148  1.00  0.00     0.000 C 
ENDROOT
BRANCH   1   2
ATOM      2  C   UNL     1      11.926  13.282  26.209  1.00  0.00     0.000 C 
BRANCH   2   3
ATOM      3  C   UNL     1      11.284  13.934  27.446  1.00  0.00     0.000 C 
BRANCH   3   4
ATOM      4  C   UNL     1       9.755  13.768  27.476  1.00  0.00     0.000 C 
BRANCH   4   5
ATOM      5  C   UNL     1       9.070  14.312  28.745  1.00  0.00     0.000 C 
BRANCH   5   6
ATOM      6  C   UNL     1       7.689  13.680  29.021  1.00  0.00     0.000 C 
BRANCH   6   7
ATOM      7  C   UNL     1       7.313  13.736  30.510  1.00  0.00     0.000 C 
BRANCH   7   8
ATOM      8  C   UNL     1       7.763  15.062  31.141  1.00  0.00     0.000 C 
BRANCH   8   9
ATOM      9  C   UNL     1       6.591  15.859  31.746  1.00  0.00     0.000 C 
BRANCH   9  10
ATOM     10  C   UNL     1       7.024  17.004  32.679  1.00  0.00     0.000 C 
BRANCH  10  11
ATOM     11  C   UNL     1       6.163  17.089  33.949  1.00  0.00     0.000 C 
BRANCH  11  12
ATOM     12  C   UNL     1       5.576  18.498  34.123  1.00  0.00     0.000 C 
BRANCH  12  13
ATOM     13  C   UNL     1       4.039  18.524  34.016  1.00  0.00     0.006 C 
BRANCH  13  14
ATOM     14  C   UNL     1       3.495  19.417  32.890  1.00  0.00     0.053 C 
BRANCH  14  15
ATOM     15  C   UNL     1       2.029  19.685  33.042  1.00  0.00     0.041 C 
ATOM     16  O   UNL     1       1.412  19.275  34.060  1.00  0.00    -0.550 OA
ATOM     17  O   UNL     1       1.352  20.417  32.073  1.00  0.00    -0.550 OA
ENDBRANCH  14  15
ENDBRANCH  13  14
ENDBRANCH  12  13
ENDBRANCH  11  12
ENDBRANCH  10  11
ENDBRANCH   9  10
ENDBRANCH   8   9
ENDBRANCH   7   8
ENDBRANCH   6   7
ENDBRANCH   5   6
ENDBRANCH   4   5
ENDBRANCH   3   4
ENDBRANCH   2   3
ENDBRANCH   1   2
BRANCH   1  18
ATOM     18  C   UNL     1      11.552  14.284  23.836  1.00  0.00     0.000 C 
BRANCH  18  19
ATOM     19  C   UNL     1      10.158  14.939  23.912  1.00  0.00     0.000 C 
BRANCH  19  20
ATOM     20  C   UNL     1       9.566  15.357  22.555  1.00  0.00     0.000 C 
BRANCH  20  21
ATOM     21  C   UNL     1       9.254  14.159  21.646  1.00  0.00     0.000 C 
BRANCH  21  22
ATOM     22  C   UNL     1       8.634  14.624  20.320  1.00  0.00     0.000 C 
BRANCH  22  23
ATOM     23  C   UNL     1       9.253  13.923  19.101  1.00  0.00     0.000 C 
BRANCH  23  24
ATOM     24  C   UNL     1       8.292  12.914  18.449  1.00  0.00    -0.000 C 
BRANCH  24  25
ATOM     25  C   UNL     1       8.957  11.551  18.198  1.00  0.00    -0.000 C 
BRANCH  25  26
ATOM     26  C   UNL     1       8.233  10.733  17.115  1.00  0.00    -0.000 C 
BRANCH  26  27
ATOM     27  C   UNL     1       7.668  11.607  15.981  1.00  0.00    -0.000 C 
BRANCH  27  28
ATOM     28  C   UNL     1       6.475  10.996  15.225  1.00  0.00    -0.000 C 
BRANCH  28  29
ATOM     29  C   UNL     1       5.586  10.118  16.118  1.00  0.00    -0.000 C 
BRANCH  29  30
ATOM     30  C   UNL     1       4.292   9.725  15.388  1.00  0.00    -0.000 C 
BRANCH  30  31
ATOM     31  C   UNL     1       3.076   9.675  16.326  1.00  0.00    -0.003 C 
ATOM     32  C   UNL     1       1.974   8.748  15.813  1.00  0.00     0.004 C 
ENDBRANCH  30  31
ENDBRANCH  29  30
ENDBRANCH  28  29
ENDBRANCH  27  28
ENDBRANCH  26  27
ENDBRANCH  25  26
ENDBRANCH  24  25
ENDBRANCH  23  24
ENDBRANCH  22  23
ENDBRANCH  21  22
ENDBRANCH  20  21
ENDBRANCH  19  20
ENDBRANCH  18  19
ENDBRANCH   1  18
TORSDOF 28
ENDMDL
MODEL 6
REMARK VINA RESULT:    -3.246      5.426     13.355
REMARK INTER + INTRA:         -10.051
REMARK INTER:                  -8.645
REMARK INTRA:                  -1.406
REMARK UNBOUND:                -1.491
REMARK SMILES CCCCCCCCCCCCCCCCCCCCCCCCCCCCCC(=O)[O-]
REMARK SMILES IDX 16 1 17 2 18 3 19 4 20 5 21 6 22 7 23 8 24 9 25 10 26 11
REMARK SMILES IDX 27 12 28 13 29 14 30 15 31 16 32 17 15 18 14 19 13 20 12 21
REMARK SMILES IDX 11 22 10 23 9 24 8 25 7 26 6 27 5 28 4 29 3 30 2 31 1 32
REMARK H PARENT
REMARK Flexibility Score: inf
ROOT
ATOM      1  C   UNL     1       7.737  13.888  29.114  1.00  0.00     0.000 C 
ENDROOT
BRANCH   1   2
ATOM      2  C   UNL     1       9.217  13.888  28.688  1.00  0.00     0.000 C 
BRANCH   2   3
ATOM      3  C   UNL     1       9.410  13.577  27.194  1.00  0.00     0.000 C 
BRANCH   3   4
ATOM      4  C   UNL     1      10.836  13.884  26.705  1.00  0.00     0.000 C 
BRANCH   4   5
ATOM      5  C   UNL     1      10.951  14.201  25.201  1.00  0.00     0.000 C 
BRANCH   5   6
ATOM      6  C   UNL     1       9.588  14.302  24.485  1.00  0.00     0.000 C 
BRANCH   6   7
ATOM      7  C   UNL     1       9.638  15.242  23.270  1.00  0.00     0.000 C 
BRANCH   7   8
ATOM      8  C   UNL     1       9.501  14.453  21.959  1.00  0.00     0.000 C 
BRANCH   8   9
ATOM      9  C   UNL     1       8.382  15.001  21.053  1.00  0.00     0.000 C 
BRANCH   9  10
ATOM     10  C   UNL     1       8.554  14.654  19.563  1.00  0.00     0.000 C 
BRANCH  10  11
ATOM     11  C   UNL     1       9.465  13.437  19.341  1.00  0.00     0.000 C 
BRANCH  11  12
ATOM     12  C   UNL     1       9.250  12.836  17.943  1.00  0.00     0.000 C 
BRANCH  12  13
ATOM     13  C   UNL     1       8.537  11.470  17.981  1.00  0.00     0.006 C 
BRANCH  13  14
ATOM     14  C   UNL     1       7.311  11.366  17.059  1.00  0.00     0.053 C 
BRANCH  14  15
ATOM     15  C   UNL     1       7.614  10.607  15.804  1.00  0.00     0.041 C 
ATOM     16  O   UNL     1       6.676  10.176  15.082  1.00  0.00    -0.550 OA
ATOM     17  O   UNL     1       8.932  10.404  15.415  1.00  0.00    -0.550 OA
ENDBRANCH  14  15
ENDBRANCH  13  14
ENDBRANCH  12  13
ENDBRANCH  11  12
ENDBRANCH  10  11
ENDBRANCH   9  10
ENDBRANCH   8   9
ENDBRANCH   7   8
ENDBRANCH   6   7
ENDBRANCH   5   6
ENDBRANCH   4   5
ENDBRANCH   3   4
ENDBRANCH   2   3
ENDBRANCH   1   2
BRANCH   1  18
ATOM     18  C   UNL     1       7.492  13.891  30.637  1.00  0.00     0.000 C 
BRANCH  18  19
ATOM     19  C   UNL     1       7.766  15.234  31.343  1.00  0.00     0.000 C 
BRANCH  19  20
ATOM     20  C   UNL     1       6.522  15.918  31.936  1.00  0.00     0.000 C 
BRANCH  20  21
ATOM     21  C   UNL     1       6.873  17.080  32.878  1.00  0.00     0.000 C 
BRANCH  21  22
ATOM     22  C   UNL     1       6.612  16.696  34.342  1.00  0.00     0.000 C 
BRANCH  22  23
ATOM     23  C   UNL     1       5.515  17.554  34.991  1.00  0.00     0.000 C 
BRANCH  23  24
ATOM     24  C   UNL     1       5.747  19.061  34.788  1.00  0.00    -0.000 C 
BRANCH  24  25
ATOM     25  C   UNL     1       4.433  19.833  34.586  1.00  0.00    -0.000 C 
BRANCH  25  26
ATOM     26  C   UNL     1       3.693  19.411  33.305  1.00  0.00    -0.000 C 
BRANCH  26  27
ATOM     27  C   UNL     1       2.167  19.583  33.410  1.00  0.00    -0.000 C 
BRANCH  27  28
ATOM     28  C   UNL     1       1.500  20.207  32.172  1.00  0.00    -0.000 C 
BRANCH  28  29
ATOM     29  C   UNL     1       0.240  21.017  32.514  1.00  0.00    -0.000 C 
BRANCH  29  30
ATOM     30  C   UNL     1       0.063  21.141  34.035  1.00  0.00    -0.000 C 
BRANCH  30  31
ATOM     31  C   UNL     1       0.002  22.602  34.506  1.00  0.00    -0.003 C 
ATOM     32  C   UNL     1      -0.882  23.473  33.614  1.00  0.00     0.004 C 
ENDBRANCH  30  31
ENDBRANCH  29  30
ENDBRANCH  28  29
ENDBRANCH  27  28
ENDBRANCH  26  27
ENDBRANCH  25  26
ENDBRANCH  24  25
ENDBRANCH  23  24
ENDBRANCH  22  23
ENDBRANCH  21  22
ENDBRANCH  20  21
ENDBRANCH  19  20
ENDBRANCH  18  19
ENDBRANCH   1  18
TORSDOF 28
ENDMDL
MODEL 7
REMARK VINA RESULT:    -3.103      6.618     14.790
REMARK INTER + INTRA:          -9.675
REMARK INTER:                  -8.380
REMARK INTRA:                  -1.295
REMARK UNBOUND:                -1.491
REMARK SMILES CCCCCCCCCCCCCCCCCCCCCCCCCCCCCC(=O)[O-]
REMARK SMILES IDX 16 1 17 2 18 3 19 4 20 5 21 6 22 7 23 8 24 9 25 10 26 11
REMARK SMILES IDX 27 12 28 13 29 14 30 15 31 16 32 17 15 18 14 19 13 20 12 21
REMARK SMILES IDX 11 22 10 23 9 24 8 25 7 26 6 27 5 28 4 29 3 30 2 31 1 32
REMARK H PARENT
REMARK Flexibility Score: inf
ROOT
ATOM      1  C   UNL     1       8.404  14.622  25.430  1.00  0.00     0.000 C 
ENDROOT
BRANCH   1   2
ATOM      2  C   UNL     1       8.294  14.539  23.897  1.00  0.00     0.000 C 
BRANCH   2   3
ATOM      3  C   UNL     1       9.584  14.974  23.180  1.00  0.00     0.000 C 
BRANCH   3   4
ATOM      4  C   UNL     1       9.707  14.375  21.768  1.00  0.00     0.000 C 
BRANCH   4   5
ATOM      5  C   UNL     1       8.498  14.632  20.848  1.00  0.00     0.000 C 
BRANCH   5   6
ATOM      6  C   UNL     1       8.831  14.527  19.345  1.00  0.00     0.000 C 
BRANCH   6   7
ATOM      7  C   UNL     1       9.514  13.196  18.993  1.00  0.00     0.000 C 
BRANCH   7   8
ATOM      8  C   UNL     1       8.521  12.227  18.333  1.00  0.00     0.000 C 
BRANCH   8   9
ATOM      9  C   UNL     1       8.491  12.365  16.799  1.00  0.00     0.000 C 
BRANCH   9  10
ATOM     10  C   UNL     1       8.107  11.071  16.058  1.00  0.00     0.000 C 
BRANCH  10  11
ATOM     11  C   UNL     1       9.241  10.542  15.167  1.00  0.00     0.000 C 
BRANCH  11  12
ATOM     12  C   UNL     1       9.530   9.062  15.464  1.00  0.00     0.000 C 
BRANCH  12  13
ATOM     13  C   UNL     1      10.887   8.846  16.162  1.00  0.00     0.006 C 
BRANCH  13  14
ATOM     14  C   UNL     1      10.866   9.085  17.681  1.00  0.00     0.053 C 
BRANCH  14  15
ATOM     15  C   UNL     1      11.985   8.374  18.378  1.00  0.00     0.041 C 
ATOM     16  O   UNL     1      13.040   8.086  17.754  1.00  0.00    -0.550 OA
ATOM     17  O   UNL     1      11.874   8.058  19.726  1.00  0.00    -0.550 OA
ENDBRANCH  14  15
ENDBRANCH  13  14
ENDBRANCH  12  13
ENDBRANCH  11  12
ENDBRANCH  10  11
ENDBRANCH   9  10
ENDBRANCH   8   9
ENDBRANCH   7   8
ENDBRANCH   6   7
ENDBRANCH   5   6
ENDBRANCH   4   5
ENDBRANCH   3   4
ENDBRANCH   2   3
ENDBRANCH   1   2
BRANCH   1  18
ATOM     18  C   UNL     1       9.610  13.882  26.044  1.00  0.00     0.000 C 
BRANCH  18  19
ATOM     19  C   UNL     1       9.375  13.299  27.452  1.00  0.00     0.000 C 
BRANCH  19  20
ATOM     20  C   UNL     1       9.059  14.342  28.539  1.00  0.00     0.000 C 
BRANCH  20  21
ATOM     21  C   UNL     1       7.956  13.881  29.504  1.00  0.00     0.000 C 
BRANCH  21  22
ATOM     22  C   UNL     1       8.050  14.630  30.841  1.00  0.00     0.000 C 
BRANCH  22  23
ATOM     23  C   UNL     1       6.742  15.346  31.210  1.00  0.00     0.000 C 
BRANCH  23  24
ATOM     24  C   UNL     1       6.858  16.153  32.515  1.00  0.00    -0.000 C 
BRANCH  24  25
ATOM     25  C   UNL     1       5.692  17.137  32.700  1.00  0.00    -0.000 C 
BRANCH  25  26
ATOM     26  C   UNL     1       5.386  17.416  34.182  1.00  0.00    -0.000 C 
BRANCH  26  27
ATOM     27  C   UNL     1       4.074  18.194  34.386  1.00  0.00    -0.000 C 
BRANCH  27  28
ATOM     28  C   UNL     1       3.948  19.481  33.553  1.00  0.00    -0.000 C 
BRANCH  28  29
ATOM     29  C   UNL     1       2.676  20.280  33.872  1.00  0.00    -0.000 C 
BRANCH  29  30
ATOM     30  C   UNL     1       1.645  20.148  32.739  1.00  0.00    -0.000 C 
BRANCH  30  31
ATOM     31  C   UNL     1       0.536  21.208  32.823  1.00  0.00    -0.003 C 
ATOM     32  C   UNL     1      -0.466  21.106  31.673  1.00  0.00     0.004 C 
ENDBRANCH  30  31
ENDBRANCH  29  30
ENDBRANCH  28  29
ENDBRANCH  27  28
ENDBRANCH  26  27
ENDBRANCH  25  26
ENDBRANCH  24  25
ENDBRANCH  23  24
ENDBRANCH  22  23
ENDBRANCH  21  22
ENDBRANCH  20  21
ENDBRANCH  19  20
ENDBRANCH  18  19
ENDBRANCH   1  18
TORSDOF 28
ENDMDL
MODEL 8
REMARK VINA RESULT:    -3.088      1.594      4.862
REMARK INTER + INTRA:          -9.634
REMARK INTER:                  -8.078
REMARK INTRA:                  -1.556
REMARK UNBOUND:                -1.491
REMARK SMILES CCCCCCCCCCCCCCCCCCCCCCCCCCCCCC(=O)[O-]
REMARK SMILES IDX 16 1 17 2 18 3 19 4 20 5 21 6 22 7 23 8 24 9 25 10 26 11
REMARK SMILES IDX 27 12 28 13 29 14 30 15 31 16 32 17 15 18 14 19 13 20 12 21
REMARK SMILES IDX 11 22 10 23 9 24 8 25 7 26 6 27 5 28 4 29 3 30 2 31 1 32
REMARK H PARENT
REMARK Flexibility Score: inf
ROOT
ATOM      1  C   UNL     1       2.887  19.807  32.914  1.00  0.00     0.000 C 
ENDROOT
BRANCH   1   2
ATOM      2  C   UNL     1       1.761  19.145  33.729  1.00  0.00     0.000 C 
BRANCH   2   3
ATOM      3  C   UNL     1       1.494  19.854  35.068  1.00  0.00     0.000 C 
BRANCH   3   4
ATOM      4  C   UNL     1       1.354  21.379  34.912  1.00  0.00     0.000 C 
BRANCH   4   5
ATOM      5  C   UNL     1      -0.083  21.915  35.055  1.00  0.00     0.000 C 
BRANCH   5   6
ATOM      6  C   UNL     1      -0.517  22.838  33.896  1.00  0.00     0.000 C 
BRANCH   6   7
ATOM      7  C   UNL     1      -0.000  22.344  32.536  1.00  0.00     0.000 C 
BRANCH   7   8
ATOM      8  C   UNL     1      -0.808  21.130  32.050  1.00  0.00     0.000 C 
BRANCH   8   9
ATOM      9  C   UNL     1      -0.736  20.946  30.522  1.00  0.00     0.000 C 
BRANCH   9  10
ATOM     10  C   UNL     1      -0.528  19.488  30.074  1.00  0.00     0.000 C 
BRANCH  10  11
ATOM     11  C   UNL     1      -1.026  19.232  28.643  1.00  0.00     0.000 C 
BRANCH  11  12
ATOM     12  C   UNL     1      -1.990  18.037  28.601  1.00  0.00     0.000 C 
BRANCH  12  13
ATOM     13  C   UNL     1      -3.158  18.245  27.618  1.00  0.00     0.006 C 
BRANCH  13  14
ATOM     14  C   UNL     1      -2.896  19.303  26.533  1.00  0.00     0.053 C 
BRANCH  14  15
ATOM     15  C   UNL     1      -3.289  20.677  26.980  1.00  0.00     0.041 C 
ATOM     16  O   UNL     1      -2.822  21.691  26.398  1.00  0.00    -0.550 OA
ATOM     17  O   UNL     1      -4.197  20.837  28.020  1.00  0.00    -0.550 OA
ENDBRANCH  14  15
ENDBRANCH  13  14
ENDBRANCH  12  13
ENDBRANCH  11  12
ENDBRANCH  10  11
ENDBRANCH   9  10
ENDBRANCH   8   9
ENDBRANCH   7   8
ENDBRANCH   6   7
ENDBRANCH   5   6
ENDBRANCH   4   5
ENDBRANCH   3   4
ENDBRANCH   2   3
ENDBRANCH   1   2
BRANCH   1  18
ATOM     18  C   UNL     1       4.315  19.554  33.439  1.00  0.00     0.000 C 
BRANCH  18  19
ATOM     19  C   UNL     1       4.401  18.700  34.720  1.00  0.00     0.000 C 
BRANCH  19  20
ATOM     20  C   UNL     1       5.332  17.479  34.621  1.00  0.00     0.000 C 
BRANCH  20  21
ATOM     21  C   UNL     1       5.440  16.927  33.191  1.00  0.00     0.000 C 
BRANCH  21  22
ATOM     22  C   UNL     1       6.719  16.095  33.020  1.00  0.00     0.000 C 
BRANCH  22  23
ATOM     23  C   UNL     1       7.193  16.034  31.560  1.00  0.00     0.000 C 
BRANCH  23  24
ATOM     24  C   UNL     1       7.786  14.663  31.188  1.00  0.00    -0.000 C 
BRANCH  24  25
ATOM     25  C   UNL     1       7.236  14.130  29.855  1.00  0.00    -0.000 C 
BRANCH  25  26
ATOM     26  C   UNL     1       8.304  13.390  29.031  1.00  0.00    -0.000 C 
BRANCH  26  27
ATOM     27  C   UNL     1       9.111  14.329  28.117  1.00  0.00    -0.000 C 
BRANCH  27  28
ATOM     28  C   UNL     1      10.272  13.657  27.363  1.00  0.00    -0.000 C 
BRANCH  28  29
ATOM     29  C   UNL     1      10.197  13.860  25.842  1.00  0.00    -0.000 C 
BRANCH  29  30
ATOM     30  C   UNL     1       8.772  14.235  25.407  1.00  0.00    -0.000 C 
BRANCH  30  31
ATOM     31  C   UNL     1       8.743  15.006  24.079  1.00  0.00    -0.003 C 
ATOM     32  C   UNL     1       9.916  14.653  23.166  1.00  0.00     0.004 C 
ENDBRANCH  30  31
ENDBRANCH  29  30
ENDBRANCH  28  29
ENDBRANCH  27  28
ENDBRANCH  26  27
ENDBRANCH  25  26
ENDBRANCH  24  25
ENDBRANCH  23  24
ENDBRANCH  22  23
ENDBRANCH  21  22
ENDBRANCH  20  21
ENDBRANCH  19  20
ENDBRANCH  18  19
ENDBRANCH   1  18
TORSDOF 28
ENDMDL
MODEL 9
REMARK VINA RESULT:    -3.006      6.456     10.892
REMARK INTER + INTRA:          -9.418
REMARK INTER:                  -7.927
REMARK INTRA:                  -1.491
REMARK UNBOUND:                -1.491
REMARK SMILES CCCCCCCCCCCCCCCCCCCCCCCCCCCCCC(=O)[O-]
REMARK SMILES IDX 16 1 17 2 18 3 19 4 20 5 21 6 22 7 23 8 24 9 25 10 26 11
REMARK SMILES IDX 27 12 28 13 29 14 30 15 31 16 32 17 15 18 14 19 13 20 12 21
REMARK SMILES IDX 11 22 10 23 9 24 8 25 7 26 6 27 5 28 4 29 3 30 2 31 1 32
REMARK H PARENT
REMARK Flexibility Score: inf
ROOT
ATOM      1  C   UNL     1       9.461  14.222  21.853  1.00  0.00     0.000 C 
ENDROOT
BRANCH   1   2
ATOM      2  C   UNL     1       9.773  14.853  23.223  1.00  0.00     0.000 C 
BRANCH   2   3
ATOM      3  C   UNL     1       8.514  15.083  24.077  1.00  0.00     0.000 C 
BRANCH   3   4
ATOM      4  C   UNL     1       8.522  14.257  25.375  1.00  0.00     0.000 C 
BRANCH   4   5
ATOM      5  C   UNL     1       9.916  14.032  25.991  1.00  0.00     0.000 C 
BRANCH   5   6
ATOM      6  C   UNL     1       9.874  13.459  27.424  1.00  0.00     0.000 C 
BRANCH   6   7
ATOM      7  C   UNL     1       9.007  14.310  28.364  1.00  0.00     0.000 C 
BRANCH   7   8
ATOM      8  C   UNL     1       7.795  13.511  28.867  1.00  0.00     0.000 C 
BRANCH   8   9
ATOM      9  C   UNL     1       7.229  14.063  30.190  1.00  0.00     0.000 C 
BRANCH   9  10
ATOM     10  C   UNL     1       8.285  14.709  31.104  1.00  0.00     0.000 C 
BRANCH  10  11
ATOM     11  C   UNL     1       7.920  16.147  31.504  1.00  0.00     0.000 C 
BRANCH  11  12
ATOM     12  C   UNL     1       6.550  16.195  32.198  1.00  0.00     0.000 C 
BRANCH  12  13
ATOM     13  C   UNL     1       6.646  16.591  33.684  1.00  0.00     0.006 C 
BRANCH  13  14
ATOM     14  C   UNL     1       6.203  18.030  33.990  1.00  0.00     0.053 C 
BRANCH  14  15
ATOM     15  C   UNL     1       4.718  18.198  33.879  1.00  0.00     0.041 C 
ATOM     16  O   UNL     1       4.217  18.771  32.876  1.00  0.00    -0.550 OA
ATOM     17  O   UNL     1       3.886  17.691  34.870  1.00  0.00    -0.550 OA
ENDBRANCH  14  15
ENDBRANCH  13  14
ENDBRANCH  12  13
ENDBRANCH  11  12
ENDBRANCH  10  11
ENDBRANCH   9  10
ENDBRANCH   8   9
ENDBRANCH   7   8
ENDBRANCH   6   7
ENDBRANCH   5   6
ENDBRANCH   4   5
ENDBRANCH   3   4
ENDBRANCH   2   3
ENDBRANCH   1   2
BRANCH   1  18
ATOM     18  C   UNL     1       8.612  15.095  20.906  1.00  0.00     0.000 C 
BRANCH  18  19
ATOM     19  C   UNL     1       8.504  14.578  19.457  1.00  0.00     0.000 C 
BRANCH  19  20
ATOM     20  C   UNL     1       9.502  13.466  19.092  1.00  0.00     0.000 C 
BRANCH  20  21
ATOM     21  C   UNL     1       8.829  12.256  18.427  1.00  0.00     0.000 C 
BRANCH  21  22
ATOM     22  C   UNL     1       8.909  12.358  16.896  1.00  0.00     0.000 C 
BRANCH  22  23
ATOM     23  C   UNL     1       8.693  11.004  16.203  1.00  0.00     0.000 C 
BRANCH  23  24
ATOM     24  C   UNL     1       7.865  11.126  14.912  1.00  0.00    -0.000 C 
BRANCH  24  25
ATOM     25  C   UNL     1       6.450  11.665  15.173  1.00  0.00    -0.000 C 
BRANCH  25  26
ATOM     26  C   UNL     1       5.679  10.820  16.203  1.00  0.00    -0.000 C 
BRANCH  26  27
ATOM     27  C   UNL     1       5.203   9.471  15.634  1.00  0.00    -0.000 C 
BRANCH  27  28
ATOM     28  C   UNL     1       3.824   9.506  14.952  1.00  0.00    -0.000 C 
BRANCH  28  29
ATOM     29  C   UNL     1       2.675   9.141  15.904  1.00  0.00    -0.000 C 
BRANCH  29  30
ATOM     30  C   UNL     1       1.485   8.553  15.129  1.00  0.00    -0.000 C 
BRANCH  30  31
ATOM     31  C   UNL     1       0.301   8.202  16.042  1.00  0.00    -0.003 C 
ATOM     32  C   UNL     1      -0.021   9.311  17.043  1.00  0.00     0.004 C 
ENDBRANCH  30  31
ENDBRANCH  29  30
ENDBRANCH  28  29
ENDBRANCH  27  28
ENDBRANCH  26  27
ENDBRANCH  25  26
ENDBRANCH  24  25
ENDBRANCH  23  24
ENDBRANCH  22  23
ENDBRANCH  21  22
ENDBRANCH  20  21
ENDBRANCH  19  20
ENDBRANCH  18  19
ENDBRANCH   1  18
TORSDOF 28
ENDMDL
