MODEL 1
REMARK VINA RESULT:    -5.584      0.000      0.000
REMARK INTER + INTRA:          -6.838
REMARK INTER:                  -6.564
REMARK INTRA:                  -0.274
REMARK UNBOUND:                -0.274
REMARK SMILES O=c1cc(-c2ccc(O)c(O)c2)oc2cc(O)cc(O)c12
REMARK SMILES IDX 4 1 3 2 2 3 1 4 21 5 19 6 18 7 16 8 15 9 14 10 13 11 5 12
REMARK SMILES IDX 6 13 7 14 8 15 12 16 10 17 9 18 11 20 20 22 17 24
REMARK H PARENT 9 19 11 21 20 23 17 25
REMARK Flexibility Score: inf
ROOT
ATOM      1  C   UNL     1      15.001  24.415  35.099  1.00  0.00     0.138 A 
ATOM      2  C   UNL     1      15.600  25.282  36.024  1.00  0.00     0.100 A 
ATOM      3  C   UNL     1      15.044  26.542  36.249  1.00  0.00     0.197 A 
ATOM      4  O   UNL     1      15.573  27.274  37.125  1.00  0.00    -0.289 OA
ATOM      5  C   UNL     1      13.903  26.949  35.517  1.00  0.00     0.107 A 
ATOM      6  C   UNL     1      13.270  28.224  35.639  1.00  0.00     0.134 A 
ATOM      7  C   UNL     1      12.087  28.476  34.933  1.00  0.00     0.093 A 
ATOM      8  C   UNL     1      11.546  27.525  34.069  1.00  0.00     0.123 A 
ATOM      9  C   UNL     1      12.183  26.295  33.905  1.00  0.00     0.094 A 
ATOM     10  C   UNL     1      13.346  25.999  34.620  1.00  0.00     0.146 A 
ATOM     11  O   UNL     1      13.911  24.809  34.449  1.00  0.00    -0.456 OA
ENDROOT
BRANCH   1  12
ATOM     12  C   UNL     1      15.551  23.065  34.817  1.00  0.00     0.021 A 
ATOM     13  C   UNL     1      15.597  22.110  35.847  1.00  0.00     0.016 A 
ATOM     14  C   UNL     1      16.116  20.834  35.611  1.00  0.00     0.051 A 
ATOM     15  C   UNL     1      16.606  20.493  34.344  1.00  0.00     0.157 A 
ATOM     16  C   UNL     1      16.057  22.720  33.549  1.00  0.00     0.062 A 
ATOM     17  C   UNL     1      16.579  21.443  33.310  1.00  0.00     0.158 A 
BRANCH  15  18
ATOM     18  O   UNL     1      17.121  19.219  34.112  1.00  0.00    -0.504 OA
ATOM     19  H   UNL     1      16.877  18.432  34.702  1.00  0.00     0.293 HD
ENDBRANCH  15  18
BRANCH  17  20
ATOM     20  O   UNL     1      17.070  21.139  32.041  1.00  0.00    -0.504 OA
ATOM     21  H   UNL     1      18.011  21.383  31.755  1.00  0.00     0.293 HD
ENDBRANCH  17  20
ENDBRANCH   1  12
BRANCH   6  22
ATOM     22  O   UNL     1      13.769  29.276  36.413  1.00  0.00    -0.507 OA
ATOM     23  H   UNL     1      13.551  30.249  36.278  1.00  0.00     0.293 HD
ENDBRANCH   6  22
BRANCH   8  24
ATOM     24  O   UNL     1      10.375  27.817  33.372  1.00  0.00    -0.508 OA
ATOM     25  H   UNL     1       9.623  27.142  33.293  1.00  0.00     0.293 HD
ENDBRANCH   8  24
TORSDOF 5
ENDMDL
MODEL 2
REMARK VINA RESULT:    -5.426      1.827      3.500
REMARK INTER + INTRA:          -6.651
REMARK INTER:                  -6.383
REMARK INTRA:                  -0.268
REMARK UNBOUND:                -0.274
REMARK SMILES O=c1cc(-c2ccc(O)c(O)c2)oc2cc(O)cc(O)c12
REMARK SMILES IDX 4 1 3 2 2 3 1 4 21 5 19 6 18 7 16 8 15 9 14 10 13 11 5 12
REMARK SMILES IDX 6 13 7 14 8 15 12 16 10 17 9 18 11 20 20 22 17 24
REMARK H PARENT 9 19 11 21 20 23 17 25
REMARK Flexibility Score: inf
ROOT
ATOM      1  C   UNL     1      14.201  25.948  34.927  1.00  0.00     0.138 A 
ATOM      2  C   UNL     1      12.842  26.226  34.725  1.00  0.00     0.100 A 
ATOM      3  C   UNL     1      12.337  27.482  35.063  1.00  0.00     0.197 A 
ATOM      4  O   UNL     1      11.125  27.718  34.818  1.00  0.00    -0.289 OA
ATOM      5  C   UNL     1      13.190  28.453  35.640  1.00  0.00     0.107 A 
ATOM      6  C   UNL     1      12.778  29.756  36.055  1.00  0.00     0.134 A 
ATOM      7  C   UNL     1      13.735  30.665  36.522  1.00  0.00     0.093 A 
ATOM      8  C   UNL     1      15.076  30.303  36.642  1.00  0.00     0.123 A 
ATOM      9  C   UNL     1      15.482  29.017  36.286  1.00  0.00     0.094 A 
ATOM     10  C   UNL     1      14.557  28.097  35.784  1.00  0.00     0.146 A 
ATOM     11  O   UNL     1      14.988  26.888  35.439  1.00  0.00    -0.456 OA
ENDROOT
BRANCH   1  12
ATOM     12  C   UNL     1      14.792  24.629  34.588  1.00  0.00     0.021 A 
ATOM     13  C   UNL     1      15.051  24.313  33.243  1.00  0.00     0.016 A 
ATOM     14  C   UNL     1      15.601  23.077  32.896  1.00  0.00     0.051 A 
ATOM     15  C   UNL     1      15.893  22.130  33.886  1.00  0.00     0.157 A 
ATOM     16  C   UNL     1      15.076  23.668  35.577  1.00  0.00     0.062 A 
ATOM     17  C   UNL     1      15.625  22.427  35.232  1.00  0.00     0.158 A 
BRANCH  15  18
ATOM     18  O   UNL     1      16.442  20.897  33.537  1.00  0.00    -0.504 OA
ATOM     19  H   UNL     1      15.979  20.026  33.765  1.00  0.00     0.293 HD
ENDBRANCH  15  18
BRANCH  17  20
ATOM     20  O   UNL     1      15.893  21.501  36.240  1.00  0.00    -0.504 OA
ATOM     21  H   UNL     1      15.207  21.260  36.946  1.00  0.00     0.293 HD
ENDBRANCH  17  20
ENDBRANCH   1  12
BRANCH   6  22
ATOM     22  O   UNL     1      11.451  30.195  36.053  1.00  0.00    -0.507 OA
ATOM     23  H   UNL     1      11.061  30.867  36.693  1.00  0.00     0.293 HD
ENDBRANCH   6  22
BRANCH   8  24
ATOM     24  O   UNL     1      15.997  31.230  37.125  1.00  0.00    -0.508 OA
ATOM     25  H   UNL     1      16.337  31.192  38.078  1.00  0.00     0.293 HD
ENDBRANCH   8  24
TORSDOF 5
ENDMDL
MODEL 3
REMARK VINA RESULT:    -5.100      1.421      7.205
REMARK INTER + INTRA:          -6.268
REMARK INTER:                  -5.987
REMARK INTRA:                  -0.281
REMARK UNBOUND:                -0.274
REMARK SMILES O=c1cc(-c2ccc(O)c(O)c2)oc2cc(O)cc(O)c12
REMARK SMILES IDX 4 1 3 2 2 3 1 4 21 5 19 6 18 7 16 8 15 9 14 10 13 11 5 12
REMARK SMILES IDX 6 13 7 14 8 15 12 16 10 17 9 18 11 20 20 22 17 24
REMARK H PARENT 9 19 11 21 20 23 17 25
REMARK Flexibility Score: inf
ROOT
ATOM      1  C   UNL     1      14.333  24.846  34.857  1.00  0.00     0.138 A 
ATOM      2  C   UNL     1      14.671  24.673  33.508  1.00  0.00     0.100 A 
ATOM      3  C   UNL     1      15.366  23.530  33.111  1.00  0.00     0.197 A 
ATOM      4  O   UNL     1      15.606  23.378  31.885  1.00  0.00    -0.289 OA
ATOM      5  C   UNL     1      15.755  22.571  34.078  1.00  0.00     0.107 A 
ATOM      6  C   UNL     1      16.495  21.383  33.794  1.00  0.00     0.134 A 
ATOM      7  C   UNL     1      16.736  20.460  34.820  1.00  0.00     0.093 A 
ATOM      8  C   UNL     1      16.315  20.707  36.126  1.00  0.00     0.123 A 
ATOM      9  C   UNL     1      15.634  21.887  36.424  1.00  0.00     0.094 A 
ATOM     10  C   UNL     1      15.348  22.812  35.417  1.00  0.00     0.146 A 
ATOM     11  O   UNL     1      14.681  23.915  35.740  1.00  0.00    -0.456 OA
ENDROOT
BRANCH   1  12
ATOM     12  C   UNL     1      13.598  26.044  35.336  1.00  0.00     0.021 A 
ATOM     13  C   UNL     1      13.957  26.631  36.561  1.00  0.00     0.016 A 
ATOM     14  C   UNL     1      13.277  27.755  37.038  1.00  0.00     0.051 A 
ATOM     15  C   UNL     1      12.220  28.306  36.303  1.00  0.00     0.157 A 
ATOM     16  C   UNL     1      12.525  26.595  34.609  1.00  0.00     0.062 A 
ATOM     17  C   UNL     1      11.841  27.719  35.085  1.00  0.00     0.158 A 
BRANCH  15  18
ATOM     18  O   UNL     1      11.544  29.427  36.781  1.00  0.00    -0.504 OA
ATOM     19  H   UNL     1      11.555  30.307  36.278  1.00  0.00     0.293 HD
ENDBRANCH  15  18
BRANCH  17  20
ATOM     20  O   UNL     1      10.784  28.237  34.336  1.00  0.00    -0.504 OA
ATOM     21  H   UNL     1       9.830  27.919  34.460  1.00  0.00     0.293 HD
ENDBRANCH  17  20
ENDBRANCH   1  12
BRANCH   6  22
ATOM     22  O   UNL     1      17.032  21.075  32.541  1.00  0.00    -0.507 OA
ATOM     23  H   UNL     1      17.894  21.444  32.173  1.00  0.00     0.293 HD
ENDBRANCH   6  22
BRANCH   8  24
ATOM     24  O   UNL     1      16.586  19.772  37.123  1.00  0.00    -0.508 OA
ATOM     25  H   UNL     1      17.531  19.602  37.447  1.00  0.00     0.293 HD
ENDBRANCH   8  24
TORSDOF 5
ENDMDL
MODEL 4
REMARK VINA RESULT:    -4.882      1.830      2.373
REMARK INTER + INTRA:          -6.012
REMARK INTER:                  -5.723
REMARK INTRA:                  -0.289
REMARK UNBOUND:                -0.274
REMARK SMILES O=c1cc(-c2ccc(O)c(O)c2)oc2cc(O)cc(O)c12
REMARK SMILES IDX 4 1 3 2 2 3 1 4 21 5 19 6 18 7 16 8 15 9 14 10 13 11 5 12
REMARK SMILES IDX 6 13 7 14 8 15 12 16 10 17 9 18 11 20 20 22 17 24
REMARK H PARENT 9 19 11 21 20 23 17 25
REMARK Flexibility Score: inf
ROOT
ATOM      1  C   UNL     1      15.422  23.722  35.131  1.00  0.00     0.138 A 
ATOM      2  C   UNL     1      16.343  24.346  34.278  1.00  0.00     0.100 A 
ATOM      3  C   UNL     1      16.250  25.718  34.046  1.00  0.00     0.197 A 
ATOM      4  O   UNL     1      17.125  26.257  33.320  1.00  0.00    -0.289 OA
ATOM      5  C   UNL     1      15.206  26.464  34.644  1.00  0.00     0.107 A 
ATOM      6  C   UNL     1      14.992  27.863  34.453  1.00  0.00     0.134 A 
ATOM      7  C   UNL     1      13.984  28.512  35.177  1.00  0.00     0.093 A 
ATOM      8  C   UNL     1      13.147  27.805  36.039  1.00  0.00     0.123 A 
ATOM      9  C   UNL     1      13.314  26.429  36.196  1.00  0.00     0.094 A 
ATOM     10  C   UNL     1      14.333  25.759  35.514  1.00  0.00     0.146 A 
ATOM     11  O   UNL     1      14.471  24.451  35.706  1.00  0.00    -0.456 OA
ENDROOT
BRANCH   1  12
ATOM     12  C   UNL     1      15.472  22.265  35.411  1.00  0.00     0.021 A 
ATOM     13  C   UNL     1      14.982  21.780  36.636  1.00  0.00     0.016 A 
ATOM     14  C   UNL     1      15.023  20.415  36.928  1.00  0.00     0.051 A 
ATOM     15  C   UNL     1      15.563  19.510  36.005  1.00  0.00     0.157 A 
ATOM     16  C   UNL     1      16.025  21.352  34.493  1.00  0.00     0.062 A 
ATOM     17  C   UNL     1      16.069  19.983  34.784  1.00  0.00     0.158 A 
BRANCH  15  18
ATOM     18  O   UNL     1      15.601  18.148  36.299  1.00  0.00    -0.504 OA
ATOM     19  H   UNL     1      14.921  17.719  36.916  1.00  0.00     0.293 HD
ENDBRANCH  15  18
BRANCH  17  20
ATOM     20  O   UNL     1      16.625  19.110  33.849  1.00  0.00    -0.504 OA
ATOM     21  H   UNL     1      17.624  18.959  33.780  1.00  0.00     0.293 HD
ENDBRANCH  17  20
ENDBRANCH   1  12
BRANCH   6  22
ATOM     22  O   UNL     1      15.719  28.651  33.556  1.00  0.00    -0.507 OA
ATOM     23  H   UNL     1      15.645  29.652  33.471  1.00  0.00     0.293 HD
ENDBRANCH   6  22
BRANCH   8  24
ATOM     24  O   UNL     1      12.144  28.482  36.731  1.00  0.00    -0.508 OA
ATOM     25  H   UNL     1      12.341  29.324  37.259  1.00  0.00     0.293 HD
ENDBRANCH   8  24
TORSDOF 5
ENDMDL
MODEL 5
REMARK VINA RESULT:    -4.874      2.450      3.126
REMARK INTER + INTRA:          -6.002
REMARK INTER:                  -5.707
REMARK INTRA:                  -0.296
REMARK UNBOUND:                -0.274
REMARK SMILES O=c1cc(-c2ccc(O)c(O)c2)oc2cc(O)cc(O)c12
REMARK SMILES IDX 4 1 3 2 2 3 1 4 21 5 19 6 18 7 16 8 15 9 14 10 13 11 5 12
REMARK SMILES IDX 6 13 7 14 8 15 12 16 10 17 9 18 11 20 20 22 17 24
REMARK H PARENT 9 19 11 21 20 23 17 25
REMARK Flexibility Score: inf
ROOT
ATOM      1  C   UNL     1      15.645  24.907  34.706  1.00  0.00     0.138 A 
ATOM      2  C   UNL     1      14.990  25.499  35.795  1.00  0.00     0.100 A 
ATOM      3  C   UNL     1      14.890  26.889  35.869  1.00  0.00     0.197 A 
ATOM      4  O   UNL     1      14.249  27.386  36.830  1.00  0.00    -0.289 OA
ATOM      5  C   UNL     1      15.480  27.691  34.863  1.00  0.00     0.107 A 
ATOM      6  C   UNL     1      15.470  29.120  34.851  1.00  0.00     0.134 A 
ATOM      7  C   UNL     1      16.002  29.803  33.751  1.00  0.00     0.093 A 
ATOM      8  C   UNL     1      16.593  29.116  32.691  1.00  0.00     0.123 A 
ATOM      9  C   UNL     1      16.653  27.723  32.716  1.00  0.00     0.094 A 
ATOM     10  C   UNL     1      16.101  27.010  33.783  1.00  0.00     0.146 A 
ATOM     11  O   UNL     1      16.162  25.683  33.759  1.00  0.00    -0.456 OA
ENDROOT
BRANCH   1  12
ATOM     12  C   UNL     1      15.784  23.435  34.578  1.00  0.00     0.021 A 
ATOM     13  C   UNL     1      16.240  22.887  33.367  1.00  0.00     0.016 A 
ATOM     14  C   UNL     1      16.373  21.504  33.217  1.00  0.00     0.051 A 
ATOM     15  C   UNL     1      16.044  20.644  34.272  1.00  0.00     0.157 A 
ATOM     16  C   UNL     1      15.442  22.563  35.630  1.00  0.00     0.062 A 
ATOM     17  C   UNL     1      15.573  21.178  35.483  1.00  0.00     0.158 A 
BRANCH  15  18
ATOM     18  O   UNL     1      16.180  19.265  34.120  1.00  0.00    -0.504 OA
ATOM     19  H   UNL     1      16.352  18.658  34.913  1.00  0.00     0.293 HD
ENDBRANCH  15  18
BRANCH  17  20
ATOM     20  O   UNL     1      15.225  20.347  36.548  1.00  0.00    -0.504 OA
ATOM     21  H   UNL     1      15.116  19.346  36.436  1.00  0.00     0.293 HD
ENDBRANCH  17  20
ENDBRANCH   1  12
BRANCH   6  22
ATOM     22  O   UNL     1      14.976  29.908  35.895  1.00  0.00    -0.507 OA
ATOM     23  H   UNL     1      15.318  29.897  36.842  1.00  0.00     0.293 HD
ENDBRANCH   6  22
BRANCH   8  24
ATOM     24  O   UNL     1      17.125  29.831  31.620  1.00  0.00    -0.508 OA
ATOM     25  H   UNL     1      17.149  29.444  30.684  1.00  0.00     0.293 HD
ENDBRANCH   8  24
TORSDOF 5
ENDMDL
MODEL 6
REMARK VINA RESULT:    -4.847      3.379      6.972
REMARK INTER + INTRA:          -5.971
REMARK INTER:                  -5.675
REMARK INTRA:                  -0.296
REMARK UNBOUND:                -0.274
REMARK SMILES O=c1cc(-c2ccc(O)c(O)c2)oc2cc(O)cc(O)c12
REMARK SMILES IDX 4 1 3 2 2 3 1 4 21 5 19 6 18 7 16 8 15 9 14 10 13 11 5 12
REMARK SMILES IDX 6 13 7 14 8 15 12 16 10 17 9 18 11 20 20 22 17 24
REMARK H PARENT 9 19 11 21 20 23 17 25
REMARK Flexibility Score: inf
ROOT
ATOM      1  C   UNL     1      15.921  27.075  33.989  1.00  0.00     0.138 A 
ATOM      2  C   UNL     1      15.381  27.092  35.283  1.00  0.00     0.100 A 
ATOM      3  C   UNL     1      15.118  25.888  35.937  1.00  0.00     0.197 A 
ATOM      4  O   UNL     1      14.685  25.938  37.117  1.00  0.00    -0.289 OA
ATOM      5  C   UNL     1      15.365  24.660  35.278  1.00  0.00     0.107 A 
ATOM      6  C   UNL     1      15.105  23.370  35.834  1.00  0.00     0.134 A 
ATOM      7  C   UNL     1      15.483  22.224  35.124  1.00  0.00     0.093 A 
ATOM      8  C   UNL     1      16.059  22.318  33.857  1.00  0.00     0.123 A 
ATOM      9  C   UNL     1      16.272  23.571  33.283  1.00  0.00     0.094 A 
ATOM     10  C   UNL     1      15.938  24.734  33.980  1.00  0.00     0.146 A 
ATOM     11  O   UNL     1      16.174  25.909  33.405  1.00  0.00    -0.456 OA
ENDROOT
BRANCH   1  12
ATOM     12  C   UNL     1      16.218  28.325  33.245  1.00  0.00     0.021 A 
ATOM     13  C   UNL     1      16.614  28.250  31.899  1.00  0.00     0.016 A 
ATOM     14  C   UNL     1      16.905  29.410  31.177  1.00  0.00     0.051 A 
ATOM     15  C   UNL     1      16.815  30.666  31.791  1.00  0.00     0.157 A 
ATOM     16  C   UNL     1      16.142  29.590  33.860  1.00  0.00     0.062 A 
ATOM     17  C   UNL     1      16.435  30.754  33.140  1.00  0.00     0.158 A 
BRANCH  15  18
ATOM     18  O   UNL     1      17.105  31.822  31.068  1.00  0.00    -0.504 OA
ATOM     19  H   UNL     1      17.105  31.828  30.055  1.00  0.00     0.293 HD
ENDBRANCH  15  18
BRANCH  17  20
ATOM     20  O   UNL     1      16.348  31.988  33.784  1.00  0.00    -0.504 OA
ATOM     21  H   UNL     1      16.722  32.139  34.713  1.00  0.00     0.293 HD
ENDBRANCH  17  20
ENDBRANCH   1  12
BRANCH   6  22
ATOM     22  O   UNL     1      14.462  23.160  37.057  1.00  0.00    -0.507 OA
ATOM     23  H   UNL     1      14.649  23.669  37.906  1.00  0.00     0.293 HD
ENDBRANCH   6  22
BRANCH   8  24
ATOM     24  O   UNL     1      16.408  21.154  33.175  1.00  0.00    -0.508 OA
ATOM     25  H   UNL     1      17.105  20.515  33.539  1.00  0.00     0.293 HD
ENDBRANCH   8  24
TORSDOF 5
ENDMDL
MODEL 7
REMARK VINA RESULT:    -4.811      3.454      3.731
REMARK INTER + INTRA:          -5.928
REMARK INTER:                  -5.612
REMARK INTRA:                  -0.316
REMARK UNBOUND:                -0.274
REMARK SMILES O=c1cc(-c2ccc(O)c(O)c2)oc2cc(O)cc(O)c12
REMARK SMILES IDX 4 1 3 2 2 3 1 4 21 5 19 6 18 7 16 8 15 9 14 10 13 11 5 12
REMARK SMILES IDX 6 13 7 14 8 15 12 16 10 17 9 18 11 20 20 22 17 24
REMARK H PARENT 9 19 11 21 20 23 17 25
REMARK Flexibility Score: inf
ROOT
ATOM      1  C   UNL     1      15.971  26.229  34.204  1.00  0.00     0.138 A 
ATOM      2  C   UNL     1      15.730  27.142  35.241  1.00  0.00     0.100 A 
ATOM      3  C   UNL     1      15.831  28.512  34.992  1.00  0.00     0.197 A 
ATOM      4  O   UNL     1      15.555  29.305  35.928  1.00  0.00    -0.289 OA
ATOM      5  C   UNL     1      16.208  28.968  33.706  1.00  0.00     0.107 A 
ATOM      6  C   UNL     1      16.375  30.340  33.345  1.00  0.00     0.134 A 
ATOM      7  C   UNL     1      16.655  30.673  32.014  1.00  0.00     0.093 A 
ATOM      8  C   UNL     1      16.831  29.686  31.045  1.00  0.00     0.123 A 
ATOM      9  C   UNL     1      16.720  28.341  31.396  1.00  0.00     0.094 A 
ATOM     10  C   UNL     1      16.407  27.977  32.709  1.00  0.00     0.146 A 
ATOM     11  O   UNL     1      16.292  26.685  32.998  1.00  0.00    -0.456 OA
ENDROOT
BRANCH   1  12
ATOM     12  C   UNL     1      15.881  24.762  34.413  1.00  0.00     0.021 A 
ATOM     13  C   UNL     1      15.344  24.267  35.613  1.00  0.00     0.016 A 
ATOM     14  C   UNL     1      15.255  22.891  35.838  1.00  0.00     0.051 A 
ATOM     15  C   UNL     1      15.710  21.985  34.871  1.00  0.00     0.157 A 
ATOM     16  C   UNL     1      16.349  23.847  33.450  1.00  0.00     0.062 A 
ATOM     17  C   UNL     1      16.263  22.468  33.673  1.00  0.00     0.158 A 
BRANCH  15  18
ATOM     18  O   UNL     1      15.618  20.613  35.098  1.00  0.00    -0.504 OA
ATOM     19  H   UNL     1      15.737  20.219  36.024  1.00  0.00     0.293 HD
ENDBRANCH  15  18
BRANCH  17  20
ATOM     20  O   UNL     1      16.735  21.592  32.696  1.00  0.00    -0.504 OA
ATOM     21  H   UNL     1      16.362  20.657  32.585  1.00  0.00     0.293 HD
ENDBRANCH  17  20
ENDBRANCH   1  12
BRANCH   6  22
ATOM     22  O   UNL     1      16.299  31.402  34.250  1.00  0.00    -0.507 OA
ATOM     23  H   UNL     1      16.504  31.341  35.235  1.00  0.00     0.293 HD
ENDBRANCH   6  22
BRANCH   8  24
ATOM     24  O   UNL     1      17.124  30.056  29.734  1.00  0.00    -0.508 OA
ATOM     25  H   UNL     1      17.894  30.678  29.519  1.00  0.00     0.293 HD
ENDBRANCH   8  24
TORSDOF 5
ENDMDL
MODEL 8
REMARK VINA RESULT:    -4.728      1.762      2.437
REMARK INTER + INTRA:          -5.831
REMARK INTER:                  -5.528
REMARK INTRA:                  -0.303
REMARK UNBOUND:                -0.274
REMARK SMILES O=c1cc(-c2ccc(O)c(O)c2)oc2cc(O)cc(O)c12
REMARK SMILES IDX 4 1 3 2 2 3 1 4 21 5 19 6 18 7 16 8 15 9 14 10 13 11 5 12
REMARK SMILES IDX 6 13 7 14 8 15 12 16 10 17 9 18 11 20 20 22 17 24
REMARK H PARENT 9 19 11 21 20 23 17 25
REMARK Flexibility Score: inf
ROOT
ATOM      1  C   UNL     1      14.888  24.732  35.388  1.00  0.00     0.138 A 
ATOM      2  C   UNL     1      13.764  24.989  36.186  1.00  0.00     0.100 A 
ATOM      3  C   UNL     1      13.392  26.307  36.452  1.00  0.00     0.197 A 
ATOM      4  O   UNL     1      12.347  26.503  37.125  1.00  0.00    -0.289 OA
ATOM      5  C   UNL     1      14.171  27.374  35.945  1.00  0.00     0.107 A 
ATOM      6  C   UNL     1      13.907  28.758  36.179  1.00  0.00     0.134 A 
ATOM      7  C   UNL     1      14.693  29.727  35.541  1.00  0.00     0.093 A 
ATOM      8  C   UNL     1      15.765  29.365  34.727  1.00  0.00     0.123 A 
ATOM      9  C   UNL     1      16.063  28.017  34.531  1.00  0.00     0.094 A 
ATOM     10  C   UNL     1      15.277  27.025  35.124  1.00  0.00     0.146 A 
ATOM     11  O   UNL     1      15.584  25.753  34.897  1.00  0.00    -0.456 OA
ENDROOT
BRANCH   1  12
ATOM     12  C   UNL     1      15.331  23.350  35.076  1.00  0.00     0.021 A 
ATOM     13  C   UNL     1      15.170  22.339  36.038  1.00  0.00     0.016 A 
ATOM     14  C   UNL     1      15.584  21.032  35.773  1.00  0.00     0.051 A 
ATOM     15  C   UNL     1      16.176  20.713  34.544  1.00  0.00     0.157 A 
ATOM     16  C   UNL     1      15.938  23.026  33.847  1.00  0.00     0.062 A 
ATOM     17  C   UNL     1      16.356  21.718  33.579  1.00  0.00     0.158 A 
BRANCH  15  18
ATOM     18  O   UNL     1      16.587  19.407  34.281  1.00  0.00    -0.504 OA
ATOM     19  H   UNL     1      17.000  18.826  35.002  1.00  0.00     0.293 HD
ENDBRANCH  15  18
BRANCH  17  20
ATOM     20  O   UNL     1      16.953  21.435  32.351  1.00  0.00    -0.504 OA
ATOM     21  H   UNL     1      16.651  21.878  31.491  1.00  0.00     0.293 HD
ENDBRANCH  17  20
ENDBRANCH   1  12
BRANCH   6  22
ATOM     22  O   UNL     1      12.911  29.231  37.038  1.00  0.00    -0.507 OA
ATOM     23  H   UNL     1      11.929  29.027  36.955  1.00  0.00     0.293 HD
ENDBRANCH   6  22
BRANCH   8  24
ATOM     24  O   UNL     1      16.533  30.358  34.122  1.00  0.00    -0.508 OA
ATOM     25  H   UNL     1      16.710  31.244  34.580  1.00  0.00     0.293 HD
ENDBRANCH   8  24
TORSDOF 5
ENDMDL
MODEL 9
REMARK VINA RESULT:    -4.659      2.659      3.401
REMARK INTER + INTRA:          -5.751
REMARK INTER:                  -5.454
REMARK INTRA:                  -0.297
REMARK UNBOUND:                -0.274
REMARK SMILES O=c1cc(-c2ccc(O)c(O)c2)oc2cc(O)cc(O)c12
REMARK SMILES IDX 4 1 3 2 2 3 1 4 21 5 19 6 18 7 16 8 15 9 14 10 13 11 5 12
REMARK SMILES IDX 6 13 7 14 8 15 12 16 10 17 9 18 11 20 20 22 17 24
REMARK H PARENT 9 19 11 21 20 23 17 25
REMARK Flexibility Score: inf
ROOT
ATOM      1  C   UNL     1      15.981  25.670  34.284  1.00  0.00     0.138 A 
ATOM      2  C   UNL     1      16.514  26.146  33.078  1.00  0.00     0.100 A 
ATOM      3  C   UNL     1      16.591  27.520  32.851  1.00  0.00     0.197 A 
ATOM      4  O   UNL     1      17.125  27.915  31.782  1.00  0.00    -0.289 OA
ATOM      5  C   UNL     1      16.099  28.423  33.824  1.00  0.00     0.107 A 
ATOM      6  C   UNL     1      16.095  29.845  33.688  1.00  0.00     0.134 A 
ATOM      7  C   UNL     1      15.673  30.639  34.762  1.00  0.00     0.093 A 
ATOM      8  C   UNL     1      15.201  30.065  35.942  1.00  0.00     0.123 A 
ATOM      9  C   UNL     1      15.154  28.676  36.067  1.00  0.00     0.094 A 
ATOM     10  C   UNL     1      15.601  27.857  35.028  1.00  0.00     0.146 A 
ATOM     11  O   UNL     1      15.556  26.539  35.195  1.00  0.00    -0.456 OA
ENDROOT
BRANCH   1  12
ATOM     12  C   UNL     1      15.872  24.219  34.577  1.00  0.00     0.021 A 
ATOM     13  C   UNL     1      15.327  23.800  35.803  1.00  0.00     0.016 A 
ATOM     14  C   UNL     1      15.219  22.441  36.106  1.00  0.00     0.051 A 
ATOM     15  C   UNL     1      15.662  21.475  35.194  1.00  0.00     0.157 A 
ATOM     16  C   UNL     1      16.328  23.243  33.669  1.00  0.00     0.062 A 
ATOM     17  C   UNL     1      16.223  21.880  33.971  1.00  0.00     0.158 A 
BRANCH  15  18
ATOM     18  O   UNL     1      15.552  20.120  35.499  1.00  0.00    -0.504 OA
ATOM     19  H   UNL     1      15.237  19.445  34.812  1.00  0.00     0.293 HD
ENDBRANCH  15  18
BRANCH  17  20
ATOM     20  O   UNL     1      16.685  20.944  33.047  1.00  0.00    -0.504 OA
ATOM     21  H   UNL     1      17.233  20.138  33.325  1.00  0.00     0.293 HD
ENDBRANCH  17  20
ENDBRANCH   1  12
BRANCH   6  22
ATOM     22  O   UNL     1      16.471  30.521  32.524  1.00  0.00    -0.507 OA
ATOM     23  H   UNL     1      16.844  31.456  32.490  1.00  0.00     0.293 HD
ENDBRANCH   6  22
BRANCH   8  24
ATOM     24  O   UNL     1      14.775  30.887  36.982  1.00  0.00    -0.508 OA
ATOM     25  H   UNL     1      14.990  30.673  37.949  1.00  0.00     0.293 HD
ENDBRANCH   8  24
TORSDOF 5
ENDMDL
