MODEL 1
REMARK VINA RESULT:    -6.053      0.000      0.000
REMARK INTER + INTRA:          -7.612
REMARK INTER:                  -7.292
REMARK INTRA:                  -0.320
REMARK UNBOUND:                -0.320
REMARK SMILES O=c1c(O)c(-c2ccc(O)c(O)c2)oc2cc(O)cc(O)c12
REMARK SMILES IDX 5 1 3 2 2 3 1 4 22 5 20 6 19 7 17 8 16 9 15 10 14 11 6 12
REMARK SMILES IDX 7 13 8 14 9 15 13 16 11 17 10 18 12 20 4 22 21 24 18 26
REMARK H PARENT 10 19 12 21 4 23 21 25 18 27
REMARK Flexibility Score: inf
ROOT
ATOM      1  C   UNL     1       5.896  -5.965 -18.847  1.00  0.00     0.180 A 
ATOM      2  C   UNL     1       7.253  -5.783 -18.517  1.00  0.00     0.208 A 
ATOM      3  C   UNL     1       8.098  -5.154 -19.444  1.00  0.00     0.238 A 
ATOM      4  O   UNL     1       9.317  -4.994 -19.164  1.00  0.00    -0.285 OA
ATOM      5  C   UNL     1       7.572  -4.703 -20.672  1.00  0.00     0.111 A 
ATOM      6  C   UNL     1       8.355  -4.057 -21.659  1.00  0.00     0.134 A 
ATOM      7  C   UNL     1       7.754  -3.629 -22.853  1.00  0.00     0.093 A 
ATOM      8  C   UNL     1       6.388  -3.834 -23.078  1.00  0.00     0.123 A 
ATOM      9  C   UNL     1       5.612  -4.471 -22.106  1.00  0.00     0.094 A 
ATOM     10  C   UNL     1       6.192  -4.906 -20.911  1.00  0.00     0.146 A 
ATOM     11  O   UNL     1       5.432  -5.515 -20.008  1.00  0.00    -0.452 OA
ENDROOT
BRANCH   1  12
ATOM     12  C   UNL     1       4.946  -6.636 -17.929  1.00  0.00     0.025 A 
ATOM     13  C   UNL     1       4.854  -8.037 -17.934  1.00  0.00     0.016 A 
ATOM     14  C   UNL     1       3.980  -8.691 -17.062  1.00  0.00     0.051 A 
ATOM     15  C   UNL     1       3.198  -7.960 -16.163  1.00  0.00     0.157 A 
ATOM     16  C   UNL     1       4.175  -5.903 -17.010  1.00  0.00     0.062 A 
ATOM     17  C   UNL     1       3.298  -6.559 -16.132  1.00  0.00     0.158 A 
BRANCH  15  18
ATOM     18  O   UNL     1       2.334  -8.641 -15.307  1.00  0.00    -0.504 OA
ATOM     19  H   UNL     1       1.355  -8.780 -15.529  1.00  0.00     0.293 HD
ENDBRANCH  15  18
BRANCH  17  20
ATOM     20  O   UNL     1       2.532  -5.824 -15.229  1.00  0.00    -0.504 OA
ATOM     21  H   UNL     1       1.820  -5.175 -15.541  1.00  0.00     0.293 HD
ENDBRANCH  17  20
ENDBRANCH   1  12
BRANCH   2  22
ATOM     22  O   UNL     1       7.738  -6.194 -17.273  1.00  0.00    -0.502 OA
ATOM     23  H   UNL     1       8.495  -6.862 -17.179  1.00  0.00     0.293 HD
ENDBRANCH   2  22
BRANCH   6  24
ATOM     24  O   UNL     1       9.719  -3.838 -21.464  1.00  0.00    -0.507 OA
ATOM     25  H   UNL     1      10.421  -4.361 -21.975  1.00  0.00     0.293 HD
ENDBRANCH   6  24
BRANCH   8  26
ATOM     26  O   UNL     1       5.791  -3.408 -24.262  1.00  0.00    -0.508 OA
ATOM     27  H   UNL     1       4.800  -3.201 -24.312  1.00  0.00     0.293 HD
ENDBRANCH   8  26
TORSDOF 6
ENDMDL
MODEL 2
REMARK VINA RESULT:    -5.902      1.627      7.065
REMARK INTER + INTRA:          -7.430
REMARK INTER:                  -7.101
REMARK INTRA:                  -0.329
REMARK UNBOUND:                -0.320
REMARK SMILES O=c1c(O)c(-c2ccc(O)c(O)c2)oc2cc(O)cc(O)c12
REMARK SMILES IDX 5 1 3 2 2 3 1 4 22 5 20 6 19 7 17 8 16 9 15 10 14 11 6 12
REMARK SMILES IDX 7 13 8 14 9 15 13 16 11 17 10 18 12 20 4 22 21 24 18 26
REMARK H PARENT 10 19 12 21 4 23 21 25 18 27
REMARK Flexibility Score: inf
ROOT
ATOM      1  C   UNL     1       5.234  -6.217 -18.698  1.00  0.00     0.180 A 
ATOM      2  C   UNL     1       4.486  -5.639 -17.654  1.00  0.00     0.208 A 
ATOM      3  C   UNL     1       3.755  -6.477 -16.798  1.00  0.00     0.238 A 
ATOM      4  O   UNL     1       3.075  -5.971 -15.866  1.00  0.00    -0.285 OA
ATOM      5  C   UNL     1       3.799  -7.874 -16.987  1.00  0.00     0.111 A 
ATOM      6  C   UNL     1       3.095  -8.788 -16.166  1.00  0.00     0.134 A 
ATOM      7  C   UNL     1       3.197 -10.165 -16.414  1.00  0.00     0.093 A 
ATOM      8  C   UNL     1       3.989 -10.645 -17.463  1.00  0.00     0.123 A 
ATOM      9  C   UNL     1       4.685  -9.747 -18.275  1.00  0.00     0.094 A 
ATOM     10  C   UNL     1       4.596  -8.371 -18.046  1.00  0.00     0.146 A 
ATOM     11  O   UNL     1       5.263  -7.539 -18.837  1.00  0.00    -0.452 OA
ENDROOT
BRANCH   1  12
ATOM     12  C   UNL     1       6.016  -5.398 -19.654  1.00  0.00     0.025 A 
ATOM     13  C   UNL     1       7.392  -5.221 -19.445  1.00  0.00     0.016 A 
ATOM     14  C   UNL     1       8.153  -4.469 -20.345  1.00  0.00     0.051 A 
ATOM     15  C   UNL     1       7.556  -3.898 -21.472  1.00  0.00     0.157 A 
ATOM     16  C   UNL     1       5.419  -4.840 -20.798  1.00  0.00     0.062 A 
ATOM     17  C   UNL     1       6.183  -4.087 -21.704  1.00  0.00     0.158 A 
BRANCH  15  18
ATOM     18  O   UNL     1       8.339  -3.152 -22.351  1.00  0.00    -0.504 OA
ATOM     19  H   UNL     1       9.122  -3.556 -22.851  1.00  0.00     0.293 HD
ENDBRANCH  15  18
BRANCH  17  20
ATOM     20  O   UNL     1       5.582  -3.532 -22.833  1.00  0.00    -0.504 OA
ATOM     21  H   UNL     1       5.534  -2.530 -22.971  1.00  0.00     0.293 HD
ENDBRANCH  17  20
ENDBRANCH   1  12
BRANCH   2  22
ATOM     22  O   UNL     1       4.501  -4.255 -17.458  1.00  0.00    -0.502 OA
ATOM     23  H   UNL     1       5.321  -3.763 -17.124  1.00  0.00     0.293 HD
ENDBRANCH   2  22
BRANCH   6  24
ATOM     24  O   UNL     1       2.298  -8.340 -15.112  1.00  0.00    -0.507 OA
ATOM     25  H   UNL     1       1.287  -8.394 -15.149  1.00  0.00     0.293 HD
ENDBRANCH   6  24
BRANCH   8  26
ATOM     26  O   UNL     1       4.092 -12.012 -17.708  1.00  0.00    -0.508 OA
ATOM     27  H   UNL     1       3.942 -12.398 -18.633  1.00  0.00     0.293 HD
ENDBRANCH   8  26
TORSDOF 6
ENDMDL
MODEL 3
REMARK VINA RESULT:    -5.605      2.039      3.086
REMARK INTER + INTRA:          -7.072
REMARK INTER:                  -6.741
REMARK INTRA:                  -0.332
REMARK UNBOUND:                -0.320
REMARK SMILES O=c1c(O)c(-c2ccc(O)c(O)c2)oc2cc(O)cc(O)c12
REMARK SMILES IDX 5 1 3 2 2 3 1 4 22 5 20 6 19 7 17 8 16 9 15 10 14 11 6 12
REMARK SMILES IDX 7 13 8 14 9 15 13 16 11 17 10 18 12 20 4 22 21 24 18 26
REMARK H PARENT 10 19 12 21 4 23 21 25 18 27
REMARK Flexibility Score: inf
ROOT
ATOM      1  C   UNL     1       5.585  -6.149 -20.094  1.00  0.00     0.180 A 
ATOM      2  C   UNL     1       5.110  -7.073 -21.044  1.00  0.00     0.208 A 
ATOM      3  C   UNL     1       5.250  -6.777 -22.408  1.00  0.00     0.238 A 
ATOM      4  O   UNL     1       4.819  -7.592 -23.268  1.00  0.00    -0.285 OA
ATOM      5  C   UNL     1       5.879  -5.577 -22.800  1.00  0.00     0.111 A 
ATOM      6  C   UNL     1       6.064  -5.205 -24.153  1.00  0.00     0.134 A 
ATOM      7  C   UNL     1       6.707  -3.997 -24.461  1.00  0.00     0.093 A 
ATOM      8  C   UNL     1       7.170  -3.155 -23.443  1.00  0.00     0.123 A 
ATOM      9  C   UNL     1       6.989  -3.518 -22.106  1.00  0.00     0.094 A 
ATOM     10  C   UNL     1       6.349  -4.717 -21.779  1.00  0.00     0.146 A 
ATOM     11  O   UNL     1       6.185  -5.033 -20.500  1.00  0.00    -0.452 OA
ENDROOT
BRANCH   1  12
ATOM     12  C   UNL     1       5.457  -6.381 -18.636  1.00  0.00     0.025 A 
ATOM     13  C   UNL     1       6.519  -6.972 -17.935  1.00  0.00     0.016 A 
ATOM     14  C   UNL     1       6.427  -7.181 -16.557  1.00  0.00     0.051 A 
ATOM     15  C   UNL     1       5.283  -6.790 -15.856  1.00  0.00     0.157 A 
ATOM     16  C   UNL     1       4.314  -5.969 -17.928  1.00  0.00     0.062 A 
ATOM     17  C   UNL     1       4.221  -6.177 -16.543  1.00  0.00     0.158 A 
BRANCH  15  18
ATOM     18  O   UNL     1       5.219  -7.014 -14.482  1.00  0.00    -0.504 OA
ATOM     19  H   UNL     1       5.739  -6.451 -13.820  1.00  0.00     0.293 HD
ENDBRANCH  15  18
BRANCH  17  20
ATOM     20  O   UNL     1       3.082  -5.772 -15.849  1.00  0.00    -0.504 OA
ATOM     21  H   UNL     1       3.135  -5.407 -14.906  1.00  0.00     0.293 HD
ENDBRANCH  17  20
ENDBRANCH   1  12
BRANCH   2  22
ATOM     22  O   UNL     1       4.536  -8.278 -20.630  1.00  0.00    -0.502 OA
ATOM     23  H   UNL     1       4.329  -8.475 -19.658  1.00  0.00     0.293 HD
ENDBRANCH   2  22
BRANCH   6  24
ATOM     24  O   UNL     1       5.614  -6.024 -25.190  1.00  0.00    -0.507 OA
ATOM     25  H   UNL     1       4.671  -5.953 -25.554  1.00  0.00     0.293 HD
ENDBRANCH   6  24
BRANCH   8  26
ATOM     26  O   UNL     1       7.810  -1.957 -23.748  1.00  0.00    -0.508 OA
ATOM     27  H   UNL     1       8.664  -1.936 -24.292  1.00  0.00     0.293 HD
ENDBRANCH   8  26
TORSDOF 6
ENDMDL
MODEL 4
REMARK VINA RESULT:    -5.485      1.590      7.036
REMARK INTER + INTRA:          -6.928
REMARK INTER:                  -6.603
REMARK INTRA:                  -0.324
REMARK UNBOUND:                -0.320
REMARK SMILES O=c1c(O)c(-c2ccc(O)c(O)c2)oc2cc(O)cc(O)c12
REMARK SMILES IDX 5 1 3 2 2 3 1 4 22 5 20 6 19 7 17 8 16 9 15 10 14 11 6 12
REMARK SMILES IDX 7 13 8 14 9 15 13 16 11 17 10 18 12 20 4 22 21 24 18 26
REMARK H PARENT 10 19 12 21 4 23 21 25 18 27
REMARK Flexibility Score: inf
ROOT
ATOM      1  C   UNL     1       5.612  -6.347 -19.435  1.00  0.00     0.180 A 
ATOM      2  C   UNL     1       5.580  -7.735 -19.667  1.00  0.00     0.208 A 
ATOM      3  C   UNL     1       4.934  -8.564 -18.737  1.00  0.00     0.238 A 
ATOM      4  O   UNL     1       4.907  -9.810 -18.930  1.00  0.00    -0.285 OA
ATOM      5  C   UNL     1       4.316  -7.993 -17.606  1.00  0.00     0.111 A 
ATOM      6  C   UNL     1       3.641  -8.757 -16.623  1.00  0.00     0.134 A 
ATOM      7  C   UNL     1       3.044  -8.112 -15.530  1.00  0.00     0.093 A 
ATOM      8  C   UNL     1       3.108  -6.720 -15.400  1.00  0.00     0.123 A 
ATOM      9  C   UNL     1       3.773  -5.962 -16.367  1.00  0.00     0.094 A 
ATOM     10  C   UNL     1       4.376  -6.586 -17.463  1.00  0.00     0.146 A 
ATOM     11  O   UNL     1       5.007  -5.842 -18.364  1.00  0.00    -0.452 OA
ENDROOT
BRANCH   1  12
ATOM     12  C   UNL     1       6.290  -5.409 -20.360  1.00  0.00     0.025 A 
ATOM     13  C   UNL     1       7.660  -5.151 -20.199  1.00  0.00     0.016 A 
ATOM     14  C   UNL     1       8.324  -4.286 -21.072  1.00  0.00     0.051 A 
ATOM     15  C   UNL     1       7.636  -3.680 -22.128  1.00  0.00     0.157 A 
ATOM     16  C   UNL     1       5.603  -4.815 -21.434  1.00  0.00     0.062 A 
ATOM     17  C   UNL     1       6.270  -3.948 -22.313  1.00  0.00     0.158 A 
BRANCH  15  18
ATOM     18  O   UNL     1       8.325  -2.820 -22.982  1.00  0.00    -0.504 OA
ATOM     19  H   UNL     1       7.848  -2.139 -23.560  1.00  0.00     0.293 HD
ENDBRANCH  15  18
BRANCH  17  20
ATOM     20  O   UNL     1       5.580  -3.358 -23.371  1.00  0.00    -0.504 OA
ATOM     21  H   UNL     1       5.251  -2.401 -23.324  1.00  0.00     0.293 HD
ENDBRANCH  17  20
ENDBRANCH   1  12
BRANCH   2  22
ATOM     22  O   UNL     1       6.156  -8.270 -20.823  1.00  0.00    -0.502 OA
ATOM     23  H   UNL     1       7.111  -8.071 -21.095  1.00  0.00     0.293 HD
ENDBRANCH   2  22
BRANCH   6  24
ATOM     24  O   UNL     1       3.560 -10.146 -16.725  1.00  0.00    -0.507 OA
ATOM     25  H   UNL     1       3.292 -10.602 -17.590  1.00  0.00     0.293 HD
ENDBRANCH   6  24
BRANCH   8  26
ATOM     26  O   UNL     1       2.515  -6.079 -14.315  1.00  0.00    -0.508 OA
ATOM     27  H   UNL     1       2.114  -6.602 -13.545  1.00  0.00     0.293 HD
ENDBRANCH   8  26
TORSDOF 6
ENDMDL
MODEL 5
REMARK VINA RESULT:    -5.387      1.602      6.601
REMARK INTER + INTRA:          -6.809
REMARK INTER:                  -6.499
REMARK INTRA:                  -0.310
REMARK UNBOUND:                -0.320
REMARK SMILES O=c1c(O)c(-c2ccc(O)c(O)c2)oc2cc(O)cc(O)c12
REMARK SMILES IDX 5 1 3 2 2 3 1 4 22 5 20 6 19 7 17 8 16 9 15 10 14 11 6 12
REMARK SMILES IDX 7 13 8 14 9 15 13 16 11 17 10 18 12 20 4 22 21 24 18 26
REMARK H PARENT 10 19 12 21 4 23 21 25 18 27
REMARK Flexibility Score: inf
ROOT
ATOM      1  C   UNL     1       6.660  -5.639 -20.199  1.00  0.00     0.180 A 
ATOM      2  C   UNL     1       7.785  -6.364 -19.760  1.00  0.00     0.208 A 
ATOM      3  C   UNL     1       7.790  -6.887 -18.458  1.00  0.00     0.238 A 
ATOM      4  O   UNL     1       8.796  -7.529 -18.051  1.00  0.00    -0.285 OA
ATOM      5  C   UNL     1       6.668  -6.695 -17.625  1.00  0.00     0.111 A 
ATOM      6  C   UNL     1       6.591  -7.193 -16.302  1.00  0.00     0.134 A 
ATOM      7  C   UNL     1       5.436  -6.967 -15.540  1.00  0.00     0.093 A 
ATOM      8  C   UNL     1       4.356  -6.255 -16.076  1.00  0.00     0.123 A 
ATOM      9  C   UNL     1       4.427  -5.762 -17.380  1.00  0.00     0.094 A 
ATOM     10  C   UNL     1       5.571  -5.975 -18.156  1.00  0.00     0.146 A 
ATOM     11  O   UNL     1       5.614  -5.490 -19.391  1.00  0.00    -0.452 OA
ENDROOT
BRANCH   1  12
ATOM     12  C   UNL     1       6.587  -5.041 -21.552  1.00  0.00     0.025 A 
ATOM     13  C   UNL     1       5.820  -5.670 -22.544  1.00  0.00     0.016 A 
ATOM     14  C   UNL     1       5.721  -5.112 -23.821  1.00  0.00     0.051 A 
ATOM     15  C   UNL     1       6.371  -3.912 -24.122  1.00  0.00     0.157 A 
ATOM     16  C   UNL     1       7.224  -3.823 -21.848  1.00  0.00     0.062 A 
ATOM     17  C   UNL     1       7.123  -3.260 -23.130  1.00  0.00     0.158 A 
BRANCH  15  18
ATOM     18  O   UNL     1       6.255  -3.381 -25.406  1.00  0.00    -0.504 OA
ATOM     19  H   UNL     1       5.391  -3.425 -25.931  1.00  0.00     0.293 HD
ENDBRANCH  15  18
BRANCH  17  20
ATOM     20  O   UNL     1       7.764  -2.056 -23.418  1.00  0.00    -0.504 OA
ATOM     21  H   UNL     1       8.374  -1.605 -22.748  1.00  0.00     0.293 HD
ENDBRANCH  17  20
ENDBRANCH   1  12
BRANCH   2  22
ATOM     22  O   UNL     1       8.862  -6.583 -20.622  1.00  0.00    -0.502 OA
ATOM     23  H   UNL     1       8.767  -7.097 -21.491  1.00  0.00     0.293 HD
ENDBRANCH   2  22
BRANCH   6  24
ATOM     24  O   UNL     1       7.651  -7.906 -15.741  1.00  0.00    -0.507 OA
ATOM     25  H   UNL     1       8.492  -7.444 -15.415  1.00  0.00     0.293 HD
ENDBRANCH   6  24
BRANCH   8  26
ATOM     26  O   UNL     1       3.208  -6.031 -15.320  1.00  0.00    -0.508 OA
ATOM     27  H   UNL     1       2.616  -5.225 -15.480  1.00  0.00     0.293 HD
ENDBRANCH   8  26
TORSDOF 6
ENDMDL
MODEL 6
REMARK VINA RESULT:    -5.308      1.290      1.960
REMARK INTER + INTRA:          -6.714
REMARK INTER:                  -6.391
REMARK INTRA:                  -0.323
REMARK UNBOUND:                -0.320
REMARK SMILES O=c1c(O)c(-c2ccc(O)c(O)c2)oc2cc(O)cc(O)c12
REMARK SMILES IDX 5 1 3 2 2 3 1 4 22 5 20 6 19 7 17 8 16 9 15 10 14 11 6 12
REMARK SMILES IDX 7 13 8 14 9 15 13 16 11 17 10 18 12 20 4 22 21 24 18 26
REMARK H PARENT 10 19 12 21 4 23 21 25 18 27
REMARK Flexibility Score: inf
ROOT
ATOM      1  C   UNL     1       6.615  -5.336 -20.498  1.00  0.00     0.180 A 
ATOM      2  C   UNL     1       7.956  -4.955 -20.292  1.00  0.00     0.208 A 
ATOM      3  C   UNL     1       8.643  -4.305 -21.328  1.00  0.00     0.238 A 
ATOM      4  O   UNL     1       9.847  -3.968 -21.158  1.00  0.00    -0.285 OA
ATOM      5  C   UNL     1       7.978  -4.029 -22.540  1.00  0.00     0.111 A 
ATOM      6  C   UNL     1       8.598  -3.375 -23.632  1.00  0.00     0.134 A 
ATOM      7  C   UNL     1       7.865  -3.129 -24.802  1.00  0.00     0.093 A 
ATOM      8  C   UNL     1       6.525  -3.524 -24.902  1.00  0.00     0.123 A 
ATOM      9  C   UNL     1       5.911  -4.170 -23.827  1.00  0.00     0.094 A 
ATOM     10  C   UNL     1       6.624  -4.425 -22.653  1.00  0.00     0.146 A 
ATOM     11  O   UNL     1       6.016  -5.047 -21.649  1.00  0.00    -0.452 OA
ENDROOT
BRANCH   1  12
ATOM     12  C   UNL     1       5.829  -6.042 -19.460  1.00  0.00     0.025 A 
ATOM     13  C   UNL     1       5.833  -7.445 -19.427  1.00  0.00     0.016 A 
ATOM     14  C   UNL     1       5.115  -8.131 -18.444  1.00  0.00     0.051 A 
ATOM     15  C   UNL     1       4.397  -7.429 -17.472  1.00  0.00     0.157 A 
ATOM     16  C   UNL     1       5.124  -5.336 -18.470  1.00  0.00     0.062 A 
ATOM     17  C   UNL     1       4.404  -6.024 -17.480  1.00  0.00     0.158 A 
BRANCH  15  18
ATOM     18  O   UNL     1       3.688  -8.141 -16.505  1.00  0.00    -0.504 OA
ATOM     19  H   UNL     1       2.686  -8.277 -16.564  1.00  0.00     0.293 HD
ENDBRANCH  15  18
BRANCH  17  20
ATOM     20  O   UNL     1       3.701  -5.316 -16.507  1.00  0.00    -0.504 OA
ATOM     21  H   UNL     1       4.077  -5.175 -15.577  1.00  0.00     0.293 HD
ENDBRANCH  17  20
ENDBRANCH   1  12
BRANCH   2  22
ATOM     22  O   UNL     1       8.576  -5.195 -19.063  1.00  0.00    -0.502 OA
ATOM     23  H   UNL     1       8.052  -5.295 -18.201  1.00  0.00     0.293 HD
ENDBRANCH   2  22
BRANCH   6  24
ATOM     24  O   UNL     1       9.931  -2.969 -23.563  1.00  0.00    -0.507 OA
ATOM     25  H   UNL     1      10.422  -2.611 -24.374  1.00  0.00     0.293 HD
ENDBRANCH   6  24
BRANCH   8  26
ATOM     26  O   UNL     1       5.797  -3.278 -26.063  1.00  0.00    -0.508 OA
ATOM     27  H   UNL     1       5.716  -2.346 -26.451  1.00  0.00     0.293 HD
ENDBRANCH   8  26
TORSDOF 6
ENDMDL
MODEL 7
REMARK VINA RESULT:    -5.185      1.806      2.153
REMARK INTER + INTRA:          -6.566
REMARK INTER:                  -6.365
REMARK INTRA:                  -0.201
REMARK UNBOUND:                -0.320
REMARK SMILES O=c1c(O)c(-c2ccc(O)c(O)c2)oc2cc(O)cc(O)c12
REMARK SMILES IDX 5 1 3 2 2 3 1 4 22 5 20 6 19 7 17 8 16 9 15 10 14 11 6 12
REMARK SMILES IDX 7 13 8 14 9 15 13 16 11 17 10 18 12 20 4 22 21 24 18 26
REMARK H PARENT 10 19 12 21 4 23 21 25 18 27
REMARK Flexibility Score: inf
ROOT
ATOM      1  C   UNL     1       5.814  -5.785 -19.285  1.00  0.00     0.180 A 
ATOM      2  C   UNL     1       6.836  -4.846 -19.522  1.00  0.00     0.208 A 
ATOM      3  C   UNL     1       7.143  -4.495 -20.845  1.00  0.00     0.238 A 
ATOM      4  O   UNL     1       8.063  -3.663 -21.069  1.00  0.00    -0.285 OA
ATOM      5  C   UNL     1       6.414  -5.071 -21.906  1.00  0.00     0.111 A 
ATOM      6  C   UNL     1       6.658  -4.769 -23.267  1.00  0.00     0.134 A 
ATOM      7  C   UNL     1       5.882  -5.378 -24.264  1.00  0.00     0.093 A 
ATOM      8  C   UNL     1       4.867  -6.282 -23.927  1.00  0.00     0.123 A 
ATOM      9  C   UNL     1       4.624  -6.583 -22.585  1.00  0.00     0.094 A 
ATOM     10  C   UNL     1       5.387  -5.987 -21.576  1.00  0.00     0.146 A 
ATOM     11  O   UNL     1       5.138  -6.297 -20.310  1.00  0.00    -0.452 OA
ENDROOT
BRANCH   1  12
ATOM     12  C   UNL     1       5.444  -6.219 -17.918  1.00  0.00     0.025 A 
ATOM     13  C   UNL     1       6.353  -6.982 -17.167  1.00  0.00     0.016 A 
ATOM     14  C   UNL     1       6.033  -7.385 -15.868  1.00  0.00     0.051 A 
ATOM     15  C   UNL     1       4.812  -7.021 -15.294  1.00  0.00     0.157 A 
ATOM     16  C   UNL     1       4.225  -5.836 -17.333  1.00  0.00     0.062 A 
ATOM     17  C   UNL     1       3.904  -6.238 -16.027  1.00  0.00     0.158 A 
BRANCH  15  18
ATOM     18  O   UNL     1       4.520  -7.440 -13.997  1.00  0.00    -0.504 OA
ATOM     19  H   UNL     1       4.273  -6.787 -13.263  1.00  0.00     0.293 HD
ENDBRANCH  15  18
BRANCH  17  20
ATOM     20  O   UNL     1       2.690  -5.859 -15.457  1.00  0.00    -0.504 OA
ATOM     21  H   UNL     1       1.820  -5.913 -15.973  1.00  0.00     0.293 HD
ENDBRANCH  17  20
ENDBRANCH   1  12
BRANCH   2  22
ATOM     22  O   UNL     1       7.510  -4.252 -18.451  1.00  0.00    -0.502 OA
ATOM     23  H   UNL     1       7.156  -4.286 -17.501  1.00  0.00     0.293 HD
ENDBRANCH   2  22
BRANCH   6  24
ATOM     24  O   UNL     1       7.661  -3.871 -23.635  1.00  0.00    -0.507 OA
ATOM     25  H   UNL     1       8.629  -4.017 -23.370  1.00  0.00     0.293 HD
ENDBRANCH   6  24
BRANCH   8  26
ATOM     26  O   UNL     1       4.096  -6.885 -24.917  1.00  0.00    -0.508 OA
ATOM     27  H   UNL     1       4.250  -6.693 -25.900  1.00  0.00     0.293 HD
ENDBRANCH   8  26
TORSDOF 6
ENDMDL
MODEL 8
REMARK VINA RESULT:    -5.116     13.273     14.065
REMARK INTER + INTRA:          -6.483
REMARK INTER:                  -6.389
REMARK INTRA:                  -0.094
REMARK UNBOUND:                -0.320
REMARK SMILES O=c1c(O)c(-c2ccc(O)c(O)c2)oc2cc(O)cc(O)c12
REMARK SMILES IDX 5 1 3 2 2 3 1 4 22 5 20 6 19 7 17 8 16 9 15 10 14 11 6 12
REMARK SMILES IDX 7 13 8 14 9 15 13 16 11 17 10 18 12 20 4 22 21 24 18 26
REMARK H PARENT 10 19 12 21 4 23 21 25 18 27
REMARK Flexibility Score: inf
ROOT
ATOM      1  C   UNL     1      -1.149   0.393  -9.104  1.00  0.00     0.180 A 
ATOM      2  C   UNL     1       0.094  -0.155  -8.733  1.00  0.00     0.208 A 
ATOM      3  C   UNL     1       1.233   0.665  -8.756  1.00  0.00     0.238 A 
ATOM      4  O   UNL     1       2.352   0.182  -8.436  1.00  0.00    -0.285 OA
ATOM      5  C   UNL     1       1.107   2.020  -9.128  1.00  0.00     0.111 A 
ATOM      6  C   UNL     1       2.204   2.914  -9.174  1.00  0.00     0.134 A 
ATOM      7  C   UNL     1       1.996   4.251  -9.546  1.00  0.00     0.093 A 
ATOM      8  C   UNL     1       0.714   4.709  -9.872  1.00  0.00     0.123 A 
ATOM      9  C   UNL     1      -0.370   3.830  -9.829  1.00  0.00     0.094 A 
ATOM     10  C   UNL     1      -0.184   2.494  -9.462  1.00  0.00     0.146 A 
ATOM     11  O   UNL     1      -1.231   1.679  -9.436  1.00  0.00    -0.452 OA
ENDROOT
BRANCH   1  12
ATOM     12  C   UNL     1      -2.391  -0.413  -9.123  1.00  0.00     0.025 A 
ATOM     13  C   UNL     1      -3.519   0.041  -8.422  1.00  0.00     0.016 A 
ATOM     14  C   UNL     1      -4.707  -0.694  -8.443  1.00  0.00     0.051 A 
ATOM     15  C   UNL     1      -4.793  -1.881  -9.176  1.00  0.00     0.157 A 
ATOM     16  C   UNL     1      -2.484  -1.596  -9.877  1.00  0.00     0.062 A 
ATOM     17  C   UNL     1      -3.678  -2.334  -9.901  1.00  0.00     0.158 A 
BRANCH  15  18
ATOM     18  O   UNL     1      -5.992  -2.593  -9.177  1.00  0.00    -0.504 OA
ATOM     19  H   UNL     1      -6.711  -2.437  -8.481  1.00  0.00     0.293 HD
ENDBRANCH  15  18
BRANCH  17  20
ATOM     20  O   UNL     1      -3.759  -3.510 -10.645  1.00  0.00    -0.504 OA
ATOM     21  H   UNL     1      -4.620  -4.038 -10.712  1.00  0.00     0.293 HD
ENDBRANCH  17  20
ENDBRANCH   1  12
BRANCH   2  22
ATOM     22  O   UNL     1       0.182  -1.488  -8.320  1.00  0.00    -0.502 OA
ATOM     23  H   UNL     1       0.953  -1.832  -7.760  1.00  0.00     0.293 HD
ENDBRANCH   2  22
BRANCH   6  24
ATOM     24  O   UNL     1       3.493   2.487  -8.853  1.00  0.00    -0.507 OA
ATOM     25  H   UNL     1       4.084   2.021  -9.532  1.00  0.00     0.293 HD
ENDBRANCH   6  24
BRANCH   8  26
ATOM     26  O   UNL     1       0.507   6.036 -10.240  1.00  0.00    -0.508 OA
ATOM     27  H   UNL     1       1.179   6.760 -10.015  1.00  0.00     0.293 HD
ENDBRANCH   8  26
TORSDOF 6
ENDMDL
MODEL 9
REMARK VINA RESULT:    -5.070     14.061     15.978
REMARK INTER + INTRA:          -6.427
REMARK INTER:                  -6.103
REMARK INTRA:                  -0.324
REMARK UNBOUND:                -0.320
REMARK SMILES O=c1c(O)c(-c2ccc(O)c(O)c2)oc2cc(O)cc(O)c12
REMARK SMILES IDX 5 1 3 2 2 3 1 4 22 5 20 6 19 7 17 8 16 9 15 10 14 11 6 12
REMARK SMILES IDX 7 13 8 14 9 15 13 16 11 17 10 18 12 20 4 22 21 24 18 26
REMARK H PARENT 10 19 12 21 4 23 21 25 18 27
REMARK Flexibility Score: inf
ROOT
ATOM      1  C   UNL     1      -2.599   3.554  -9.628  1.00  0.00     0.180 A 
ATOM      2  C   UNL     1      -2.677   4.952  -9.779  1.00  0.00     0.208 A 
ATOM      3  C   UNL     1      -1.488   5.696  -9.832  1.00  0.00     0.238 A 
ATOM      4  O   UNL     1      -1.546   6.950  -9.958  1.00  0.00    -0.285 OA
ATOM      5  C   UNL     1      -0.246   5.033  -9.752  1.00  0.00     0.111 A 
ATOM      6  C   UNL     1       0.997   5.708  -9.801  1.00  0.00     0.134 A 
ATOM      7  C   UNL     1       2.190   4.975  -9.724  1.00  0.00     0.093 A 
ATOM      8  C   UNL     1       2.164   3.581  -9.600  1.00  0.00     0.123 A 
ATOM      9  C   UNL     1       0.939   2.911  -9.551  1.00  0.00     0.094 A 
ATOM     10  C   UNL     1      -0.261   3.623  -9.625  1.00  0.00     0.146 A 
ATOM     11  O   UNL     1      -1.410   2.961  -9.569  1.00  0.00    -0.452 OA
ENDROOT
BRANCH   1  12
ATOM     12  C   UNL     1      -3.808   2.703  -9.545  1.00  0.00     0.025 A 
ATOM     13  C   UNL     1      -4.382   2.439  -8.292  1.00  0.00     0.016 A 
ATOM     14  C   UNL     1      -5.535   1.655  -8.193  1.00  0.00     0.051 A 
ATOM     15  C   UNL     1      -6.140   1.138  -9.342  1.00  0.00     0.157 A 
ATOM     16  C   UNL     1      -4.429   2.199 -10.702  1.00  0.00     0.062 A 
ATOM     17  C   UNL     1      -5.588   1.414 -10.604  1.00  0.00     0.158 A 
BRANCH  15  18
ATOM     18  O   UNL     1      -7.288   0.357  -9.211  1.00  0.00    -0.504 OA
ATOM     19  H   UNL     1      -7.918   0.454  -8.425  1.00  0.00     0.293 HD
ENDBRANCH  15  18
BRANCH  17  20
ATOM     20  O   UNL     1      -6.193   0.913 -11.756  1.00  0.00    -0.504 OA
ATOM     21  H   UNL     1      -6.259   1.462 -12.604  1.00  0.00     0.293 HD
ENDBRANCH  17  20
ENDBRANCH   1  12
BRANCH   2  22
ATOM     22  O   UNL     1      -3.919   5.580  -9.907  1.00  0.00    -0.502 OA
ATOM     23  H   UNL     1      -4.500   5.801  -9.107  1.00  0.00     0.293 HD
ENDBRANCH   2  22
BRANCH   6  24
ATOM     24  O   UNL     1       1.055   7.097  -9.925  1.00  0.00    -0.507 OA
ATOM     25  H   UNL     1       1.611   7.665  -9.297  1.00  0.00     0.293 HD
ENDBRANCH   6  24
BRANCH   8  26
ATOM     26  O   UNL     1       3.348   2.852  -9.525  1.00  0.00    -0.508 OA
ATOM     27  H   UNL     1       3.679   2.466  -8.648  1.00  0.00     0.293 HD
ENDBRANCH   8  26
TORSDOF 6
ENDMDL
