MODEL 1
REMARK VINA RESULT:    -4.593      0.000      0.000
REMARK INTER + INTRA:         -10.652
REMARK INTER:                  -8.352
REMARK INTRA:                  -2.300
REMARK UNBOUND:                -2.300
REMARK SMILES CCCCCCCCCCCCCCCC(=O)[O-]
REMARK SMILES IDX 9 1 10 2 11 3 12 4 13 5 14 6 15 7 16 8 17 9 18 10 8 11 7 12
REMARK SMILES IDX 6 13 5 14 4 15 3 16 2 17 1 18
REMARK H PARENT
REMARK Flexibility Score: inf
ROOT
ATOM      1  C   UNL     1      13.476  12.995  33.297  1.00  0.00     0.000 C 
ENDROOT
BRANCH   1   2
ATOM      2  C   UNL     1      13.401  11.474  33.082  1.00  0.00     0.000 C 
BRANCH   2   3
ATOM      3  C   UNL     1      14.755  10.778  33.301  1.00  0.00     0.000 C 
BRANCH   3   4
ATOM      4  C   UNL     1      14.990  10.379  34.769  1.00  0.00     0.000 C 
BRANCH   4   5
ATOM      5  C   UNL     1      15.974  11.277  35.546  1.00  0.00     0.000 C 
BRANCH   5   6
ATOM      6  C   UNL     1      16.877  12.169  34.670  1.00  0.00     0.006 C 
BRANCH   6   7
ATOM      7  C   UNL     1      16.729  13.676  34.935  1.00  0.00     0.053 C 
BRANCH   7   8
ATOM      8  C   UNL     1      18.057  14.342  35.122  1.00  0.00     0.041 C 
ATOM      9  O   UNL     1      18.655  14.855  34.140  1.00  0.00    -0.550 OA
ATOM     10  O   UNL     1      18.651  14.367  36.378  1.00  0.00    -0.550 OA
ENDBRANCH   7   8
ENDBRANCH   6   7
ENDBRANCH   5   6
ENDBRANCH   4   5
ENDBRANCH   3   4
ENDBRANCH   2   3
ENDBRANCH   1   2
BRANCH   1  11
ATOM     11  C   UNL     1      12.448  13.497  34.326  1.00  0.00     0.000 C 
BRANCH  11  12
ATOM     12  C   UNL     1      13.110  14.110  35.571  1.00  0.00    -0.000 C 
BRANCH  12  13
ATOM     13  C   UNL     1      13.227  13.106  36.732  1.00  0.00    -0.000 C 
BRANCH  13  14
ATOM     14  C   UNL     1      11.902  12.380  37.028  1.00  0.00    -0.000 C 
BRANCH  14  15
ATOM     15  C   UNL     1      11.916  10.860  36.765  1.00  0.00    -0.000 C 
BRANCH  15  16
ATOM     16  C   UNL     1      11.975   9.977  38.026  1.00  0.00    -0.000 C 
BRANCH  16  17
ATOM     17  C   UNL     1      13.301  10.050  38.804  1.00  0.00    -0.003 C 
ATOM     18  C   UNL     1      14.320   9.010  38.341  1.00  0.00     0.004 C 
ENDBRANCH  16  17
ENDBRANCH  15  16
ENDBRANCH  14  15
ENDBRANCH  13  14
ENDBRANCH  12  13
ENDBRANCH  11  12
ENDBRANCH   1  11
TORSDOF 14
ENDMDL
MODEL 2
REMARK VINA RESULT:    -4.541      1.735      3.482
REMARK INTER + INTRA:         -10.558
REMARK INTER:                  -8.086
REMARK INTRA:                  -2.472
REMARK UNBOUND:                -2.300
REMARK SMILES CCCCCCCCCCCCCCCC(=O)[O-]
REMARK SMILES IDX 9 1 10 2 11 3 12 4 13 5 14 6 15 7 16 8 17 9 18 10 8 11 7 12
REMARK SMILES IDX 6 13 5 14 4 15 3 16 2 17 1 18
REMARK H PARENT
REMARK Flexibility Score: inf
ROOT
ATOM      1  C   UNL     1      15.886  11.692  33.932  1.00  0.00     0.000 C 
ENDROOT
BRANCH   1   2
ATOM      2  C   UNL     1      16.250  11.116  35.311  1.00  0.00     0.000 C 
BRANCH   2   3
ATOM      3  C   UNL     1      16.797  12.186  36.272  1.00  0.00     0.000 C 
BRANCH   3   4
ATOM      4  C   UNL     1      16.961  13.562  35.603  1.00  0.00     0.000 C 
BRANCH   4   5
ATOM      5  C   UNL     1      18.397  14.125  35.601  1.00  0.00     0.000 C 
BRANCH   5   6
ATOM      6  C   UNL     1      19.091  14.142  34.224  1.00  0.00     0.006 C 
BRANCH   6   7
ATOM      7  C   UNL     1      19.388  12.750  33.646  1.00  0.00     0.053 C 
BRANCH   7   8
ATOM      8  C   UNL     1      20.220  11.924  34.579  1.00  0.00     0.041 C 
ATOM      9  O   UNL     1      19.789  10.821  35.006  1.00  0.00    -0.550 OA
ATOM     10  O   UNL     1      21.459  12.390  35.002  1.00  0.00    -0.550 OA
ENDBRANCH   7   8
ENDBRANCH   6   7
ENDBRANCH   5   6
ENDBRANCH   4   5
ENDBRANCH   3   4
ENDBRANCH   2   3
ENDBRANCH   1   2
BRANCH   1  11
ATOM     11  C   UNL     1      14.861  10.824  33.181  1.00  0.00     0.000 C 
BRANCH  11  12
ATOM     12  C   UNL     1      13.485  11.501  33.068  1.00  0.00    -0.000 C 
BRANCH  12  13
ATOM     13  C   UNL     1      13.557  13.023  33.279  1.00  0.00    -0.000 C 
BRANCH  13  14
ATOM     14  C   UNL     1      12.540  13.529  34.319  1.00  0.00    -0.000 C 
BRANCH  14  15
ATOM     15  C   UNL     1      13.148  13.993  35.658  1.00  0.00    -0.000 C 
BRANCH  15  16
ATOM     16  C   UNL     1      13.247  12.905  36.745  1.00  0.00    -0.000 C 
BRANCH  16  17
ATOM     17  C   UNL     1      12.019  11.984  36.852  1.00  0.00    -0.003 C 
ATOM     18  C   UNL     1      12.324  10.537  36.471  1.00  0.00     0.004 C 
ENDBRANCH  16  17
ENDBRANCH  15  16
ENDBRANCH  14  15
ENDBRANCH  13  14
ENDBRANCH  12  13
ENDBRANCH  11  12
ENDBRANCH   1  11
TORSDOF 14
ENDMDL
MODEL 3
REMARK VINA RESULT:    -4.493      4.023      6.907
REMARK INTER + INTRA:         -10.470
REMARK INTER:                  -8.333
REMARK INTRA:                  -2.137
REMARK UNBOUND:                -2.300
REMARK SMILES CCCCCCCCCCCCCCCC(=O)[O-]
REMARK SMILES IDX 9 1 10 2 11 3 12 4 13 5 14 6 15 7 16 8 17 9 18 10 8 11 7 12
REMARK SMILES IDX 6 13 5 14 4 15 3 16 2 17 1 18
REMARK H PARENT
REMARK Flexibility Score: inf
ROOT
ATOM      1  C   UNL     1      21.021  12.273  33.349  1.00  0.00     0.000 C 
ENDROOT
BRANCH   1   2
ATOM      2  C   UNL     1      20.603  13.312  32.295  1.00  0.00     0.000 C 
BRANCH   2   3
ATOM      3  C   UNL     1      21.785  14.169  31.809  1.00  0.00     0.000 C 
BRANCH   3   4
ATOM      4  C   UNL     1      22.913  14.274  32.851  1.00  0.00     0.000 C 
BRANCH   4   5
ATOM      5  C   UNL     1      23.153  15.688  33.419  1.00  0.00     0.000 C 
BRANCH   5   6
ATOM      6  C   UNL     1      21.897  16.397  33.963  1.00  0.00     0.006 C 
BRANCH   6   7
ATOM      7  C   UNL     1      21.611  17.764  33.321  1.00  0.00     0.053 C 
BRANCH   7   8
ATOM      8  C   UNL     1      20.175  17.903  32.921  1.00  0.00     0.041 C 
ATOM      9  O   UNL     1      19.652  17.073  32.132  1.00  0.00    -0.550 OA
ATOM     10  O   UNL     1      19.422  18.971  33.394  1.00  0.00    -0.550 OA
ENDBRANCH   7   8
ENDBRANCH   6   7
ENDBRANCH   5   6
ENDBRANCH   4   5
ENDBRANCH   3   4
ENDBRANCH   2   3
ENDBRANCH   1   2
BRANCH   1  11
ATOM     11  C   UNL     1      19.864  11.338  33.746  1.00  0.00     0.000 C 
BRANCH  11  12
ATOM     12  C   UNL     1      18.669  11.436  32.784  1.00  0.00    -0.000 C 
BRANCH  12  13
ATOM     13  C   UNL     1      17.389  11.929  33.482  1.00  0.00    -0.000 C 
BRANCH  13  14
ATOM     14  C   UNL     1      17.403  11.677  35.001  1.00  0.00    -0.000 C 
BRANCH  14  15
ATOM     15  C   UNL     1      16.863  12.837  35.861  1.00  0.00    -0.000 C 
BRANCH  15  16
ATOM     16  C   UNL     1      17.915  13.556  36.728  1.00  0.00    -0.000 C 
BRANCH  16  17
ATOM     17  C   UNL     1      19.066  14.206  35.940  1.00  0.00    -0.003 C 
ATOM     18  C   UNL     1      18.577  15.162  34.852  1.00  0.00     0.004 C 
ENDBRANCH  16  17
ENDBRANCH  15  16
ENDBRANCH  14  15
ENDBRANCH  13  14
ENDBRANCH  12  13
ENDBRANCH  11  12
ENDBRANCH   1  11
TORSDOF 14
ENDMDL
MODEL 4
REMARK VINA RESULT:    -4.484      1.600      2.679
REMARK INTER + INTRA:         -10.454
REMARK INTER:                  -8.136
REMARK INTRA:                  -2.318
REMARK UNBOUND:                -2.300
REMARK SMILES CCCCCCCCCCCCCCCC(=O)[O-]
REMARK SMILES IDX 9 1 10 2 11 3 12 4 13 5 14 6 15 7 16 8 17 9 18 10 8 11 7 12
REMARK SMILES IDX 6 13 5 14 4 15 3 16 2 17 1 18
REMARK H PARENT
REMARK Flexibility Score: inf
ROOT
ATOM      1  C   UNL     1      13.750  10.148  33.818  1.00  0.00     0.000 C 
ENDROOT
BRANCH   1   2
ATOM      2  C   UNL     1      14.585  10.041  35.105  1.00  0.00     0.000 C 
BRANCH   2   3
ATOM      3  C   UNL     1      15.924  10.791  35.005  1.00  0.00     0.000 C 
BRANCH   3   4
ATOM      4  C   UNL     1      16.208  11.674  36.233  1.00  0.00     0.000 C 
BRANCH   4   5
ATOM      5  C   UNL     1      17.100  12.904  35.967  1.00  0.00     0.000 C 
BRANCH   5   6
ATOM      6  C   UNL     1      17.339  13.229  34.479  1.00  0.00     0.006 C 
BRANCH   6   7
ATOM      7  C   UNL     1      18.816  13.429  34.103  1.00  0.00     0.053 C 
BRANCH   7   8
ATOM      8  C   UNL     1      19.373  12.243  33.378  1.00  0.00     0.041 C 
ATOM      9  O   UNL     1      20.610  12.012  33.393  1.00  0.00    -0.550 OA
ATOM     10  O   UNL     1      18.526  11.410  32.655  1.00  0.00    -0.550 OA
ENDBRANCH   7   8
ENDBRANCH   6   7
ENDBRANCH   5   6
ENDBRANCH   4   5
ENDBRANCH   3   4
ENDBRANCH   2   3
ENDBRANCH   1   2
BRANCH   1  11
ATOM     11  C   UNL     1      14.053  11.431  33.023  1.00  0.00     0.000 C 
BRANCH  11  12
ATOM     12  C   UNL     1      13.075  12.571  33.347  1.00  0.00    -0.000 C 
BRANCH  12  13
ATOM     13  C   UNL     1      13.691  13.632  34.275  1.00  0.00    -0.000 C 
BRANCH  13  14
ATOM     14  C   UNL     1      12.796  13.960  35.484  1.00  0.00    -0.000 C 
BRANCH  14  15
ATOM     15  C   UNL     1      13.002  13.054  36.715  1.00  0.00    -0.000 C 
BRANCH  15  16
ATOM     16  C   UNL     1      11.732  12.354  37.235  1.00  0.00    -0.000 C 
BRANCH  16  17
ATOM     17  C   UNL     1      11.873  10.837  37.451  1.00  0.00    -0.003 C 
ATOM     18  C   UNL     1      12.993  10.475  38.426  1.00  0.00     0.004 C 
ENDBRANCH  16  17
ENDBRANCH  15  16
ENDBRANCH  14  15
ENDBRANCH  13  14
ENDBRANCH  12  13
ENDBRANCH  11  12
ENDBRANCH   1  11
TORSDOF 14
ENDMDL
MODEL 5
REMARK VINA RESULT:    -4.456      2.039      4.329
REMARK INTER + INTRA:         -10.404
REMARK INTER:                  -8.630
REMARK INTRA:                  -1.773
REMARK UNBOUND:                -2.300
REMARK SMILES CCCCCCCCCCCCCCCC(=O)[O-]
REMARK SMILES IDX 9 1 10 2 11 3 12 4 13 5 14 6 15 7 16 8 17 9 18 10 8 11 7 12
REMARK SMILES IDX 6 13 5 14 4 15 3 16 2 17 1 18
REMARK H PARENT
REMARK Flexibility Score: inf
ROOT
ATOM      1  C   UNL     1      16.417  11.726  35.202  1.00  0.00     0.000 C 
ENDROOT
BRANCH   1   2
ATOM      2  C   UNL     1      16.926  12.594  34.039  1.00  0.00     0.000 C 
BRANCH   2   3
ATOM      3  C   UNL     1      16.959  14.092  34.390  1.00  0.00     0.000 C 
BRANCH   3   4
ATOM      4  C   UNL     1      18.322  14.546  34.941  1.00  0.00     0.000 C 
BRANCH   4   5
ATOM      5  C   UNL     1      19.544  14.127  34.099  1.00  0.00     0.000 C 
BRANCH   5   6
ATOM      6  C   UNL     1      20.559  15.253  33.814  1.00  0.00     0.006 C 
BRANCH   6   7
ATOM      7  C   UNL     1      20.079  16.657  34.214  1.00  0.00     0.053 C 
BRANCH   7   8
ATOM      8  C   UNL     1      19.651  17.461  33.026  1.00  0.00     0.041 C 
ATOM      9  O   UNL     1      19.427  16.896  31.924  1.00  0.00    -0.550 OA
ATOM     10  O   UNL     1      19.532  18.842  33.127  1.00  0.00    -0.550 OA
ENDBRANCH   7   8
ENDBRANCH   6   7
ENDBRANCH   5   6
ENDBRANCH   4   5
ENDBRANCH   3   4
ENDBRANCH   2   3
ENDBRANCH   1   2
BRANCH   1  11
ATOM     11  C   UNL     1      15.350  10.710  34.757  1.00  0.00     0.000 C 
BRANCH  11  12
ATOM     12  C   UNL     1      14.965  10.869  33.277  1.00  0.00    -0.000 C 
BRANCH  12  13
ATOM     13  C   UNL     1      13.518  11.359  33.093  1.00  0.00    -0.000 C 
BRANCH  13  14
ATOM     14  C   UNL     1      13.393  12.892  33.172  1.00  0.00    -0.000 C 
BRANCH  14  15
ATOM     15  C   UNL     1      12.513  13.418  34.324  1.00  0.00    -0.000 C 
BRANCH  15  16
ATOM     16  C   UNL     1      13.283  14.032  35.509  1.00  0.00    -0.000 C 
BRANCH  16  17
ATOM     17  C   UNL     1      13.430  13.110  36.732  1.00  0.00    -0.003 C 
ATOM     18  C   UNL     1      12.122  12.420  37.118  1.00  0.00     0.004 C 
ENDBRANCH  16  17
ENDBRANCH  15  16
ENDBRANCH  14  15
ENDBRANCH  13  14
ENDBRANCH  12  13
ENDBRANCH  11  12
ENDBRANCH   1  11
TORSDOF 14
ENDMDL
MODEL 6
REMARK VINA RESULT:    -4.426      2.262      4.024
REMARK INTER + INTRA:         -10.349
REMARK INTER:                  -8.563
REMARK INTRA:                  -1.787
REMARK UNBOUND:                -2.300
REMARK SMILES CCCCCCCCCCCCCCCC(=O)[O-]
REMARK SMILES IDX 9 1 10 2 11 3 12 4 13 5 14 6 15 7 16 8 17 9 18 10 8 11 7 12
REMARK SMILES IDX 6 13 5 14 4 15 3 16 2 17 1 18
REMARK H PARENT
REMARK Flexibility Score: inf
ROOT
ATOM      1  C   UNL     1      15.106  10.510  36.413  1.00  0.00     0.000 C 
ENDROOT
BRANCH   1   2
ATOM      2  C   UNL     1      16.522  11.091  36.263  1.00  0.00     0.000 C 
BRANCH   2   3
ATOM      3  C   UNL     1      16.514  12.551  35.778  1.00  0.00     0.000 C 
BRANCH   3   4
ATOM      4  C   UNL     1      17.582  12.829  34.705  1.00  0.00     0.000 C 
BRANCH   4   5
ATOM      5  C   UNL     1      17.456  11.988  33.419  1.00  0.00     0.000 C 
BRANCH   5   6
ATOM      6  C   UNL     1      18.786  11.449  32.856  1.00  0.00     0.006 C 
BRANCH   6   7
ATOM      7  C   UNL     1      20.040  12.130  33.429  1.00  0.00     0.053 C 
BRANCH   7   8
ATOM      8  C   UNL     1      20.685  11.303  34.499  1.00  0.00     0.041 C 
ATOM      9  O   UNL     1      20.692  10.048  34.414  1.00  0.00    -0.550 OA
ATOM     10  O   UNL     1      21.249  11.921  35.608  1.00  0.00    -0.550 OA
ENDBRANCH   7   8
ENDBRANCH   6   7
ENDBRANCH   5   6
ENDBRANCH   4   5
ENDBRANCH   3   4
ENDBRANCH   2   3
ENDBRANCH   1   2
BRANCH   1  11
ATOM     11  C   UNL     1      14.143  11.480  37.121  1.00  0.00     0.000 C 
BRANCH  11  12
ATOM     12  C   UNL     1      12.840  11.696  36.333  1.00  0.00    -0.000 C 
BRANCH  12  13
ATOM     13  C   UNL     1      12.436  13.178  36.256  1.00  0.00    -0.000 C 
BRANCH  13  14
ATOM     14  C   UNL     1      12.450  13.727  34.817  1.00  0.00    -0.000 C 
BRANCH  14  15
ATOM     15  C   UNL     1      13.614  13.227  33.938  1.00  0.00    -0.000 C 
BRANCH  15  16
ATOM     16  C   UNL     1      13.247  12.117  32.934  1.00  0.00    -0.000 C 
BRANCH  16  17
ATOM     17  C   UNL     1      14.250  10.951  32.865  1.00  0.00    -0.003 C 
ATOM     18  C   UNL     1      13.661   9.631  33.360  1.00  0.00     0.004 C 
ENDBRANCH  16  17
ENDBRANCH  15  16
ENDBRANCH  14  15
ENDBRANCH  13  14
ENDBRANCH  12  13
ENDBRANCH  11  12
ENDBRANCH   1  11
TORSDOF 14
ENDMDL
MODEL 7
REMARK VINA RESULT:    -4.397      3.099      5.952
REMARK INTER + INTRA:         -10.296
REMARK INTER:                  -8.402
REMARK INTRA:                  -1.894
REMARK UNBOUND:                -2.300
REMARK SMILES CCCCCCCCCCCCCCCC(=O)[O-]
REMARK SMILES IDX 9 1 10 2 11 3 12 4 13 5 14 6 15 7 16 8 17 9 18 10 8 11 7 12
REMARK SMILES IDX 6 13 5 14 4 15 3 16 2 17 1 18
REMARK H PARENT
REMARK Flexibility Score: inf
ROOT
ATOM      1  C   UNL     1      15.939  11.478  33.593  1.00  0.00     0.000 C 
ENDROOT
BRANCH   1   2
ATOM      2  C   UNL     1      14.631  10.687  33.420  1.00  0.00     0.000 C 
BRANCH   2   3
ATOM      3  C   UNL     1      13.491  11.548  32.849  1.00  0.00     0.000 C 
BRANCH   3   4
ATOM      4  C   UNL     1      13.487  12.981  33.410  1.00  0.00     0.000 C 
BRANCH   4   5
ATOM      5  C   UNL     1      12.361  13.289  34.418  1.00  0.00     0.000 C 
BRANCH   5   6
ATOM      6  C   UNL     1      12.769  13.203  35.902  1.00  0.00     0.006 C 
BRANCH   6   7
ATOM      7  C   UNL     1      12.455  11.855  36.571  1.00  0.00     0.053 C 
BRANCH   7   8
ATOM      8  C   UNL     1      11.664  12.027  37.830  1.00  0.00     0.041 C 
ATOM      9  O   UNL     1      11.997  11.414  38.878  1.00  0.00    -0.550 OA
ATOM     10  O   UNL     1      10.538  12.842  37.838  1.00  0.00    -0.550 OA
ENDBRANCH   7   8
ENDBRANCH   6   7
ENDBRANCH   5   6
ENDBRANCH   4   5
ENDBRANCH   3   4
ENDBRANCH   2   3
ENDBRANCH   1   2
BRANCH   1  11
ATOM     11  C   UNL     1      16.428  11.498  35.052  1.00  0.00     0.000 C 
BRANCH  11  12
ATOM     12  C   UNL     1      16.518  12.922  35.624  1.00  0.00    -0.000 C 
BRANCH  12  13
ATOM     13  C   UNL     1      16.679  13.990  34.529  1.00  0.00    -0.000 C 
BRANCH  13  14
ATOM     14  C   UNL     1      18.124  14.509  34.409  1.00  0.00    -0.000 C 
BRANCH  14  15
ATOM     15  C   UNL     1      18.892  14.619  35.742  1.00  0.00    -0.000 C 
BRANCH  15  16
ATOM     16  C   UNL     1      20.091  13.663  35.888  1.00  0.00    -0.000 C 
BRANCH  16  17
ATOM     17  C   UNL     1      20.180  12.941  37.245  1.00  0.00    -0.003 C 
ATOM     18  C   UNL     1      19.104  13.393  38.231  1.00  0.00     0.004 C 
ENDBRANCH  16  17
ENDBRANCH  15  16
ENDBRANCH  14  15
ENDBRANCH  13  14
ENDBRANCH  12  13
ENDBRANCH  11  12
ENDBRANCH   1  11
TORSDOF 14
ENDMDL
MODEL 8
REMARK VINA RESULT:    -4.395      3.241      6.465
REMARK INTER + INTRA:         -10.292
REMARK INTER:                  -7.639
REMARK INTRA:                  -2.653
REMARK UNBOUND:                -2.300
REMARK SMILES CCCCCCCCCCCCCCCC(=O)[O-]
REMARK SMILES IDX 9 1 10 2 11 3 12 4 13 5 14 6 15 7 16 8 17 9 18 10 8 11 7 12
REMARK SMILES IDX 6 13 5 14 4 15 3 16 2 17 1 18
REMARK H PARENT
REMARK Flexibility Score: inf
ROOT
ATOM      1  C   UNL     1      20.726  11.829  33.862  1.00  0.00     0.000 C 
ENDROOT
BRANCH   1   2
ATOM      2  C   UNL     1      19.634  12.318  32.896  1.00  0.00     0.000 C 
BRANCH   2   3
ATOM      3  C   UNL     1      18.443  11.347  32.810  1.00  0.00     0.000 C 
BRANCH   3   4
ATOM      4  C   UNL     1      17.153  11.931  33.414  1.00  0.00     0.000 C 
BRANCH   4   5
ATOM      5  C   UNL     1      16.835  11.472  34.852  1.00  0.00     0.000 C 
BRANCH   5   6
ATOM      6  C   UNL     1      15.585  12.117  35.483  1.00  0.00     0.006 C 
BRANCH   6   7
ATOM      7  C   UNL     1      15.205  13.481  34.887  1.00  0.00     0.053 C 
BRANCH   7   8
ATOM      8  C   UNL     1      13.731  13.594  34.645  1.00  0.00     0.041 C 
ATOM      9  O   UNL     1      12.983  14.115  35.513  1.00  0.00    -0.550 OA
ATOM     10  O   UNL     1      13.178  13.091  33.473  1.00  0.00    -0.550 OA
ENDBRANCH   7   8
ENDBRANCH   6   7
ENDBRANCH   5   6
ENDBRANCH   4   5
ENDBRANCH   3   4
ENDBRANCH   2   3
ENDBRANCH   1   2
BRANCH   1  11
ATOM     11  C   UNL     1      20.401  10.454  34.473  1.00  0.00     0.000 C 
BRANCH  11  12
ATOM     12  C   UNL     1      20.241  10.510  36.001  1.00  0.00    -0.000 C 
BRANCH  12  13
ATOM     13  C   UNL     1      20.436  11.929  36.563  1.00  0.00    -0.000 C 
BRANCH  13  14
ATOM     14  C   UNL     1      19.285  12.367  37.488  1.00  0.00    -0.000 C 
BRANCH  14  15
ATOM     15  C   UNL     1      18.607  13.698  37.104  1.00  0.00    -0.000 C 
BRANCH  15  16
ATOM     16  C   UNL     1      19.347  14.527  36.037  1.00  0.00    -0.000 C 
BRANCH  16  17
ATOM     17  C   UNL     1      18.461  15.040  34.888  1.00  0.00    -0.003 C 
ATOM     18  C   UNL     1      19.204  15.973  33.933  1.00  0.00     0.004 C 
ENDBRANCH  16  17
ENDBRANCH  15  16
ENDBRANCH  14  15
ENDBRANCH  13  14
ENDBRANCH  12  13
ENDBRANCH  11  12
ENDBRANCH   1  11
TORSDOF 14
ENDMDL
MODEL 9
REMARK VINA RESULT:    -4.372      3.339      5.987
REMARK INTER + INTRA:         -10.250
REMARK INTER:                  -7.980
REMARK INTRA:                  -2.270
REMARK UNBOUND:                -2.300
REMARK SMILES CCCCCCCCCCCCCCCC(=O)[O-]
REMARK SMILES IDX 9 1 10 2 11 3 12 4 13 5 14 6 15 7 16 8 17 9 18 10 8 11 7 12
REMARK SMILES IDX 6 13 5 14 4 15 3 16 2 17 1 18
REMARK H PARENT
REMARK Flexibility Score: inf
ROOT
ATOM      1  C   UNL     1      13.229  11.539  32.966  1.00  0.00     0.000 C 
ENDROOT
BRANCH   1   2
ATOM      2  C   UNL     1      13.602  12.967  33.400  1.00  0.00     0.000 C 
BRANCH   2   3
ATOM      3  C   UNL     1      12.531  13.609  34.300  1.00  0.00     0.000 C 
BRANCH   3   4
ATOM      4  C   UNL     1      13.098  14.099  35.644  1.00  0.00     0.000 C 
BRANCH   4   5
ATOM      5  C   UNL     1      13.157  13.036  36.760  1.00  0.00     0.000 C 
BRANCH   5   6
ATOM      6  C   UNL     1      11.894  12.163  36.899  1.00  0.00     0.006 C 
BRANCH   6   7
ATOM      7  C   UNL     1      12.119  10.670  36.614  1.00  0.00     0.053 C 
BRANCH   7   8
ATOM      8  C   UNL     1      11.278   9.800  37.495  1.00  0.00     0.041 C 
ATOM      9  O   UNL     1      10.177   9.352  37.082  1.00  0.00    -0.550 OA
ATOM     10  O   UNL     1      11.696   9.510  38.789  1.00  0.00    -0.550 OA
ENDBRANCH   7   8
ENDBRANCH   6   7
ENDBRANCH   5   6
ENDBRANCH   4   5
ENDBRANCH   3   4
ENDBRANCH   2   3
ENDBRANCH   1   2
BRANCH   1  11
ATOM     11  C   UNL     1      14.301  10.506  33.355  1.00  0.00     0.000 C 
BRANCH  11  12
ATOM     12  C   UNL     1      15.514  11.146  34.049  1.00  0.00    -0.000 C 
BRANCH  12  13
ATOM     13  C   UNL     1      15.696  10.652  35.494  1.00  0.00    -0.000 C 
BRANCH  13  14
ATOM     14  C   UNL     1      16.400  11.686  36.393  1.00  0.00    -0.000 C 
BRANCH  14  15
ATOM     15  C   UNL     1      16.934  12.934  35.662  1.00  0.00    -0.000 C 
BRANCH  15  16
ATOM     16  C   UNL     1      18.442  12.911  35.344  1.00  0.00    -0.000 C 
BRANCH  16  17
ATOM     17  C   UNL     1      18.787  12.990  33.846  1.00  0.00    -0.003 C 
ATOM     18  C   UNL     1      19.067  11.621  33.227  1.00  0.00     0.004 C 
ENDBRANCH  16  17
ENDBRANCH  15  16
ENDBRANCH  14  15
ENDBRANCH  13  14
ENDBRANCH  12  13
ENDBRANCH  11  12
ENDBRANCH   1  11
TORSDOF 14
ENDMDL
