MODEL 1
REMARK VINA RESULT:    -6.254      0.000      0.000
REMARK INTER + INTRA:         -17.364
REMARK INTER:                 -14.298
REMARK INTRA:                  -3.066
REMARK UNBOUND:                -3.066
REMARK SMILES CCCCCCCCCCCCCCCCCCCCCCCC(=O)[O-]
REMARK SMILES IDX 13 1 14 2 15 3 16 4 17 5 18 6 19 7 20 8 21 9 22 10 23 11
REMARK SMILES IDX 24 12 25 13 26 14 12 15 11 16 10 17 9 18 8 19 7 20 6 21 5 22
REMARK SMILES IDX 4 23 3 24 2 25 1 26
REMARK H PARENT
REMARK Flexibility Score: inf
ROOT
ATOM      1  C   UNL     1       9.078  76.898  -2.808  1.00  0.00     0.000 C 
ENDROOT
BRANCH   1   2
ATOM      2  C   UNL     1       9.875  77.406  -1.593  1.00  0.00     0.000 C 
BRANCH   2   3
ATOM      3  C   UNL     1       9.610  78.889  -1.290  1.00  0.00     0.000 C 
BRANCH   3   4
ATOM      4  C   UNL     1      10.831  79.594  -0.674  1.00  0.00     0.000 C 
BRANCH   4   5
ATOM      5  C   UNL     1      10.598  80.015   0.786  1.00  0.00     0.000 C 
BRANCH   5   6
ATOM      6  C   UNL     1      10.165  78.843   1.681  1.00  0.00     0.000 C 
BRANCH   6   7
ATOM      7  C   UNL     1       9.484  79.303   2.981  1.00  0.00     0.000 C 
BRANCH   7   8
ATOM      8  C   UNL     1       8.019  78.835   3.108  1.00  0.00     0.000 C 
BRANCH   8   9
ATOM      9  C   UNL     1       7.329  78.706   1.739  1.00  0.00     0.000 C 
BRANCH   9  10
ATOM     10  C   UNL     1       6.429  77.461   1.631  1.00  0.00     0.006 C 
BRANCH  10  11
ATOM     11  C   UNL     1       6.872  76.462   0.547  1.00  0.00     0.053 C 
BRANCH  11  12
ATOM     12  C   UNL     1       6.010  75.236   0.506  1.00  0.00     0.041 C 
ATOM     13  O   UNL     1       5.235  74.972   1.464  1.00  0.00    -0.550 OA
ATOM     14  O   UNL     1       6.086  74.367  -0.575  1.00  0.00    -0.550 OA
ENDBRANCH  11  12
ENDBRANCH  10  11
ENDBRANCH   9  10
ENDBRANCH   8   9
ENDBRANCH   7   8
ENDBRANCH   6   7
ENDBRANCH   5   6
ENDBRANCH   4   5
ENDBRANCH   3   4
ENDBRANCH   2   3
ENDBRANCH   1   2
BRANCH   1  15
ATOM     15  C   UNL     1       9.393  75.433  -3.148  1.00  0.00     0.000 C 
BRANCH  15  16
ATOM     16  C   UNL     1       9.379  74.524  -1.907  1.00  0.00     0.000 C 
BRANCH  16  17
ATOM     17  C   UNL     1      10.538  73.512  -1.892  1.00  0.00     0.000 C 
BRANCH  17  18
ATOM     18  C   UNL     1      10.107  72.035  -1.866  1.00  0.00    -0.000 C 
BRANCH  18  19
ATOM     19  C   UNL     1      10.751  71.202  -2.990  1.00  0.00    -0.000 C 
BRANCH  19  20
ATOM     20  C   UNL     1       9.876  71.139  -4.260  1.00  0.00    -0.000 C 
BRANCH  20  21
ATOM     21  C   UNL     1      10.614  71.549  -5.549  1.00  0.00    -0.000 C 
BRANCH  21  22
ATOM     22  C   UNL     1      10.509  73.040  -5.924  1.00  0.00    -0.000 C 
BRANCH  22  23
ATOM     23  C   UNL     1      11.795  73.862  -5.710  1.00  0.00    -0.000 C 
BRANCH  23  24
ATOM     24  C   UNL     1      12.970  73.011  -5.199  1.00  0.00    -0.000 C 
BRANCH  24  25
ATOM     25  C   UNL     1      13.705  73.667  -4.019  1.00  0.00    -0.003 C 
ATOM     26  C   UNL     1      14.048  72.676  -2.905  1.00  0.00     0.004 C 
ENDBRANCH  24  25
ENDBRANCH  23  24
ENDBRANCH  22  23
ENDBRANCH  21  22
ENDBRANCH  20  21
ENDBRANCH  19  20
ENDBRANCH  18  19
ENDBRANCH  17  18
ENDBRANCH  16  17
ENDBRANCH  15  16
ENDBRANCH   1  15
TORSDOF 22
ENDMDL
MODEL 2
REMARK VINA RESULT:    -6.111      1.260      2.322
REMARK INTER + INTRA:         -17.035
REMARK INTER:                 -13.886
REMARK INTRA:                  -3.150
REMARK UNBOUND:                -3.066
REMARK SMILES CCCCCCCCCCCCCCCCCCCCCCCC(=O)[O-]
REMARK SMILES IDX 13 1 14 2 15 3 16 4 17 5 18 6 19 7 20 8 21 9 22 10 23 11
REMARK SMILES IDX 24 12 25 13 26 14 12 15 11 16 10 17 9 18 8 19 7 20 6 21 5 22
REMARK SMILES IDX 4 23 3 24 2 25 1 26
REMARK H PARENT
REMARK Flexibility Score: inf
ROOT
ATOM      1  C   UNL     1       9.780  77.064  -2.653  1.00  0.00     0.000 C 
ENDROOT
BRANCH   1   2
ATOM      2  C   UNL     1       9.424  77.443  -1.204  1.00  0.00     0.000 C 
BRANCH   2   3
ATOM      3  C   UNL     1      10.350  76.776  -0.174  1.00  0.00     0.000 C 
BRANCH   3   4
ATOM      4  C   UNL     1      10.213  77.391   1.230  1.00  0.00     0.000 C 
BRANCH   4   5
ATOM      5  C   UNL     1      10.240  78.928   1.208  1.00  0.00     0.000 C 
BRANCH   5   6
ATOM      6  C   UNL     1       9.164  79.553   2.112  1.00  0.00     0.000 C 
BRANCH   6   7
ATOM      7  C   UNL     1       8.305  78.501   2.834  1.00  0.00     0.000 C 
BRANCH   7   8
ATOM      8  C   UNL     1       6.796  78.630   2.538  1.00  0.00     0.000 C 
BRANCH   8   9
ATOM      9  C   UNL     1       6.415  78.019   1.178  1.00  0.00     0.000 C 
BRANCH   9  10
ATOM     10  C   UNL     1       6.758  76.522   1.072  1.00  0.00     0.006 C 
BRANCH  10  11
ATOM     11  C   UNL     1       5.558  75.631   0.699  1.00  0.00     0.053 C 
BRANCH  11  12
ATOM     12  C   UNL     1       5.824  74.781  -0.507  1.00  0.00     0.041 C 
ATOM     13  O   UNL     1       7.005  74.469  -0.816  1.00  0.00    -0.550 OA
ATOM     14  O   UNL     1       4.770  74.359  -1.308  1.00  0.00    -0.550 OA
ENDBRANCH  11  12
ENDBRANCH  10  11
ENDBRANCH   9  10
ENDBRANCH   8   9
ENDBRANCH   7   8
ENDBRANCH   6   7
ENDBRANCH   5   6
ENDBRANCH   4   5
ENDBRANCH   3   4
ENDBRANCH   2   3
ENDBRANCH   1   2
BRANCH   1  15
ATOM     15  C   UNL     1       8.750  76.113  -3.282  1.00  0.00     0.000 C 
BRANCH  15  16
ATOM     16  C   UNL     1       9.394  74.830  -3.835  1.00  0.00     0.000 C 
BRANCH  16  17
ATOM     17  C   UNL     1       8.869  74.451  -5.231  1.00  0.00     0.000 C 
BRANCH  17  18
ATOM     18  C   UNL     1       9.814  73.562  -6.059  1.00  0.00    -0.000 C 
BRANCH  18  19
ATOM     19  C   UNL     1       9.509  72.060  -5.909  1.00  0.00    -0.000 C 
BRANCH  19  20
ATOM     20  C   UNL     1      10.505  71.341  -4.973  1.00  0.00    -0.000 C 
BRANCH  20  21
ATOM     21  C   UNL     1       9.936  71.029  -3.575  1.00  0.00    -0.000 C 
BRANCH  21  22
ATOM     22  C   UNL     1      10.718  71.635  -2.393  1.00  0.00    -0.000 C 
BRANCH  22  23
ATOM     23  C   UNL     1      12.225  71.840  -2.642  1.00  0.00    -0.000 C 
BRANCH  23  24
ATOM     24  C   UNL     1      12.615  73.323  -2.764  1.00  0.00    -0.000 C 
BRANCH  24  25
ATOM     25  C   UNL     1      13.437  73.615  -4.030  1.00  0.00    -0.003 C 
ATOM     26  C   UNL     1      13.042  74.929  -4.707  1.00  0.00     0.004 C 
ENDBRANCH  24  25
ENDBRANCH  23  24
ENDBRANCH  22  23
ENDBRANCH  21  22
ENDBRANCH  20  21
ENDBRANCH  19  20
ENDBRANCH  18  19
ENDBRANCH  17  18
ENDBRANCH  16  17
ENDBRANCH  15  16
ENDBRANCH   1  15
TORSDOF 22
ENDMDL
MODEL 3
REMARK VINA RESULT:    -6.079      3.006      5.586
REMARK INTER + INTRA:         -16.963
REMARK INTER:                 -12.608
REMARK INTRA:                  -4.355
REMARK UNBOUND:                -3.066
REMARK SMILES CCCCCCCCCCCCCCCCCCCCCCCC(=O)[O-]
REMARK SMILES IDX 13 1 14 2 15 3 16 4 17 5 18 6 19 7 20 8 21 9 22 10 23 11
REMARK SMILES IDX 24 12 25 13 26 14 12 15 11 16 10 17 9 18 8 19 7 20 6 21 5 22
REMARK SMILES IDX 4 23 3 24 2 25 1 26
REMARK H PARENT
REMARK Flexibility Score: inf
ROOT
ATOM      1  C   UNL     1       9.932  77.278   0.966  1.00  0.00     0.000 C 
ENDROOT
BRANCH   1   2
ATOM      2  C   UNL     1      10.414  78.740   1.008  1.00  0.00     0.000 C 
BRANCH   2   3
ATOM      3  C   UNL     1      10.272  79.448  -0.349  1.00  0.00     0.000 C 
BRANCH   3   4
ATOM      4  C   UNL     1      11.326  78.986  -1.369  1.00  0.00     0.000 C 
BRANCH   4   5
ATOM      5  C   UNL     1      10.751  78.028  -2.424  1.00  0.00     0.000 C 
BRANCH   5   6
ATOM      6  C   UNL     1      11.674  76.832  -2.708  1.00  0.00     0.000 C 
BRANCH   6   7
ATOM      7  C   UNL     1      12.745  76.633  -1.621  1.00  0.00     0.000 C 
BRANCH   7   8
ATOM      8  C   UNL     1      12.736  75.222  -0.997  1.00  0.00     0.000 C 
BRANCH   8   9
ATOM      9  C   UNL     1      12.464  74.126  -2.041  1.00  0.00     0.000 C 
BRANCH   9  10
ATOM     10  C   UNL     1      13.651  73.163  -2.230  1.00  0.00     0.006 C 
BRANCH  10  11
ATOM     11  C   UNL     1      14.052  72.946  -3.700  1.00  0.00     0.053 C 
BRANCH  11  12
ATOM     12  C   UNL     1      13.779  74.146  -4.556  1.00  0.00     0.041 C 
ATOM     13  O   UNL     1      14.433  75.209  -4.386  1.00  0.00    -0.550 OA
ATOM     14  O   UNL     1      12.779  74.102  -5.519  1.00  0.00    -0.550 OA
ENDBRANCH  11  12
ENDBRANCH  10  11
ENDBRANCH   9  10
ENDBRANCH   8   9
ENDBRANCH   7   8
ENDBRANCH   6   7
ENDBRANCH   5   6
ENDBRANCH   4   5
ENDBRANCH   3   4
ENDBRANCH   2   3
ENDBRANCH   1   2
BRANCH   1  15
ATOM     15  C   UNL     1       8.410  77.165   0.787  1.00  0.00     0.000 C 
BRANCH  15  16
ATOM     16  C   UNL     1       7.994  75.852   0.103  1.00  0.00     0.000 C 
BRANCH  16  17
ATOM     17  C   UNL     1       9.146  75.189  -0.675  1.00  0.00     0.000 C 
BRANCH  17  18
ATOM     18  C   UNL     1       8.731  74.509  -1.992  1.00  0.00    -0.000 C 
BRANCH  18  19
ATOM     19  C   UNL     1       8.053  75.477  -2.979  1.00  0.00    -0.000 C 
BRANCH  19  20
ATOM     20  C   UNL     1       8.263  75.069  -4.453  1.00  0.00    -0.000 C 
BRANCH  20  21
ATOM     21  C   UNL     1       9.458  74.121  -4.676  1.00  0.00    -0.000 C 
BRANCH  21  22
ATOM     22  C   UNL     1       9.291  73.108  -5.825  1.00  0.00    -0.000 C 
BRANCH  22  23
ATOM     23  C   UNL     1       9.861  71.703  -5.547  1.00  0.00    -0.000 C 
BRANCH  23  24
ATOM     24  C   UNL     1      10.699  71.641  -4.259  1.00  0.00    -0.000 C 
BRANCH  24  25
ATOM     25  C   UNL     1      10.070  70.735  -3.188  1.00  0.00    -0.003 C 
ATOM     26  C   UNL     1      10.811  70.790  -1.851  1.00  0.00     0.004 C 
ENDBRANCH  24  25
ENDBRANCH  23  24
ENDBRANCH  22  23
ENDBRANCH  21  22
ENDBRANCH  20  21
ENDBRANCH  19  20
ENDBRANCH  18  19
ENDBRANCH  17  18
ENDBRANCH  16  17
ENDBRANCH  15  16
ENDBRANCH   1  15
TORSDOF 22
ENDMDL
MODEL 4
REMARK VINA RESULT:    -6.072      1.516      2.672
REMARK INTER + INTRA:         -16.946
REMARK INTER:                 -13.757
REMARK INTRA:                  -3.189
REMARK UNBOUND:                -3.066
REMARK SMILES CCCCCCCCCCCCCCCCCCCCCCCC(=O)[O-]
REMARK SMILES IDX 13 1 14 2 15 3 16 4 17 5 18 6 19 7 20 8 21 9 22 10 23 11
REMARK SMILES IDX 24 12 25 13 26 14 12 15 11 16 10 17 9 18 8 19 7 20 6 21 5 22
REMARK SMILES IDX 4 23 3 24 2 25 1 26
REMARK H PARENT
REMARK Flexibility Score: inf
ROOT
ATOM      1  C   UNL     1       8.586  74.606  -3.114  1.00  0.00     0.000 C 
ENDROOT
BRANCH   1   2
ATOM      2  C   UNL     1       9.593  75.729  -3.423  1.00  0.00     0.000 C 
BRANCH   2   3
ATOM      3  C   UNL     1       9.065  77.120  -3.036  1.00  0.00     0.000 C 
BRANCH   3   4
ATOM      4  C   UNL     1       9.945  77.814  -1.982  1.00  0.00     0.000 C 
BRANCH   4   5
ATOM      5  C   UNL     1       9.482  79.247  -1.674  1.00  0.00     0.000 C 
BRANCH   5   6
ATOM      6  C   UNL     1      10.513  80.042  -0.856  1.00  0.00     0.000 C 
BRANCH   6   7
ATOM      7  C   UNL     1      11.313  79.158   0.116  1.00  0.00     0.000 C 
BRANCH   7   8
ATOM      8  C   UNL     1      11.340  79.699   1.561  1.00  0.00     0.000 C 
BRANCH   8   9
ATOM      9  C   UNL     1       9.930  80.009   2.092  1.00  0.00     0.000 C 
BRANCH   9  10
ATOM     10  C   UNL     1       9.430  78.976   3.118  1.00  0.00     0.006 C 
BRANCH  10  11
ATOM     11  C   UNL     1       7.901  78.790   3.124  1.00  0.00     0.053 C 
BRANCH  11  12
ATOM     12  C   UNL     1       7.360  78.421   1.775  1.00  0.00     0.041 C 
ATOM     13  O   UNL     1       7.941  77.550   1.075  1.00  0.00    -0.550 OA
ATOM     14  O   UNL     1       6.233  79.062   1.277  1.00  0.00    -0.550 OA
ENDBRANCH  11  12
ENDBRANCH  10  11
ENDBRANCH   9  10
ENDBRANCH   8   9
ENDBRANCH   7   8
ENDBRANCH   6   7
ENDBRANCH   5   6
ENDBRANCH   4   5
ENDBRANCH   3   4
ENDBRANCH   2   3
ENDBRANCH   1   2
BRANCH   1  15
ATOM     15  C   UNL     1       8.889  73.892  -1.788  1.00  0.00     0.000 C 
BRANCH  15  16
ATOM     16  C   UNL     1      10.295  73.268  -1.763  1.00  0.00     0.000 C 
BRANCH  16  17
ATOM     17  C   UNL     1      10.268  71.730  -1.819  1.00  0.00     0.000 C 
BRANCH  17  18
ATOM     18  C   UNL     1      10.835  71.119  -3.113  1.00  0.00    -0.000 C 
BRANCH  18  19
ATOM     19  C   UNL     1       9.856  71.210  -4.298  1.00  0.00    -0.000 C 
BRANCH  19  20
ATOM     20  C   UNL     1      10.557  71.580  -5.623  1.00  0.00    -0.000 C 
BRANCH  20  21
ATOM     21  C   UNL     1      10.840  73.086  -5.782  1.00  0.00    -0.000 C 
BRANCH  21  22
ATOM     22  C   UNL     1      12.329  73.470  -5.894  1.00  0.00    -0.000 C 
BRANCH  22  23
ATOM     23  C   UNL     1      12.767  74.658  -5.016  1.00  0.00    -0.000 C 
BRANCH  23  24
ATOM     24  C   UNL     1      13.167  74.234  -3.593  1.00  0.00    -0.000 C 
BRANCH  24  25
ATOM     25  C   UNL     1      14.073  72.992  -3.581  1.00  0.00    -0.003 C 
ATOM     26  C   UNL     1      14.245  72.394  -2.183  1.00  0.00     0.004 C 
ENDBRANCH  24  25
ENDBRANCH  23  24
ENDBRANCH  22  23
ENDBRANCH  21  22
ENDBRANCH  20  21
ENDBRANCH  19  20
ENDBRANCH  18  19
ENDBRANCH  17  18
ENDBRANCH  16  17
ENDBRANCH  15  16
ENDBRANCH   1  15
TORSDOF 22
ENDMDL
MODEL 5
REMARK VINA RESULT:    -6.043      2.646      7.869
REMARK INTER + INTRA:         -16.880
REMARK INTER:                 -13.744
REMARK INTRA:                  -3.136
REMARK UNBOUND:                -3.066
REMARK SMILES CCCCCCCCCCCCCCCCCCCCCCCC(=O)[O-]
REMARK SMILES IDX 13 1 14 2 15 3 16 4 17 5 18 6 19 7 20 8 21 9 22 10 23 11
REMARK SMILES IDX 24 12 25 13 26 14 12 15 11 16 10 17 9 18 8 19 7 20 6 21 5 22
REMARK SMILES IDX 4 23 3 24 2 25 1 26
REMARK H PARENT
REMARK Flexibility Score: inf
ROOT
ATOM      1  C   UNL     1       9.457  71.651  -5.850  1.00  0.00     0.000 C 
ENDROOT
BRANCH   1   2
ATOM      2  C   UNL     1      10.648  71.559  -4.878  1.00  0.00     0.000 C 
BRANCH   2   3
ATOM      3  C   UNL     1      10.244  71.009  -3.500  1.00  0.00     0.000 C 
BRANCH   3   4
ATOM      4  C   UNL     1      11.330  71.233  -2.434  1.00  0.00     0.000 C 
BRANCH   4   5
ATOM      5  C   UNL     1      11.974  72.625  -2.527  1.00  0.00     0.000 C 
BRANCH   5   6
ATOM      6  C   UNL     1      13.510  72.574  -2.475  1.00  0.00     0.000 C 
BRANCH   6   7
ATOM      7  C   UNL     1      14.166  72.959  -3.813  1.00  0.00     0.000 C 
BRANCH   7   8
ATOM      8  C   UNL     1      13.361  74.003  -4.616  1.00  0.00     0.000 C 
BRANCH   8   9
ATOM      9  C   UNL     1      13.808  75.443  -4.310  1.00  0.00     0.000 C 
BRANCH   9  10
ATOM     10  C   UNL     1      12.749  76.254  -3.542  1.00  0.00     0.006 C 
BRANCH  10  11
ATOM     11  C   UNL     1      13.340  77.285  -2.563  1.00  0.00     0.053 C 
BRANCH  11  12
ATOM     12  C   UNL     1      13.173  76.881  -1.129  1.00  0.00     0.041 C 
ATOM     13  O   UNL     1      13.232  77.745  -0.215  1.00  0.00    -0.550 OA
ATOM     14  O   UNL     1      12.986  75.544  -0.799  1.00  0.00    -0.550 OA
ENDBRANCH  11  12
ENDBRANCH  10  11
ENDBRANCH   9  10
ENDBRANCH   8   9
ENDBRANCH   7   8
ENDBRANCH   6   7
ENDBRANCH   5   6
ENDBRANCH   4   5
ENDBRANCH   3   4
ENDBRANCH   2   3
ENDBRANCH   1   2
BRANCH   1  15
ATOM     15  C   UNL     1       9.083  73.103  -6.185  1.00  0.00     0.000 C 
BRANCH  15  16
ATOM     16  C   UNL     1       9.693  74.112  -5.197  1.00  0.00     0.000 C 
BRANCH  16  17
ATOM     17  C   UNL     1       8.657  74.690  -4.216  1.00  0.00     0.000 C 
BRANCH  17  18
ATOM     18  C   UNL     1       9.042  74.581  -2.730  1.00  0.00    -0.000 C 
BRANCH  18  19
ATOM     19  C   UNL     1       8.776  75.879  -1.945  1.00  0.00    -0.000 C 
BRANCH  19  20
ATOM     20  C   UNL     1       8.383  75.616  -0.475  1.00  0.00    -0.000 C 
BRANCH  20  21
ATOM     21  C   UNL     1       9.504  75.925   0.537  1.00  0.00    -0.000 C 
BRANCH  21  22
ATOM     22  C   UNL     1       9.885  77.413   0.667  1.00  0.00    -0.000 C 
BRANCH  22  23
ATOM     23  C   UNL     1       9.803  77.989   2.094  1.00  0.00    -0.000 C 
BRANCH  23  24
ATOM     24  C   UNL     1       8.771  79.121   2.223  1.00  0.00    -0.000 C 
BRANCH  24  25
ATOM     25  C   UNL     1       7.427  78.633   2.789  1.00  0.00    -0.003 C 
ATOM     26  C   UNL     1       6.405  78.305   1.699  1.00  0.00     0.004 C 
ENDBRANCH  24  25
ENDBRANCH  23  24
ENDBRANCH  22  23
ENDBRANCH  21  22
ENDBRANCH  20  21
ENDBRANCH  19  20
ENDBRANCH  18  19
ENDBRANCH  17  18
ENDBRANCH  16  17
ENDBRANCH  15  16
ENDBRANCH   1  15
TORSDOF 22
ENDMDL
MODEL 6
REMARK VINA RESULT:    -6.040      1.885      4.258
REMARK INTER + INTRA:         -16.874
REMARK INTER:                 -13.359
REMARK INTRA:                  -3.515
REMARK UNBOUND:                -3.066
REMARK SMILES CCCCCCCCCCCCCCCCCCCCCCCC(=O)[O-]
REMARK SMILES IDX 13 1 14 2 15 3 16 4 17 5 18 6 19 7 20 8 21 9 22 10 23 11
REMARK SMILES IDX 24 12 25 13 26 14 12 15 11 16 10 17 9 18 8 19 7 20 6 21 5 22
REMARK SMILES IDX 4 23 3 24 2 25 1 26
REMARK H PARENT
REMARK Flexibility Score: inf
ROOT
ATOM      1  C   UNL     1      12.792  74.839  -3.569  1.00  0.00     0.000 C 
ENDROOT
BRANCH   1   2
ATOM      2  C   UNL     1      13.650  76.110  -3.432  1.00  0.00     0.000 C 
BRANCH   2   3
ATOM      3  C   UNL     1      12.819  77.398  -3.541  1.00  0.00     0.000 C 
BRANCH   3   4
ATOM      4  C   UNL     1      11.963  77.656  -2.289  1.00  0.00     0.000 C 
BRANCH   4   5
ATOM      5  C   UNL     1      12.287  79.000  -1.616  1.00  0.00     0.000 C 
BRANCH   5   6
ATOM      6  C   UNL     1      11.034  79.853  -1.359  1.00  0.00     0.000 C 
BRANCH   6   7
ATOM      7  C   UNL     1       9.730  79.125  -1.725  1.00  0.00     0.000 C 
BRANCH   7   8
ATOM      8  C   UNL     1       8.755  78.973  -0.539  1.00  0.00     0.000 C 
BRANCH   8   9
ATOM      9  C   UNL     1       8.858  77.590   0.126  1.00  0.00     0.000 C 
BRANCH   9  10
ATOM     10  C   UNL     1       9.559  77.629   1.496  1.00  0.00     0.006 C 
BRANCH  10  11
ATOM     11  C   UNL     1       9.255  78.896   2.317  1.00  0.00     0.053 C 
BRANCH  11  12
ATOM     12  C   UNL     1       8.071  78.728   3.221  1.00  0.00     0.041 C 
ATOM     13  O   UNL     1       6.915  78.609   2.736  1.00  0.00    -0.550 OA
ATOM     14  O   UNL     1       8.240  78.736   4.600  1.00  0.00    -0.550 OA
ENDBRANCH  11  12
ENDBRANCH  10  11
ENDBRANCH   9  10
ENDBRANCH   8   9
ENDBRANCH   7   8
ENDBRANCH   6   7
ENDBRANCH   5   6
ENDBRANCH   4   5
ENDBRANCH   3   4
ENDBRANCH   2   3
ENDBRANCH   1   2
BRANCH   1  15
ATOM     15  C   UNL     1      13.584  73.654  -4.143  1.00  0.00     0.000 C 
BRANCH  15  16
ATOM     16  C   UNL     1      12.882  73.006  -5.349  1.00  0.00     0.000 C 
BRANCH  16  17
ATOM     17  C   UNL     1      11.676  73.821  -5.850  1.00  0.00     0.000 C 
BRANCH  17  18
ATOM     18  C   UNL     1      10.333  73.069  -5.828  1.00  0.00    -0.000 C 
BRANCH  18  19
ATOM     19  C   UNL     1      10.502  71.544  -5.704  1.00  0.00    -0.000 C 
BRANCH  19  20
ATOM     20  C   UNL     1       9.888  70.980  -4.405  1.00  0.00    -0.000 C 
BRANCH  20  21
ATOM     21  C   UNL     1      10.684  71.332  -3.133  1.00  0.00    -0.000 C 
BRANCH  21  22
ATOM     22  C   UNL     1       9.884  72.059  -2.034  1.00  0.00    -0.000 C 
BRANCH  22  23
ATOM     23  C   UNL     1      10.270  73.534  -1.809  1.00  0.00    -0.000 C 
BRANCH  23  24
ATOM     24  C   UNL     1       9.057  74.479  -1.825  1.00  0.00    -0.000 C 
BRANCH  24  25
ATOM     25  C   UNL     1       9.087  75.458  -3.010  1.00  0.00    -0.003 C 
ATOM     26  C   UNL     1       7.960  75.212  -4.015  1.00  0.00     0.004 C 
ENDBRANCH  24  25
ENDBRANCH  23  24
ENDBRANCH  22  23
ENDBRANCH  21  22
ENDBRANCH  20  21
ENDBRANCH  19  20
ENDBRANCH  18  19
ENDBRANCH  17  18
ENDBRANCH  16  17
ENDBRANCH  15  16
ENDBRANCH   1  15
TORSDOF 22
ENDMDL
MODEL 7
REMARK VINA RESULT:    -6.036      2.267      7.879
REMARK INTER + INTRA:         -16.865
REMARK INTER:                 -13.874
REMARK INTRA:                  -2.991
REMARK UNBOUND:                -3.066
REMARK SMILES CCCCCCCCCCCCCCCCCCCCCCCC(=O)[O-]
REMARK SMILES IDX 13 1 14 2 15 3 16 4 17 5 18 6 19 7 20 8 21 9 22 10 23 11
REMARK SMILES IDX 24 12 25 13 26 14 12 15 11 16 10 17 9 18 8 19 7 20 6 21 5 22
REMARK SMILES IDX 4 23 3 24 2 25 1 26
REMARK H PARENT
REMARK Flexibility Score: inf
ROOT
ATOM      1  C   UNL     1      13.343  73.763  -4.188  1.00  0.00     0.000 C 
ENDROOT
BRANCH   1   2
ATOM      2  C   UNL     1      12.806  73.073  -5.455  1.00  0.00     0.000 C 
BRANCH   2   3
ATOM      3  C   UNL     1      11.598  73.807  -6.060  1.00  0.00     0.000 C 
BRANCH   3   4
ATOM      4  C   UNL     1      10.290  73.011  -5.913  1.00  0.00     0.000 C 
BRANCH   4   5
ATOM      5  C   UNL     1      10.530  71.535  -5.558  1.00  0.00     0.000 C 
BRANCH   5   6
ATOM      6  C   UNL     1       9.866  71.127  -4.233  1.00  0.00     0.000 C 
BRANCH   6   7
ATOM      7  C   UNL     1      10.844  71.142  -3.045  1.00  0.00     0.000 C 
BRANCH   7   8
ATOM      8  C   UNL     1      10.303  71.893  -1.811  1.00  0.00     0.000 C 
BRANCH   8   9
ATOM      9  C   UNL     1      10.554  73.409  -1.896  1.00  0.00     0.000 C 
BRANCH   9  10
ATOM     10  C   UNL     1       9.263  74.242  -1.795  1.00  0.00     0.006 C 
BRANCH  10  11
ATOM     11  C   UNL     1       8.571  74.489  -3.147  1.00  0.00     0.053 C 
BRANCH  11  12
ATOM     12  C   UNL     1       8.731  75.899  -3.628  1.00  0.00     0.041 C 
ATOM     13  O   UNL     1       9.567  76.666  -3.080  1.00  0.00    -0.550 OA
ATOM     14  O   UNL     1       7.933  76.379  -4.660  1.00  0.00    -0.550 OA
ENDBRANCH  11  12
ENDBRANCH  10  11
ENDBRANCH   9  10
ENDBRANCH   8   9
ENDBRANCH   7   8
ENDBRANCH   6   7
ENDBRANCH   5   6
ENDBRANCH   4   5
ENDBRANCH   3   4
ENDBRANCH   2   3
ENDBRANCH   1   2
BRANCH   1  15
ATOM     15  C   UNL     1      13.774  75.215  -4.445  1.00  0.00     0.000 C 
BRANCH  15  16
ATOM     16  C   UNL     1      13.018  76.220  -3.559  1.00  0.00     0.000 C 
BRANCH  16  17
ATOM     17  C   UNL     1      13.193  75.942  -2.055  1.00  0.00     0.000 C 
BRANCH  17  18
ATOM     18  C   UNL     1      12.687  77.061  -1.127  1.00  0.00    -0.000 C 
BRANCH  18  19
ATOM     19  C   UNL     1      13.323  78.429  -1.436  1.00  0.00    -0.000 C 
BRANCH  19  20
ATOM     20  C   UNL     1      12.572  79.600  -0.767  1.00  0.00    -0.000 C 
BRANCH  20  21
ATOM     21  C   UNL     1      12.414  79.451   0.759  1.00  0.00    -0.000 C 
BRANCH  21  22
ATOM     22  C   UNL     1      10.980  79.629   1.295  1.00  0.00    -0.000 C 
BRANCH  22  23
ATOM     23  C   UNL     1      10.035  78.437   1.048  1.00  0.00    -0.000 C 
BRANCH  23  24
ATOM     24  C   UNL     1       9.271  78.008   2.312  1.00  0.00    -0.000 C 
BRANCH  24  25
ATOM     25  C   UNL     1       9.107  79.157   3.321  1.00  0.00    -0.003 C 
ATOM     26  C   UNL     1       8.129  78.824   4.449  1.00  0.00     0.004 C 
ENDBRANCH  24  25
ENDBRANCH  23  24
ENDBRANCH  22  23
ENDBRANCH  21  22
ENDBRANCH  20  21
ENDBRANCH  19  20
ENDBRANCH  18  19
ENDBRANCH  17  18
ENDBRANCH  16  17
ENDBRANCH  15  16
ENDBRANCH   1  15
TORSDOF 22
ENDMDL
MODEL 8
REMARK VINA RESULT:    -6.015      2.731      8.343
REMARK INTER + INTRA:         -16.816
REMARK INTER:                 -13.024
REMARK INTRA:                  -3.792
REMARK UNBOUND:                -3.066
REMARK SMILES CCCCCCCCCCCCCCCCCCCCCCCC(=O)[O-]
REMARK SMILES IDX 13 1 14 2 15 3 16 4 17 5 18 6 19 7 20 8 21 9 22 10 23 11
REMARK SMILES IDX 24 12 25 13 26 14 12 15 11 16 10 17 9 18 8 19 7 20 6 21 5 22
REMARK SMILES IDX 4 23 3 24 2 25 1 26
REMARK H PARENT
REMARK Flexibility Score: inf
ROOT
ATOM      1  C   UNL     1       8.603  74.494  -4.283  1.00  0.00     0.000 C 
ENDROOT
BRANCH   1   2
ATOM      2  C   UNL     1       9.470  74.069  -5.482  1.00  0.00     0.000 C 
BRANCH   2   3
ATOM      3  C   UNL     1       9.242  72.604  -5.887  1.00  0.00     0.000 C 
BRANCH   3   4
ATOM      4  C   UNL     1      10.348  71.669  -5.370  1.00  0.00     0.000 C 
BRANCH   4   5
ATOM      5  C   UNL     1      10.050  71.118  -3.966  1.00  0.00     0.000 C 
BRANCH   5   6
ATOM      6  C   UNL     1      11.125  71.503  -2.936  1.00  0.00     0.000 C 
BRANCH   6   7
ATOM      7  C   UNL     1      12.311  72.255  -3.563  1.00  0.00     0.000 C 
BRANCH   7   8
ATOM      8  C   UNL     1      12.510  73.676  -2.994  1.00  0.00     0.000 C 
BRANCH   8   9
ATOM      9  C   UNL     1      12.837  74.702  -4.092  1.00  0.00     0.000 C 
BRANCH   9  10
ATOM     10  C   UNL     1      13.113  76.111  -3.539  1.00  0.00     0.006 C 
BRANCH  10  11
ATOM     11  C   UNL     1      12.854  76.252  -2.028  1.00  0.00     0.053 C 
BRANCH  11  12
ATOM     12  C   UNL     1      13.343  77.558  -1.477  1.00  0.00     0.041 C 
ATOM     13  O   UNL     1      14.077  77.580  -0.454  1.00  0.00    -0.550 OA
ATOM     14  O   UNL     1      12.961  78.752  -2.075  1.00  0.00    -0.550 OA
ENDBRANCH  11  12
ENDBRANCH  10  11
ENDBRANCH   9  10
ENDBRANCH   8   9
ENDBRANCH   7   8
ENDBRANCH   6   7
ENDBRANCH   5   6
ENDBRANCH   4   5
ENDBRANCH   3   4
ENDBRANCH   2   3
ENDBRANCH   1   2
BRANCH   1  15
ATOM     15  C   UNL     1       9.294  75.545  -3.400  1.00  0.00     0.000 C 
BRANCH  15  16
ATOM     16  C   UNL     1       9.182  75.220  -1.900  1.00  0.00     0.000 C 
BRANCH  16  17
ATOM     17  C   UNL     1       9.176  76.478  -1.013  1.00  0.00     0.000 C 
BRANCH  17  18
ATOM     18  C   UNL     1       9.585  77.777  -1.730  1.00  0.00    -0.000 C 
BRANCH  18  19
ATOM     19  C   UNL     1       8.887  79.024  -1.155  1.00  0.00    -0.000 C 
BRANCH  19  20
ATOM     20  C   UNL     1       9.885  80.061  -0.597  1.00  0.00    -0.000 C 
BRANCH  20  21
ATOM     21  C   UNL     1      10.691  79.563   0.619  1.00  0.00    -0.000 C 
BRANCH  21  22
ATOM     22  C   UNL     1       9.988  79.710   1.983  1.00  0.00    -0.000 C 
BRANCH  22  23
ATOM     23  C   UNL     1       9.296  78.436   2.505  1.00  0.00    -0.000 C 
BRANCH  23  24
ATOM     24  C   UNL     1       7.930  78.720   3.152  1.00  0.00    -0.000 C 
BRANCH  24  25
ATOM     25  C   UNL     1       6.807  78.878   2.114  1.00  0.00    -0.003 C 
ATOM     26  C   UNL     1       6.495  77.578   1.371  1.00  0.00     0.004 C 
ENDBRANCH  24  25
ENDBRANCH  23  24
ENDBRANCH  22  23
ENDBRANCH  21  22
ENDBRANCH  20  21
ENDBRANCH  19  20
ENDBRANCH  18  19
ENDBRANCH  17  18
ENDBRANCH  16  17
ENDBRANCH  15  16
ENDBRANCH   1  15
TORSDOF 22
ENDMDL
MODEL 9
REMARK VINA RESULT:    -5.978      2.999      7.650
REMARK INTER + INTRA:         -16.732
REMARK INTER:                 -13.127
REMARK INTRA:                  -3.605
REMARK UNBOUND:                -3.066
REMARK SMILES CCCCCCCCCCCCCCCCCCCCCCCC(=O)[O-]
REMARK SMILES IDX 13 1 14 2 15 3 16 4 17 5 18 6 19 7 20 8 21 9 22 10 23 11
REMARK SMILES IDX 24 12 25 13 26 14 12 15 11 16 10 17 9 18 8 19 7 20 6 21 5 22
REMARK SMILES IDX 4 23 3 24 2 25 1 26
REMARK H PARENT
REMARK Flexibility Score: inf
ROOT
ATOM      1  C   UNL     1       9.177  72.454  -5.887  1.00  0.00     0.000 C 
ENDROOT
BRANCH   1   2
ATOM      2  C   UNL     1      10.342  71.538  -5.470  1.00  0.00     0.000 C 
BRANCH   2   3
ATOM      3  C   UNL     1      10.239  71.080  -4.006  1.00  0.00     0.000 C 
BRANCH   3   4
ATOM      4  C   UNL     1      11.272  71.768  -3.098  1.00  0.00     0.000 C 
BRANCH   4   5
ATOM      5  C   UNL     1      12.457  72.353  -3.884  1.00  0.00     0.000 C 
BRANCH   5   6
ATOM      6  C   UNL     1      12.683  73.846  -3.595  1.00  0.00     0.000 C 
BRANCH   6   7
ATOM      7  C   UNL     1      12.660  74.173  -2.092  1.00  0.00     0.000 C 
BRANCH   7   8
ATOM      8  C   UNL     1      12.723  75.685  -1.789  1.00  0.00     0.000 C 
BRANCH   8   9
ATOM      9  C   UNL     1      12.204  76.535  -2.961  1.00  0.00     0.000 C 
BRANCH   9  10
ATOM     10  C   UNL     1      11.817  77.966  -2.545  1.00  0.00     0.006 C 
BRANCH  10  11
ATOM     11  C   UNL     1      11.992  78.248  -1.042  1.00  0.00     0.053 C 
BRANCH  11  12
ATOM     12  C   UNL     1      13.085  79.236  -0.764  1.00  0.00     0.041 C 
ATOM     13  O   UNL     1      13.606  79.889  -1.707  1.00  0.00    -0.550 OA
ATOM     14  O   UNL     1      13.552  79.411   0.533  1.00  0.00    -0.550 OA
ENDBRANCH  11  12
ENDBRANCH  10  11
ENDBRANCH   9  10
ENDBRANCH   8   9
ENDBRANCH   7   8
ENDBRANCH   6   7
ENDBRANCH   5   6
ENDBRANCH   4   5
ENDBRANCH   3   4
ENDBRANCH   2   3
ENDBRANCH   1   2
BRANCH   1  15
ATOM     15  C   UNL     1       9.541  73.944  -5.804  1.00  0.00     0.000 C 
BRANCH  15  16
ATOM     16  C   UNL     1       8.531  74.752  -4.972  1.00  0.00     0.000 C 
BRANCH  16  17
ATOM     17  C   UNL     1       9.088  75.178  -3.601  1.00  0.00     0.000 C 
BRANCH  17  18
ATOM     18  C   UNL     1       8.907  74.142  -2.478  1.00  0.00    -0.000 C 
BRANCH  18  19
ATOM     19  C   UNL     1       9.110  74.739  -1.073  1.00  0.00    -0.000 C 
BRANCH  19  20
ATOM     20  C   UNL     1       8.822  76.255  -1.023  1.00  0.00    -0.000 C 
BRANCH  20  21
ATOM     21  C   UNL     1       8.979  76.875   0.379  1.00  0.00    -0.000 C 
BRANCH  21  22
ATOM     22  C   UNL     1       7.673  77.359   1.039  1.00  0.00    -0.000 C 
BRANCH  22  23
ATOM     23  C   UNL     1       7.646  78.851   1.424  1.00  0.00    -0.000 C 
BRANCH  23  24
ATOM     24  C   UNL     1       8.999  79.355   1.954  1.00  0.00    -0.000 C 
BRANCH  24  25
ATOM     25  C   UNL     1       9.269  78.912   3.401  1.00  0.00    -0.003 C 
ATOM     26  C   UNL     1       8.026  78.992   4.289  1.00  0.00     0.004 C 
ENDBRANCH  24  25
ENDBRANCH  23  24
ENDBRANCH  22  23
ENDBRANCH  21  22
ENDBRANCH  20  21
ENDBRANCH  19  20
ENDBRANCH  18  19
ENDBRANCH  17  18
ENDBRANCH  16  17
ENDBRANCH  15  16
ENDBRANCH   1  15
TORSDOF 22
ENDMDL
