MODEL 1
REMARK VINA RESULT:    -2.101      0.000      0.000
REMARK INTER + INTRA:          -4.942
REMARK INTER:                  -3.329
REMARK INTRA:                  -1.613
REMARK UNBOUND:                -1.613
REMARK SMILES CCCCCCCCCCCC(=O)[O-]
REMARK SMILES IDX 7 1 8 2 9 3 10 4 11 5 12 6 13 7 14 8 6 9 5 10 4 11 3 12 2 13
REMARK SMILES IDX 1 14
REMARK H PARENT
REMARK Flexibility Score: inf
ROOT
ATOM      1  C   UNL     1      10.660  26.542  28.156  1.00  0.00     0.000 C 
ENDROOT
BRANCH   1   2
ATOM      2  C   UNL     1      11.205  26.782  26.736  1.00  0.00     0.000 C 
BRANCH   2   3
ATOM      3  C   UNL     1      12.393  25.867  26.396  1.00  0.00     0.000 C 
BRANCH   3   4
ATOM      4  C   UNL     1      11.992  24.690  25.492  1.00  0.00     0.006 C 
BRANCH   4   5
ATOM      5  C   UNL     1      12.679  23.382  25.905  1.00  0.00     0.053 C 
BRANCH   5   6
ATOM      6  C   UNL     1      11.812  22.188  25.643  1.00  0.00     0.041 C 
ATOM      7  O   UNL     1      11.248  21.593  26.598  1.00  0.00    -0.550 OA
ATOM      8  O   UNL     1      11.652  21.715  24.346  1.00  0.00    -0.550 OA
ENDBRANCH   5   6
ENDBRANCH   4   5
ENDBRANCH   3   4
ENDBRANCH   2   3
ENDBRANCH   1   2
BRANCH   1   9
ATOM      9  C   UNL     1       9.641  25.392  28.214  1.00  0.00     0.000 C 
BRANCH   9  10
ATOM     10  C   UNL     1      10.229  24.115  28.838  1.00  0.00    -0.000 C 
BRANCH  10  11
ATOM     11  C   UNL     1      11.442  24.401  29.737  1.00  0.00    -0.000 C 
BRANCH  11  12
ATOM     12  C   UNL     1      12.605  23.427  29.495  1.00  0.00    -0.000 C 
BRANCH  12  13
ATOM     13  C   UNL     1      13.955  24.135  29.656  1.00  0.00    -0.003 C 
ATOM     14  C   UNL     1      13.773  25.641  29.824  1.00  0.00     0.004 C 
ENDBRANCH  12  13
ENDBRANCH  11  12
ENDBRANCH  10  11
ENDBRANCH   9  10
ENDBRANCH   1   9
TORSDOF 10
ENDMDL
MODEL 2
REMARK VINA RESULT:    -2.096     24.000     25.550
REMARK INTER + INTRA:          -4.934
REMARK INTER:                  -3.322
REMARK INTRA:                  -1.612
REMARK UNBOUND:                -1.613
REMARK SMILES CCCCCCCCCCCC(=O)[O-]
REMARK SMILES IDX 7 1 8 2 9 3 10 4 11 5 12 6 13 7 14 8 6 9 5 10 4 11 3 12 2 13
REMARK SMILES IDX 1 14
REMARK H PARENT
REMARK Flexibility Score: inf
ROOT
ATOM      1  C   UNL     1      26.765  12.786  10.157  1.00  0.00     0.000 C 
ENDROOT
BRANCH   1   2
ATOM      2  C   UNL     1      25.889  13.046  11.397  1.00  0.00     0.000 C 
BRANCH   2   3
ATOM      3  C   UNL     1      24.728  12.047  11.520  1.00  0.00     0.000 C 
BRANCH   3   4
ATOM      4  C   UNL     1      24.083  11.718  10.163  1.00  0.00     0.006 C 
BRANCH   4   5
ATOM      5  C   UNL     1      23.825  10.215   9.993  1.00  0.00     0.053 C 
BRANCH   5   6
ATOM      6  C   UNL     1      22.424   9.844  10.372  1.00  0.00     0.041 C 
ATOM      7  O   UNL     1      21.587  10.739  10.663  1.00  0.00    -0.550 OA
ATOM      8  O   UNL     1      22.050   8.507  10.435  1.00  0.00    -0.550 OA
ENDBRANCH   5   6
ENDBRANCH   4   5
ENDBRANCH   3   4
ENDBRANCH   2   3
ENDBRANCH   1   2
BRANCH   1   9
ATOM      9  C   UNL     1      27.896  11.782  10.430  1.00  0.00     0.000 C 
BRANCH   9  10
ATOM     10  C   UNL     1      27.587  10.380   9.875  1.00  0.00    -0.000 C 
BRANCH  10  11
ATOM     11  C   UNL     1      27.629   9.293  10.961  1.00  0.00    -0.000 C 
BRANCH  11  12
ATOM     12  C   UNL     1      27.986   9.852  12.347  1.00  0.00    -0.000 C 
BRANCH  12  13
ATOM     13  C   UNL     1      26.870   9.560  13.358  1.00  0.00    -0.003 C 
ATOM     14  C   UNL     1      25.774   8.698  12.739  1.00  0.00     0.004 C 
ENDBRANCH  12  13
ENDBRANCH  11  12
ENDBRANCH  10  11
ENDBRANCH   9  10
ENDBRANCH   1   9
TORSDOF 10
ENDMDL
MODEL 3
REMARK VINA RESULT:    -2.078     24.419     25.605
REMARK INTER + INTRA:          -4.906
REMARK INTER:                  -3.356
REMARK INTRA:                  -1.550
REMARK UNBOUND:                -1.613
REMARK SMILES CCCCCCCCCCCC(=O)[O-]
REMARK SMILES IDX 7 1 8 2 9 3 10 4 11 5 12 6 13 7 14 8 6 9 5 10 4 11 3 12 2 13
REMARK SMILES IDX 1 14
REMARK H PARENT
REMARK Flexibility Score: inf
ROOT
ATOM      1  C   UNL     1      27.657  11.394   9.902  1.00  0.00     0.000 C 
ENDROOT
BRANCH   1   2
ATOM      2  C   UNL     1      26.292  12.063  10.148  1.00  0.00     0.000 C 
BRANCH   2   3
ATOM      3  C   UNL     1      25.114  11.099   9.933  1.00  0.00     0.000 C 
BRANCH   3   4
ATOM      4  C   UNL     1      24.236  10.949  11.187  1.00  0.00     0.006 C 
BRANCH   4   5
ATOM      5  C   UNL     1      23.752   9.507  11.386  1.00  0.00     0.053 C 
BRANCH   5   6
ATOM      6  C   UNL     1      22.330   9.330  10.949  1.00  0.00     0.041 C 
ATOM      7  O   UNL     1      21.842   8.175  10.835  1.00  0.00    -0.550 OA
ATOM      8  O   UNL     1      21.554  10.439  10.636  1.00  0.00    -0.550 OA
ENDBRANCH   5   6
ENDBRANCH   4   5
ENDBRANCH   3   4
ENDBRANCH   2   3
ENDBRANCH   1   2
BRANCH   1   9
ATOM      9  C   UNL     1      27.616   9.871  10.100  1.00  0.00     0.000 C 
BRANCH   9  10
ATOM     10  C   UNL     1      28.270   9.430  11.421  1.00  0.00    -0.000 C 
BRANCH  10  11
ATOM     11  C   UNL     1      27.237   9.102  12.511  1.00  0.00    -0.000 C 
BRANCH  11  12
ATOM     12  C   UNL     1      27.156  10.183  13.599  1.00  0.00    -0.000 C 
BRANCH  12  13
ATOM     13  C   UNL     1      28.435  11.030  13.625  1.00  0.00    -0.003 C 
ATOM     14  C   UNL     1      28.121  12.512  13.441  1.00  0.00     0.004 C 
ENDBRANCH  12  13
ENDBRANCH  11  12
ENDBRANCH  10  11
ENDBRANCH   9  10
ENDBRANCH   1   9
TORSDOF 10
ENDMDL
MODEL 4
REMARK VINA RESULT:    -2.075      1.123      2.607
REMARK INTER + INTRA:          -4.901
REMARK INTER:                  -3.203
REMARK INTRA:                  -1.698
REMARK UNBOUND:                -1.613
REMARK SMILES CCCCCCCCCCCC(=O)[O-]
REMARK SMILES IDX 7 1 8 2 9 3 10 4 11 5 12 6 13 7 14 8 6 9 5 10 4 11 3 12 2 13
REMARK SMILES IDX 1 14
REMARK H PARENT
REMARK Flexibility Score: inf
ROOT
ATOM      1  C   UNL     1      10.344  24.015  29.342  1.00  0.00     0.000 C 
ENDROOT
BRANCH   1   2
ATOM      2  C   UNL     1      10.740  22.715  28.617  1.00  0.00     0.000 C 
BRANCH   2   3
ATOM      3  C   UNL     1      12.262  22.521  28.541  1.00  0.00     0.000 C 
BRANCH   3   4
ATOM      4  C   UNL     1      12.836  22.871  27.158  1.00  0.00     0.006 C 
BRANCH   4   5
ATOM      5  C   UNL     1      11.764  22.838  26.061  1.00  0.00     0.053 C 
BRANCH   5   6
ATOM      6  C   UNL     1      11.858  21.596  25.227  1.00  0.00     0.041 C 
ATOM      7  O   UNL     1      11.091  20.623  25.451  1.00  0.00    -0.550 OA
ATOM      8  O   UNL     1      12.814  21.502  24.223  1.00  0.00    -0.550 OA
ENDBRANCH   5   6
ENDBRANCH   4   5
ENDBRANCH   3   4
ENDBRANCH   2   3
ENDBRANCH   1   2
BRANCH   1   9
ATOM      9  C   UNL     1       9.623  25.012  28.421  1.00  0.00     0.000 C 
BRANCH   9  10
ATOM     10  C   UNL     1      10.361  26.357  28.316  1.00  0.00    -0.000 C 
BRANCH  10  11
ATOM     11  C   UNL     1      11.284  26.430  27.087  1.00  0.00    -0.000 C 
BRANCH  11  12
ATOM     12  C   UNL     1      12.768  26.544  27.465  1.00  0.00    -0.000 C 
BRANCH  12  13
ATOM     13  C   UNL     1      12.934  26.763  28.974  1.00  0.00    -0.003 C 
ATOM     14  C   UNL     1      13.831  25.695  29.592  1.00  0.00     0.004 C 
ENDBRANCH  12  13
ENDBRANCH  11  12
ENDBRANCH  10  11
ENDBRANCH   9  10
ENDBRANCH   1   9
TORSDOF 10
ENDMDL
MODEL 5
REMARK VINA RESULT:    -2.055      2.217      4.092
REMARK INTER + INTRA:          -4.870
REMARK INTER:                  -3.214
REMARK INTRA:                  -1.656
REMARK UNBOUND:                -1.613
REMARK SMILES CCCCCCCCCCCC(=O)[O-]
REMARK SMILES IDX 7 1 8 2 9 3 10 4 11 5 12 6 13 7 14 8 6 9 5 10 4 11 3 12 2 13
REMARK SMILES IDX 1 14
REMARK H PARENT
REMARK Flexibility Score: inf
ROOT
ATOM      1  C   UNL     1      14.077  24.328  28.390  1.00  0.00     0.000 C 
ENDROOT
BRANCH   1   2
ATOM      2  C   UNL     1      13.351  23.003  28.689  1.00  0.00     0.000 C 
BRANCH   2   3
ATOM      3  C   UNL     1      12.616  22.443  27.462  1.00  0.00     0.000 C 
BRANCH   3   4
ATOM      4  C   UNL     1      11.103  22.290  27.697  1.00  0.00     0.006 C 
BRANCH   4   5
ATOM      5  C   UNL     1      10.759  22.165  29.187  1.00  0.00     0.053 C 
BRANCH   5   6
ATOM      6  C   UNL     1      10.618  20.734  29.609  1.00  0.00     0.041 C 
ATOM      7  O   UNL     1      11.593  20.126  30.125  1.00  0.00    -0.550 OA
ATOM      8  O   UNL     1       9.419  20.061  29.402  1.00  0.00    -0.550 OA
ENDBRANCH   5   6
ENDBRANCH   4   5
ENDBRANCH   3   4
ENDBRANCH   2   3
ENDBRANCH   1   2
BRANCH   1   9
ATOM      9  C   UNL     1      13.844  25.390  29.476  1.00  0.00     0.000 C 
BRANCH   9  10
ATOM     10  C   UNL     1      12.358  25.545  29.840  1.00  0.00    -0.000 C 
BRANCH  10  11
ATOM     11  C   UNL     1      11.596  26.436  28.846  1.00  0.00    -0.000 C 
BRANCH  11  12
ATOM     12  C   UNL     1      10.218  25.868  28.473  1.00  0.00    -0.000 C 
BRANCH  12  13
ATOM     13  C   UNL     1      10.109  25.646  26.960  1.00  0.00    -0.003 C 
ATOM     14  C   UNL     1      11.381  26.091  26.243  1.00  0.00     0.004 C 
ENDBRANCH  12  13
ENDBRANCH  11  12
ENDBRANCH  10  11
ENDBRANCH   9  10
ENDBRANCH   1   9
TORSDOF 10
ENDMDL
MODEL 6
REMARK VINA RESULT:    -2.001      2.304      3.291
REMARK INTER + INTRA:          -4.783
REMARK INTER:                  -3.158
REMARK INTRA:                  -1.626
REMARK UNBOUND:                -1.613
REMARK SMILES CCCCCCCCCCCC(=O)[O-]
REMARK SMILES IDX 7 1 8 2 9 3 10 4 11 5 12 6 13 7 14 8 6 9 5 10 4 11 3 12 2 13
REMARK SMILES IDX 1 14
REMARK H PARENT
REMARK Flexibility Score: inf
ROOT
ATOM      1  C   UNL     1      10.985  23.225  27.797  1.00  0.00     0.000 C 
ENDROOT
BRANCH   1   2
ATOM      2  C   UNL     1      12.520  23.281  27.893  1.00  0.00     0.000 C 
BRANCH   2   3
ATOM      3  C   UNL     1      13.170  23.883  26.637  1.00  0.00     0.000 C 
BRANCH   3   4
ATOM      4  C   UNL     1      12.138  24.494  25.673  1.00  0.00     0.006 C 
BRANCH   4   5
ATOM      5  C   UNL     1      12.688  25.724  24.939  1.00  0.00     0.053 C 
BRANCH   5   6
ATOM      6  C   UNL     1      11.616  26.448  24.184  1.00  0.00     0.041 C 
ATOM      7  O   UNL     1      10.437  26.475  24.626  1.00  0.00    -0.550 OA
ATOM      8  O   UNL     1      11.912  27.066  22.975  1.00  0.00    -0.550 OA
ENDBRANCH   5   6
ENDBRANCH   4   5
ENDBRANCH   3   4
ENDBRANCH   2   3
ENDBRANCH   1   2
BRANCH   1   9
ATOM      9  C   UNL     1      10.291  24.028  28.909  1.00  0.00     0.000 C 
BRANCH   9  10
ATOM     10  C   UNL     1       9.536  25.254  28.368  1.00  0.00    -0.000 C 
BRANCH  10  11
ATOM     11  C   UNL     1      10.454  26.471  28.168  1.00  0.00    -0.000 C 
BRANCH  11  12
ATOM     12  C   UNL     1      11.502  26.615  29.283  1.00  0.00    -0.000 C 
BRANCH  12  13
ATOM     13  C   UNL     1      12.873  26.979  28.701  1.00  0.00    -0.003 C 
ATOM     14  C   UNL     1      13.997  26.268  29.451  1.00  0.00     0.004 C 
ENDBRANCH  12  13
ENDBRANCH  11  12
ENDBRANCH  10  11
ENDBRANCH   9  10
ENDBRANCH   1   9
TORSDOF 10
ENDMDL
MODEL 7
REMARK VINA RESULT:    -1.989      2.221      3.344
REMARK INTER + INTRA:          -4.765
REMARK INTER:                  -3.397
REMARK INTRA:                  -1.367
REMARK UNBOUND:                -1.613
REMARK SMILES CCCCCCCCCCCC(=O)[O-]
REMARK SMILES IDX 7 1 8 2 9 3 10 4 11 5 12 6 13 7 14 8 6 9 5 10 4 11 3 12 2 13
REMARK SMILES IDX 1 14
REMARK H PARENT
REMARK Flexibility Score: inf
ROOT
ATOM      1  C   UNL     1      11.229  26.454  27.202  1.00  0.00     0.000 C 
ENDROOT
BRANCH   1   2
ATOM      2  C   UNL     1      10.262  26.344  28.395  1.00  0.00     0.000 C 
BRANCH   2   3
ATOM      3  C   UNL     1       9.548  24.985  28.454  1.00  0.00     0.000 C 
BRANCH   3   4
ATOM      4  C   UNL     1      10.267  23.980  29.371  1.00  0.00     0.006 C 
BRANCH   4   5
ATOM      5  C   UNL     1      10.735  22.733  28.609  1.00  0.00     0.053 C 
BRANCH   5   6
ATOM      6  C   UNL     1      10.793  21.526  29.496  1.00  0.00     0.041 C 
ATOM      7  O   UNL     1       9.768  21.153  30.125  1.00  0.00    -0.550 OA
ATOM      8  O   UNL     1      11.987  20.834  29.652  1.00  0.00    -0.550 OA
ENDBRANCH   5   6
ENDBRANCH   4   5
ENDBRANCH   3   4
ENDBRANCH   2   3
ENDBRANCH   1   2
BRANCH   1   9
ATOM      9  C   UNL     1      12.702  26.509  27.636  1.00  0.00     0.000 C 
BRANCH   9  10
ATOM     10  C   UNL     1      12.868  26.491  29.165  1.00  0.00    -0.000 C 
BRANCH  10  11
ATOM     11  C   UNL     1      14.121  25.722  29.614  1.00  0.00    -0.000 C 
BRANCH  11  12
ATOM     12  C   UNL     1      13.849  24.228  29.850  1.00  0.00    -0.000 C 
BRANCH  12  13
ATOM     13  C   UNL     1      14.784  23.360  28.999  1.00  0.00    -0.003 C 
ATOM     14  C   UNL     1      14.181  23.080  27.625  1.00  0.00     0.004 C 
ENDBRANCH  12  13
ENDBRANCH  11  12
ENDBRANCH  10  11
ENDBRANCH   9  10
ENDBRANCH   1   9
TORSDOF 10
ENDMDL
MODEL 8
REMARK VINA RESULT:    -1.976      2.974      4.484
REMARK INTER + INTRA:          -4.744
REMARK INTER:                  -3.172
REMARK INTRA:                  -1.572
REMARK UNBOUND:                -1.613
REMARK SMILES CCCCCCCCCCCC(=O)[O-]
REMARK SMILES IDX 7 1 8 2 9 3 10 4 11 5 12 6 13 7 14 8 6 9 5 10 4 11 3 12 2 13
REMARK SMILES IDX 1 14
REMARK H PARENT
REMARK Flexibility Score: inf
ROOT
ATOM      1  C   UNL     1      12.119  25.521  25.412  1.00  0.00     0.000 C 
ENDROOT
BRANCH   1   2
ATOM      2  C   UNL     1      12.648  24.221  26.046  1.00  0.00     0.000 C 
BRANCH   2   3
ATOM      3  C   UNL     1      14.046  24.389  26.661  1.00  0.00     0.000 C 
BRANCH   3   4
ATOM      4  C   UNL     1      14.047  24.197  28.187  1.00  0.00     0.006 C 
BRANCH   4   5
ATOM      5  C   UNL     1      13.976  25.532  28.940  1.00  0.00     0.053 C 
BRANCH   5   6
ATOM      6  C   UNL     1      15.246  25.822  29.681  1.00  0.00     0.041 C 
ATOM      7  O   UNL     1      15.470  26.980  30.125  1.00  0.00    -0.550 OA
ATOM      8  O   UNL     1      16.196  24.823  29.854  1.00  0.00    -0.550 OA
ENDBRANCH   5   6
ENDBRANCH   4   5
ENDBRANCH   3   4
ENDBRANCH   2   3
ENDBRANCH   1   2
BRANCH   1   9
ATOM      9  C   UNL     1      10.829  26.025  26.080  1.00  0.00     0.000 C 
BRANCH   9  10
ATOM     10  C   UNL     1      11.106  26.862  27.341  1.00  0.00    -0.000 C 
BRANCH  10  11
ATOM     11  C   UNL     1      10.326  26.358  28.567  1.00  0.00    -0.000 C 
BRANCH  11  12
ATOM     12  C   UNL     1       9.753  24.947  28.368  1.00  0.00    -0.000 C 
BRANCH  12  13
ATOM     13  C   UNL     1      10.421  23.946  29.317  1.00  0.00    -0.003 C 
ATOM     14  C   UNL     1      10.640  22.598  28.635  1.00  0.00     0.004 C 
ENDBRANCH  12  13
ENDBRANCH  11  12
ENDBRANCH  10  11
ENDBRANCH   9  10
ENDBRANCH   1   9
TORSDOF 10
ENDMDL
MODEL 9
REMARK VINA RESULT:    -1.959     24.029     25.625
REMARK INTER + INTRA:          -4.717
REMARK INTER:                  -3.103
REMARK INTRA:                  -1.614
REMARK UNBOUND:                -1.613
REMARK SMILES CCCCCCCCCCCC(=O)[O-]
REMARK SMILES IDX 7 1 8 2 9 3 10 4 11 5 12 6 13 7 14 8 6 9 5 10 4 11 3 12 2 13
REMARK SMILES IDX 1 14
REMARK H PARENT
REMARK Flexibility Score: inf
ROOT
ATOM      1  C   UNL     1      26.748  13.016  12.220  1.00  0.00     0.000 C 
ENDROOT
BRANCH   1   2
ATOM      2  C   UNL     1      26.906  12.264  13.554  1.00  0.00     0.000 C 
BRANCH   2   3
ATOM      3  C   UNL     1      28.289  11.612  13.705  1.00  0.00     0.000 C 
BRANCH   3   4
ATOM      4  C   UNL     1      28.230  10.267  14.450  1.00  0.00     0.006 C 
BRANCH   4   5
ATOM      5  C   UNL     1      26.823   9.959  14.980  1.00  0.00     0.053 C 
BRANCH   5   6
ATOM      6  C   UNL     1      26.743   8.591  15.586  1.00  0.00     0.041 C 
ATOM      7  O   UNL     1      27.017   8.420  16.803  1.00  0.00    -0.550 OA
ATOM      8  O   UNL     1      26.396   7.500  14.798  1.00  0.00    -0.550 OA
ENDBRANCH   5   6
ENDBRANCH   4   5
ENDBRANCH   3   4
ENDBRANCH   2   3
ENDBRANCH   1   2
BRANCH   1   9
ATOM      9  C   UNL     1      27.996  12.912  11.329  1.00  0.00     0.000 C 
BRANCH   9  10
ATOM     10  C   UNL     1      27.664  12.449   9.900  1.00  0.00    -0.000 C 
BRANCH  10  11
ATOM     11  C   UNL     1      26.803  11.175   9.878  1.00  0.00    -0.000 C 
BRANCH  11  12
ATOM     12  C   UNL     1      27.591   9.917  10.271  1.00  0.00    -0.000 C 
BRANCH  12  13
ATOM     13  C   UNL     1      26.846   9.118  11.346  1.00  0.00    -0.003 C 
ATOM     14  C   UNL     1      25.377   9.525  11.419  1.00  0.00     0.004 C 
ENDBRANCH  12  13
ENDBRANCH  11  12
ENDBRANCH  10  11
ENDBRANCH   9  10
ENDBRANCH   1   9
TORSDOF 10
ENDMDL
