MODEL 1
REMARK VINA RESULT:    -8.145      0.000      0.000
REMARK INTER + INTRA:         -15.445
REMARK INTER:                 -13.383
REMARK INTRA:                  -2.063
REMARK UNBOUND:                -2.063
REMARK SMILES C[C@@H]1O[C@@H](OC[C@H]2O[C@@H](Oc3c(-c4ccc(O)c(O)c4)oc4cc(O)cc(O)c4c3=O)[C@@H](O)[C@H](O)[C@H]2O)[C@H](O)[C@H](O)[C@@H]1O
REMARK SMILES IDX 7 1 36 2 34 3 32 4 9 5 8 6 6 7 5 8 4 9 1 10 2 11 42 12 3 13
REMARK SMILES IDX 40 14 38 15 43 16 41 18 39 20 37 22 35 24 10 26 11 27 12 28
REMARK SMILES IDX 30 29 21 30 29 31 31 32 22 33 27 34 23 35 26 36 24 37 13 38
REMARK SMILES IDX 20 39 14 40 18 41 15 42 16 43 19 44 17 46 28 48 25 50 33 52
REMARK H PARENT 43 17 41 19 39 21 37 23 35 25 19 45 17 47 28 49 25 51 33 53
REMARK Flexibility Score: inf
ROOT
ATOM      1  C   UNL     1       5.553  -3.112  -7.926  1.00  0.00     0.180 C 
ATOM      2  C   UNL     1       4.677  -4.040  -8.798  1.00  0.00     0.177 C 
ATOM      3  C   UNL     1       4.591  -5.475  -8.200  1.00  0.00     0.180 C 
ATOM      4  C   UNL     1       5.597  -5.682  -7.047  1.00  0.00     0.214 C 
ATOM      5  C   UNL     1       5.615  -4.495  -6.029  1.00  0.00     0.339 C 
ATOM      6  O   UNL     1       5.171  -3.257  -6.572  1.00  0.00    -0.332 OA
ENDROOT
BRANCH   1   7
ATOM      7  C   UNL     1       5.440  -1.626  -8.327  1.00  0.00     0.198 C 
BRANCH   7   8
ATOM      8  O   UNL     1       4.861  -0.870  -7.279  1.00  0.00    -0.347 OA
BRANCH   8   9
ATOM      9  C   UNL     1       5.817  -0.032  -6.657  1.00  0.00     0.281 C 
ATOM     10  C   UNL     1       8.484  -0.017  -5.217  1.00  0.00     0.041 C 
ATOM     11  C   UNL     1       7.068   0.220  -4.670  1.00  0.00     0.150 C 
ATOM     12  C   UNL     1       6.669   1.709  -4.519  1.00  0.00     0.174 C 
ATOM     13  O   UNL     1       6.081  -0.536  -5.360  1.00  0.00    -0.344 OA
ATOM     14  C   UNL     1       6.231   2.330  -5.861  1.00  0.00     0.179 C 
ATOM     15  C   UNL     1       5.236   1.386  -6.568  1.00  0.00     0.202 C 
BRANCH  12  16
ATOM     16  O   UNL     1       7.715   2.448  -3.942  1.00  0.00    -0.388 OA
ATOM     17  H   UNL     1       7.470   2.606  -2.997  1.00  0.00     0.211 HD
ENDBRANCH  12  16
BRANCH  14  18
ATOM     18  O   UNL     1       7.344   2.569  -6.691  1.00  0.00    -0.387 OA
ATOM     19  H   UNL     1       7.123   2.200  -7.591  1.00  0.00     0.211 HD
ENDBRANCH  14  18
BRANCH  15  20
ATOM     20  O   UNL     1       4.957   1.858  -7.861  1.00  0.00    -0.385 OA
ATOM     21  H   UNL     1       4.299   1.234  -8.259  1.00  0.00     0.211 HD
ENDBRANCH  15  20
ENDBRANCH   8   9
ENDBRANCH   7   8
ENDBRANCH   1   7
BRANCH   2  22
ATOM     22  O   UNL     1       3.372  -3.513  -8.890  1.00  0.00    -0.387 OA
ATOM     23  H   UNL     1       2.928  -3.665  -8.012  1.00  0.00     0.211 HD
ENDBRANCH   2  22
BRANCH   3  24
ATOM     24  O   UNL     1       4.869  -6.427  -9.203  1.00  0.00    -0.387 OA
ATOM     25  H   UNL     1       4.705  -7.323  -8.804  1.00  0.00     0.211 HD
ENDBRANCH   3  24
BRANCH   5  26
ATOM     26  O   UNL     1       4.787  -4.811  -4.910  1.00  0.00    -0.454 OA
BRANCH  26  27
ATOM     27  C   UNL     1       4.473  -3.943  -3.849  1.00  0.00     0.214 A 
ATOM     28  C   UNL     1       3.130  -3.834  -3.446  1.00  0.00     0.180 A 
ATOM     29  C   UNL     1       5.451  -3.222  -3.134  1.00  0.00     0.239 A 
ATOM     30  O   UNL     1       2.817  -3.125  -2.369  1.00  0.00    -0.452 OA
ATOM     31  C   UNL     1       5.066  -2.409  -2.046  1.00  0.00     0.111 A 
ATOM     32  O   UNL     1       6.663  -3.377  -3.420  1.00  0.00    -0.285 OA
ATOM     33  C   UNL     1       3.706  -2.447  -1.657  1.00  0.00     0.146 A 
ATOM     34  C   UNL     1       5.971  -1.607  -1.289  1.00  0.00     0.134 A 
ATOM     35  C   UNL     1       3.275  -1.777  -0.510  1.00  0.00     0.094 A 
ATOM     36  C   UNL     1       5.524  -0.984  -0.115  1.00  0.00     0.093 A 
ATOM     37  C   UNL     1       4.191  -1.077   0.285  1.00  0.00     0.123 A 
BRANCH  28  38
ATOM     38  C   UNL     1       2.047  -4.488  -4.207  1.00  0.00     0.025 A 
ATOM     39  C   UNL     1       2.065  -4.465  -5.608  1.00  0.00     0.062 A 
ATOM     40  C   UNL     1       1.003  -5.164  -3.539  1.00  0.00     0.016 A 
ATOM     41  C   UNL     1       1.041  -5.081  -6.339  1.00  0.00     0.158 A 
ATOM     42  C   UNL     1      -0.005  -5.802  -4.267  1.00  0.00     0.051 A 
ATOM     43  C   UNL     1       0.011  -5.767  -5.663  1.00  0.00     0.157 A 
BRANCH  41  44
ATOM     44  O   UNL     1       1.028  -5.013  -7.733  1.00  0.00    -0.504 OA
ATOM     45  H   UNL     1       0.204  -4.724  -8.249  1.00  0.00     0.293 HD
ENDBRANCH  41  44
BRANCH  43  46
ATOM     46  O   UNL     1      -0.997  -6.427  -6.367  1.00  0.00    -0.504 OA
ATOM     47  H   UNL     1      -0.801  -7.053  -7.139  1.00  0.00     0.293 HD
ENDBRANCH  43  46
ENDBRANCH  28  38
BRANCH  34  48
ATOM     48  O   UNL     1       7.302  -1.379  -1.652  1.00  0.00    -0.507 OA
ATOM     49  H   UNL     1       7.753  -0.475  -1.646  1.00  0.00     0.293 HD
ENDBRANCH  34  48
BRANCH  37  50
ATOM     50  O   UNL     1       3.788  -0.494   1.491  1.00  0.00    -0.508 OA
ATOM     51  H   UNL     1       4.068  -0.890   2.381  1.00  0.00     0.293 HD
ENDBRANCH  37  50
ENDBRANCH  26  27
ENDBRANCH   5  26
BRANCH   4  52
ATOM     52  O   UNL     1       5.395  -6.916  -6.398  1.00  0.00    -0.384 OA
ATOM     53  H   UNL     1       4.561  -7.326  -6.739  1.00  0.00     0.211 HD
ENDBRANCH   4  52
TORSDOF 16
ENDMDL
MODEL 2
REMARK VINA RESULT:    -8.125      7.280     12.666
REMARK INTER + INTRA:         -15.412
REMARK INTER:                 -13.330
REMARK INTRA:                  -2.082
REMARK UNBOUND:                -2.063
REMARK SMILES C[C@@H]1O[C@@H](OC[C@H]2O[C@@H](Oc3c(-c4ccc(O)c(O)c4)oc4cc(O)cc(O)c4c3=O)[C@@H](O)[C@H](O)[C@H]2O)[C@H](O)[C@H](O)[C@@H]1O
REMARK SMILES IDX 7 1 36 2 34 3 32 4 9 5 8 6 6 7 5 8 4 9 1 10 2 11 42 12 3 13
REMARK SMILES IDX 40 14 38 15 43 16 41 18 39 20 37 22 35 24 10 26 11 27 12 28
REMARK SMILES IDX 30 29 21 30 29 31 31 32 22 33 27 34 23 35 26 36 24 37 13 38
REMARK SMILES IDX 20 39 14 40 18 41 15 42 16 43 19 44 17 46 28 48 25 50 33 52
REMARK H PARENT 43 17 41 19 39 21 37 23 35 25 19 45 17 47 28 49 25 51 33 53
REMARK Flexibility Score: inf
ROOT
ATOM      1  C   UNL     1      -8.814  -8.295  -3.922  1.00  0.00     0.180 C 
ATOM      2  C   UNL     1      -9.508  -9.225  -2.900  1.00  0.00     0.177 C 
ATOM      3  C   UNL     1      -8.890 -10.654  -2.916  1.00  0.00     0.180 C 
ATOM      4  C   UNL     1      -7.932 -10.857  -4.109  1.00  0.00     0.214 C 
ATOM      5  C   UNL     1      -6.945  -9.661  -4.312  1.00  0.00     0.339 C 
ATOM      6  O   UNL     1      -7.413  -8.424  -3.785  1.00  0.00    -0.332 OA
ENDROOT
BRANCH   1   7
ATOM      7  C   UNL     1      -9.204  -6.812  -3.746  1.00  0.00     0.198 C 
BRANCH   7   8
ATOM      8  O   UNL     1      -8.074  -6.039  -3.383  1.00  0.00    -0.347 OA
BRANCH   8   9
ATOM      9  C   UNL     1      -7.651  -5.209  -4.448  1.00  0.00     0.281 C 
ATOM     10  C   UNL     1      -6.767  -5.216  -7.348  1.00  0.00     0.041 C 
ATOM     11  C   UNL     1      -5.950  -4.973  -6.069  1.00  0.00     0.150 C 
ATOM     12  C   UNL     1      -5.719  -3.482  -5.718  1.00  0.00     0.174 C 
ATOM     13  O   UNL     1      -6.434  -5.720  -4.961  1.00  0.00    -0.344 OA
ATOM     14  C   UNL     1      -6.946  -2.854  -5.027  1.00  0.00     0.179 C 
ATOM     15  C   UNL     1      -7.445  -3.789  -3.906  1.00  0.00     0.202 C 
BRANCH  12  16
ATOM     16  O   UNL     1      -5.358  -2.752  -6.862  1.00  0.00    -0.388 OA
ATOM     17  H   UNL     1      -6.194  -2.528  -7.338  1.00  0.00     0.211 HD
ENDBRANCH  12  16
BRANCH  14  18
ATOM     18  O   UNL     1      -7.980  -2.618  -5.956  1.00  0.00    -0.387 OA
ATOM     19  H   UNL     1      -8.200  -3.494  -6.377  1.00  0.00     0.211 HD
ENDBRANCH  14  18
BRANCH  15  20
ATOM     20  O   UNL     1      -8.656  -3.310  -3.380  1.00  0.00    -0.385 OA
ATOM     21  H   UNL     1      -8.836  -2.441  -3.819  1.00  0.00     0.211 HD
ENDBRANCH  15  20
ENDBRANCH   8   9
ENDBRANCH   7   8
ENDBRANCH   1   7
BRANCH   2  22
ATOM     22  O   UNL     1      -9.373  -8.691  -1.602  1.00  0.00    -0.387 OA
ATOM     23  H   UNL     1      -9.919  -9.254  -0.991  1.00  0.00     0.211 HD
ENDBRANCH   2  22
BRANCH   3  24
ATOM     24  O   UNL     1      -9.917 -11.617  -3.007  1.00  0.00    -0.387 OA
ATOM     25  H   UNL     1      -9.885 -12.153  -2.170  1.00  0.00     0.211 HD
ENDBRANCH   3  24
BRANCH   5  26
ATOM     26  O   UNL     1      -5.694  -9.961  -3.695  1.00  0.00    -0.454 OA
BRANCH  26  27
ATOM     27  C   UNL     1      -4.600  -9.083  -3.584  1.00  0.00     0.214 A 
ATOM     28  C   UNL     1      -3.956  -8.968  -2.339  1.00  0.00     0.180 A 
ATOM     29  C   UNL     1      -4.085  -8.359  -4.678  1.00  0.00     0.239 A 
ATOM     30  O   UNL     1      -2.846  -8.250  -2.231  1.00  0.00    -0.452 OA
ATOM     31  C   UNL     1      -2.952  -7.537  -4.502  1.00  0.00     0.111 A 
ATOM     32  O   UNL     1      -4.590  -8.520  -5.816  1.00  0.00    -0.285 OA
ATOM     33  C   UNL     1      -2.317  -7.568  -3.238  1.00  0.00     0.146 A 
ATOM     34  C   UNL     1      -2.382  -6.732  -5.533  1.00  0.00     0.134 A 
ATOM     35  C   UNL     1      -1.115  -6.887  -3.028  1.00  0.00     0.094 A 
ATOM     36  C   UNL     1      -1.151  -6.097  -5.312  1.00  0.00     0.093 A 
ATOM     37  C   UNL     1      -0.510  -6.184  -4.075  1.00  0.00     0.123 A 
BRANCH  28  38
ATOM     38  C   UNL     1      -4.498  -9.625  -1.133  1.00  0.00     0.025 A 
ATOM     39  C   UNL     1      -5.872  -9.568  -0.864  1.00  0.00     0.062 A 
ATOM     40  C   UNL     1      -3.650 -10.338  -0.257  1.00  0.00     0.016 A 
ATOM     41  C   UNL     1      -6.396 -10.187   0.279  1.00  0.00     0.158 A 
ATOM     42  C   UNL     1      -4.174 -10.978   0.869  1.00  0.00     0.051 A 
ATOM     43  C   UNL     1      -5.542 -10.910   1.139  1.00  0.00     0.157 A 
BRANCH  41  44
ATOM     44  O   UNL     1      -7.755 -10.087   0.578  1.00  0.00    -0.504 OA
ATOM     45  H   UNL     1      -8.342  -9.367   0.172  1.00  0.00     0.293 HD
ENDBRANCH  41  44
BRANCH  43  46
ATOM     46  O   UNL     1      -6.044 -11.573   2.260  1.00  0.00    -0.504 OA
ATOM     47  H   UNL     1      -5.530 -12.307   2.732  1.00  0.00     0.293 HD
ENDBRANCH  43  46
ENDBRANCH  28  38
BRANCH  34  48
ATOM     48  O   UNL     1      -2.987  -6.510  -6.774  1.00  0.00    -0.507 OA
ATOM     49  H   UNL     1      -3.466  -7.217  -7.315  1.00  0.00     0.293 HD
ENDBRANCH  34  48
BRANCH  37  50
ATOM     50  O   UNL     1       0.745  -5.590  -3.904  1.00  0.00    -0.508 OA
ATOM     51  H   UNL     1       1.583  -6.027  -4.271  1.00  0.00     0.293 HD
ENDBRANCH  37  50
ENDBRANCH  26  27
ENDBRANCH   5  26
BRANCH   4  52
ATOM     52  O   UNL     1      -7.244 -12.084  -4.020  1.00  0.00    -0.384 OA
ATOM     53  H   UNL     1      -7.737 -12.766  -4.540  1.00  0.00     0.211 HD
ENDBRANCH   4  52
TORSDOF 16
ENDMDL
MODEL 3
REMARK VINA RESULT:    -8.104      7.137     12.528
REMARK INTER + INTRA:         -15.378
REMARK INTER:                 -13.313
REMARK INTRA:                  -2.066
REMARK UNBOUND:                -2.063
REMARK SMILES C[C@@H]1O[C@@H](OC[C@H]2O[C@@H](Oc3c(-c4ccc(O)c(O)c4)oc4cc(O)cc(O)c4c3=O)[C@@H](O)[C@H](O)[C@H]2O)[C@H](O)[C@H](O)[C@@H]1O
REMARK SMILES IDX 7 1 36 2 34 3 32 4 9 5 8 6 6 7 5 8 4 9 1 10 2 11 42 12 3 13
REMARK SMILES IDX 40 14 38 15 43 16 41 18 39 20 37 22 35 24 10 26 11 27 12 28
REMARK SMILES IDX 30 29 21 30 29 31 31 32 22 33 27 34 23 35 26 36 24 37 13 38
REMARK SMILES IDX 20 39 14 40 18 41 15 42 16 43 19 44 17 46 28 48 25 50 33 52
REMARK H PARENT 43 17 41 19 39 21 37 23 35 25 19 45 17 47 28 49 25 51 33 53
REMARK Flexibility Score: inf
ROOT
ATOM      1  C   UNL     1       6.819   1.889   6.849  1.00  0.00     0.180 C 
ATOM      2  C   UNL     1       7.848   0.977   6.144  1.00  0.00     0.177 C 
ATOM      3  C   UNL     1       7.285  -0.459   5.927  1.00  0.00     0.180 C 
ATOM      4  C   UNL     1       5.963  -0.684   6.691  1.00  0.00     0.214 C 
ATOM      5  C   UNL     1       4.954   0.499   6.530  1.00  0.00     0.339 C 
ATOM      6  O   UNL     1       5.564   1.746   6.214  1.00  0.00    -0.332 OA
ENDROOT
BRANCH   1   7
ATOM      7  C   UNL     1       7.226   3.377   6.835  1.00  0.00     0.198 C 
BRANCH   7   8
ATOM      8  O   UNL     1       6.297   4.140   6.085  1.00  0.00    -0.347 OA
BRANCH   8   9
ATOM      9  C   UNL     1       5.514   4.971   6.922  1.00  0.00     0.281 C 
ATOM     10  C   UNL     1       3.648   4.967   9.311  1.00  0.00     0.041 C 
ATOM     11  C   UNL     1       3.344   5.199   7.822  1.00  0.00     0.150 C 
ATOM     12  C   UNL     1       3.244   6.687   7.402  1.00  0.00     0.174 C 
ATOM     13  O   UNL     1       4.198   4.451   6.966  1.00  0.00    -0.344 OA
ATOM     14  C   UNL     1       4.634   7.323   7.195  1.00  0.00     0.179 C 
ATOM     15  C   UNL     1       5.508   6.387   6.333  1.00  0.00     0.202 C 
BRANCH  12  16
ATOM     16  O   UNL     1       2.492   7.417   8.335  1.00  0.00    -0.388 OA
ATOM     17  H   UNL     1       1.899   8.019   7.822  1.00  0.00     0.211 HD
ENDBRANCH  12  16
BRANCH  14  18
ATOM     18  O   UNL     1       5.263   7.570   8.431  1.00  0.00    -0.387 OA
ATOM     19  H   UNL     1       4.553   7.853   9.070  1.00  0.00     0.211 HD
ENDBRANCH  14  18
BRANCH  15  20
ATOM     20  O   UNL     1       6.825   6.875   6.275  1.00  0.00    -0.385 OA
ATOM     21  H   UNL     1       6.836   7.731   6.771  1.00  0.00     0.211 HD
ENDBRANCH  15  20
ENDBRANCH   8   9
ENDBRANCH   7   8
ENDBRANCH   1   7
BRANCH   2  22
ATOM     22  O   UNL     1       8.184   1.522   4.888  1.00  0.00    -0.387 OA
ATOM     23  H   UNL     1       8.159   0.779   4.226  1.00  0.00     0.211 HD
ENDBRANCH   2  22
BRANCH   3  24
ATOM     24  O   UNL     1       8.223  -1.412   6.378  1.00  0.00    -0.387 OA
ATOM     25  H   UNL     1       8.162  -1.429   7.370  1.00  0.00     0.211 HD
ENDBRANCH   3  24
BRANCH   5  26
ATOM     26  O   UNL     1       4.015   0.192   5.499  1.00  0.00    -0.454 OA
BRANCH  26  27
ATOM     27  C   UNL     1       3.024   1.059   5.004  1.00  0.00     0.214 A 
ATOM     28  C   UNL     1       2.865   1.169   3.612  1.00  0.00     0.180 A 
ATOM     29  C   UNL     1       2.147   1.777   5.842  1.00  0.00     0.239 A 
ATOM     30  O   UNL     1       1.860   1.877   3.114  1.00  0.00    -0.452 OA
ATOM     31  C   UNL     1       1.143   2.589   5.271  1.00  0.00     0.111 A 
ATOM     32  O   UNL     1       2.214   1.620   7.085  1.00  0.00    -0.285 OA
ATOM     33  C   UNL     1       1.000   2.553   3.864  1.00  0.00     0.146 A 
ATOM     34  C   UNL     1       0.236   3.388   6.029  1.00  0.00     0.134 A 
ATOM     35  C   UNL     1      -0.054   3.222   3.238  1.00  0.00     0.094 A 
ATOM     36  C   UNL     1      -0.842   4.010   5.383  1.00  0.00     0.093 A 
ATOM     37  C   UNL     1      -0.999   3.919   4.000  1.00  0.00     0.123 A 
BRANCH  28  38
ATOM     38  C   UNL     1       3.807   0.519   2.679  1.00  0.00     0.025 A 
ATOM     39  C   UNL     1       5.186   0.589   2.917  1.00  0.00     0.062 A 
ATOM     40  C   UNL     1       3.333  -0.201   1.560  1.00  0.00     0.016 A 
ATOM     41  C   UNL     1       6.089  -0.023   2.037  1.00  0.00     0.158 A 
ATOM     42  C   UNL     1       4.230  -0.835   0.696  1.00  0.00     0.051 A 
ATOM     43  C   UNL     1       5.604  -0.753   0.932  1.00  0.00     0.157 A 
BRANCH  41  44
ATOM     44  O   UNL     1       7.464   0.091   2.241  1.00  0.00    -0.504 OA
ATOM     45  H   UNL     1       7.853   0.701   2.951  1.00  0.00     0.293 HD
ENDBRANCH  41  44
BRANCH  43  46
ATOM     46  O   UNL     1       6.478  -1.411   0.064  1.00  0.00    -0.504 OA
ATOM     47  H   UNL     1       7.246  -1.982   0.396  1.00  0.00     0.293 HD
ENDBRANCH  43  46
ENDBRANCH  28  38
BRANCH  34  48
ATOM     48  O   UNL     1       0.357   3.613   7.404  1.00  0.00    -0.507 OA
ATOM     49  H   UNL     1       0.591   4.503   7.822  1.00  0.00     0.293 HD
ENDBRANCH  34  48
BRANCH  37  50
ATOM     50  O   UNL     1      -2.116   4.501   3.391  1.00  0.00    -0.508 OA
ATOM     51  H   UNL     1      -2.254   5.506   3.407  1.00  0.00     0.293 HD
ENDBRANCH  37  50
ENDBRANCH  26  27
ENDBRANCH   5  26
BRANCH   4  52
ATOM     52  O   UNL     1       5.371  -1.917   6.352  1.00  0.00    -0.384 OA
ATOM     53  H   UNL     1       4.393  -1.792   6.270  1.00  0.00     0.211 HD
ENDBRANCH   4  52
TORSDOF 16
ENDMDL
MODEL 4
REMARK VINA RESULT:    -7.984      6.732     12.480
REMARK INTER + INTRA:         -15.181
REMARK INTER:                 -13.209
REMARK INTRA:                  -1.972
REMARK UNBOUND:                -2.063
REMARK SMILES C[C@@H]1O[C@@H](OC[C@H]2O[C@@H](Oc3c(-c4ccc(O)c(O)c4)oc4cc(O)cc(O)c4c3=O)[C@@H](O)[C@H](O)[C@H]2O)[C@H](O)[C@H](O)[C@@H]1O
REMARK SMILES IDX 7 1 36 2 34 3 32 4 9 5 8 6 6 7 5 8 4 9 1 10 2 11 42 12 3 13
REMARK SMILES IDX 40 14 38 15 43 16 41 18 39 20 37 22 35 24 10 26 11 27 12 28
REMARK SMILES IDX 30 29 21 30 29 31 31 32 22 33 27 34 23 35 26 36 24 37 13 38
REMARK SMILES IDX 20 39 14 40 18 41 15 42 16 43 19 44 17 46 28 48 25 50 33 52
REMARK H PARENT 43 17 41 19 39 21 37 23 35 25 19 45 17 47 28 49 25 51 33 53
REMARK Flexibility Score: inf
ROOT
ATOM      1  C   UNL     1       6.760   1.787   6.875  1.00  0.00     0.180 C 
ATOM      2  C   UNL     1       8.266   2.114   6.753  1.00  0.00     0.177 C 
ATOM      3  C   UNL     1       8.943   1.281   5.625  1.00  0.00     0.180 C 
ATOM      4  C   UNL     1       8.017   0.166   5.093  1.00  0.00     0.214 C 
ATOM      5  C   UNL     1       6.557   0.659   4.825  1.00  0.00     0.339 C 
ATOM      6  O   UNL     1       6.180   1.802   5.586  1.00  0.00    -0.332 OA
ENDROOT
BRANCH   1   7
ATOM      7  C   UNL     1       6.001   2.778   7.782  1.00  0.00     0.198 C 
BRANCH   7   8
ATOM      8  O   UNL     1       5.535   3.885   7.031  1.00  0.00    -0.347 OA
BRANCH   8   9
ATOM      9  C   UNL     1       4.763   4.763   7.828  1.00  0.00     0.281 C 
ATOM     10  C   UNL     1       2.788   4.879  10.124  1.00  0.00     0.041 C 
ATOM     11  C   UNL     1       2.568   5.120   8.623  1.00  0.00     0.150 C 
ATOM     12  C   UNL     1       2.576   6.610   8.196  1.00  0.00     0.174 C 
ATOM     13  O   UNL     1       3.417   4.321   7.810  1.00  0.00    -0.344 OA
ATOM     14  C   UNL     1       4.008   7.163   8.054  1.00  0.00     0.179 C 
ATOM     15  C   UNL     1       4.867   6.175   7.237  1.00  0.00     0.202 C 
BRANCH  12  16
ATOM     16  O   UNL     1       1.823   7.387   9.090  1.00  0.00    -0.388 OA
ATOM     17  H   UNL     1       2.460   7.967   9.576  1.00  0.00     0.211 HD
ENDBRANCH  12  16
BRANCH  14  18
ATOM     18  O   UNL     1       4.591   7.379   9.318  1.00  0.00    -0.387 OA
ATOM     19  H   UNL     1       5.576   7.264   9.210  1.00  0.00     0.211 HD
ENDBRANCH  14  18
BRANCH  15  20
ATOM     20  O   UNL     1       6.211   6.585   7.240  1.00  0.00    -0.385 OA
ATOM     21  H   UNL     1       6.582   6.359   6.350  1.00  0.00     0.211 HD
ENDBRANCH  15  20
ENDBRANCH   8   9
ENDBRANCH   7   8
ENDBRANCH   1   7
BRANCH   2  22
ATOM     22  O   UNL     1       8.433   3.483   6.463  1.00  0.00    -0.387 OA
ATOM     23  H   UNL     1       9.383   3.617   6.199  1.00  0.00     0.211 HD
ENDBRANCH   2  22
BRANCH   3  24
ATOM     24  O   UNL     1      10.119   0.678   6.118  1.00  0.00    -0.387 OA
ATOM     25  H   UNL     1      10.882   1.232   5.800  1.00  0.00     0.211 HD
ENDBRANCH   3  24
BRANCH   5  26
ATOM     26  O   UNL     1       6.404   0.977   3.442  1.00  0.00    -0.454 OA
BRANCH  26  27
ATOM     27  C   UNL     1       5.640   0.250   2.511  1.00  0.00     0.214 A 
ATOM     28  C   UNL     1       4.261   0.107   2.742  1.00  0.00     0.180 A 
ATOM     29  C   UNL     1       6.186  -0.291   1.329  1.00  0.00     0.239 A 
ATOM     30  O   UNL     1       3.491  -0.460   1.823  1.00  0.00    -0.452 OA
ATOM     31  C   UNL     1       5.346  -0.963   0.415  1.00  0.00     0.111 A 
ATOM     32  O   UNL     1       7.396  -0.093   1.062  1.00  0.00    -0.285 OA
ATOM     33  C   UNL     1       3.957  -0.965   0.689  1.00  0.00     0.146 A 
ATOM     34  C   UNL     1       5.806  -1.583  -0.785  1.00  0.00     0.134 A 
ATOM     35  C   UNL     1       3.051  -1.492  -0.234  1.00  0.00     0.094 A 
ATOM     36  C   UNL     1       4.874  -2.061  -1.716  1.00  0.00     0.093 A 
ATOM     37  C   UNL     1       3.504  -2.005  -1.455  1.00  0.00     0.123 A 
BRANCH  28  38
ATOM     38  C   UNL     1       3.643   0.568   4.001  1.00  0.00     0.025 A 
ATOM     39  C   UNL     1       3.002   1.812   4.050  1.00  0.00     0.062 A 
ATOM     40  C   UNL     1       3.665  -0.246   5.155  1.00  0.00     0.016 A 
ATOM     41  C   UNL     1       2.413   2.260   5.241  1.00  0.00     0.158 A 
ATOM     42  C   UNL     1       3.056   0.187   6.337  1.00  0.00     0.051 A 
ATOM     43  C   UNL     1       2.427   1.433   6.383  1.00  0.00     0.157 A 
BRANCH  41  44
ATOM     44  O   UNL     1       1.821   3.522   5.307  1.00  0.00    -0.504 OA
ATOM     45  H   UNL     1       2.234   4.333   4.862  1.00  0.00     0.293 HD
ENDBRANCH  41  44
BRANCH  43  46
ATOM     46  O   UNL     1       1.810   1.834   7.570  1.00  0.00    -0.504 OA
ATOM     47  H   UNL     1       1.761   1.236   8.386  1.00  0.00     0.293 HD
ENDBRANCH  43  46
ENDBRANCH  28  38
BRANCH  34  48
ATOM     48  O   UNL     1       7.156  -1.767  -1.099  1.00  0.00    -0.507 OA
ATOM     49  H   UNL     1       7.782  -2.390  -0.607  1.00  0.00     0.293 HD
ENDBRANCH  34  48
BRANCH  37  50
ATOM     50  O   UNL     1       2.597  -2.436  -2.428  1.00  0.00    -0.508 OA
ATOM     51  H   UNL     1       2.484  -1.926  -3.298  1.00  0.00     0.293 HD
ENDBRANCH  37  50
ENDBRANCH  26  27
ENDBRANCH   5  26
BRANCH   4  52
ATOM     52  O   UNL     1       8.564  -0.466   3.960  1.00  0.00    -0.384 OA
ATOM     53  H   UNL     1       7.874  -0.509   3.251  1.00  0.00     0.211 HD
ENDBRANCH   4  52
TORSDOF 16
ENDMDL
MODEL 5
REMARK VINA RESULT:    -7.087      1.806      5.234
REMARK INTER + INTRA:         -13.707
REMARK INTER:                 -13.132
REMARK INTRA:                  -0.575
REMARK UNBOUND:                -2.063
REMARK SMILES C[C@@H]1O[C@@H](OC[C@H]2O[C@@H](Oc3c(-c4ccc(O)c(O)c4)oc4cc(O)cc(O)c4c3=O)[C@@H](O)[C@H](O)[C@H]2O)[C@H](O)[C@H](O)[C@@H]1O
REMARK SMILES IDX 7 1 36 2 34 3 32 4 9 5 8 6 6 7 5 8 4 9 1 10 2 11 42 12 3 13
REMARK SMILES IDX 40 14 38 15 43 16 41 18 39 20 37 22 35 24 10 26 11 27 12 28
REMARK SMILES IDX 30 29 21 30 29 31 31 32 22 33 27 34 23 35 26 36 24 37 13 38
REMARK SMILES IDX 20 39 14 40 18 41 15 42 16 43 19 44 17 46 28 48 25 50 33 52
REMARK H PARENT 43 17 41 19 39 21 37 23 35 25 19 45 17 47 28 49 25 51 33 53
REMARK Flexibility Score: inf
ROOT
ATOM      1  C   UNL     1       4.986  -3.017  -7.776  1.00  0.00     0.180 C 
ATOM      2  C   UNL     1       4.729  -3.468  -9.232  1.00  0.00     0.177 C 
ATOM      3  C   UNL     1       3.798  -4.715  -9.288  1.00  0.00     0.180 C 
ATOM      4  C   UNL     1       3.579  -5.338  -7.893  1.00  0.00     0.214 C 
ATOM      5  C   UNL     1       3.265  -4.274  -6.790  1.00  0.00     0.339 C 
ATOM      6  O   UNL     1       3.754  -2.970  -7.084  1.00  0.00    -0.332 OA
ENDROOT
BRANCH   1   7
ATOM      7  C   UNL     1       5.669  -1.636  -7.686  1.00  0.00     0.198 C 
BRANCH   7   8
ATOM      8  O   UNL     1       5.406  -1.031  -6.432  1.00  0.00    -0.347 OA
BRANCH   8   9
ATOM      9  C   UNL     1       6.470  -0.189  -6.031  1.00  0.00     0.281 C 
ATOM     10  C   UNL     1       9.446  -0.116  -5.460  1.00  0.00     0.041 C 
ATOM     11  C   UNL     1       8.255  -0.039  -4.493  1.00  0.00     0.150 C 
ATOM     12  C   UNL     1       7.860   1.395  -4.059  1.00  0.00     0.174 C 
ATOM     13  O   UNL     1       7.137  -0.795  -4.939  1.00  0.00    -0.344 OA
ATOM     14  C   UNL     1       7.010   2.109  -5.130  1.00  0.00     0.179 C 
ATOM     15  C   UNL     1       5.887   1.166  -5.612  1.00  0.00     0.202 C 
BRANCH  12  16
ATOM     16  O   UNL     1       9.000   2.149  -3.739  1.00  0.00    -0.388 OA
ATOM     17  H   UNL     1       9.590   2.133  -4.532  1.00  0.00     0.211 HD
ENDBRANCH  12  16
BRANCH  14  18
ATOM     18  O   UNL     1       7.807   2.508  -6.221  1.00  0.00    -0.387 OA
ATOM     19  H   UNL     1       8.673   2.831  -5.848  1.00  0.00     0.211 HD
ENDBRANCH  14  18
BRANCH  15  20
ATOM     20  O   UNL     1       5.208   1.740  -6.700  1.00  0.00    -0.385 OA
ATOM     21  H   UNL     1       4.764   2.558  -6.363  1.00  0.00     0.211 HD
ENDBRANCH  15  20
ENDBRANCH   8   9
ENDBRANCH   7   8
ENDBRANCH   1   7
BRANCH   2  22
ATOM     22  O   UNL     1       4.121  -2.421  -9.954  1.00  0.00    -0.387 OA
ATOM     23  H   UNL     1       3.315  -2.797 -10.400  1.00  0.00     0.211 HD
ENDBRANCH   2  22
BRANCH   3  24
ATOM     24  O   UNL     1       4.367  -5.698 -10.125  1.00  0.00    -0.387 OA
ATOM     25  H   UNL     1       4.481  -6.517  -9.573  1.00  0.00     0.211 HD
ENDBRANCH   3  24
BRANCH   5  26
ATOM     26  O   UNL     1       1.854  -4.186  -6.597  1.00  0.00    -0.454 OA
BRANCH  26  27
ATOM     27  C   UNL     1       1.101  -4.938  -5.677  1.00  0.00     0.214 A 
ATOM     28  C   UNL     1       1.518  -4.969  -4.335  1.00  0.00     0.180 A 
ATOM     29  C   UNL     1      -0.085  -5.615  -6.030  1.00  0.00     0.239 A 
ATOM     30  O   UNL     1       0.762  -5.561  -3.420  1.00  0.00    -0.452 OA
ATOM     31  C   UNL     1      -0.816  -6.307  -5.041  1.00  0.00     0.111 A 
ATOM     32  O   UNL     1      -0.521  -5.523  -7.203  1.00  0.00    -0.285 OA
ATOM     33  C   UNL     1      -0.368  -6.193  -3.703  1.00  0.00     0.146 A 
ATOM     34  C   UNL     1      -2.000  -7.058  -5.303  1.00  0.00     0.134 A 
ATOM     35  C   UNL     1      -1.114  -6.736  -2.655  1.00  0.00     0.094 A 
ATOM     36  C   UNL     1      -2.756  -7.552  -4.230  1.00  0.00     0.093 A 
ATOM     37  C   UNL     1      -2.329  -7.382  -2.913  1.00  0.00     0.123 A 
BRANCH  28  38
ATOM     38  C   UNL     1       2.796  -4.360  -3.917  1.00  0.00     0.025 A 
ATOM     39  C   UNL     1       4.007  -4.988  -4.239  1.00  0.00     0.062 A 
ATOM     40  C   UNL     1       2.817  -3.134  -3.216  1.00  0.00     0.016 A 
ATOM     41  C   UNL     1       5.226  -4.419  -3.845  1.00  0.00     0.158 A 
ATOM     42  C   UNL     1       4.032  -2.552  -2.845  1.00  0.00     0.051 A 
ATOM     43  C   UNL     1       5.236  -3.187  -3.160  1.00  0.00     0.157 A 
BRANCH  41  44
ATOM     44  O   UNL     1       6.431  -5.069  -4.117  1.00  0.00    -0.504 OA
ATOM     45  H   UNL     1       6.879  -5.010  -5.024  1.00  0.00     0.293 HD
ENDBRANCH  41  44
BRANCH  43  46
ATOM     46  O   UNL     1       6.437  -2.576  -2.794  1.00  0.00    -0.504 OA
ATOM     47  H   UNL     1       7.286  -3.102  -2.631  1.00  0.00     0.293 HD
ENDBRANCH  43  46
ENDBRANCH  28  38
BRANCH  34  48
ATOM     48  O   UNL     1      -2.465  -7.358  -6.588  1.00  0.00    -0.507 OA
ATOM     49  H   UNL     1      -3.171  -8.051  -6.797  1.00  0.00     0.293 HD
ENDBRANCH  34  48
BRANCH  37  50
ATOM     50  O   UNL     1      -3.133  -7.835  -1.862  1.00  0.00    -0.508 OA
ATOM     51  H   UNL     1      -3.476  -7.194  -1.154  1.00  0.00     0.293 HD
ENDBRANCH  37  50
ENDBRANCH  26  27
ENDBRANCH   5  26
BRANCH   4  52
ATOM     52  O   UNL     1       2.602  -6.353  -7.925  1.00  0.00    -0.384 OA
ATOM     53  H   UNL     1       2.077  -6.318  -7.086  1.00  0.00     0.211 HD
ENDBRANCH   4  52
TORSDOF 16
ENDMDL
MODEL 6
REMARK VINA RESULT:    -6.880      1.295      2.015
REMARK INTER + INTRA:         -13.367
REMARK INTER:                 -12.416
REMARK INTRA:                  -0.951
REMARK UNBOUND:                -2.063
REMARK SMILES C[C@@H]1O[C@@H](OC[C@H]2O[C@@H](Oc3c(-c4ccc(O)c(O)c4)oc4cc(O)cc(O)c4c3=O)[C@@H](O)[C@H](O)[C@H]2O)[C@H](O)[C@H](O)[C@@H]1O
REMARK SMILES IDX 7 1 36 2 34 3 32 4 9 5 8 6 6 7 5 8 4 9 1 10 2 11 42 12 3 13
REMARK SMILES IDX 40 14 38 15 43 16 41 18 39 20 37 22 35 24 10 26 11 27 12 28
REMARK SMILES IDX 30 29 21 30 29 31 31 32 22 33 27 34 23 35 26 36 24 37 13 38
REMARK SMILES IDX 20 39 14 40 18 41 15 42 16 43 19 44 17 46 28 48 25 50 33 52
REMARK H PARENT 43 17 41 19 39 21 37 23 35 25 19 45 17 47 28 49 25 51 33 53
REMARK Flexibility Score: inf
ROOT
ATOM      1  C   UNL     1       6.302  -3.728  -7.664  1.00  0.00     0.180 C 
ATOM      2  C   UNL     1       5.198  -3.561  -8.733  1.00  0.00     0.177 C 
ATOM      3  C   UNL     1       4.167  -4.727  -8.678  1.00  0.00     0.180 C 
ATOM      4  C   UNL     1       4.641  -5.875  -7.761  1.00  0.00     0.214 C 
ATOM      5  C   UNL     1       5.209  -5.373  -6.394  1.00  0.00     0.339 C 
ATOM      6  O   UNL     1       5.699  -4.037  -6.423  1.00  0.00    -0.332 OA
ENDROOT
BRANCH   1   7
ATOM      7  C   UNL     1       7.177  -2.467  -7.502  1.00  0.00     0.198 C 
BRANCH   7   8
ATOM      8  O   UNL     1       7.958  -2.552  -6.323  1.00  0.00    -0.347 OA
BRANCH   8   9
ATOM      9  C   UNL     1       7.779  -1.414  -5.500  1.00  0.00     0.281 C 
ATOM     10  C   UNL     1       5.690   0.400  -4.262  1.00  0.00     0.041 C 
ATOM     11  C   UNL     1       6.673   0.670  -5.412  1.00  0.00     0.150 C 
ATOM     12  C   UNL     1       7.963   1.423  -5.001  1.00  0.00     0.174 C 
ATOM     13  O   UNL     1       6.947  -0.492  -6.182  1.00  0.00    -0.344 OA
ATOM     14  C   UNL     1       9.003   0.480  -4.362  1.00  0.00     0.179 C 
ATOM     15  C   UNL     1       9.153  -0.789  -5.227  1.00  0.00     0.202 C 
BRANCH  12  16
ATOM     16  O   UNL     1       7.663   2.494  -4.144  1.00  0.00    -0.388 OA
ATOM     17  H   UNL     1       7.439   2.106  -3.264  1.00  0.00     0.211 HD
ENDBRANCH  12  16
BRANCH  14  18
ATOM     18  O   UNL     1       8.625   0.129  -3.051  1.00  0.00    -0.387 OA
ATOM     19  H   UNL     1       8.890   0.884  -2.457  1.00  0.00     0.211 HD
ENDBRANCH  14  18
BRANCH  15  20
ATOM     20  O   UNL     1       9.970  -1.726  -4.574  1.00  0.00    -0.385 OA
ATOM     21  H   UNL     1       9.461  -2.575  -4.537  1.00  0.00     0.211 HD
ENDBRANCH  15  20
ENDBRANCH   8   9
ENDBRANCH   7   8
ENDBRANCH   1   7
BRANCH   2  22
ATOM     22  O   UNL     1       4.513  -2.346  -8.523  1.00  0.00    -0.387 OA
ATOM     23  H   UNL     1       4.282  -1.978  -9.418  1.00  0.00     0.211 HD
ENDBRANCH   2  22
BRANCH   3  24
ATOM     24  O   UNL     1       3.970  -5.251  -9.973  1.00  0.00    -0.387 OA
ATOM     25  H   UNL     1       4.560  -4.736 -10.585  1.00  0.00     0.211 HD
ENDBRANCH   3  24
BRANCH   5  26
ATOM     26  O   UNL     1       4.193  -5.450  -5.394  1.00  0.00    -0.454 OA
BRANCH  26  27
ATOM     27  C   UNL     1       3.993  -4.528  -4.352  1.00  0.00     0.214 A 
ATOM     28  C   UNL     1       2.678  -4.280  -3.919  1.00  0.00     0.180 A 
ATOM     29  C   UNL     1       5.055  -3.886  -3.683  1.00  0.00     0.239 A 
ATOM     30  O   UNL     1       2.463  -3.515  -2.857  1.00  0.00    -0.452 OA
ATOM     31  C   UNL     1       4.779  -3.011  -2.610  1.00  0.00     0.111 A 
ATOM     32  O   UNL     1       6.238  -4.165  -3.994  1.00  0.00    -0.285 OA
ATOM     33  C   UNL     1       3.432  -2.907  -2.186  1.00  0.00     0.146 A 
ATOM     34  C   UNL     1       5.777  -2.280  -1.899  1.00  0.00     0.134 A 
ATOM     35  C   UNL     1       3.099  -2.168  -1.049  1.00  0.00     0.094 A 
ATOM     36  C   UNL     1       5.424  -1.586  -0.733  1.00  0.00     0.093 A 
ATOM     37  C   UNL     1       4.099  -1.539  -0.298  1.00  0.00     0.123 A 
BRANCH  28  38
ATOM     38  C   UNL     1       1.517  -4.846  -4.634  1.00  0.00     0.025 A 
ATOM     39  C   UNL     1       1.450  -4.766  -6.031  1.00  0.00     0.062 A 
ATOM     40  C   UNL     1       0.481  -5.495  -3.927  1.00  0.00     0.016 A 
ATOM     41  C   UNL     1       0.351  -5.299  -6.719  1.00  0.00     0.158 A 
ATOM     42  C   UNL     1      -0.603  -6.051  -4.613  1.00  0.00     0.051 A 
ATOM     43  C   UNL     1      -0.670  -5.959  -6.004  1.00  0.00     0.157 A 
BRANCH  41  44
ATOM     44  O   UNL     1       0.256  -5.174  -8.105  1.00  0.00    -0.504 OA
ATOM     45  H   UNL     1       0.393  -5.963  -8.727  1.00  0.00     0.293 HD
ENDBRANCH  41  44
BRANCH  43  46
ATOM     46  O   UNL     1      -1.754  -6.538  -6.668  1.00  0.00    -0.504 OA
ATOM     47  H   UNL     1      -1.645  -7.084  -7.514  1.00  0.00     0.293 HD
ENDBRANCH  43  46
ENDBRANCH  28  38
BRANCH  34  48
ATOM     48  O   UNL     1       7.113  -2.192  -2.301  1.00  0.00    -0.507 OA
ATOM     49  H   UNL     1       7.504  -1.427  -2.835  1.00  0.00     0.293 HD
ENDBRANCH  34  48
BRANCH  37  50
ATOM     50  O   UNL     1       3.788  -0.888   0.900  1.00  0.00    -0.508 OA
ATOM     51  H   UNL     1       4.435  -0.893   1.681  1.00  0.00     0.293 HD
ENDBRANCH  37  50
ENDBRANCH  26  27
ENDBRANCH   5  26
BRANCH   4  52
ATOM     52  O   UNL     1       3.633  -6.842  -7.577  1.00  0.00    -0.384 OA
ATOM     53  H   UNL     1       4.039  -7.743  -7.634  1.00  0.00     0.211 HD
ENDBRANCH   4  52
TORSDOF 16
ENDMDL
MODEL 7
REMARK VINA RESULT:    -6.815      7.715     12.760
REMARK INTER + INTRA:         -13.261
REMARK INTER:                 -12.597
REMARK INTRA:                  -0.664
REMARK UNBOUND:                -2.063
REMARK SMILES C[C@@H]1O[C@@H](OC[C@H]2O[C@@H](Oc3c(-c4ccc(O)c(O)c4)oc4cc(O)cc(O)c4c3=O)[C@@H](O)[C@H](O)[C@H]2O)[C@H](O)[C@H](O)[C@@H]1O
REMARK SMILES IDX 7 1 36 2 34 3 32 4 9 5 8 6 6 7 5 8 4 9 1 10 2 11 42 12 3 13
REMARK SMILES IDX 40 14 38 15 43 16 41 18 39 20 37 22 35 24 10 26 11 27 12 28
REMARK SMILES IDX 30 29 21 30 29 31 31 32 22 33 27 34 23 35 26 36 24 37 13 38
REMARK SMILES IDX 20 39 14 40 18 41 15 42 16 43 19 44 17 46 28 48 25 50 33 52
REMARK H PARENT 43 17 41 19 39 21 37 23 35 25 19 45 17 47 28 49 25 51 33 53
REMARK Flexibility Score: inf
ROOT
ATOM      1  C   UNL     1      -8.602  -8.735  -4.678  1.00  0.00     0.180 C 
ATOM      2  C   UNL     1      -9.191  -8.258  -3.331  1.00  0.00     0.177 C 
ATOM      3  C   UNL     1      -8.925  -9.287  -2.193  1.00  0.00     0.180 C 
ATOM      4  C   UNL     1      -8.379 -10.624  -2.739  1.00  0.00     0.214 C 
ATOM      5  C   UNL     1      -7.244 -10.436  -3.797  1.00  0.00     0.339 C 
ATOM      6  O   UNL     1      -7.277  -9.182  -4.470  1.00  0.00    -0.332 OA
ENDROOT
BRANCH   1   7
ATOM      7  C   UNL     1      -8.600  -7.633  -5.758  1.00  0.00     0.198 C 
BRANCH   7   8
ATOM      8  O   UNL     1      -7.424  -7.707  -6.543  1.00  0.00    -0.347 OA
BRANCH   8   9
ATOM      9  C   UNL     1      -6.681  -6.504  -6.478  1.00  0.00     0.281 C 
ATOM     10  C   UNL     1      -5.250  -4.616  -4.587  1.00  0.00     0.041 C 
ATOM     11  C   UNL     1      -6.574  -4.435  -5.345  1.00  0.00     0.150 C 
ATOM     12  C   UNL     1      -6.463  -3.632  -6.665  1.00  0.00     0.174 C 
ATOM     13  O   UNL     1      -7.280  -5.658  -5.513  1.00  0.00    -0.344 OA
ATOM     14  C   UNL     1      -5.941  -4.501  -7.828  1.00  0.00     0.179 C 
ATOM     15  C   UNL     1      -6.710  -5.839  -7.860  1.00  0.00     0.202 C 
BRANCH  12  16
ATOM     16  O   UNL     1      -5.660  -2.494  -6.489  1.00  0.00    -0.388 OA
ATOM     17  H   UNL     1      -5.493  -2.405  -5.520  1.00  0.00     0.211 HD
ENDBRANCH  12  16
BRANCH  14  18
ATOM     18  O   UNL     1      -4.559  -4.740  -7.696  1.00  0.00    -0.387 OA
ATOM     19  H   UNL     1      -4.442  -5.365  -6.928  1.00  0.00     0.211 HD
ENDBRANCH  14  18
BRANCH  15  20
ATOM     20  O   UNL     1      -6.135  -6.704  -8.806  1.00  0.00    -0.385 OA
ATOM     21  H   UNL     1      -5.434  -7.221  -8.335  1.00  0.00     0.211 HD
ENDBRANCH  15  20
ENDBRANCH   8   9
ENDBRANCH   7   8
ENDBRANCH   1   7
BRANCH   2  22
ATOM     22  O   UNL     1      -8.608  -7.026  -2.968  1.00  0.00    -0.387 OA
ATOM     23  H   UNL     1      -9.342  -6.433  -2.652  1.00  0.00     0.211 HD
ENDBRANCH   2  22
BRANCH   3  24
ATOM     24  O   UNL     1     -10.124  -9.551  -1.499  1.00  0.00    -0.387 OA
ATOM     25  H   UNL     1     -10.697 -10.091  -2.107  1.00  0.00     0.211 HD
ENDBRANCH   3  24
BRANCH   5  26
ATOM     26  O   UNL     1      -5.971 -10.566  -3.164  1.00  0.00    -0.454 OA
BRANCH  26  27
ATOM     27  C   UNL     1      -4.933  -9.618  -3.202  1.00  0.00     0.214 A 
ATOM     28  C   UNL     1      -4.220  -9.357  -2.019  1.00  0.00     0.180 A 
ATOM     29  C   UNL     1      -4.538  -8.962  -4.386  1.00  0.00     0.239 A 
ATOM     30  O   UNL     1      -3.156  -8.566  -2.048  1.00  0.00    -0.452 OA
ATOM     31  C   UNL     1      -3.452  -8.061  -4.357  1.00  0.00     0.111 A 
ATOM     32  O   UNL     1      -5.102  -9.251  -5.469  1.00  0.00    -0.285 OA
ATOM     33  C   UNL     1      -2.737  -7.943  -3.141  1.00  0.00     0.146 A 
ATOM     34  C   UNL     1      -3.004  -7.315  -5.487  1.00  0.00     0.134 A 
ATOM     35  C   UNL     1      -1.572  -7.176  -3.072  1.00  0.00     0.094 A 
ATOM     36  C   UNL     1      -1.806  -6.591  -5.405  1.00  0.00     0.093 A 
ATOM     37  C   UNL     1      -1.083  -6.531  -4.214  1.00  0.00     0.123 A 
BRANCH  28  38
ATOM     38  C   UNL     1      -4.639  -9.938  -0.728  1.00  0.00     0.025 A 
ATOM     39  C   UNL     1      -5.953  -9.759  -0.275  1.00  0.00     0.062 A 
ATOM     40  C   UNL     1      -3.737 -10.700   0.047  1.00  0.00     0.016 A 
ATOM     41  C   UNL     1      -6.360 -10.306   0.950  1.00  0.00     0.158 A 
ATOM     42  C   UNL     1      -4.149 -11.268   1.255  1.00  0.00     0.051 A 
ATOM     43  C   UNL     1      -5.456 -11.078   1.708  1.00  0.00     0.157 A 
BRANCH  41  44
ATOM     44  O   UNL     1      -7.652 -10.084   1.429  1.00  0.00    -0.504 OA
ATOM     45  H   UNL     1      -8.128 -10.755   2.020  1.00  0.00     0.293 HD
ENDBRANCH  41  44
BRANCH  43  46
ATOM     46  O   UNL     1      -5.848 -11.671   2.910  1.00  0.00    -0.504 OA
ATOM     47  H   UNL     1      -6.807 -11.936   3.098  1.00  0.00     0.293 HD
ENDBRANCH  43  46
ENDBRANCH  28  38
BRANCH  34  48
ATOM     48  O   UNL     1      -3.700  -7.239  -6.698  1.00  0.00    -0.507 OA
ATOM     49  H   UNL     1      -3.372  -6.752  -7.521  1.00  0.00     0.293 HD
ENDBRANCH  34  48
BRANCH  37  50
ATOM     50  O   UNL     1       0.138  -5.849  -4.179  1.00  0.00    -0.508 OA
ATOM     51  H   UNL     1       0.527  -5.519  -3.302  1.00  0.00     0.293 HD
ENDBRANCH  37  50
ENDBRANCH  26  27
ENDBRANCH   5  26
BRANCH   4  52
ATOM     52  O   UNL     1      -7.977 -11.484  -1.698  1.00  0.00    -0.384 OA
ATOM     53  H   UNL     1      -7.902 -10.961  -0.861  1.00  0.00     0.211 HD
ENDBRANCH   4  52
TORSDOF 16
ENDMDL
MODEL 8
REMARK VINA RESULT:    -6.656      6.948     12.719
REMARK INTER + INTRA:         -13.000
REMARK INTER:                 -12.000
REMARK INTRA:                  -0.999
REMARK UNBOUND:                -2.063
REMARK SMILES C[C@@H]1O[C@@H](OC[C@H]2O[C@@H](Oc3c(-c4ccc(O)c(O)c4)oc4cc(O)cc(O)c4c3=O)[C@@H](O)[C@H](O)[C@H]2O)[C@H](O)[C@H](O)[C@@H]1O
REMARK SMILES IDX 7 1 36 2 34 3 32 4 9 5 8 6 6 7 5 8 4 9 1 10 2 11 42 12 3 13
REMARK SMILES IDX 40 14 38 15 43 16 41 18 39 20 37 22 35 24 10 26 11 27 12 28
REMARK SMILES IDX 30 29 21 30 29 31 31 32 22 33 27 34 23 35 26 36 24 37 13 38
REMARK SMILES IDX 20 39 14 40 18 41 15 42 16 43 19 44 17 46 28 48 25 50 33 52
REMARK H PARENT 43 17 41 19 39 21 37 23 35 25 19 45 17 47 28 49 25 51 33 53
REMARK Flexibility Score: inf
ROOT
ATOM      1  C   UNL     1       6.376   1.257   7.563  1.00  0.00     0.180 C 
ATOM      2  C   UNL     1       7.630   1.481   6.688  1.00  0.00     0.177 C 
ATOM      3  C   UNL     1       7.812   0.339   5.644  1.00  0.00     0.180 C 
ATOM      4  C   UNL     1       6.859  -0.846   5.912  1.00  0.00     0.214 C 
ATOM      5  C   UNL     1       5.393  -0.396   6.216  1.00  0.00     0.339 C 
ATOM      6  O   UNL     1       5.284   0.928   6.727  1.00  0.00    -0.332 OA
ENDROOT
BRANCH   1   7
ATOM      7  C   UNL     1       6.008   2.491   8.413  1.00  0.00     0.198 C 
BRANCH   7   8
ATOM      8  O   UNL     1       4.661   2.413   8.846  1.00  0.00    -0.347 OA
BRANCH   8   9
ATOM      9  C   UNL     1       3.944   3.589   8.521  1.00  0.00     0.281 C 
ATOM     10  C   UNL     1       3.561   5.704   6.383  1.00  0.00     0.041 C 
ATOM     11  C   UNL     1       4.238   5.805   7.759  1.00  0.00     0.150 C 
ATOM     12  C   UNL     1       3.345   6.389   8.882  1.00  0.00     0.174 C 
ATOM     13  O   UNL     1       4.871   4.593   8.148  1.00  0.00    -0.344 OA
ATOM     14  C   UNL     1       2.378   5.335   9.459  1.00  0.00     0.179 C 
ATOM     15  C   UNL     1       3.149   4.032   9.756  1.00  0.00     0.202 C 
BRANCH  12  16
ATOM     16  O   UNL     1       2.644   7.516   8.424  1.00  0.00    -0.388 OA
ATOM     17  H   UNL     1       2.735   8.215   9.117  1.00  0.00     0.211 HD
ENDBRANCH  12  16
BRANCH  14  18
ATOM     18  O   UNL     1       1.322   5.078   8.563  1.00  0.00    -0.387 OA
ATOM     19  H   UNL     1       0.487   5.419   8.988  1.00  0.00     0.211 HD
ENDBRANCH  14  18
BRANCH  15  20
ATOM     20  O   UNL     1       2.254   3.014  10.125  1.00  0.00    -0.385 OA
ATOM     21  H   UNL     1       1.492   3.060   9.495  1.00  0.00     0.211 HD
ENDBRANCH  15  20
ENDBRANCH   8   9
ENDBRANCH   7   8
ENDBRANCH   1   7
BRANCH   2  22
ATOM     22  O   UNL     1       7.516   2.705   5.998  1.00  0.00    -0.387 OA
ATOM     23  H   UNL     1       7.460   2.495   5.027  1.00  0.00     0.211 HD
ENDBRANCH   2  22
BRANCH   3  24
ATOM     24  O   UNL     1       9.137  -0.142   5.690  1.00  0.00    -0.387 OA
ATOM     25  H   UNL     1       9.132  -0.946   6.275  1.00  0.00     0.211 HD
ENDBRANCH   3  24
BRANCH   5  26
ATOM     26  O   UNL     1       4.610  -0.478   5.025  1.00  0.00    -0.454 OA
BRANCH  26  27
ATOM     27  C   UNL     1       3.621   0.440   4.626  1.00  0.00     0.214 A 
ATOM     28  C   UNL     1       3.463   0.700   3.254  1.00  0.00     0.180 A 
ATOM     29  C   UNL     1       2.746   1.067   5.537  1.00  0.00     0.239 A 
ATOM     30  O   UNL     1       2.460   1.460   2.835  1.00  0.00    -0.452 OA
ATOM     31  C   UNL     1       1.744   1.937   5.057  1.00  0.00     0.111 A 
ATOM     32  O   UNL     1       2.813   0.776   6.756  1.00  0.00    -0.285 OA
ATOM     33  C   UNL     1       1.602   2.054   3.654  1.00  0.00     0.146 A 
ATOM     34  C   UNL     1       0.839   2.653   5.897  1.00  0.00     0.134 A 
ATOM     35  C   UNL     1       0.549   2.789   3.104  1.00  0.00     0.094 A 
ATOM     36  C   UNL     1      -0.236   3.344   5.321  1.00  0.00     0.093 A 
ATOM     37  C   UNL     1      -0.394   3.403   3.936  1.00  0.00     0.123 A 
BRANCH  28  38
ATOM     38  C   UNL     1       4.403   0.151   2.257  1.00  0.00     0.025 A 
ATOM     39  C   UNL     1       5.784   0.252   2.469  1.00  0.00     0.062 A 
ATOM     40  C   UNL     1       3.926  -0.503   1.099  1.00  0.00     0.016 A 
ATOM     41  C   UNL     1       6.685  -0.264   1.527  1.00  0.00     0.158 A 
ATOM     42  C   UNL     1       4.822  -1.043   0.172  1.00  0.00     0.051 A 
ATOM     43  C   UNL     1       6.198  -0.930   0.383  1.00  0.00     0.157 A 
BRANCH  41  44
ATOM     44  O   UNL     1       8.061  -0.118   1.710  1.00  0.00    -0.504 OA
ATOM     45  H   UNL     1       8.734  -0.533   1.076  1.00  0.00     0.293 HD
ENDBRANCH  41  44
BRANCH  43  46
ATOM     46  O   UNL     1       7.073  -1.493  -0.549  1.00  0.00    -0.504 OA
ATOM     47  H   UNL     1       7.685  -0.931  -1.127  1.00  0.00     0.293 HD
ENDBRANCH  43  46
ENDBRANCH  28  38
BRANCH  34  48
ATOM     48  O   UNL     1       0.961   2.729   7.288  1.00  0.00    -0.507 OA
ATOM     49  H   UNL     1       1.826   2.609   7.797  1.00  0.00     0.293 HD
ENDBRANCH  34  48
BRANCH  37  50
ATOM     50  O   UNL     1      -1.509   4.050   3.394  1.00  0.00    -0.508 OA
ATOM     51  H   UNL     1      -2.339   4.216   3.953  1.00  0.00     0.293 HD
ENDBRANCH  37  50
ENDBRANCH  26  27
ENDBRANCH   5  26
BRANCH   4  52
ATOM     52  O   UNL     1       6.904  -1.793   4.871  1.00  0.00    -0.384 OA
ATOM     53  H   UNL     1       6.034  -1.790   4.397  1.00  0.00     0.211 HD
ENDBRANCH   4  52
TORSDOF 16
ENDMDL
MODEL 9
REMARK VINA RESULT:    -6.614     10.727     14.946
REMARK INTER + INTRA:         -12.931
REMARK INTER:                 -12.623
REMARK INTRA:                  -0.308
REMARK UNBOUND:                -2.063
REMARK SMILES C[C@@H]1O[C@@H](OC[C@H]2O[C@@H](Oc3c(-c4ccc(O)c(O)c4)oc4cc(O)cc(O)c4c3=O)[C@@H](O)[C@H](O)[C@H]2O)[C@H](O)[C@H](O)[C@@H]1O
REMARK SMILES IDX 7 1 36 2 34 3 32 4 9 5 8 6 6 7 5 8 4 9 1 10 2 11 42 12 3 13
REMARK SMILES IDX 40 14 38 15 43 16 41 18 39 20 37 22 35 24 10 26 11 27 12 28
REMARK SMILES IDX 30 29 21 30 29 31 31 32 22 33 27 34 23 35 26 36 24 37 13 38
REMARK SMILES IDX 20 39 14 40 18 41 15 42 16 43 19 44 17 46 28 48 25 50 33 52
REMARK H PARENT 43 17 41 19 39 21 37 23 35 25 19 45 17 47 28 49 25 51 33 53
REMARK Flexibility Score: inf
ROOT
ATOM      1  C   UNL     1      -0.725   3.386   5.328  1.00  0.00     0.180 C 
ATOM      2  C   UNL     1      -0.729   2.437   4.109  1.00  0.00     0.177 C 
ATOM      3  C   UNL     1       0.718   2.115   3.630  1.00  0.00     0.180 C 
ATOM      4  C   UNL     1       1.768   3.015   4.315  1.00  0.00     0.214 C 
ATOM      5  C   UNL     1       1.550   3.145   5.858  1.00  0.00     0.339 C 
ATOM      6  O   UNL     1       0.210   2.913   6.278  1.00  0.00    -0.332 OA
ENDROOT
BRANCH   1   7
ATOM      7  C   UNL     1      -2.109   3.508   5.999  1.00  0.00     0.198 C 
BRANCH   7   8
ATOM      8  O   UNL     1      -2.372   4.853   6.357  1.00  0.00    -0.347 OA
BRANCH   8   9
ATOM      9  C   UNL     1      -3.756   5.145   6.294  1.00  0.00     0.281 C 
ATOM     10  C   UNL     1      -6.334   5.116   7.888  1.00  0.00     0.041 C 
ATOM     11  C   UNL     1      -5.881   4.214   6.729  1.00  0.00     0.150 C 
ATOM     12  C   UNL     1      -6.428   4.621   5.337  1.00  0.00     0.174 C 
ATOM     13  O   UNL     1      -4.476   4.002   6.717  1.00  0.00    -0.344 OA
ATOM     14  C   UNL     1      -5.624   5.783   4.719  1.00  0.00     0.179 C 
ATOM     15  C   UNL     1      -4.114   5.493   4.843  1.00  0.00     0.202 C 
BRANCH  12  16
ATOM     16  O   UNL     1      -7.793   4.939   5.413  1.00  0.00    -0.388 OA
ATOM     17  H   UNL     1      -8.120   4.608   6.284  1.00  0.00     0.211 HD
ENDBRANCH  12  16
BRANCH  14  18
ATOM     18  O   UNL     1      -5.936   7.003   5.351  1.00  0.00    -0.387 OA
ATOM     19  H   UNL     1      -6.549   6.792   6.108  1.00  0.00     0.211 HD
ENDBRANCH  14  18
BRANCH  15  20
ATOM     20  O   UNL     1      -3.371   6.613   4.435  1.00  0.00    -0.385 OA
ATOM     21  H   UNL     1      -4.003   7.374   4.386  1.00  0.00     0.211 HD
ENDBRANCH  15  20
ENDBRANCH   8   9
ENDBRANCH   7   8
ENDBRANCH   1   7
BRANCH   2  22
ATOM     22  O   UNL     1      -1.368   1.227   4.449  1.00  0.00    -0.387 OA
ATOM     23  H   UNL     1      -0.992   0.517   3.863  1.00  0.00     0.211 HD
ENDBRANCH   2  22
BRANCH   3  24
ATOM     24  O   UNL     1       0.813   2.310   2.236  1.00  0.00    -0.387 OA
ATOM     25  H   UNL     1       0.268   3.113   2.018  1.00  0.00     0.211 HD
ENDBRANCH   3  24
BRANCH   5  26
ATOM     26  O   UNL     1       2.395   2.219   6.541  1.00  0.00    -0.454 OA
BRANCH  26  27
ATOM     27  C   UNL     1       3.801   2.242   6.551  1.00  0.00     0.214 A 
ATOM     28  C   UNL     1       4.450   3.239   7.301  1.00  0.00     0.180 A 
ATOM     29  C   UNL     1       4.587   1.276   5.890  1.00  0.00     0.239 A 
ATOM     30  O   UNL     1       5.770   3.213   7.435  1.00  0.00    -0.452 OA
ATOM     31  C   UNL     1       5.994   1.334   5.988  1.00  0.00     0.111 A 
ATOM     32  O   UNL     1       4.024   0.327   5.293  1.00  0.00    -0.285 OA
ATOM     33  C   UNL     1       6.547   2.313   6.847  1.00  0.00     0.146 A 
ATOM     34  C   UNL     1       6.878   0.433   5.322  1.00  0.00     0.134 A 
ATOM     35  C   UNL     1       7.920   2.345   7.100  1.00  0.00     0.094 A 
ATOM     36  C   UNL     1       8.246   0.455   5.629  1.00  0.00     0.093 A 
ATOM     37  C   UNL     1       8.766   1.391   6.523  1.00  0.00     0.123 A 
BRANCH  28  38
ATOM     38  C   UNL     1       3.692   4.333   7.940  1.00  0.00     0.025 A 
ATOM     39  C   UNL     1       3.672   5.604   7.352  1.00  0.00     0.062 A 
ATOM     40  C   UNL     1       2.961   4.106   9.126  1.00  0.00     0.016 A 
ATOM     41  C   UNL     1       2.956   6.650   7.951  1.00  0.00     0.158 A 
ATOM     42  C   UNL     1       2.225   5.141   9.711  1.00  0.00     0.051 A 
ATOM     43  C   UNL     1       2.217   6.409   9.127  1.00  0.00     0.157 A 
BRANCH  41  44
ATOM     44  O   UNL     1       2.978   7.931   7.397  1.00  0.00    -0.504 OA
ATOM     45  H   UNL     1       3.813   8.505   7.404  1.00  0.00     0.293 HD
ENDBRANCH  41  44
BRANCH  43  46
ATOM     46  O   UNL     1       1.459   7.421   9.721  1.00  0.00    -0.504 OA
ATOM     47  H   UNL     1       0.684   7.226  10.343  1.00  0.00     0.293 HD
ENDBRANCH  43  46
ENDBRANCH  28  38
BRANCH  34  48
ATOM     48  O   UNL     1       6.469  -0.483   4.348  1.00  0.00    -0.507 OA
ATOM     49  H   UNL     1       5.867  -0.262   3.566  1.00  0.00     0.293 HD
ENDBRANCH  34  48
BRANCH  37  50
ATOM     50  O   UNL     1      10.125   1.350   6.854  1.00  0.00    -0.508 OA
ATOM     51  H   UNL     1      10.629   0.470   6.881  1.00  0.00     0.293 HD
ENDBRANCH  37  50
ENDBRANCH  26  27
ENDBRANCH   5  26
BRANCH   4  52
ATOM     52  O   UNL     1       3.081   2.604   4.012  1.00  0.00    -0.384 OA
ATOM     53  H   UNL     1       3.055   1.996   3.231  1.00  0.00     0.211 HD
ENDBRANCH   4  52
TORSDOF 16
ENDMDL
