MODEL 1
REMARK VINA RESULT:     7.577      0.000      0.000
REMARK INTER + INTRA:          15.662
REMARK INTER:                  17.322
REMARK INTRA:                  -1.660
REMARK UNBOUND:                -1.660
REMARK SMILES CCCCCCCCCCCCCCCCCCCCCCCC(=O)[O-]
REMARK SMILES IDX 13 1 14 2 15 3 16 4 17 5 18 6 19 7 20 8 21 9 22 10 23 11
REMARK SMILES IDX 24 12 25 13 26 14 12 15 11 16 10 17 9 18 8 19 7 20 6 21 5 22
REMARK SMILES IDX 4 23 3 24 2 25 1 26
REMARK H PARENT
REMARK Flexibility Score: inf
ROOT
ATOM      1  C   UNL     1      -8.244  17.401 -11.501  1.00  0.00     0.000 C 
ENDROOT
BRANCH   1   2
ATOM      2  C   UNL     1      -7.398  16.119 -11.607  1.00  0.00     0.000 C 
BRANCH   2   3
ATOM      3  C   UNL     1      -7.944  14.965 -10.750  1.00  0.00     0.000 C 
BRANCH   3   4
ATOM      4  C   UNL     1      -9.482  14.885 -10.769  1.00  0.00     0.000 C 
BRANCH   4   5
ATOM      5  C   UNL     1     -10.182  15.391  -9.489  1.00  0.00     0.000 C 
BRANCH   5   6
ATOM      6  C   UNL     1     -11.531  14.722  -9.171  1.00  0.00     0.000 C 
BRANCH   6   7
ATOM      7  C   UNL     1     -11.595  14.144  -7.750  1.00  0.00     0.000 C 
BRANCH   7   8
ATOM      8  C   UNL     1     -10.738  12.874  -7.641  1.00  0.00     0.000 C 
BRANCH   8   9
ATOM      9  C   UNL     1     -10.282  12.578  -6.200  1.00  0.00     0.000 C 
BRANCH   9  10
ATOM     10  C   UNL     1      -9.206  11.479  -6.068  1.00  0.00     0.006 C 
BRANCH  10  11
ATOM     11  C   UNL     1      -8.611  11.334  -4.658  1.00  0.00     0.053 C 
BRANCH  11  12
ATOM     12  C   UNL     1      -7.257  11.967  -4.553  1.00  0.00     0.041 C 
ATOM     13  O   UNL     1      -6.554  11.792  -3.523  1.00  0.00    -0.550 OA
ATOM     14  O   UNL     1      -6.787  12.777  -5.579  1.00  0.00    -0.550 OA
ENDBRANCH  11  12
ENDBRANCH  10  11
ENDBRANCH   9  10
ENDBRANCH   8   9
ENDBRANCH   7   8
ENDBRANCH   6   7
ENDBRANCH   5   6
ENDBRANCH   4   5
ENDBRANCH   3   4
ENDBRANCH   2   3
ENDBRANCH   1   2
BRANCH   1  15
ATOM     15  C   UNL     1      -8.932  17.840 -12.808  1.00  0.00     0.000 C 
BRANCH  15  16
ATOM     16  C   UNL     1      -8.245  18.994 -13.561  1.00  0.00     0.000 C 
BRANCH  16  17
ATOM     17  C   UNL     1      -8.006  20.256 -12.705  1.00  0.00     0.000 C 
BRANCH  17  18
ATOM     18  C   UNL     1      -6.535  20.712 -12.713  1.00  0.00    -0.000 C 
BRANCH  18  19
ATOM     19  C   UNL     1      -5.573  19.601 -13.159  1.00  0.00    -0.000 C 
BRANCH  19  20
ATOM     20  C   UNL     1      -5.514  19.445 -14.688  1.00  0.00    -0.000 C 
BRANCH  20  21
ATOM     21  C   UNL     1      -4.975  18.072 -15.124  1.00  0.00    -0.000 C 
BRANCH  21  22
ATOM     22  C   UNL     1      -5.895  16.880 -14.792  1.00  0.00    -0.000 C 
BRANCH  22  23
ATOM     23  C   UNL     1      -5.312  15.491 -15.123  1.00  0.00    -0.000 C 
BRANCH  23  24
ATOM     24  C   UNL     1      -5.910  14.327 -14.313  1.00  0.00    -0.000 C 
BRANCH  24  25
ATOM     25  C   UNL     1      -7.399  14.100 -14.609  1.00  0.00    -0.003 C 
ATOM     26  C   UNL     1      -7.861  12.737 -14.100  1.00  0.00     0.004 C 
ENDBRANCH  24  25
ENDBRANCH  23  24
ENDBRANCH  22  23
ENDBRANCH  21  22
ENDBRANCH  20  21
ENDBRANCH  19  20
ENDBRANCH  18  19
ENDBRANCH  17  18
ENDBRANCH  16  17
ENDBRANCH  15  16
ENDBRANCH   1  15
TORSDOF 22
ENDMDL
MODEL 2
REMARK VINA RESULT:     8.072      2.864      9.124
REMARK INTER + INTRA:          16.794
REMARK INTER:                  17.543
REMARK INTRA:                  -0.749
REMARK UNBOUND:                -1.660
REMARK SMILES CCCCCCCCCCCCCCCCCCCCCCCC(=O)[O-]
REMARK SMILES IDX 13 1 14 2 15 3 16 4 17 5 18 6 19 7 20 8 21 9 22 10 23 11
REMARK SMILES IDX 24 12 25 13 26 14 12 15 11 16 10 17 9 18 8 19 7 20 6 21 5 22
REMARK SMILES IDX 4 23 3 24 2 25 1 26
REMARK H PARENT
REMARK Flexibility Score: inf
ROOT
ATOM      1  C   UNL     1      -6.900  14.416 -11.130  1.00  0.00     0.000 C 
ENDROOT
BRANCH   1   2
ATOM      2  C   UNL     1      -7.492  13.863 -12.438  1.00  0.00     0.000 C 
BRANCH   2   3
ATOM      3  C   UNL     1      -6.789  12.584 -12.923  1.00  0.00     0.000 C 
BRANCH   3   4
ATOM      4  C   UNL     1      -5.376  12.853 -13.473  1.00  0.00     0.000 C 
BRANCH   4   5
ATOM      5  C   UNL     1      -5.293  13.939 -14.567  1.00  0.00     0.000 C 
BRANCH   5   6
ATOM      6  C   UNL     1      -6.647  14.456 -15.084  1.00  0.00     0.000 C 
BRANCH   6   7
ATOM      7  C   UNL     1      -6.729  15.988 -15.125  1.00  0.00     0.000 C 
BRANCH   7   8
ATOM      8  C   UNL     1      -5.556  16.616 -14.358  1.00  0.00     0.000 C 
BRANCH   8   9
ATOM      9  C   UNL     1      -5.683  18.144 -14.210  1.00  0.00     0.000 C 
BRANCH   9  10
ATOM     10  C   UNL     1      -7.074  18.721 -14.545  1.00  0.00     0.006 C 
BRANCH  10  11
ATOM     11  C   UNL     1      -7.944  19.043 -13.319  1.00  0.00     0.053 C 
BRANCH  11  12
ATOM     12  C   UNL     1      -8.608  17.819 -12.766  1.00  0.00     0.041 C 
ATOM     13  O   UNL     1      -8.869  17.741 -11.537  1.00  0.00    -0.550 OA
ATOM     14  O   UNL     1      -8.905  16.751 -13.603  1.00  0.00    -0.550 OA
ENDBRANCH  11  12
ENDBRANCH  10  11
ENDBRANCH   9  10
ENDBRANCH   8   9
ENDBRANCH   7   8
ENDBRANCH   6   7
ENDBRANCH   5   6
ENDBRANCH   4   5
ENDBRANCH   3   4
ENDBRANCH   2   3
ENDBRANCH   1   2
BRANCH   1  15
ATOM     15  C   UNL     1      -7.400  13.730  -9.843  1.00  0.00     0.000 C 
BRANCH  15  16
ATOM     16  C   UNL     1      -6.539  13.968  -8.590  1.00  0.00     0.000 C 
BRANCH  16  17
ATOM     17  C   UNL     1      -6.498  12.773  -7.613  1.00  0.00     0.000 C 
BRANCH  17  18
ATOM     18  C   UNL     1      -6.394  13.211  -6.140  1.00  0.00    -0.000 C 
BRANCH  18  19
ATOM     19  C   UNL     1      -6.135  12.034  -5.189  1.00  0.00    -0.000 C 
BRANCH  19  20
ATOM     20  C   UNL     1      -7.399  11.594  -4.431  1.00  0.00    -0.000 C 
BRANCH  20  21
ATOM     21  C   UNL     1      -8.432  10.912  -5.345  1.00  0.00    -0.000 C 
BRANCH  21  22
ATOM     22  C   UNL     1      -9.793  11.632  -5.435  1.00  0.00    -0.000 C 
BRANCH  22  23
ATOM     23  C   UNL     1     -10.061  12.359  -6.768  1.00  0.00    -0.000 C 
BRANCH  23  24
ATOM     24  C   UNL     1     -11.111  13.482  -6.693  1.00  0.00    -0.000 C 
BRANCH  24  25
ATOM     25  C   UNL     1     -11.388  14.128  -8.059  1.00  0.00    -0.003 C 
ATOM     26  C   UNL     1     -12.168  15.431  -7.904  1.00  0.00     0.004 C 
ENDBRANCH  24  25
ENDBRANCH  23  24
ENDBRANCH  22  23
ENDBRANCH  21  22
ENDBRANCH  20  21
ENDBRANCH  19  20
ENDBRANCH  18  19
ENDBRANCH  17  18
ENDBRANCH  16  17
ENDBRANCH  15  16
ENDBRANCH   1  15
TORSDOF 22
ENDMDL
MODEL 3
REMARK VINA RESULT:     8.345      2.770      9.177
REMARK INTER + INTRA:          17.417
REMARK INTER:                  18.642
REMARK INTRA:                  -1.225
REMARK UNBOUND:                -1.660
REMARK SMILES CCCCCCCCCCCCCCCCCCCCCCCC(=O)[O-]
REMARK SMILES IDX 13 1 14 2 15 3 16 4 17 5 18 6 19 7 20 8 21 9 22 10 23 11
REMARK SMILES IDX 24 12 25 13 26 14 12 15 11 16 10 17 9 18 8 19 7 20 6 21 5 22
REMARK SMILES IDX 4 23 3 24 2 25 1 26
REMARK H PARENT
REMARK Flexibility Score: inf
ROOT
ATOM      1  C   UNL     1      -8.248  13.420 -13.822  1.00  0.00     0.000 C 
ENDROOT
BRANCH   1   2
ATOM      2  C   UNL     1      -8.134  14.475 -14.937  1.00  0.00     0.000 C 
BRANCH   2   3
ATOM      3  C   UNL     1      -6.700  14.999 -15.124  1.00  0.00     0.000 C 
BRANCH   3   4
ATOM      4  C   UNL     1      -6.621  16.537 -15.114  1.00  0.00     0.000 C 
BRANCH   4   5
ATOM      5  C   UNL     1      -5.490  17.131 -14.246  1.00  0.00     0.000 C 
BRANCH   5   6
ATOM      6  C   UNL     1      -4.994  18.522 -14.678  1.00  0.00     0.000 C 
BRANCH   6   7
ATOM      7  C   UNL     1      -5.063  19.562 -13.551  1.00  0.00     0.000 C 
BRANCH   7   8
ATOM      8  C   UNL     1      -5.870  20.791 -13.994  1.00  0.00     0.000 C 
BRANCH   8   9
ATOM      9  C   UNL     1      -7.388  20.534 -14.028  1.00  0.00     0.000 C 
BRANCH   9  10
ATOM     10  C   UNL     1      -7.902  19.511 -12.992  1.00  0.00     0.006 C 
BRANCH  10  11
ATOM     11  C   UNL     1      -8.589  18.278 -13.599  1.00  0.00     0.053 C 
BRANCH  11  12
ATOM     12  C   UNL     1      -8.838  17.214 -12.574  1.00  0.00     0.041 C 
ATOM     13  O   UNL     1      -9.894  16.529 -12.616  1.00  0.00    -0.550 OA
ATOM     14  O   UNL     1      -7.920  17.004 -11.553  1.00  0.00    -0.550 OA
ENDBRANCH  11  12
ENDBRANCH  10  11
ENDBRANCH   9  10
ENDBRANCH   8   9
ENDBRANCH   7   8
ENDBRANCH   6   7
ENDBRANCH   5   6
ENDBRANCH   4   5
ENDBRANCH   3   4
ENDBRANCH   2   3
ENDBRANCH   1   2
BRANCH   1  15
ATOM     15  C   UNL     1      -6.909  12.975 -13.203  1.00  0.00     0.000 C 
BRANCH  15  16
ATOM     16  C   UNL     1      -6.967  12.582 -11.715  1.00  0.00     0.000 C 
BRANCH  16  17
ATOM     17  C   UNL     1      -7.685  13.611 -10.815  1.00  0.00     0.000 C 
BRANCH  17  18
ATOM     18  C   UNL     1      -8.811  12.983  -9.973  1.00  0.00    -0.000 C 
BRANCH  18  19
ATOM     19  C   UNL     1      -8.737  13.384  -8.493  1.00  0.00    -0.000 C 
BRANCH  19  20
ATOM     20  C   UNL     1      -9.900  12.814  -7.664  1.00  0.00    -0.000 C 
BRANCH  20  21
ATOM     21  C   UNL     1      -9.436  11.781  -6.622  1.00  0.00    -0.000 C 
BRANCH  21  22
ATOM     22  C   UNL     1      -7.910  11.565  -6.559  1.00  0.00    -0.000 C 
BRANCH  22  23
ATOM     23  C   UNL     1      -7.157  12.498  -5.590  1.00  0.00    -0.000 C 
BRANCH  23  24
ATOM     24  C   UNL     1      -6.345  11.779  -4.498  1.00  0.00    -0.000 C 
BRANCH  24  25
ATOM     25  C   UNL     1      -7.222  10.932  -3.565  1.00  0.00    -0.003 C 
ATOM     26  C   UNL     1      -6.705  10.977  -2.130  1.00  0.00     0.004 C 
ENDBRANCH  24  25
ENDBRANCH  23  24
ENDBRANCH  22  23
ENDBRANCH  21  22
ENDBRANCH  20  21
ENDBRANCH  19  20
ENDBRANCH  18  19
ENDBRANCH  17  18
ENDBRANCH  16  17
ENDBRANCH  15  16
ENDBRANCH   1  15
TORSDOF 22
ENDMDL
MODEL 4
REMARK VINA RESULT:     8.374      1.276      2.287
REMARK INTER + INTRA:          17.485
REMARK INTER:                  18.553
REMARK INTRA:                  -1.069
REMARK UNBOUND:                -1.660
REMARK SMILES CCCCCCCCCCCCCCCCCCCCCCCC(=O)[O-]
REMARK SMILES IDX 13 1 14 2 15 3 16 4 17 5 18 6 19 7 20 8 21 9 22 10 23 11
REMARK SMILES IDX 24 12 25 13 26 14 12 15 11 16 10 17 9 18 8 19 7 20 6 21 5 22
REMARK SMILES IDX 4 23 3 24 2 25 1 26
REMARK H PARENT
REMARK Flexibility Score: inf
ROOT
ATOM      1  C   UNL     1      -9.877  16.067 -11.372  1.00  0.00     0.000 C 
ENDROOT
BRANCH   1   2
ATOM      2  C   UNL     1      -9.696  15.235 -10.090  1.00  0.00     0.000 C 
BRANCH   2   3
ATOM      3  C   UNL     1     -10.985  14.519  -9.651  1.00  0.00     0.000 C 
BRANCH   3   4
ATOM      4  C   UNL     1     -11.537  15.052  -8.315  1.00  0.00     0.000 C 
BRANCH   4   5
ATOM      5  C   UNL     1     -11.627  14.011  -7.179  1.00  0.00     0.000 C 
BRANCH   5   6
ATOM      6  C   UNL     1     -10.458  13.012  -7.110  1.00  0.00     0.000 C 
BRANCH   6   7
ATOM      7  C   UNL     1     -10.497  12.127  -5.856  1.00  0.00     0.000 C 
BRANCH   7   8
ATOM      8  C   UNL     1      -9.240  11.249  -5.771  1.00  0.00     0.000 C 
BRANCH   8   9
ATOM      9  C   UNL     1      -7.949  12.011  -6.123  1.00  0.00     0.000 C 
BRANCH   9  10
ATOM     10  C   UNL     1      -7.252  12.703  -4.932  1.00  0.00     0.006 C 
BRANCH  10  11
ATOM     11  C   UNL     1      -6.179  11.851  -4.236  1.00  0.00     0.053 C 
BRANCH  11  12
ATOM     12  C   UNL     1      -6.778  10.883  -3.261  1.00  0.00     0.041 C 
ATOM     13  O   UNL     1      -7.613  10.025  -3.652  1.00  0.00    -0.550 OA
ATOM     14  O   UNL     1      -6.440  10.953  -1.916  1.00  0.00    -0.550 OA
ENDBRANCH  11  12
ENDBRANCH  10  11
ENDBRANCH   9  10
ENDBRANCH   8   9
ENDBRANCH   7   8
ENDBRANCH   6   7
ENDBRANCH   5   6
ENDBRANCH   4   5
ENDBRANCH   3   4
ENDBRANCH   2   3
ENDBRANCH   1   2
BRANCH   1  15
ATOM     15  C   UNL     1      -8.728  15.953 -12.393  1.00  0.00     0.000 C 
BRANCH  15  16
ATOM     16  C   UNL     1      -8.614  17.118 -13.393  1.00  0.00     0.000 C 
BRANCH  16  17
ATOM     17  C   UNL     1      -8.822  18.513 -12.766  1.00  0.00     0.000 C 
BRANCH  17  18
ATOM     18  C   UNL     1      -7.667  19.483 -13.075  1.00  0.00    -0.000 C 
BRANCH  18  19
ATOM     19  C   UNL     1      -7.150  19.349 -14.515  1.00  0.00    -0.000 C 
BRANCH  19  20
ATOM     20  C   UNL     1      -5.617  19.433 -14.605  1.00  0.00    -0.000 C 
BRANCH  20  21
ATOM     21  C   UNL     1      -4.922  18.145 -14.131  1.00  0.00    -0.000 C 
BRANCH  21  22
ATOM     22  C   UNL     1      -5.187  16.905 -15.009  1.00  0.00    -0.000 C 
BRANCH  22  23
ATOM     23  C   UNL     1      -5.726  15.672 -14.256  1.00  0.00    -0.000 C 
BRANCH  23  24
ATOM     24  C   UNL     1      -6.608  14.733 -15.098  1.00  0.00    -0.000 C 
BRANCH  24  25
ATOM     25  C   UNL     1      -6.353  13.249 -14.797  1.00  0.00    -0.003 C 
ATOM     26  C   UNL     1      -7.373  12.705 -13.801  1.00  0.00     0.004 C 
ENDBRANCH  24  25
ENDBRANCH  23  24
ENDBRANCH  22  23
ENDBRANCH  21  22
ENDBRANCH  20  21
ENDBRANCH  19  20
ENDBRANCH  18  19
ENDBRANCH  17  18
ENDBRANCH  16  17
ENDBRANCH  15  16
ENDBRANCH   1  15
TORSDOF 22
ENDMDL
MODEL 5
REMARK VINA RESULT:     8.584      1.877      2.389
REMARK INTER + INTRA:          17.965
REMARK INTER:                  17.839
REMARK INTRA:                   0.126
REMARK UNBOUND:                -1.660
REMARK SMILES CCCCCCCCCCCCCCCCCCCCCCCC(=O)[O-]
REMARK SMILES IDX 13 1 14 2 15 3 16 4 17 5 18 6 19 7 20 8 21 9 22 10 23 11
REMARK SMILES IDX 24 12 25 13 26 14 12 15 11 16 10 17 9 18 8 19 7 20 6 21 5 22
REMARK SMILES IDX 4 23 3 24 2 25 1 26
REMARK H PARENT
REMARK Flexibility Score: inf
ROOT
ATOM      1  C   UNL     1      -8.889  17.052 -12.769  1.00  0.00     0.000 C 
ENDROOT
BRANCH   1   2
ATOM      2  C   UNL     1      -7.724  16.181 -12.267  1.00  0.00     0.000 C 
BRANCH   2   3
ATOM      3  C   UNL     1      -8.072  15.386 -10.996  1.00  0.00     0.000 C 
BRANCH   3   4
ATOM      4  C   UNL     1      -7.486  13.962 -11.005  1.00  0.00     0.000 C 
BRANCH   4   5
ATOM      5  C   UNL     1      -7.217  13.353  -9.612  1.00  0.00     0.000 C 
BRANCH   5   6
ATOM      6  C   UNL     1      -5.908  13.802  -8.941  1.00  0.00     0.000 C 
BRANCH   6   7
ATOM      7  C   UNL     1      -6.095  14.214  -7.474  1.00  0.00     0.000 C 
BRANCH   7   8
ATOM      8  C   UNL     1      -6.071  12.984  -6.556  1.00  0.00     0.000 C 
BRANCH   8   9
ATOM      9  C   UNL     1      -7.109  13.059  -5.420  1.00  0.00     0.000 C 
BRANCH   9  10
ATOM     10  C   UNL     1      -8.113  11.888  -5.372  1.00  0.00     0.006 C 
BRANCH  10  11
ATOM     11  C   UNL     1      -7.613  10.649  -4.612  1.00  0.00     0.053 C 
BRANCH  11  12
ATOM     12  C   UNL     1      -7.082  11.001  -3.255  1.00  0.00     0.041 C 
ATOM     13  O   UNL     1      -6.631  10.101  -2.498  1.00  0.00    -0.550 OA
ATOM     14  O   UNL     1      -7.119  12.317  -2.814  1.00  0.00    -0.550 OA
ENDBRANCH  11  12
ENDBRANCH  10  11
ENDBRANCH   9  10
ENDBRANCH   8   9
ENDBRANCH   7   8
ENDBRANCH   6   7
ENDBRANCH   5   6
ENDBRANCH   4   5
ENDBRANCH   3   4
ENDBRANCH   2   3
ENDBRANCH   1   2
BRANCH   1  15
ATOM     15  C   UNL     1      -8.786  17.497 -14.241  1.00  0.00     0.000 C 
BRANCH  15  16
ATOM     16  C   UNL     1      -7.917  18.742 -14.495  1.00  0.00     0.000 C 
BRANCH  16  17
ATOM     17  C   UNL     1      -7.842  19.717 -13.301  1.00  0.00     0.000 C 
BRANCH  17  18
ATOM     18  C   UNL     1      -6.569  20.584 -13.319  1.00  0.00    -0.000 C 
BRANCH  18  19
ATOM     19  C   UNL     1      -5.298  19.766 -13.586  1.00  0.00    -0.000 C 
BRANCH  19  20
ATOM     20  C   UNL     1      -5.530  18.618 -14.584  1.00  0.00    -0.000 C 
BRANCH  20  21
ATOM     21  C   UNL     1      -4.876  17.300 -14.135  1.00  0.00    -0.000 C 
BRANCH  21  22
ATOM     22  C   UNL     1      -5.034  16.128 -15.125  1.00  0.00    -0.000 C 
BRANCH  22  23
ATOM     23  C   UNL     1      -6.200  15.166 -14.818  1.00  0.00    -0.000 C 
BRANCH  23  24
ATOM     24  C   UNL     1      -5.777  13.738 -14.431  1.00  0.00    -0.000 C 
BRANCH  24  25
ATOM     25  C   UNL     1      -6.956  12.755 -14.404  1.00  0.00    -0.003 C 
ATOM     26  C   UNL     1      -8.219  13.394 -14.974  1.00  0.00     0.004 C 
ENDBRANCH  24  25
ENDBRANCH  23  24
ENDBRANCH  22  23
ENDBRANCH  21  22
ENDBRANCH  20  21
ENDBRANCH  19  20
ENDBRANCH  18  19
ENDBRANCH  17  18
ENDBRANCH  16  17
ENDBRANCH  15  16
ENDBRANCH   1  15
TORSDOF 22
ENDMDL
MODEL 6
REMARK VINA RESULT:     8.759      2.291      5.221
REMARK INTER + INTRA:          18.364
REMARK INTER:                  18.728
REMARK INTRA:                  -0.364
REMARK UNBOUND:                -1.660
REMARK SMILES CCCCCCCCCCCCCCCCCCCCCCCC(=O)[O-]
REMARK SMILES IDX 13 1 14 2 15 3 16 4 17 5 18 6 19 7 20 8 21 9 22 10 23 11
REMARK SMILES IDX 24 12 25 13 26 14 12 15 11 16 10 17 9 18 8 19 7 20 6 21 5 22
REMARK SMILES IDX 4 23 3 24 2 25 1 26
REMARK H PARENT
REMARK Flexibility Score: inf
ROOT
ATOM      1  C   UNL     1      -6.915  14.699 -10.487  1.00  0.00     0.000 C 
ENDROOT
BRANCH   1   2
ATOM      2  C   UNL     1      -6.843  13.458  -9.580  1.00  0.00     0.000 C 
BRANCH   2   3
ATOM      3  C   UNL     1      -6.003  13.688  -8.312  1.00  0.00     0.000 C 
BRANCH   3   4
ATOM      4  C   UNL     1      -6.256  12.623  -7.228  1.00  0.00     0.000 C 
BRANCH   4   5
ATOM      5  C   UNL     1      -7.078  13.104  -6.013  1.00  0.00     0.000 C 
BRANCH   5   6
ATOM      6  C   UNL     1      -6.925  12.253  -4.740  1.00  0.00     0.000 C 
BRANCH   6   7
ATOM      7  C   UNL     1      -7.879  11.050  -4.703  1.00  0.00     0.000 C 
BRANCH   7   8
ATOM      8  C   UNL     1      -8.881  11.115  -5.865  1.00  0.00     0.000 C 
BRANCH   8   9
ATOM      9  C   UNL     1      -9.847  12.310  -5.761  1.00  0.00     0.000 C 
BRANCH   9  10
ATOM     10  C   UNL     1     -10.470  12.766  -7.097  1.00  0.00     0.006 C 
BRANCH  10  11
ATOM     11  C   UNL     1     -11.773  13.569  -6.953  1.00  0.00     0.053 C 
BRANCH  11  12
ATOM     12  C   UNL     1     -11.744  14.833  -7.757  1.00  0.00     0.041 C 
ATOM     13  O   UNL     1     -11.347  14.814  -8.952  1.00  0.00    -0.550 OA
ATOM     14  O   UNL     1     -12.121  16.036  -7.175  1.00  0.00    -0.550 OA
ENDBRANCH  11  12
ENDBRANCH  10  11
ENDBRANCH   9  10
ENDBRANCH   8   9
ENDBRANCH   7   8
ENDBRANCH   6   7
ENDBRANCH   5   6
ENDBRANCH   4   5
ENDBRANCH   3   4
ENDBRANCH   2   3
ENDBRANCH   1   2
BRANCH   1  15
ATOM     15  C   UNL     1      -7.577  14.469 -11.859  1.00  0.00     0.000 C 
BRANCH  15  16
ATOM     16  C   UNL     1      -7.092  13.224 -12.626  1.00  0.00     0.000 C 
BRANCH  16  17
ATOM     17  C   UNL     1      -7.600  13.139 -14.081  1.00  0.00     0.000 C 
BRANCH  17  18
ATOM     18  C   UNL     1      -6.829  14.069 -15.037  1.00  0.00    -0.000 C 
BRANCH  18  19
ATOM     19  C   UNL     1      -5.839  14.984 -14.302  1.00  0.00    -0.000 C 
BRANCH  19  20
ATOM     20  C   UNL     1      -5.454  16.225 -15.125  1.00  0.00    -0.000 C 
BRANCH  20  21
ATOM     21  C   UNL     1      -6.461  17.378 -14.965  1.00  0.00    -0.000 C 
BRANCH  21  22
ATOM     22  C   UNL     1      -7.520  17.166 -13.865  1.00  0.00    -0.000 C 
BRANCH  22  23
ATOM     23  C   UNL     1      -8.141  18.457 -13.296  1.00  0.00    -0.000 C 
BRANCH  23  24
ATOM     24  C   UNL     1      -7.629  19.760 -13.937  1.00  0.00    -0.000 C 
BRANCH  24  25
ATOM     25  C   UNL     1      -7.153  20.786 -12.899  1.00  0.00    -0.003 C 
ATOM     26  C   UNL     1      -5.630  20.871 -12.866  1.00  0.00     0.004 C 
ENDBRANCH  24  25
ENDBRANCH  23  24
ENDBRANCH  22  23
ENDBRANCH  21  22
ENDBRANCH  20  21
ENDBRANCH  19  20
ENDBRANCH  18  19
ENDBRANCH  17  18
ENDBRANCH  16  17
ENDBRANCH  15  16
ENDBRANCH   1  15
TORSDOF 22
ENDMDL
MODEL 7
REMARK VINA RESULT:     8.918      2.895      9.261
REMARK INTER + INTRA:          18.726
REMARK INTER:                  19.064
REMARK INTRA:                  -0.338
REMARK UNBOUND:                -1.660
REMARK SMILES CCCCCCCCCCCCCCCCCCCCCCCC(=O)[O-]
REMARK SMILES IDX 13 1 14 2 15 3 16 4 17 5 18 6 19 7 20 8 21 9 22 10 23 11
REMARK SMILES IDX 24 12 25 13 26 14 12 15 11 16 10 17 9 18 8 19 7 20 6 21 5 22
REMARK SMILES IDX 4 23 3 24 2 25 1 26
REMARK H PARENT
REMARK Flexibility Score: inf
ROOT
ATOM      1  C   UNL     1      -6.512  13.538 -12.852  1.00  0.00     0.000 C 
ENDROOT
BRANCH   1   2
ATOM      2  C   UNL     1      -6.569  14.314 -14.180  1.00  0.00     0.000 C 
BRANCH   2   3
ATOM      3  C   UNL     1      -5.230  14.977 -14.547  1.00  0.00     0.000 C 
BRANCH   3   4
ATOM      4  C   UNL     1      -5.401  16.415 -15.070  1.00  0.00     0.000 C 
BRANCH   4   5
ATOM      5  C   UNL     1      -5.103  17.528 -14.041  1.00  0.00     0.000 C 
BRANCH   5   6
ATOM      6  C   UNL     1      -4.877  18.929 -14.637  1.00  0.00     0.000 C 
BRANCH   6   7
ATOM      7  C   UNL     1      -5.747  20.009 -13.980  1.00  0.00     0.000 C 
BRANCH   7   8
ATOM      8  C   UNL     1      -6.649  20.688 -15.021  1.00  0.00     0.000 C 
BRANCH   8   9
ATOM      9  C   UNL     1      -8.080  20.119 -15.041  1.00  0.00     0.000 C 
BRANCH   9  10
ATOM     10  C   UNL     1      -8.470  19.283 -13.804  1.00  0.00     0.006 C 
BRANCH  10  11
ATOM     11  C   UNL     1      -8.578  17.772 -14.063  1.00  0.00     0.053 C 
BRANCH  11  12
ATOM     12  C   UNL     1      -8.721  16.994 -12.790  1.00  0.00     0.041 C 
ATOM     13  O   UNL     1      -9.847  16.554 -12.439  1.00  0.00    -0.550 OA
ATOM     14  O   UNL     1      -7.616  16.787 -11.974  1.00  0.00    -0.550 OA
ENDBRANCH  11  12
ENDBRANCH  10  11
ENDBRANCH   9  10
ENDBRANCH   8   9
ENDBRANCH   7   8
ENDBRANCH   6   7
ENDBRANCH   5   6
ENDBRANCH   4   5
ENDBRANCH   3   4
ENDBRANCH   2   3
ENDBRANCH   1   2
BRANCH   1  15
ATOM     15  C   UNL     1      -7.407  14.097 -11.729  1.00  0.00     0.000 C 
BRANCH  15  16
ATOM     16  C   UNL     1      -7.459  13.252 -10.443  1.00  0.00     0.000 C 
BRANCH  16  17
ATOM     17  C   UNL     1      -6.929  13.977  -9.187  1.00  0.00     0.000 C 
BRANCH  17  18
ATOM     18  C   UNL     1      -6.200  13.031  -8.216  1.00  0.00    -0.000 C 
BRANCH  18  19
ATOM     19  C   UNL     1      -6.973  12.816  -6.907  1.00  0.00    -0.000 C 
BRANCH  19  20
ATOM     20  C   UNL     1      -6.054  12.459  -5.726  1.00  0.00    -0.000 C 
BRANCH  20  21
ATOM     21  C   UNL     1      -6.823  12.292  -4.404  1.00  0.00    -0.000 C 
BRANCH  21  22
ATOM     22  C   UNL     1      -7.394  10.880  -4.160  1.00  0.00    -0.000 C 
BRANCH  22  23
ATOM     23  C   UNL     1      -8.247  10.311  -5.312  1.00  0.00    -0.000 C 
BRANCH  23  24
ATOM     24  C   UNL     1      -9.721  10.752  -5.307  1.00  0.00    -0.000 C 
BRANCH  24  25
ATOM     25  C   UNL     1      -9.889  12.265  -5.511  1.00  0.00    -0.003 C 
ATOM     26  C   UNL     1     -10.130  12.599  -6.981  1.00  0.00     0.004 C 
ENDBRANCH  24  25
ENDBRANCH  23  24
ENDBRANCH  22  23
ENDBRANCH  21  22
ENDBRANCH  20  21
ENDBRANCH  19  20
ENDBRANCH  18  19
ENDBRANCH  17  18
ENDBRANCH  16  17
ENDBRANCH  15  16
ENDBRANCH   1  15
TORSDOF 22
ENDMDL
MODEL 8
REMARK VINA RESULT:     8.920      3.472      9.437
REMARK INTER + INTRA:          18.731
REMARK INTER:                  20.141
REMARK INTRA:                  -1.410
REMARK UNBOUND:                -1.660
REMARK SMILES CCCCCCCCCCCCCCCCCCCCCCCC(=O)[O-]
REMARK SMILES IDX 13 1 14 2 15 3 16 4 17 5 18 6 19 7 20 8 21 9 22 10 23 11
REMARK SMILES IDX 24 12 25 13 26 14 12 15 11 16 10 17 9 18 8 19 7 20 6 21 5 22
REMARK SMILES IDX 4 23 3 24 2 25 1 26
REMARK H PARENT
REMARK Flexibility Score: inf
ROOT
ATOM      1  C   UNL     1      -6.339  13.945  -8.331  1.00  0.00     0.000 C 
ENDROOT
BRANCH   1   2
ATOM      2  C   UNL     1      -6.886  13.513  -9.703  1.00  0.00     0.000 C 
BRANCH   2   3
ATOM      3  C   UNL     1      -7.104  14.695 -10.663  1.00  0.00     0.000 C 
BRANCH   3   4
ATOM      4  C   UNL     1      -7.675  14.259 -12.025  1.00  0.00     0.000 C 
BRANCH   4   5
ATOM      5  C   UNL     1      -6.635  13.729 -13.035  1.00  0.00     0.000 C 
BRANCH   5   6
ATOM      6  C   UNL     1      -7.181  13.426 -14.442  1.00  0.00     0.000 C 
BRANCH   6   7
ATOM      7  C   UNL     1      -7.917  14.618 -15.070  1.00  0.00     0.000 C 
BRANCH   7   8
ATOM      8  C   UNL     1      -7.072  15.895 -14.965  1.00  0.00     0.000 C 
BRANCH   8   9
ATOM      9  C   UNL     1      -7.920  17.164 -14.756  1.00  0.00     0.000 C 
BRANCH   9  10
ATOM     10  C   UNL     1      -8.219  17.515 -13.283  1.00  0.00     0.006 C 
BRANCH  10  11
ATOM     11  C   UNL     1      -8.310  19.022 -12.992  1.00  0.00     0.053 C 
BRANCH  11  12
ATOM     12  C   UNL     1      -7.037  19.736 -13.330  1.00  0.00     0.041 C 
ATOM     13  O   UNL     1      -6.002  19.081 -13.623  1.00  0.00    -0.550 OA
ATOM     14  O   UNL     1      -6.985  21.123 -13.287  1.00  0.00    -0.550 OA
ENDBRANCH  11  12
ENDBRANCH  10  11
ENDBRANCH   9  10
ENDBRANCH   8   9
ENDBRANCH   7   8
ENDBRANCH   6   7
ENDBRANCH   5   6
ENDBRANCH   4   5
ENDBRANCH   3   4
ENDBRANCH   2   3
ENDBRANCH   1   2
BRANCH   1  15
ATOM     15  C   UNL     1      -6.161  12.805  -7.309  1.00  0.00     0.000 C 
BRANCH  15  16
ATOM     16  C   UNL     1      -6.669  13.106  -5.888  1.00  0.00     0.000 C 
BRANCH  16  17
ATOM     17  C   UNL     1      -6.205  12.092  -4.821  1.00  0.00     0.000 C 
BRANCH  17  18
ATOM     18  C   UNL     1      -7.378  11.342  -4.162  1.00  0.00    -0.000 C 
BRANCH  18  19
ATOM     19  C   UNL     1      -8.231  10.569  -5.178  1.00  0.00    -0.000 C 
BRANCH  19  20
ATOM     20  C   UNL     1      -9.667  11.112  -5.281  1.00  0.00    -0.000 C 
BRANCH  20  21
ATOM     21  C   UNL     1      -9.742  12.454  -6.029  1.00  0.00    -0.000 C 
BRANCH  21  22
ATOM     22  C   UNL     1      -9.732  12.341  -7.567  1.00  0.00    -0.000 C 
BRANCH  22  23
ATOM     23  C   UNL     1     -10.444  13.488  -8.313  1.00  0.00    -0.000 C 
BRANCH  23  24
ATOM     24  C   UNL     1     -11.789  13.920  -7.703  1.00  0.00    -0.000 C 
BRANCH  24  25
ATOM     25  C   UNL     1     -12.165  15.366  -8.059  1.00  0.00    -0.003 C 
ATOM     26  C   UNL     1     -12.429  16.192  -6.804  1.00  0.00     0.004 C 
ENDBRANCH  24  25
ENDBRANCH  23  24
ENDBRANCH  22  23
ENDBRANCH  21  22
ENDBRANCH  20  21
ENDBRANCH  19  20
ENDBRANCH  18  19
ENDBRANCH  17  18
ENDBRANCH  16  17
ENDBRANCH  15  16
ENDBRANCH   1  15
TORSDOF 22
ENDMDL
MODEL 9
REMARK VINA RESULT:     8.932      1.410      4.407
REMARK INTER + INTRA:          18.759
REMARK INTER:                  18.422
REMARK INTRA:                   0.338
REMARK UNBOUND:                -1.660
REMARK SMILES CCCCCCCCCCCCCCCCCCCCCCCC(=O)[O-]
REMARK SMILES IDX 13 1 14 2 15 3 16 4 17 5 18 6 19 7 20 8 21 9 22 10 23 11
REMARK SMILES IDX 24 12 25 13 26 14 12 15 11 16 10 17 9 18 8 19 7 20 6 21 5 22
REMARK SMILES IDX 4 23 3 24 2 25 1 26
REMARK H PARENT
REMARK Flexibility Score: inf
ROOT
ATOM      1  C   UNL     1      -9.567  14.525  -9.911  1.00  0.00     0.000 C 
ENDROOT
BRANCH   1   2
ATOM      2  C   UNL     1     -10.908  15.033  -9.351  1.00  0.00     0.000 C 
BRANCH   2   3
ATOM      3  C   UNL     1     -11.427  14.189  -8.174  1.00  0.00     0.000 C 
BRANCH   3   4
ATOM      4  C   UNL     1     -10.411  13.129  -7.708  1.00  0.00     0.000 C 
BRANCH   4   5
ATOM      5  C   UNL     1     -10.338  12.916  -6.181  1.00  0.00     0.000 C 
BRANCH   5   6
ATOM      6  C   UNL     1     -10.039  11.474  -5.733  1.00  0.00     0.000 C 
BRANCH   6   7
ATOM      7  C   UNL     1      -8.560  11.246  -5.387  1.00  0.00     0.000 C 
BRANCH   7   8
ATOM      8  C   UNL     1      -7.653  12.084  -6.301  1.00  0.00     0.000 C 
BRANCH   8   9
ATOM      9  C   UNL     1      -6.436  12.673  -5.564  1.00  0.00     0.000 C 
BRANCH   9  10
ATOM     10  C   UNL     1      -5.893  11.811  -4.405  1.00  0.00     0.006 C 
BRANCH  10  11
ATOM     11  C   UNL     1      -6.973  11.078  -3.594  1.00  0.00     0.053 C 
BRANCH  11  12
ATOM     12  C   UNL     1      -6.553  10.855  -2.173  1.00  0.00     0.041 C 
ATOM     13  O   UNL     1      -7.405  10.892  -1.247  1.00  0.00    -0.550 OA
ATOM     14  O   UNL     1      -5.214  10.642  -1.869  1.00  0.00    -0.550 OA
ENDBRANCH  11  12
ENDBRANCH  10  11
ENDBRANCH   9  10
ENDBRANCH   8   9
ENDBRANCH   7   8
ENDBRANCH   6   7
ENDBRANCH   5   6
ENDBRANCH   4   5
ENDBRANCH   3   4
ENDBRANCH   2   3
ENDBRANCH   1   2
BRANCH   1  15
ATOM     15  C   UNL     1      -8.986  15.357 -11.071  1.00  0.00     0.000 C 
BRANCH  15  16
ATOM     16  C   UNL     1      -7.531  15.032 -11.453  1.00  0.00     0.000 C 
BRANCH  16  17
ATOM     17  C   UNL     1      -7.387  13.937 -12.532  1.00  0.00     0.000 C 
BRANCH  17  18
ATOM     18  C   UNL     1      -7.373  14.509 -13.962  1.00  0.00    -0.000 C 
BRANCH  18  19
ATOM     19  C   UNL     1      -6.066  14.204 -14.708  1.00  0.00    -0.000 C 
BRANCH  19  20
ATOM     20  C   UNL     1      -5.308  15.476 -15.123  1.00  0.00    -0.000 C 
BRANCH  20  21
ATOM     21  C   UNL     1      -6.055  16.765 -14.736  1.00  0.00    -0.000 C 
BRANCH  21  22
ATOM     22  C   UNL     1      -5.291  18.071 -15.033  1.00  0.00    -0.000 C 
BRANCH  22  23
ATOM     23  C   UNL     1      -5.270  19.094 -13.879  1.00  0.00    -0.000 C 
BRANCH  23  24
ATOM     24  C   UNL     1      -6.059  20.388 -14.146  1.00  0.00    -0.000 C 
BRANCH  24  25
ATOM     25  C   UNL     1      -7.570  20.146 -14.280  1.00  0.00    -0.003 C 
ATOM     26  C   UNL     1      -8.110  19.362 -13.088  1.00  0.00     0.004 C 
ENDBRANCH  24  25
ENDBRANCH  23  24
ENDBRANCH  22  23
ENDBRANCH  21  22
ENDBRANCH  20  21
ENDBRANCH  19  20
ENDBRANCH  18  19
ENDBRANCH  17  18
ENDBRANCH  16  17
ENDBRANCH  15  16
ENDBRANCH   1  15
TORSDOF 22
ENDMDL
