MODEL 1
REMARK VINA RESULT:    -6.204      0.000      0.000
REMARK INTER + INTRA:         -17.351
REMARK INTER:                 -14.183
REMARK INTRA:                  -3.168
REMARK UNBOUND:                -3.168
REMARK SMILES CCCCCCCCCCCCCCCCCCCCCCCC(=O)[O-]
REMARK SMILES IDX 13 1 14 2 15 3 16 4 17 5 18 6 19 7 20 8 21 9 22 10 23 11
REMARK SMILES IDX 24 12 25 13 26 14 12 15 11 16 10 17 9 18 8 19 7 20 6 21 5 22
REMARK SMILES IDX 4 23 3 24 2 25 1 26
REMARK H PARENT
REMARK Flexibility Score: inf
ROOT
ATOM      1  C   UNL     1      14.756  -2.643  18.364  1.00  0.00     0.000 C 
ENDROOT
BRANCH   1   2
ATOM      2  C   UNL     1      15.676  -2.979  17.178  1.00  0.00     0.000 C 
BRANCH   2   3
ATOM      3  C   UNL     1      17.123  -3.249  17.616  1.00  0.00     0.000 C 
BRANCH   3   4
ATOM      4  C   UNL     1      18.102  -2.307  16.905  1.00  0.00     0.000 C 
BRANCH   4   5
ATOM      5  C   UNL     1      18.379  -2.785  15.472  1.00  0.00     0.000 C 
BRANCH   5   6
ATOM      6  C   UNL     1      18.470  -1.629  14.464  1.00  0.00     0.000 C 
BRANCH   6   7
ATOM      7  C   UNL     1      17.476  -1.773  13.301  1.00  0.00     0.000 C 
BRANCH   7   8
ATOM      8  C   UNL     1      17.829  -0.805  12.161  1.00  0.00     0.000 C 
BRANCH   8   9
ATOM      9  C   UNL     1      17.273  -1.259  10.802  1.00  0.00     0.000 C 
BRANCH   9  10
ATOM     10  C   UNL     1      17.839  -0.444   9.628  1.00  0.00     0.006 C 
BRANCH  10  11
ATOM     11  C   UNL     1      18.035  -1.329   8.392  1.00  0.00     0.053 C 
BRANCH  11  12
ATOM     12  C   UNL     1      18.980  -0.696   7.417  1.00  0.00     0.041 C 
ATOM     13  O   UNL     1      20.038  -1.291   7.078  1.00  0.00    -0.550 OA
ATOM     14  O   UNL     1      18.674   0.539   6.856  1.00  0.00    -0.550 OA
ENDBRANCH  11  12
ENDBRANCH  10  11
ENDBRANCH   9  10
ENDBRANCH   8   9
ENDBRANCH   7   8
ENDBRANCH   6   7
ENDBRANCH   5   6
ENDBRANCH   4   5
ENDBRANCH   3   4
ENDBRANCH   2   3
ENDBRANCH   1   2
BRANCH   1  15
ATOM     15  C   UNL     1      15.536  -2.107  19.578  1.00  0.00     0.000 C 
BRANCH  15  16
ATOM     16  C   UNL     1      14.648  -1.272  20.526  1.00  0.00     0.000 C 
BRANCH  16  17
ATOM     17  C   UNL     1      13.697  -0.306  19.795  1.00  0.00     0.000 C 
BRANCH  17  18
ATOM     18  C   UNL     1      14.239   1.125  19.614  1.00  0.00    -0.000 C 
BRANCH  18  19
ATOM     19  C   UNL     1      13.540   1.952  18.516  1.00  0.00    -0.000 C 
BRANCH  19  20
ATOM     20  C   UNL     1      14.273   1.995  17.161  1.00  0.00    -0.000 C 
BRANCH  20  21
ATOM     21  C   UNL     1      15.644   1.296  17.140  1.00  0.00    -0.000 C 
BRANCH  21  22
ATOM     22  C   UNL     1      15.904   0.534  15.831  1.00  0.00    -0.000 C 
BRANCH  22  23
ATOM     23  C   UNL     1      14.608  -0.041  15.222  1.00  0.00    -0.000 C 
BRANCH  23  24
ATOM     24  C   UNL     1      14.466   0.219  13.708  1.00  0.00    -0.000 C 
BRANCH  24  25
ATOM     25  C   UNL     1      14.945   1.607  13.248  1.00  0.00    -0.003 C 
ATOM     26  C   UNL     1      15.469   1.609  11.812  1.00  0.00     0.004 C 
ENDBRANCH  24  25
ENDBRANCH  23  24
ENDBRANCH  22  23
ENDBRANCH  21  22
ENDBRANCH  20  21
ENDBRANCH  19  20
ENDBRANCH  18  19
ENDBRANCH  17  18
ENDBRANCH  16  17
ENDBRANCH  15  16
ENDBRANCH   1  15
TORSDOF 22
ENDMDL
MODEL 2
REMARK VINA RESULT:    -5.861      1.226      3.882
REMARK INTER + INTRA:         -16.566
REMARK INTER:                 -14.405
REMARK INTRA:                  -2.161
REMARK UNBOUND:                -3.168
REMARK SMILES CCCCCCCCCCCCCCCCCCCCCCCC(=O)[O-]
REMARK SMILES IDX 13 1 14 2 15 3 16 4 17 5 18 6 19 7 20 8 21 9 22 10 23 11
REMARK SMILES IDX 24 12 25 13 26 14 12 15 11 16 10 17 9 18 8 19 7 20 6 21 5 22
REMARK SMILES IDX 4 23 3 24 2 25 1 26
REMARK H PARENT
REMARK Flexibility Score: inf
ROOT
ATOM      1  C   UNL     1      13.234   0.712  18.409  1.00  0.00     0.000 C 
ENDROOT
BRANCH   1   2
ATOM      2  C   UNL     1      13.071   1.704  17.245  1.00  0.00     0.000 C 
BRANCH   2   3
ATOM      3  C   UNL     1      14.390   2.405  16.883  1.00  0.00     0.000 C 
BRANCH   3   4
ATOM      4  C   UNL     1      15.157   1.620  15.813  1.00  0.00     0.000 C 
BRANCH   4   5
ATOM      5  C   UNL     1      14.246   1.277  14.625  1.00  0.00     0.000 C 
BRANCH   5   6
ATOM      6  C   UNL     1      14.789   1.798  13.286  1.00  0.00     0.000 C 
BRANCH   6   7
ATOM      7  C   UNL     1      16.002   0.999  12.784  1.00  0.00     0.000 C 
BRANCH   7   8
ATOM      8  C   UNL     1      15.859   0.674  11.289  1.00  0.00     0.000 C 
BRANCH   8   9
ATOM      9  C   UNL     1      16.675  -0.558  10.867  1.00  0.00     0.000 C 
BRANCH   9  10
ATOM     10  C   UNL     1      17.839  -0.205   9.928  1.00  0.00     0.006 C 
BRANCH  10  11
ATOM     11  C   UNL     1      17.867  -1.142   8.715  1.00  0.00     0.053 C 
BRANCH  11  12
ATOM     12  C   UNL     1      18.867  -0.683   7.699  1.00  0.00     0.041 C 
ATOM     13  O   UNL     1      19.753  -1.473   7.275  1.00  0.00    -0.550 OA
ATOM     14  O   UNL     1      18.800   0.611   7.195  1.00  0.00    -0.550 OA
ENDBRANCH  11  12
ENDBRANCH  10  11
ENDBRANCH   9  10
ENDBRANCH   8   9
ENDBRANCH   7   8
ENDBRANCH   6   7
ENDBRANCH   5   6
ENDBRANCH   4   5
ENDBRANCH   3   4
ENDBRANCH   2   3
ENDBRANCH   1   2
BRANCH   1  15
ATOM     15  C   UNL     1      13.238  -0.752  17.936  1.00  0.00     0.000 C 
BRANCH  15  16
ATOM     16  C   UNL     1      13.014  -1.746  19.097  1.00  0.00     0.000 C 
BRANCH  16  17
ATOM     17  C   UNL     1      13.699  -1.328  20.412  1.00  0.00     0.000 C 
BRANCH  17  18
ATOM     18  C   UNL     1      15.236  -1.439  20.407  1.00  0.00    -0.000 C 
BRANCH  18  19
ATOM     19  C   UNL     1      15.826  -2.246  19.232  1.00  0.00    -0.000 C 
BRANCH  19  20
ATOM     20  C   UNL     1      16.971  -1.551  18.469  1.00  0.00    -0.000 C 
BRANCH  20  21
ATOM     21  C   UNL     1      16.605  -1.051  17.060  1.00  0.00    -0.000 C 
BRANCH  21  22
ATOM     22  C   UNL     1      16.682  -2.159  15.997  1.00  0.00    -0.000 C 
BRANCH  22  23
ATOM     23  C   UNL     1      17.105  -1.616  14.617  1.00  0.00    -0.000 C 
BRANCH  23  24
ATOM     24  C   UNL     1      18.507  -2.082  14.171  1.00  0.00    -0.000 C 
BRANCH  24  25
ATOM     25  C   UNL     1      19.426  -2.536  15.318  1.00  0.00    -0.003 C 
ATOM     26  C   UNL     1      20.246  -1.391  15.911  1.00  0.00     0.004 C 
ENDBRANCH  24  25
ENDBRANCH  23  24
ENDBRANCH  22  23
ENDBRANCH  21  22
ENDBRANCH  20  21
ENDBRANCH  19  20
ENDBRANCH  18  19
ENDBRANCH  17  18
ENDBRANCH  16  17
ENDBRANCH  15  16
ENDBRANCH   1  15
TORSDOF 22
ENDMDL
MODEL 3
REMARK VINA RESULT:    -5.826      1.661      3.569
REMARK INTER + INTRA:         -16.488
REMARK INTER:                 -13.737
REMARK INTRA:                  -2.751
REMARK UNBOUND:                -3.168
REMARK SMILES CCCCCCCCCCCCCCCCCCCCCCCC(=O)[O-]
REMARK SMILES IDX 13 1 14 2 15 3 16 4 17 5 18 6 19 7 20 8 21 9 22 10 23 11
REMARK SMILES IDX 24 12 25 13 26 14 12 15 11 16 10 17 9 18 8 19 7 20 6 21 5 22
REMARK SMILES IDX 4 23 3 24 2 25 1 26
REMARK H PARENT
REMARK Flexibility Score: inf
ROOT
ATOM      1  C   UNL     1      18.247  -2.078  16.751  1.00  0.00     0.000 C 
ENDROOT
BRANCH   1   2
ATOM      2  C   UNL     1      18.629  -2.532  15.332  1.00  0.00     0.000 C 
BRANCH   2   3
ATOM      3  C   UNL     1      18.574  -1.382  14.315  1.00  0.00     0.000 C 
BRANCH   3   4
ATOM      4  C   UNL     1      17.735  -1.767  13.090  1.00  0.00     0.000 C 
BRANCH   4   5
ATOM      5  C   UNL     1      17.817  -0.682  12.007  1.00  0.00     0.000 C 
BRANCH   5   6
ATOM      6  C   UNL     1      17.352  -1.178  10.630  1.00  0.00     0.000 C 
BRANCH   6   7
ATOM      7  C   UNL     1      17.765  -0.236   9.487  1.00  0.00     0.000 C 
BRANCH   7   8
ATOM      8  C   UNL     1      18.140  -1.037   8.231  1.00  0.00     0.000 C 
BRANCH   8   9
ATOM      9  C   UNL     1      18.963  -0.217   7.225  1.00  0.00     0.000 C 
BRANCH   9  10
ATOM     10  C   UNL     1      20.399  -0.742   7.068  1.00  0.00     0.006 C 
BRANCH  10  11
ATOM     11  C   UNL     1      20.400  -2.230   6.698  1.00  0.00     0.053 C 
BRANCH  11  12
ATOM     12  C   UNL     1      21.734  -2.655   6.167  1.00  0.00     0.041 C 
ATOM     13  O   UNL     1      22.563  -1.795   5.764  1.00  0.00    -0.550 OA
ATOM     14  O   UNL     1      22.076  -4.003   6.149  1.00  0.00    -0.550 OA
ENDBRANCH  11  12
ENDBRANCH  10  11
ENDBRANCH   9  10
ENDBRANCH   8   9
ENDBRANCH   7   8
ENDBRANCH   6   7
ENDBRANCH   5   6
ENDBRANCH   4   5
ENDBRANCH   3   4
ENDBRANCH   2   3
ENDBRANCH   1   2
BRANCH   1  15
ATOM     15  C   UNL     1      18.323  -0.550  16.920  1.00  0.00     0.000 C 
BRANCH  15  16
ATOM     16  C   UNL     1      17.237  -0.008  17.875  1.00  0.00     0.000 C 
BRANCH  16  17
ATOM     17  C   UNL     1      16.864  -0.984  19.007  1.00  0.00     0.000 C 
BRANCH  17  18
ATOM     18  C   UNL     1      15.523  -0.687  19.704  1.00  0.00    -0.000 C 
BRANCH  18  19
ATOM     19  C   UNL     1      14.271  -1.153  18.934  1.00  0.00    -0.000 C 
BRANCH  19  20
ATOM     20  C   UNL     1      13.317  -0.027  18.488  1.00  0.00    -0.000 C 
BRANCH  20  21
ATOM     21  C   UNL     1      13.782   1.397  18.842  1.00  0.00    -0.000 C 
BRANCH  21  22
ATOM     22  C   UNL     1      13.726   2.357  17.643  1.00  0.00    -0.000 C 
BRANCH  22  23
ATOM     23  C   UNL     1      13.688   1.607  16.295  1.00  0.00    -0.000 C 
BRANCH  23  24
ATOM     24  C   UNL     1      14.912   1.883  15.398  1.00  0.00    -0.000 C 
BRANCH  24  25
ATOM     25  C   UNL     1      15.367   0.685  14.547  1.00  0.00    -0.003 C 
ATOM     26  C   UNL     1      15.057  -0.660  15.201  1.00  0.00     0.004 C 
ENDBRANCH  24  25
ENDBRANCH  23  24
ENDBRANCH  22  23
ENDBRANCH  21  22
ENDBRANCH  20  21
ENDBRANCH  19  20
ENDBRANCH  18  19
ENDBRANCH  17  18
ENDBRANCH  16  17
ENDBRANCH  15  16
ENDBRANCH   1  15
TORSDOF 22
ENDMDL
MODEL 4
REMARK VINA RESULT:    -5.783      2.535      7.459
REMARK INTER + INTRA:         -16.388
REMARK INTER:                 -14.226
REMARK INTRA:                  -2.162
REMARK UNBOUND:                -3.168
REMARK SMILES CCCCCCCCCCCCCCCCCCCCCCCC(=O)[O-]
REMARK SMILES IDX 13 1 14 2 15 3 16 4 17 5 18 6 19 7 20 8 21 9 22 10 23 11
REMARK SMILES IDX 24 12 25 13 26 14 12 15 11 16 10 17 9 18 8 19 7 20 6 21 5 22
REMARK SMILES IDX 4 23 3 24 2 25 1 26
REMARK H PARENT
REMARK Flexibility Score: inf
ROOT
ATOM      1  C   UNL     1      18.085  -0.441  17.212  1.00  0.00     0.000 C 
ENDROOT
BRANCH   1   2
ATOM      2  C   UNL     1      17.359  -0.690  18.545  1.00  0.00     0.000 C 
BRANCH   2   3
ATOM      3  C   UNL     1      16.576  -2.011  18.548  1.00  0.00     0.000 C 
BRANCH   3   4
ATOM      4  C   UNL     1      15.304  -1.898  19.396  1.00  0.00     0.000 C 
BRANCH   4   5
ATOM      5  C   UNL     1      14.059  -1.783  18.505  1.00  0.00     0.000 C 
BRANCH   5   6
ATOM      6  C   UNL     1      13.212  -0.542  18.820  1.00  0.00     0.000 C 
BRANCH   6   7
ATOM      7  C   UNL     1      14.061   0.724  19.020  1.00  0.00     0.000 C 
BRANCH   7   8
ATOM      8  C   UNL     1      13.449   1.914  18.266  1.00  0.00     0.000 C 
BRANCH   8   9
ATOM      9  C   UNL     1      14.423   2.543  17.257  1.00  0.00     0.000 C 
BRANCH   9  10
ATOM     10  C   UNL     1      15.036   1.509  16.300  1.00  0.00     0.006 C 
BRANCH  10  11
ATOM     11  C   UNL     1      13.981   0.977  15.323  1.00  0.00     0.053 C 
BRANCH  11  12
ATOM     12  C   UNL     1      14.495   0.984  13.916  1.00  0.00     0.041 C 
ATOM     13  O   UNL     1      14.402  -0.048  13.198  1.00  0.00    -0.550 OA
ATOM     14  O   UNL     1      15.047   2.145  13.385  1.00  0.00    -0.550 OA
ENDBRANCH  11  12
ENDBRANCH  10  11
ENDBRANCH   9  10
ENDBRANCH   8   9
ENDBRANCH   7   8
ENDBRANCH   6   7
ENDBRANCH   5   6
ENDBRANCH   4   5
ENDBRANCH   3   4
ENDBRANCH   2   3
ENDBRANCH   1   2
BRANCH   1  15
ATOM     15  C   UNL     1      18.167  -1.708  16.342  1.00  0.00     0.000 C 
BRANCH  15  16
ATOM     16  C   UNL     1      17.404  -1.555  15.008  1.00  0.00     0.000 C 
BRANCH  16  17
ATOM     17  C   UNL     1      18.305  -1.659  13.763  1.00  0.00     0.000 C 
BRANCH  17  18
ATOM     18  C   UNL     1      17.553  -1.674  12.418  1.00  0.00    -0.000 C 
BRANCH  18  19
ATOM     19  C   UNL     1      17.870  -0.489  11.483  1.00  0.00    -0.000 C 
BRANCH  19  20
ATOM     20  C   UNL     1      17.063  -0.456  10.170  1.00  0.00    -0.000 C 
BRANCH  20  21
ATOM     21  C   UNL     1      17.809  -0.989   8.934  1.00  0.00    -0.000 C 
BRANCH  21  22
ATOM     22  C   UNL     1      18.234   0.127   7.967  1.00  0.00    -0.000 C 
BRANCH  22  23
ATOM     23  C   UNL     1      19.096  -0.404   6.803  1.00  0.00    -0.000 C 
BRANCH  23  24
ATOM     24  C   UNL     1      20.445  -1.001   7.254  1.00  0.00    -0.000 C 
BRANCH  24  25
ATOM     25  C   UNL     1      20.812  -2.337   6.584  1.00  0.00    -0.003 C 
ATOM     26  C   UNL     1      22.195  -2.314   5.935  1.00  0.00     0.004 C 
ENDBRANCH  24  25
ENDBRANCH  23  24
ENDBRANCH  22  23
ENDBRANCH  21  22
ENDBRANCH  20  21
ENDBRANCH  19  20
ENDBRANCH  18  19
ENDBRANCH  17  18
ENDBRANCH  16  17
ENDBRANCH  15  16
ENDBRANCH   1  15
TORSDOF 22
ENDMDL
MODEL 5
REMARK VINA RESULT:    -5.729      3.669      6.515
REMARK INTER + INTRA:         -16.266
REMARK INTER:                 -13.076
REMARK INTRA:                  -3.190
REMARK UNBOUND:                -3.168
REMARK SMILES CCCCCCCCCCCCCCCCCCCCCCCC(=O)[O-]
REMARK SMILES IDX 13 1 14 2 15 3 16 4 17 5 18 6 19 7 20 8 21 9 22 10 23 11
REMARK SMILES IDX 24 12 25 13 26 14 12 15 11 16 10 17 9 18 8 19 7 20 6 21 5 22
REMARK SMILES IDX 4 23 3 24 2 25 1 26
REMARK H PARENT
REMARK Flexibility Score: inf
ROOT
ATOM      1  C   UNL     1      17.253  -0.199  12.231  1.00  0.00     0.000 C 
ENDROOT
BRANCH   1   2
ATOM      2  C   UNL     1      17.427  -1.416  13.154  1.00  0.00     0.000 C 
BRANCH   2   3
ATOM      3  C   UNL     1      16.193  -1.665  14.035  1.00  0.00     0.000 C 
BRANCH   3   4
ATOM      4  C   UNL     1      16.587  -1.811  15.510  1.00  0.00     0.000 C 
BRANCH   4   5
ATOM      5  C   UNL     1      16.921  -0.444  16.126  1.00  0.00     0.000 C 
BRANCH   5   6
ATOM      6  C   UNL     1      18.209  -0.465  16.961  1.00  0.00     0.000 C 
BRANCH   6   7
ATOM      7  C   UNL     1      19.014  -1.762  16.783  1.00  0.00     0.000 C 
BRANCH   7   8
ATOM      8  C   UNL     1      20.196  -1.543  15.827  1.00  0.00     0.000 C 
BRANCH   8   9
ATOM      9  C   UNL     1      21.378  -2.481  16.116  1.00  0.00     0.000 C 
BRANCH   9  10
ATOM     10  C   UNL     1      22.718  -1.734  16.212  1.00  0.00     0.006 C 
BRANCH  10  11
ATOM     11  C   UNL     1      22.502  -0.217  16.167  1.00  0.00     0.053 C 
BRANCH  11  12
ATOM     12  C   UNL     1      23.788   0.520  16.378  1.00  0.00     0.041 C 
ATOM     13  O   UNL     1      24.165   1.393  15.550  1.00  0.00    -0.550 OA
ATOM     14  O   UNL     1      24.557   0.266  17.509  1.00  0.00    -0.550 OA
ENDBRANCH  11  12
ENDBRANCH  10  11
ENDBRANCH   9  10
ENDBRANCH   8   9
ENDBRANCH   7   8
ENDBRANCH   6   7
ENDBRANCH   5   6
ENDBRANCH   4   5
ENDBRANCH   3   4
ENDBRANCH   2   3
ENDBRANCH   1   2
BRANCH   1  15
ATOM     15  C   UNL     1      15.773   0.138  11.976  1.00  0.00     0.000 C 
BRANCH  15  16
ATOM     16  C   UNL     1      15.432   1.601  12.335  1.00  0.00     0.000 C 
BRANCH  16  17
ATOM     17  C   UNL     1      15.122   1.817  13.829  1.00  0.00     0.000 C 
BRANCH  17  18
ATOM     18  C   UNL     1      13.958   0.970  14.378  1.00  0.00    -0.000 C 
BRANCH  18  19
ATOM     19  C   UNL     1      13.150   1.633  15.512  1.00  0.00    -0.000 C 
BRANCH  19  20
ATOM     20  C   UNL     1      13.979   2.083  16.732  1.00  0.00    -0.000 C 
BRANCH  20  21
ATOM     21  C   UNL     1      13.313   1.835  18.098  1.00  0.00    -0.000 C 
BRANCH  21  22
ATOM     22  C   UNL     1      13.502   0.395  18.600  1.00  0.00    -0.000 C 
BRANCH  22  23
ATOM     23  C   UNL     1      14.463   0.319  19.805  1.00  0.00    -0.000 C 
BRANCH  23  24
ATOM     24  C   UNL     1      15.600  -0.709  19.627  1.00  0.00    -0.000 C 
BRANCH  24  25
ATOM     25  C   UNL     1      15.162  -2.049  19.011  1.00  0.00    -0.003 C 
ATOM     26  C   UNL     1      16.312  -3.047  18.881  1.00  0.00     0.004 C 
ENDBRANCH  24  25
ENDBRANCH  23  24
ENDBRANCH  22  23
ENDBRANCH  21  22
ENDBRANCH  20  21
ENDBRANCH  19  20
ENDBRANCH  18  19
ENDBRANCH  17  18
ENDBRANCH  16  17
ENDBRANCH  15  16
ENDBRANCH   1  15
TORSDOF 22
ENDMDL
MODEL 6
REMARK VINA RESULT:    -5.711      4.482      5.945
REMARK INTER + INTRA:         -16.224
REMARK INTER:                 -12.922
REMARK INTRA:                  -3.301
REMARK UNBOUND:                -3.168
REMARK SMILES CCCCCCCCCCCCCCCCCCCCCCCC(=O)[O-]
REMARK SMILES IDX 13 1 14 2 15 3 16 4 17 5 18 6 19 7 20 8 21 9 22 10 23 11
REMARK SMILES IDX 24 12 25 13 26 14 12 15 11 16 10 17 9 18 8 19 7 20 6 21 5 22
REMARK SMILES IDX 4 23 3 24 2 25 1 26
REMARK H PARENT
REMARK Flexibility Score: inf
ROOT
ATOM      1  C   UNL     1      17.158  -0.672  17.158  1.00  0.00     0.000 C 
ENDROOT
BRANCH   1   2
ATOM      2  C   UNL     1      16.188  -1.655  16.481  1.00  0.00     0.000 C 
BRANCH   2   3
ATOM      3  C   UNL     1      16.467  -1.812  14.978  1.00  0.00     0.000 C 
BRANCH   3   4
ATOM      4  C   UNL     1      17.871  -1.311  14.621  1.00  0.00     0.000 C 
BRANCH   4   5
ATOM      5  C   UNL     1      18.804  -2.484  14.287  1.00  0.00     0.000 C 
BRANCH   5   6
ATOM      6  C   UNL     1      19.732  -2.859  15.452  1.00  0.00     0.000 C 
BRANCH   6   7
ATOM      7  C   UNL     1      20.497  -1.651  16.015  1.00  0.00     0.000 C 
BRANCH   7   8
ATOM      8  C   UNL     1      21.984  -1.990  16.206  1.00  0.00     0.000 C 
BRANCH   8   9
ATOM      9  C   UNL     1      22.240  -3.500  16.321  1.00  0.00     0.000 C 
BRANCH   9  10
ATOM     10  C   UNL     1      23.636  -3.904  15.820  1.00  0.00     0.006 C 
BRANCH  10  11
ATOM     11  C   UNL     1      24.722  -3.438  16.796  1.00  0.00     0.053 C 
BRANCH  11  12
ATOM     12  C   UNL     1      24.923  -4.433  17.898  1.00  0.00     0.041 C 
ATOM     13  O   UNL     1      25.349  -4.059  19.023  1.00  0.00    -0.550 OA
ATOM     14  O   UNL     1      24.607  -5.771  17.690  1.00  0.00    -0.550 OA
ENDBRANCH  11  12
ENDBRANCH  10  11
ENDBRANCH   9  10
ENDBRANCH   8   9
ENDBRANCH   7   8
ENDBRANCH   6   7
ENDBRANCH   5   6
ENDBRANCH   4   5
ENDBRANCH   3   4
ENDBRANCH   2   3
ENDBRANCH   1   2
BRANCH   1  15
ATOM     15  C   UNL     1      17.038  -0.691  18.692  1.00  0.00     0.000 C 
BRANCH  15  16
ATOM     16  C   UNL     1      16.097  -1.809  19.194  1.00  0.00     0.000 C 
BRANCH  16  17
ATOM     17  C   UNL     1      15.130  -1.355  20.303  1.00  0.00     0.000 C 
BRANCH  17  18
ATOM     18  C   UNL     1      14.103  -0.291  19.873  1.00  0.00    -0.000 C 
BRANCH  18  19
ATOM     19  C   UNL     1      13.294  -0.642  18.607  1.00  0.00    -0.000 C 
BRANCH  19  20
ATOM     20  C   UNL     1      13.225   0.472  17.543  1.00  0.00    -0.000 C 
BRANCH  20  21
ATOM     21  C   UNL     1      14.207   1.638  17.757  1.00  0.00    -0.000 C 
BRANCH  21  22
ATOM     22  C   UNL     1      15.065   1.929  16.515  1.00  0.00    -0.000 C 
BRANCH  22  23
ATOM     23  C   UNL     1      14.314   1.627  15.202  1.00  0.00    -0.000 C 
BRANCH  23  24
ATOM     24  C   UNL     1      15.237   1.535  13.968  1.00  0.00    -0.000 C 
BRANCH  24  25
ATOM     25  C   UNL     1      14.777   0.531  12.897  1.00  0.00    -0.003 C 
ATOM     26  C   UNL     1      15.546   0.671  11.584  1.00  0.00     0.004 C 
ENDBRANCH  24  25
ENDBRANCH  23  24
ENDBRANCH  22  23
ENDBRANCH  21  22
ENDBRANCH  20  21
ENDBRANCH  19  20
ENDBRANCH  18  19
ENDBRANCH  17  18
ENDBRANCH  16  17
ENDBRANCH  15  16
ENDBRANCH   1  15
TORSDOF 22
ENDMDL
MODEL 7
REMARK VINA RESULT:    -5.699      1.054      2.103
REMARK INTER + INTRA:         -16.197
REMARK INTER:                 -13.729
REMARK INTRA:                  -2.468
REMARK UNBOUND:                -3.168
REMARK SMILES CCCCCCCCCCCCCCCCCCCCCCCC(=O)[O-]
REMARK SMILES IDX 13 1 14 2 15 3 16 4 17 5 18 6 19 7 20 8 21 9 22 10 23 11
REMARK SMILES IDX 24 12 25 13 26 14 12 15 11 16 10 17 9 18 8 19 7 20 6 21 5 22
REMARK SMILES IDX 4 23 3 24 2 25 1 26
REMARK H PARENT
REMARK Flexibility Score: inf
ROOT
ATOM      1  C   UNL     1      15.998  -1.575  16.643  1.00  0.00     0.000 C 
ENDROOT
BRANCH   1   2
ATOM      2  C   UNL     1      17.533  -1.515  16.723  1.00  0.00     0.000 C 
BRANCH   2   3
ATOM      3  C   UNL     1      18.185  -2.887  16.496  1.00  0.00     0.000 C 
BRANCH   3   4
ATOM      4  C   UNL     1      19.045  -2.887  15.227  1.00  0.00     0.000 C 
BRANCH   4   5
ATOM      5  C   UNL     1      18.821  -1.604  14.413  1.00  0.00     0.000 C 
BRANCH   5   6
ATOM      6  C   UNL     1      17.884  -1.814  13.214  1.00  0.00     0.000 C 
BRANCH   6   7
ATOM      7  C   UNL     1      18.055  -0.740  12.129  1.00  0.00     0.000 C 
BRANCH   7   8
ATOM      8  C   UNL     1      17.292  -1.128  10.853  1.00  0.00     0.000 C 
BRANCH   8   9
ATOM      9  C   UNL     1      17.637  -0.230   9.655  1.00  0.00     0.000 C 
BRANCH   9  10
ATOM     10  C   UNL     1      18.046  -1.033   8.411  1.00  0.00     0.006 C 
BRANCH  10  11
ATOM     11  C   UNL     1      18.216  -0.112   7.198  1.00  0.00     0.053 C 
BRANCH  11  12
ATOM     12  C   UNL     1      19.664   0.091   6.870  1.00  0.00     0.041 C 
ATOM     13  O   UNL     1      20.081   1.222   6.500  1.00  0.00    -0.550 OA
ATOM     14  O   UNL     1      20.560  -0.963   7.007  1.00  0.00    -0.550 OA
ENDBRANCH  11  12
ENDBRANCH  10  11
ENDBRANCH   9  10
ENDBRANCH   8   9
ENDBRANCH   7   8
ENDBRANCH   6   7
ENDBRANCH   5   6
ENDBRANCH   4   5
ENDBRANCH   3   4
ENDBRANCH   2   3
ENDBRANCH   1   2
BRANCH   1  15
ATOM     15  C   UNL     1      15.434  -2.909  17.163  1.00  0.00     0.000 C 
BRANCH  15  16
ATOM     16  C   UNL     1      14.661  -2.743  18.490  1.00  0.00     0.000 C 
BRANCH  16  17
ATOM     17  C   UNL     1      15.526  -2.217  19.651  1.00  0.00     0.000 C 
BRANCH  17  18
ATOM     18  C   UNL     1      15.066  -0.871  20.244  1.00  0.00    -0.000 C 
BRANCH  18  19
ATOM     19  C   UNL     1      13.845  -0.237  19.548  1.00  0.00    -0.000 C 
BRANCH  19  20
ATOM     20  C   UNL     1      13.984   1.262  19.216  1.00  0.00    -0.000 C 
BRANCH  20  21
ATOM     21  C   UNL     1      13.140   1.745  18.023  1.00  0.00    -0.000 C 
BRANCH  21  22
ATOM     22  C   UNL     1      13.349   0.891  16.762  1.00  0.00    -0.000 C 
BRANCH  22  23
ATOM     23  C   UNL     1      13.165   1.707  15.466  1.00  0.00    -0.000 C 
BRANCH  23  24
ATOM     24  C   UNL     1      14.485   1.981  14.714  1.00  0.00    -0.000 C 
BRANCH  24  25
ATOM     25  C   UNL     1      15.235   0.718  14.255  1.00  0.00    -0.003 C 
ATOM     26  C   UNL     1      14.600   0.064  13.028  1.00  0.00     0.004 C 
ENDBRANCH  24  25
ENDBRANCH  23  24
ENDBRANCH  22  23
ENDBRANCH  21  22
ENDBRANCH  20  21
ENDBRANCH  19  20
ENDBRANCH  18  19
ENDBRANCH  17  18
ENDBRANCH  16  17
ENDBRANCH  15  16
ENDBRANCH   1  15
TORSDOF 22
ENDMDL
MODEL 8
REMARK VINA RESULT:    -5.669      4.116      6.788
REMARK INTER + INTRA:         -16.127
REMARK INTER:                 -13.268
REMARK INTRA:                  -2.860
REMARK UNBOUND:                -3.168
REMARK SMILES CCCCCCCCCCCCCCCCCCCCCCCC(=O)[O-]
REMARK SMILES IDX 13 1 14 2 15 3 16 4 17 5 18 6 19 7 20 8 21 9 22 10 23 11
REMARK SMILES IDX 24 12 25 13 26 14 12 15 11 16 10 17 9 18 8 19 7 20 6 21 5 22
REMARK SMILES IDX 4 23 3 24 2 25 1 26
REMARK H PARENT
REMARK Flexibility Score: inf
ROOT
ATOM      1  C   UNL     1      16.863   0.646  11.455  1.00  0.00     0.000 C 
ENDROOT
BRANCH   1   2
ATOM      2  C   UNL     1      17.698  -0.640  11.578  1.00  0.00     0.000 C 
BRANCH   2   3
ATOM      3  C   UNL     1      17.348  -1.448  12.837  1.00  0.00     0.000 C 
BRANCH   3   4
ATOM      4  C   UNL     1      18.611  -2.008  13.502  1.00  0.00     0.000 C 
BRANCH   4   5
ATOM      5  C   UNL     1      18.333  -2.403  14.960  1.00  0.00     0.000 C 
BRANCH   5   6
ATOM      6  C   UNL     1      19.567  -2.257  15.863  1.00  0.00     0.000 C 
BRANCH   6   7
ATOM      7  C   UNL     1      19.925  -0.790  16.151  1.00  0.00     0.000 C 
BRANCH   7   8
ATOM      8  C   UNL     1      21.449  -0.599  16.186  1.00  0.00     0.000 C 
BRANCH   8   9
ATOM      9  C   UNL     1      22.217  -1.930  16.170  1.00  0.00     0.000 C 
BRANCH   9  10
ATOM     10  C   UNL     1      23.726  -1.746  16.391  1.00  0.00     0.006 C 
BRANCH  10  11
ATOM     11  C   UNL     1      24.220  -0.450  15.737  1.00  0.00     0.053 C 
BRANCH  11  12
ATOM     12  C   UNL     1      24.821   0.473  16.752  1.00  0.00     0.041 C 
ATOM     13  O   UNL     1      25.066   0.064  17.918  1.00  0.00    -0.550 OA
ATOM     14  O   UNL     1      25.143   1.779  16.397  1.00  0.00    -0.550 OA
ENDBRANCH  11  12
ENDBRANCH  10  11
ENDBRANCH   9  10
ENDBRANCH   8   9
ENDBRANCH   7   8
ENDBRANCH   6   7
ENDBRANCH   5   6
ENDBRANCH   4   5
ENDBRANCH   3   4
ENDBRANCH   2   3
ENDBRANCH   1   2
BRANCH   1  15
ATOM     15  C   UNL     1      15.508   0.537  12.176  1.00  0.00     0.000 C 
BRANCH  15  16
ATOM     16  C   UNL     1      15.161   1.814  12.972  1.00  0.00     0.000 C 
BRANCH  16  17
ATOM     17  C   UNL     1      14.890   1.559  14.466  1.00  0.00     0.000 C 
BRANCH  17  18
ATOM     18  C   UNL     1      14.921   0.078  14.888  1.00  0.00    -0.000 C 
BRANCH  18  19
ATOM     19  C   UNL     1      15.751  -0.222  16.152  1.00  0.00    -0.000 C 
BRANCH  19  20
ATOM     20  C   UNL     1      15.518  -1.612  16.776  1.00  0.00    -0.000 C 
BRANCH  20  21
ATOM     21  C   UNL     1      16.374  -1.920  18.018  1.00  0.00    -0.000 C 
BRANCH  21  22
ATOM     22  C   UNL     1      16.502  -0.716  18.965  1.00  0.00    -0.000 C 
BRANCH  22  23
ATOM     23  C   UNL     1      15.332  -0.633  19.967  1.00  0.00    -0.000 C 
BRANCH  23  24
ATOM     24  C   UNL     1      14.441   0.612  19.777  1.00  0.00    -0.000 C 
BRANCH  24  25
ATOM     25  C   UNL     1      13.284   0.427  18.780  1.00  0.00    -0.003 C 
ATOM     26  C   UNL     1      13.052   1.657  17.904  1.00  0.00     0.004 C 
ENDBRANCH  24  25
ENDBRANCH  23  24
ENDBRANCH  22  23
ENDBRANCH  21  22
ENDBRANCH  20  21
ENDBRANCH  19  20
ENDBRANCH  18  19
ENDBRANCH  17  18
ENDBRANCH  16  17
ENDBRANCH  15  16
ENDBRANCH   1  15
TORSDOF 22
ENDMDL
MODEL 9
REMARK VINA RESULT:    -5.586      3.992      6.664
REMARK INTER + INTRA:         -15.937
REMARK INTER:                 -13.244
REMARK INTRA:                  -2.694
REMARK UNBOUND:                -3.168
REMARK SMILES CCCCCCCCCCCCCCCCCCCCCCCC(=O)[O-]
REMARK SMILES IDX 13 1 14 2 15 3 16 4 17 5 18 6 19 7 20 8 21 9 22 10 23 11
REMARK SMILES IDX 24 12 25 13 26 14 12 15 11 16 10 17 9 18 8 19 7 20 6 21 5 22
REMARK SMILES IDX 4 23 3 24 2 25 1 26
REMARK H PARENT
REMARK Flexibility Score: inf
ROOT
ATOM      1  C   UNL     1      16.458  -0.504  11.267  1.00  0.00     0.000 C 
ENDROOT
BRANCH   1   2
ATOM      2  C   UNL     1      17.762  -0.598  12.077  1.00  0.00     0.000 C 
BRANCH   2   3
ATOM      3  C   UNL     1      17.741  -1.753  13.089  1.00  0.00     0.000 C 
BRANCH   3   4
ATOM      4  C   UNL     1      18.540  -1.399  14.349  1.00  0.00     0.000 C 
BRANCH   4   5
ATOM      5  C   UNL     1      19.064  -2.666  15.040  1.00  0.00     0.000 C 
BRANCH   5   6
ATOM      6  C   UNL     1      20.333  -2.413  15.868  1.00  0.00     0.000 C 
BRANCH   6   7
ATOM      7  C   UNL     1      20.551  -0.924  16.183  1.00  0.00     0.000 C 
BRANCH   7   8
ATOM      8  C   UNL     1      22.050  -0.591  16.226  1.00  0.00     0.000 C 
BRANCH   8   9
ATOM      9  C   UNL     1      22.331   0.913  16.090  1.00  0.00     0.000 C 
BRANCH   9  10
ATOM     10  C   UNL     1      23.704   1.314  16.651  1.00  0.00     0.006 C 
BRANCH  10  11
ATOM     11  C   UNL     1      24.638   0.100  16.726  1.00  0.00     0.053 C 
BRANCH  11  12
ATOM     12  C   UNL     1      25.547   0.042  15.537  1.00  0.00     0.041 C 
ATOM     13  O   UNL     1      26.552   0.800  15.466  1.00  0.00    -0.550 OA
ATOM     14  O   UNL     1      25.302  -0.874  14.520  1.00  0.00    -0.550 OA
ENDBRANCH  11  12
ENDBRANCH  10  11
ENDBRANCH   9  10
ENDBRANCH   8   9
ENDBRANCH   7   8
ENDBRANCH   6   7
ENDBRANCH   5   6
ENDBRANCH   4   5
ENDBRANCH   3   4
ENDBRANCH   2   3
ENDBRANCH   1   2
BRANCH   1  15
ATOM     15  C   UNL     1      15.796   0.881  11.379  1.00  0.00     0.000 C 
BRANCH  15  16
ATOM     16  C   UNL     1      15.489   1.269  12.843  1.00  0.00     0.000 C 
BRANCH  16  17
ATOM     17  C   UNL     1      14.615   0.242  13.587  1.00  0.00     0.000 C 
BRANCH  17  18
ATOM     18  C   UNL     1      15.087  -0.100  15.013  1.00  0.00    -0.000 C 
BRANCH  18  19
ATOM     19  C   UNL     1      14.855   1.009  16.059  1.00  0.00    -0.000 C 
BRANCH  19  20
ATOM     20  C   UNL     1      13.497   0.952  16.785  1.00  0.00    -0.000 C 
BRANCH  20  21
ATOM     21  C   UNL     1      13.480   0.103  18.069  1.00  0.00    -0.000 C 
BRANCH  21  22
ATOM     22  C   UNL     1      14.489   0.593  19.120  1.00  0.00    -0.000 C 
BRANCH  22  23
ATOM     23  C   UNL     1      15.225  -0.573  19.812  1.00  0.00    -0.000 C 
BRANCH  23  24
ATOM     24  C   UNL     1      15.335  -1.840  18.940  1.00  0.00    -0.000 C 
BRANCH  24  25
ATOM     25  C   UNL     1      16.609  -1.919  18.080  1.00  0.00    -0.003 C 
ATOM     26  C   UNL     1      17.497  -0.685  18.222  1.00  0.00     0.004 C 
ENDBRANCH  24  25
ENDBRANCH  23  24
ENDBRANCH  22  23
ENDBRANCH  21  22
ENDBRANCH  20  21
ENDBRANCH  19  20
ENDBRANCH  18  19
ENDBRANCH  17  18
ENDBRANCH  16  17
ENDBRANCH  15  16
ENDBRANCH   1  15
TORSDOF 22
ENDMDL
