MODEL 1
REMARK VINA RESULT:    -1.910      0.000      0.000
REMARK INTER + INTRA:          -5.590
REMARK INTER:                  -4.143
REMARK INTRA:                  -1.447
REMARK UNBOUND:                -1.447
REMARK SMILES CCCCCCCCCCCCCCCCCCCCCC(=O)[O-]
REMARK SMILES IDX 12 1 11 2 10 3 9 4 8 5 7 6 6 7 5 8 4 9 3 10 2 11 1 12 13 13
REMARK SMILES IDX 14 14 15 15 16 16 17 17 18 18 19 19 20 20 21 21 22 22 23 23
REMARK SMILES IDX 24 24
REMARK H PARENT
REMARK Flexibility Score: inf
ROOT
ATOM      1  C   UNL     1      14.898  41.267   6.163  1.00  0.00     0.000 C 
ENDROOT
BRANCH   1   2
ATOM      2  C   UNL     1      16.302  41.622   6.680  1.00  0.00     0.000 C 
BRANCH   2   3
ATOM      3  C   UNL     1      16.396  41.565   8.213  1.00  0.00     0.000 C 
BRANCH   3   4
ATOM      4  C   UNL     1      15.225  40.776   8.813  1.00  0.00    -0.000 C 
BRANCH   4   5
ATOM      5  C   UNL     1      15.554  39.278   9.001  1.00  0.00    -0.000 C 
BRANCH   5   6
ATOM      6  C   UNL     1      14.310  38.392   9.184  1.00  0.00    -0.000 C 
BRANCH   6   7
ATOM      7  C   UNL     1      14.013  38.000  10.644  1.00  0.00    -0.000 C 
BRANCH   7   8
ATOM      8  C   UNL     1      15.149  37.192  11.312  1.00  0.00    -0.000 C 
BRANCH   8   9
ATOM      9  C   UNL     1      15.405  37.618  12.768  1.00  0.00    -0.000 C 
BRANCH   9  10
ATOM     10  C   UNL     1      14.450  38.729  13.233  1.00  0.00    -0.000 C 
BRANCH  10  11
ATOM     11  C   UNL     1      15.196  39.981  13.716  1.00  0.00    -0.003 C 
ATOM     12  C   UNL     1      16.330  40.345  12.763  1.00  0.00     0.004 C 
ENDBRANCH  10  11
ENDBRANCH   9  10
ENDBRANCH   8   9
ENDBRANCH   7   8
ENDBRANCH   6   7
ENDBRANCH   5   6
ENDBRANCH   4   5
ENDBRANCH   3   4
ENDBRANCH   2   3
ENDBRANCH   1   2
BRANCH   1  13
ATOM     13  C   UNL     1      14.187  42.461   5.506  1.00  0.00     0.000 C 
BRANCH  13  14
ATOM     14  C   UNL     1      13.407  42.015   4.261  1.00  0.00     0.000 C 
BRANCH  14  15
ATOM     15  C   UNL     1      13.797  42.804   2.998  1.00  0.00     0.000 C 
BRANCH  15  16
ATOM     16  C   UNL     1      13.023  42.417   1.721  1.00  0.00     0.000 C 
BRANCH  16  17
ATOM     17  C   UNL     1      13.373  43.245   0.471  1.00  0.00     0.000 C 
BRANCH  17  18
ATOM     18  C   UNL     1      12.131  43.698  -0.311  1.00  0.00     0.000 C 
BRANCH  18  19
ATOM     19  C   UNL     1      12.309  45.130  -0.839  1.00  0.00     0.000 C 
BRANCH  19  20
ATOM     20  C   UNL     1      13.508  45.853  -0.203  1.00  0.00     0.006 C 
BRANCH  20  21
ATOM     21  C   UNL     1      14.249  46.758  -1.195  1.00  0.00     0.053 C 
BRANCH  21  22
ATOM     22  C   UNL     1      15.729  46.606  -1.035  1.00  0.00     0.041 C 
ATOM     23  O   UNL     1      16.203  45.595  -0.453  1.00  0.00    -0.550 OA
ATOM     24  O   UNL     1      16.583  47.603  -1.488  1.00  0.00    -0.550 OA
ENDBRANCH  21  22
ENDBRANCH  20  21
ENDBRANCH  19  20
ENDBRANCH  18  19
ENDBRANCH  17  18
ENDBRANCH  16  17
ENDBRANCH  15  16
ENDBRANCH  14  15
ENDBRANCH  13  14
ENDBRANCH   1  13
TORSDOF 20
ENDMDL
MODEL 2
REMARK VINA RESULT:    -1.598      3.632     10.913
REMARK INTER + INTRA:          -4.912
REMARK INTER:                  -3.527
REMARK INTRA:                  -1.385
REMARK UNBOUND:                -1.447
REMARK SMILES CCCCCCCCCCCCCCCCCCCCCC(=O)[O-]
REMARK SMILES IDX 12 1 11 2 10 3 9 4 8 5 7 6 6 7 5 8 4 9 3 10 2 11 1 12 13 13
REMARK SMILES IDX 14 14 15 15 16 16 17 17 18 18 19 19 20 20 21 21 22 22 23 23
REMARK SMILES IDX 24 24
REMARK H PARENT
REMARK Flexibility Score: inf
ROOT
ATOM      1  C   UNL     1      15.466  42.196   8.667  1.00  0.00     0.000 C 
ENDROOT
BRANCH   1   2
ATOM      2  C   UNL     1      16.542  41.667   7.703  1.00  0.00     0.000 C 
BRANCH   2   3
ATOM      3  C   UNL     1      16.119  41.779   6.231  1.00  0.00     0.000 C 
BRANCH   3   4
ATOM      4  C   UNL     1      14.591  41.761   6.088  1.00  0.00    -0.000 C 
BRANCH   4   5
ATOM      5  C   UNL     1      14.110  42.452   4.792  1.00  0.00    -0.000 C 
BRANCH   5   6
ATOM      6  C   UNL     1      12.849  41.813   4.185  1.00  0.00    -0.000 C 
BRANCH   6   7
ATOM      7  C   UNL     1      12.781  41.866   2.647  1.00  0.00    -0.000 C 
BRANCH   7   8
ATOM      8  C   UNL     1      13.657  42.978   2.026  1.00  0.00    -0.000 C 
BRANCH   8   9
ATOM      9  C   UNL     1      13.139  43.449   0.656  1.00  0.00    -0.000 C 
BRANCH   9  10
ATOM     10  C   UNL     1      13.667  44.841   0.273  1.00  0.00    -0.000 C 
BRANCH  10  11
ATOM     11  C   UNL     1      12.856  45.486  -0.860  1.00  0.00    -0.003 C 
ATOM     12  C   UNL     1      11.573  44.705  -1.129  1.00  0.00     0.004 C 
ENDBRANCH  10  11
ENDBRANCH   9  10
ENDBRANCH   8   9
ENDBRANCH   7   8
ENDBRANCH   6   7
ENDBRANCH   5   6
ENDBRANCH   4   5
ENDBRANCH   3   4
ENDBRANCH   2   3
ENDBRANCH   1   2
BRANCH   1  13
ATOM     13  C   UNL     1      16.013  43.238   9.655  1.00  0.00     0.000 C 
BRANCH  13  14
ATOM     14  C   UNL     1      17.071  42.615  10.577  1.00  0.00     0.000 C 
BRANCH  14  15
ATOM     15  C   UNL     1      16.736  42.784  12.070  1.00  0.00     0.000 C 
BRANCH  15  16
ATOM     16  C   UNL     1      16.464  41.471  12.831  1.00  0.00     0.000 C 
BRANCH  16  17
ATOM     17  C   UNL     1      16.600  40.189  11.989  1.00  0.00     0.000 C 
BRANCH  17  18
ATOM     18  C   UNL     1      15.490  39.166  12.274  1.00  0.00     0.000 C 
BRANCH  18  19
ATOM     19  C   UNL     1      15.804  37.818  11.607  1.00  0.00     0.000 C 
BRANCH  19  20
ATOM     20  C   UNL     1      14.751  37.413  10.562  1.00  0.00     0.006 C 
BRANCH  20  21
ATOM     21  C   UNL     1      14.140  38.620   9.838  1.00  0.00     0.053 C 
BRANCH  21  22
ATOM     22  C   UNL     1      14.381  38.521   8.365  1.00  0.00     0.041 C 
ATOM     23  O   UNL     1      13.443  38.199   7.590  1.00  0.00    -0.550 OA
ATOM     24  O   UNL     1      15.653  38.741   7.852  1.00  0.00    -0.550 OA
ENDBRANCH  21  22
ENDBRANCH  20  21
ENDBRANCH  19  20
ENDBRANCH  18  19
ENDBRANCH  17  18
ENDBRANCH  16  17
ENDBRANCH  15  16
ENDBRANCH  14  15
ENDBRANCH  13  14
ENDBRANCH   1  13
TORSDOF 20
ENDMDL
MODEL 3
REMARK VINA RESULT:    -1.517      3.703     11.243
REMARK INTER + INTRA:          -4.738
REMARK INTER:                  -3.414
REMARK INTRA:                  -1.324
REMARK UNBOUND:                -1.447
REMARK SMILES CCCCCCCCCCCCCCCCCCCCCC(=O)[O-]
REMARK SMILES IDX 12 1 11 2 10 3 9 4 8 5 7 6 6 7 5 8 4 9 3 10 2 11 1 12 13 13
REMARK SMILES IDX 14 14 15 15 16 16 17 17 18 18 19 19 20 20 21 21 22 22 23 23
REMARK SMILES IDX 24 24
REMARK H PARENT
REMARK Flexibility Score: inf
ROOT
ATOM      1  C   UNL     1      13.151  42.116   3.787  1.00  0.00     0.000 C 
ENDROOT
BRANCH   1   2
ATOM      2  C   UNL     1      13.480  42.647   2.382  1.00  0.00     0.000 C 
BRANCH   2   3
ATOM      3  C   UNL     1      14.721  43.553   2.371  1.00  0.00     0.000 C 
BRANCH   3   4
ATOM      4  C   UNL     1      15.052  44.025   0.949  1.00  0.00    -0.000 C 
BRANCH   4   5
ATOM      5  C   UNL     1      16.524  44.473   0.802  1.00  0.00    -0.000 C 
BRANCH   5   6
ATOM      6  C   UNL     1      16.731  45.573  -0.254  1.00  0.00    -0.000 C 
BRANCH   6   7
ATOM      7  C   UNL     1      16.090  46.928   0.099  1.00  0.00    -0.000 C 
BRANCH   7   8
ATOM      8  C   UNL     1      15.105  47.447  -0.973  1.00  0.00    -0.000 C 
BRANCH   8   9
ATOM      9  C   UNL     1      14.196  46.338  -1.531  1.00  0.00    -0.000 C 
BRANCH   9  10
ATOM     10  C   UNL     1      13.023  46.009  -0.592  1.00  0.00    -0.000 C 
BRANCH  10  11
ATOM     11  C   UNL     1      12.012  45.045  -1.230  1.00  0.00    -0.003 C 
ATOM     12  C   UNL     1      12.066  43.674  -0.561  1.00  0.00     0.004 C 
ENDBRANCH  10  11
ENDBRANCH   9  10
ENDBRANCH   8   9
ENDBRANCH   7   8
ENDBRANCH   6   7
ENDBRANCH   5   6
ENDBRANCH   4   5
ENDBRANCH   3   4
ENDBRANCH   2   3
ENDBRANCH   1   2
BRANCH   1  13
ATOM     13  C   UNL     1      14.166  42.571   4.847  1.00  0.00     0.000 C 
BRANCH  13  14
ATOM     14  C   UNL     1      14.373  41.480   5.909  1.00  0.00     0.000 C 
BRANCH  14  15
ATOM     15  C   UNL     1      15.504  41.816   6.897  1.00  0.00     0.000 C 
BRANCH  15  16
ATOM     16  C   UNL     1      15.055  42.547   8.179  1.00  0.00     0.000 C 
BRANCH  16  17
ATOM     17  C   UNL     1      16.048  42.470   9.354  1.00  0.00     0.000 C 
BRANCH  17  18
ATOM     18  C   UNL     1      16.954  41.231   9.289  1.00  0.00     0.000 C 
BRANCH  18  19
ATOM     19  C   UNL     1      16.478  40.152  10.275  1.00  0.00     0.000 C 
BRANCH  19  20
ATOM     20  C   UNL     1      16.036  38.859   9.572  1.00  0.00     0.006 C 
BRANCH  20  21
ATOM     21  C   UNL     1      14.532  38.831   9.272  1.00  0.00     0.053 C 
BRANCH  21  22
ATOM     22  C   UNL     1      14.292  38.472   7.839  1.00  0.00     0.041 C 
ATOM     23  O   UNL     1      13.163  38.056   7.470  1.00  0.00    -0.550 OA
ATOM     24  O   UNL     1      15.330  38.556   6.919  1.00  0.00    -0.550 OA
ENDBRANCH  21  22
ENDBRANCH  20  21
ENDBRANCH  19  20
ENDBRANCH  18  19
ENDBRANCH  17  18
ENDBRANCH  16  17
ENDBRANCH  15  16
ENDBRANCH  14  15
ENDBRANCH  13  14
ENDBRANCH   1  13
TORSDOF 20
ENDMDL
MODEL 4
REMARK VINA RESULT:    -1.468      4.292     12.256
REMARK INTER + INTRA:          -4.632
REMARK INTER:                  -3.559
REMARK INTRA:                  -1.073
REMARK UNBOUND:                -1.447
REMARK SMILES CCCCCCCCCCCCCCCCCCCCCC(=O)[O-]
REMARK SMILES IDX 12 1 11 2 10 3 9 4 8 5 7 6 6 7 5 8 4 9 3 10 2 11 1 12 13 13
REMARK SMILES IDX 14 14 15 15 16 16 17 17 18 18 19 19 20 20 21 21 22 22 23 23
REMARK SMILES IDX 24 24
REMARK H PARENT
REMARK Flexibility Score: inf
ROOT
ATOM      1  C   UNL     1      14.490  41.252   6.169  1.00  0.00     0.000 C 
ENDROOT
BRANCH   1   2
ATOM      2  C   UNL     1      14.228  42.445   5.234  1.00  0.00     0.000 C 
BRANCH   2   3
ATOM      3  C   UNL     1      13.324  42.075   4.049  1.00  0.00     0.000 C 
BRANCH   3   4
ATOM      4  C   UNL     1      13.755  42.807   2.771  1.00  0.00    -0.000 C 
BRANCH   4   5
ATOM      5  C   UNL     1      12.894  42.419   1.547  1.00  0.00    -0.000 C 
BRANCH   5   6
ATOM      6  C   UNL     1      13.280  43.168   0.260  1.00  0.00    -0.000 C 
BRANCH   6   7
ATOM      7  C   UNL     1      12.369  44.361  -0.084  1.00  0.00    -0.000 C 
BRANCH   7   8
ATOM      8  C   UNL     1      13.141  45.619  -0.545  1.00  0.00    -0.000 C 
BRANCH   8   9
ATOM      9  C   UNL     1      14.646  45.537  -0.241  1.00  0.00    -0.000 C 
BRANCH   9  10
ATOM     10  C   UNL     1      15.383  46.849  -0.556  1.00  0.00    -0.000 C 
BRANCH  10  11
ATOM     11  C   UNL     1      14.673  47.676  -1.637  1.00  0.00    -0.003 C 
ATOM     12  C   UNL     1      15.493  47.716  -2.924  1.00  0.00     0.004 C 
ENDBRANCH  10  11
ENDBRANCH   9  10
ENDBRANCH   8   9
ENDBRANCH   7   8
ENDBRANCH   6   7
ENDBRANCH   5   6
ENDBRANCH   4   5
ENDBRANCH   3   4
ENDBRANCH   2   3
ENDBRANCH   1   2
BRANCH   1  13
ATOM     13  C   UNL     1      15.762  41.427   7.014  1.00  0.00     0.000 C 
BRANCH  13  14
ATOM     14  C   UNL     1      15.426  42.003   8.397  1.00  0.00     0.000 C 
BRANCH  14  15
ATOM     15  C   UNL     1      16.651  42.604   9.107  1.00  0.00     0.000 C 
BRANCH  15  16
ATOM     16  C   UNL     1      16.686  42.399  10.636  1.00  0.00     0.000 C 
BRANCH  16  17
ATOM     17  C   UNL     1      16.709  40.930  11.096  1.00  0.00     0.000 C 
BRANCH  17  18
ATOM     18  C   UNL     1      16.975  40.780  12.601  1.00  0.00     0.000 C 
BRANCH  18  19
ATOM     19  C   UNL     1      15.703  40.335  13.340  1.00  0.00     0.000 C 
BRANCH  19  20
ATOM     20  C   UNL     1      15.494  38.812  13.299  1.00  0.00     0.006 C 
BRANCH  20  21
ATOM     21  C   UNL     1      14.298  38.401  12.430  1.00  0.00     0.053 C 
BRANCH  21  22
ATOM     22  C   UNL     1      14.769  37.725  11.181  1.00  0.00     0.041 C 
ATOM     23  O   UNL     1      15.926  37.234  11.124  1.00  0.00    -0.550 OA
ATOM     24  O   UNL     1      13.943  37.676  10.065  1.00  0.00    -0.550 OA
ENDBRANCH  21  22
ENDBRANCH  20  21
ENDBRANCH  19  20
ENDBRANCH  18  19
ENDBRANCH  17  18
ENDBRANCH  16  17
ENDBRANCH  15  16
ENDBRANCH  14  15
ENDBRANCH  13  14
ENDBRANCH   1  13
TORSDOF 20
ENDMDL
MODEL 5
REMARK VINA RESULT:    -1.328      1.898      3.239
REMARK INTER + INTRA:          -4.327
REMARK INTER:                  -3.157
REMARK INTRA:                  -1.171
REMARK UNBOUND:                -1.447
REMARK SMILES CCCCCCCCCCCCCCCCCCCCCC(=O)[O-]
REMARK SMILES IDX 12 1 11 2 10 3 9 4 8 5 7 6 6 7 5 8 4 9 3 10 2 11 1 12 13 13
REMARK SMILES IDX 14 14 15 15 16 16 17 17 18 18 19 19 20 20 21 21 22 22 23 23
REMARK SMILES IDX 24 24
REMARK H PARENT
REMARK Flexibility Score: inf
ROOT
ATOM      1  C   UNL     1      13.111  42.151   3.705  1.00  0.00     0.000 C 
ENDROOT
BRANCH   1   2
ATOM      2  C   UNL     1      14.253  42.374   4.710  1.00  0.00     0.000 C 
BRANCH   2   3
ATOM      3  C   UNL     1      14.287  41.303   5.810  1.00  0.00     0.000 C 
BRANCH   3   4
ATOM      4  C   UNL     1      15.506  41.484   6.725  1.00  0.00    -0.000 C 
BRANCH   4   5
ATOM      5  C   UNL     1      16.044  40.141   7.268  1.00  0.00    -0.000 C 
BRANCH   5   6
ATOM      6  C   UNL     1      15.059  38.970   7.102  1.00  0.00    -0.000 C 
BRANCH   6   7
ATOM      7  C   UNL     1      14.159  38.714   8.324  1.00  0.00    -0.000 C 
BRANCH   7   8
ATOM      8  C   UNL     1      14.914  38.765   9.673  1.00  0.00    -0.000 C 
BRANCH   8   9
ATOM      9  C   UNL     1      14.382  37.742  10.691  1.00  0.00    -0.000 C 
BRANCH   9  10
ATOM     10  C   UNL     1      14.935  37.978  12.106  1.00  0.00    -0.000 C 
BRANCH  10  11
ATOM     11  C   UNL     1      15.860  39.202  12.179  1.00  0.00    -0.003 C 
ATOM     12  C   UNL     1      15.506  40.085  13.372  1.00  0.00     0.004 C 
ENDBRANCH  10  11
ENDBRANCH   9  10
ENDBRANCH   8   9
ENDBRANCH   7   8
ENDBRANCH   6   7
ENDBRANCH   5   6
ENDBRANCH   4   5
ENDBRANCH   3   4
ENDBRANCH   2   3
ENDBRANCH   1   2
BRANCH   1  13
ATOM     13  C   UNL     1      13.452  42.655   2.294  1.00  0.00     0.000 C 
BRANCH  13  14
ATOM     14  C   UNL     1      14.612  43.661   2.339  1.00  0.00     0.000 C 
BRANCH  14  15
ATOM     15  C   UNL     1      15.248  43.901   0.958  1.00  0.00     0.000 C 
BRANCH  15  16
ATOM     16  C   UNL     1      16.618  44.608   0.984  1.00  0.00     0.000 C 
BRANCH  16  17
ATOM     17  C   UNL     1      16.827  45.665  -0.116  1.00  0.00     0.000 C 
BRANCH  17  18
ATOM     18  C   UNL     1      15.677  46.680  -0.194  1.00  0.00     0.000 C 
BRANCH  18  19
ATOM     19  C   UNL     1      14.730  46.345  -1.357  1.00  0.00     0.000 C 
BRANCH  19  20
ATOM     20  C   UNL     1      13.254  46.614  -1.018  1.00  0.00     0.006 C 
BRANCH  20  21
ATOM     21  C   UNL     1      12.652  45.542  -0.102  1.00  0.00     0.053 C 
BRANCH  21  22
ATOM     22  C   UNL     1      11.914  44.521  -0.909  1.00  0.00     0.041 C 
ATOM     23  O   UNL     1      10.976  44.872  -1.671  1.00  0.00    -0.550 OA
ATOM     24  O   UNL     1      12.233  43.174  -0.787  1.00  0.00    -0.550 OA
ENDBRANCH  21  22
ENDBRANCH  20  21
ENDBRANCH  19  20
ENDBRANCH  18  19
ENDBRANCH  17  18
ENDBRANCH  16  17
ENDBRANCH  15  16
ENDBRANCH  14  15
ENDBRANCH  13  14
ENDBRANCH   1  13
TORSDOF 20
ENDMDL
MODEL 6
REMARK VINA RESULT:    -1.281      1.025      2.256
REMARK INTER + INTRA:          -4.225
REMARK INTER:                  -2.785
REMARK INTRA:                  -1.440
REMARK UNBOUND:                -1.447
REMARK SMILES CCCCCCCCCCCCCCCCCCCCCC(=O)[O-]
REMARK SMILES IDX 12 1 11 2 10 3 9 4 8 5 7 6 6 7 5 8 4 9 3 10 2 11 1 12 13 13
REMARK SMILES IDX 14 14 15 15 16 16 17 17 18 18 19 19 20 20 21 21 22 22 23 23
REMARK SMILES IDX 24 24
REMARK H PARENT
REMARK Flexibility Score: inf
ROOT
ATOM      1  C   UNL     1      14.803  41.109   6.589  1.00  0.00     0.000 C 
ENDROOT
BRANCH   1   2
ATOM      2  C   UNL     1      16.105  41.074   7.407  1.00  0.00     0.000 C 
BRANCH   2   3
ATOM      3  C   UNL     1      16.194  42.225   8.421  1.00  0.00     0.000 C 
BRANCH   3   4
ATOM      4  C   UNL     1      16.970  41.802   9.675  1.00  0.00    -0.000 C 
BRANCH   4   5
ATOM      5  C   UNL     1      16.391  42.422  10.967  1.00  0.00    -0.000 C 
BRANCH   5   6
ATOM      6  C   UNL     1      17.077  41.925  12.251  1.00  0.00    -0.000 C 
BRANCH   6   7
ATOM      7  C   UNL     1      17.125  40.393  12.398  1.00  0.00    -0.000 C 
BRANCH   7   8
ATOM      8  C   UNL     1      15.943  39.810  13.206  1.00  0.00    -0.000 C 
BRANCH   8   9
ATOM      9  C   UNL     1      15.475  38.444  12.675  1.00  0.00    -0.000 C 
BRANCH   9  10
ATOM     10  C   UNL     1      16.318  37.955  11.486  1.00  0.00    -0.000 C 
BRANCH  10  11
ATOM     11  C   UNL     1      15.634  38.212  10.135  1.00  0.00    -0.003 C 
ATOM     12  C   UNL     1      14.128  38.390  10.308  1.00  0.00     0.004 C 
ENDBRANCH  10  11
ENDBRANCH   9  10
ENDBRANCH   8   9
ENDBRANCH   7   8
ENDBRANCH   6   7
ENDBRANCH   5   6
ENDBRANCH   4   5
ENDBRANCH   3   4
ENDBRANCH   2   3
ENDBRANCH   1   2
BRANCH   1  13
ATOM     13  C   UNL     1      14.755  42.281   5.597  1.00  0.00     0.000 C 
BRANCH  13  14
ATOM     14  C   UNL     1      13.697  42.035   4.511  1.00  0.00     0.000 C 
BRANCH  14  15
ATOM     15  C   UNL     1      13.934  42.877   3.245  1.00  0.00     0.000 C 
BRANCH  15  16
ATOM     16  C   UNL     1      13.070  42.486   2.029  1.00  0.00     0.000 C 
BRANCH  16  17
ATOM     17  C   UNL     1      13.375  43.264   0.736  1.00  0.00     0.000 C 
BRANCH  17  18
ATOM     18  C   UNL     1      12.112  43.591  -0.076  1.00  0.00     0.000 C 
BRANCH  18  19
ATOM     19  C   UNL     1      12.360  44.778  -1.019  1.00  0.00     0.000 C 
BRANCH  19  20
ATOM     20  C   UNL     1      13.155  45.912  -0.351  1.00  0.00     0.006 C 
BRANCH  20  21
ATOM     21  C   UNL     1      14.266  46.468  -1.251  1.00  0.00     0.053 C 
BRANCH  21  22
ATOM     22  C   UNL     1      15.533  46.634  -0.473  1.00  0.00     0.041 C 
ATOM     23  O   UNL     1      16.031  45.657   0.144  1.00  0.00    -0.550 OA
ATOM     24  O   UNL     1      16.140  47.881  -0.393  1.00  0.00    -0.550 OA
ENDBRANCH  21  22
ENDBRANCH  20  21
ENDBRANCH  19  20
ENDBRANCH  18  19
ENDBRANCH  17  18
ENDBRANCH  16  17
ENDBRANCH  15  16
ENDBRANCH  14  15
ENDBRANCH  13  14
ENDBRANCH   1  13
TORSDOF 20
ENDMDL
MODEL 7
REMARK VINA RESULT:    -1.266      4.679     11.797
REMARK INTER + INTRA:          -4.193
REMARK INTER:                  -2.480
REMARK INTRA:                  -1.713
REMARK UNBOUND:                -1.447
REMARK SMILES CCCCCCCCCCCCCCCCCCCCCC(=O)[O-]
REMARK SMILES IDX 12 1 11 2 10 3 9 4 8 5 7 6 6 7 5 8 4 9 3 10 2 11 1 12 13 13
REMARK SMILES IDX 14 14 15 15 16 16 17 17 18 18 19 19 20 20 21 21 22 22 23 23
REMARK SMILES IDX 24 24
REMARK H PARENT
REMARK Flexibility Score: inf
ROOT
ATOM      1  C   UNL     1      12.734  42.115   4.028  1.00  0.00     0.000 C 
ENDROOT
BRANCH   1   2
ATOM      2  C   UNL     1      12.658  41.709   2.547  1.00  0.00     0.000 C 
BRANCH   2   3
ATOM      3  C   UNL     1      13.588  42.549   1.658  1.00  0.00     0.000 C 
BRANCH   3   4
ATOM      4  C   UNL     1      12.873  43.800   1.131  1.00  0.00    -0.000 C 
BRANCH   4   5
ATOM      5  C   UNL     1      12.623  43.741  -0.393  1.00  0.00    -0.000 C 
BRANCH   5   6
ATOM      6  C   UNL     1      12.428  45.123  -1.040  1.00  0.00    -0.000 C 
BRANCH   6   7
ATOM      7  C   UNL     1      13.377  46.216  -0.512  1.00  0.00    -0.000 C 
BRANCH   7   8
ATOM      8  C   UNL     1      14.314  46.799  -1.595  1.00  0.00    -0.000 C 
BRANCH   8   9
ATOM      9  C   UNL     1      15.801  46.540  -1.296  1.00  0.00    -0.000 C 
BRANCH   9  10
ATOM     10  C   UNL     1      16.041  46.089   0.153  1.00  0.00    -0.000 C 
BRANCH  10  11
ATOM     11  C   UNL     1      16.942  44.848   0.241  1.00  0.00    -0.003 C 
ATOM     12  C   UNL     1      16.881  44.224   1.633  1.00  0.00     0.004 C 
ENDBRANCH  10  11
ENDBRANCH   9  10
ENDBRANCH   8   9
ENDBRANCH   7   8
ENDBRANCH   6   7
ENDBRANCH   5   6
ENDBRANCH   4   5
ENDBRANCH   3   4
ENDBRANCH   2   3
ENDBRANCH   1   2
BRANCH   1  13
ATOM     13  C   UNL     1      14.179  42.269   4.529  1.00  0.00     0.000 C 
BRANCH  13  14
ATOM     14  C   UNL     1      14.357  41.598   5.899  1.00  0.00     0.000 C 
BRANCH  14  15
ATOM     15  C   UNL     1      15.575  42.134   6.672  1.00  0.00     0.000 C 
BRANCH  15  16
ATOM     16  C   UNL     1      15.925  41.358   7.959  1.00  0.00     0.000 C 
BRANCH  16  17
ATOM     17  C   UNL     1      14.831  40.397   8.458  1.00  0.00     0.000 C 
BRANCH  17  18
ATOM     18  C   UNL     1      15.293  38.933   8.491  1.00  0.00     0.000 C 
BRANCH  18  19
ATOM     19  C   UNL     1      16.688  38.813   9.123  1.00  0.00     0.000 C 
BRANCH  19  20
ATOM     20  C   UNL     1      16.650  38.858  10.659  1.00  0.00     0.006 C 
BRANCH  20  21
ATOM     21  C   UNL     1      15.820  37.719  11.265  1.00  0.00     0.053 C 
BRANCH  21  22
ATOM     22  C   UNL     1      14.884  38.251  12.303  1.00  0.00     0.041 C 
ATOM     23  O   UNL     1      13.644  38.272  12.088  1.00  0.00    -0.550 OA
ATOM     24  O   UNL     1      15.385  38.764  13.493  1.00  0.00    -0.550 OA
ENDBRANCH  21  22
ENDBRANCH  20  21
ENDBRANCH  19  20
ENDBRANCH  18  19
ENDBRANCH  17  18
ENDBRANCH  16  17
ENDBRANCH  15  16
ENDBRANCH  14  15
ENDBRANCH  13  14
ENDBRANCH   1  13
TORSDOF 20
ENDMDL
MODEL 8
REMARK VINA RESULT:    -1.089      4.501     11.986
REMARK INTER + INTRA:          -3.808
REMARK INTER:                  -2.597
REMARK INTRA:                  -1.211
REMARK UNBOUND:                -1.447
REMARK SMILES CCCCCCCCCCCCCCCCCCCCCC(=O)[O-]
REMARK SMILES IDX 12 1 11 2 10 3 9 4 8 5 7 6 6 7 5 8 4 9 3 10 2 11 1 12 13 13
REMARK SMILES IDX 14 14 15 15 16 16 17 17 18 18 19 19 20 20 21 21 22 22 23 23
REMARK SMILES IDX 24 24
REMARK H PARENT
REMARK Flexibility Score: inf
ROOT
ATOM      1  C   UNL     1      14.509  41.637   6.354  1.00  0.00     0.000 C 
ENDROOT
BRANCH   1   2
ATOM      2  C   UNL     1      14.743  42.274   4.974  1.00  0.00     0.000 C 
BRANCH   2   3
ATOM      3  C   UNL     1      13.521  42.146   4.053  1.00  0.00     0.000 C 
BRANCH   3   4
ATOM      4  C   UNL     1      13.750  42.873   2.721  1.00  0.00    -0.000 C 
BRANCH   4   5
ATOM      5  C   UNL     1      12.849  42.332   1.588  1.00  0.00    -0.000 C 
BRANCH   5   6
ATOM      6  C   UNL     1      12.840  43.218   0.331  1.00  0.00    -0.000 C 
BRANCH   6   7
ATOM      7  C   UNL     1      13.380  44.644   0.549  1.00  0.00    -0.000 C 
BRANCH   7   8
ATOM      8  C   UNL     1      13.281  45.543  -0.705  1.00  0.00    -0.000 C 
BRANCH   8   9
ATOM      9  C   UNL     1      14.590  46.296  -1.002  1.00  0.00    -0.000 C 
BRANCH   9  10
ATOM     10  C   UNL     1      15.593  46.215   0.160  1.00  0.00    -0.000 C 
BRANCH  10  11
ATOM     11  C   UNL     1      16.658  45.131  -0.057  1.00  0.00    -0.003 C 
ATOM     12  C   UNL     1      16.999  44.427   1.253  1.00  0.00     0.004 C 
ENDBRANCH  10  11
ENDBRANCH   9  10
ENDBRANCH   8   9
ENDBRANCH   7   8
ENDBRANCH   6   7
ENDBRANCH   5   6
ENDBRANCH   4   5
ENDBRANCH   3   4
ENDBRANCH   2   3
ENDBRANCH   1   2
BRANCH   1  13
ATOM     13  C   UNL     1      15.513  42.124   7.412  1.00  0.00     0.000 C 
BRANCH  13  14
ATOM     14  C   UNL     1      15.120  41.624   8.810  1.00  0.00     0.000 C 
BRANCH  14  15
ATOM     15  C   UNL     1      16.042  40.504   9.324  1.00  0.00     0.000 C 
BRANCH  15  16
ATOM     16  C   UNL     1      15.423  39.091   9.310  1.00  0.00     0.000 C 
BRANCH  16  17
ATOM     17  C   UNL     1      15.993  38.121  10.361  1.00  0.00     0.000 C 
BRANCH  17  18
ATOM     18  C   UNL     1      14.898  37.384  11.148  1.00  0.00     0.000 C 
BRANCH  18  19
ATOM     19  C   UNL     1      14.106  38.362  12.029  1.00  0.00     0.000 C 
BRANCH  19  20
ATOM     20  C   UNL     1      14.478  38.256  13.517  1.00  0.00     0.006 C 
BRANCH  20  21
ATOM     21  C   UNL     1      15.809  38.944  13.846  1.00  0.00     0.053 C 
BRANCH  21  22
ATOM     22  C   UNL     1      15.675  40.428  13.718  1.00  0.00     0.041 C 
ATOM     23  O   UNL     1      16.633  41.116  13.279  1.00  0.00    -0.550 OA
ATOM     24  O   UNL     1      14.505  41.057  14.125  1.00  0.00    -0.550 OA
ENDBRANCH  21  22
ENDBRANCH  20  21
ENDBRANCH  19  20
ENDBRANCH  18  19
ENDBRANCH  17  18
ENDBRANCH  16  17
ENDBRANCH  15  16
ENDBRANCH  14  15
ENDBRANCH  13  14
ENDBRANCH   1  13
TORSDOF 20
ENDMDL
MODEL 9
REMARK VINA RESULT:    -1.067      1.415      2.205
REMARK INTER + INTRA:          -3.762
REMARK INTER:                  -2.464
REMARK INTRA:                  -1.298
REMARK UNBOUND:                -1.447
REMARK SMILES CCCCCCCCCCCCCCCCCCCCCC(=O)[O-]
REMARK SMILES IDX 12 1 11 2 10 3 9 4 8 5 7 6 6 7 5 8 4 9 3 10 2 11 1 12 13 13
REMARK SMILES IDX 14 14 15 15 16 16 17 17 18 18 19 19 20 20 21 21 22 22 23 23
REMARK SMILES IDX 24 24
REMARK H PARENT
REMARK Flexibility Score: inf
ROOT
ATOM      1  C   UNL     1      14.818  41.287   6.169  1.00  0.00     0.000 C 
ENDROOT
BRANCH   1   2
ATOM      2  C   UNL     1      15.851  41.878   7.143  1.00  0.00     0.000 C 
BRANCH   2   3
ATOM      3  C   UNL     1      16.986  40.895   7.466  1.00  0.00     0.000 C 
BRANCH   3   4
ATOM      4  C   UNL     1      16.439  39.491   7.755  1.00  0.00    -0.000 C 
BRANCH   4   5
ATOM      5  C   UNL     1      16.995  38.898   9.070  1.00  0.00    -0.000 C 
BRANCH   5   6
ATOM      6  C   UNL     1      16.037  39.043  10.265  1.00  0.00    -0.000 C 
BRANCH   6   7
ATOM      7  C   UNL     1      16.525  40.008  11.362  1.00  0.00    -0.000 C 
BRANCH   7   8
ATOM      8  C   UNL     1      16.241  39.509  12.798  1.00  0.00    -0.000 C 
BRANCH   8   9
ATOM      9  C   UNL     1      15.122  38.455  12.851  1.00  0.00    -0.000 C 
BRANCH   9  10
ATOM     10  C   UNL     1      15.582  37.140  13.502  1.00  0.00    -0.000 C 
BRANCH  10  11
ATOM     11  C   UNL     1      16.952  36.677  12.987  1.00  0.00    -0.003 C 
ATOM     12  C   UNL     1      16.800  35.712  11.815  1.00  0.00     0.004 C 
ENDBRANCH  10  11
ENDBRANCH   9  10
ENDBRANCH   8   9
ENDBRANCH   7   8
ENDBRANCH   6   7
ENDBRANCH   5   6
ENDBRANCH   4   5
ENDBRANCH   3   4
ENDBRANCH   2   3
ENDBRANCH   1   2
BRANCH   1  13
ATOM     13  C   UNL     1      14.184  42.350   5.258  1.00  0.00     0.000 C 
BRANCH  13  14
ATOM     14  C   UNL     1      13.347  41.693   4.151  1.00  0.00     0.000 C 
BRANCH  14  15
ATOM     15  C   UNL     1      12.855  42.700   3.097  1.00  0.00     0.000 C 
BRANCH  15  16
ATOM     16  C   UNL     1      13.395  42.470   1.670  1.00  0.00     0.000 C 
BRANCH  16  17
ATOM     17  C   UNL     1      12.852  43.438   0.604  1.00  0.00     0.000 C 
BRANCH  17  18
ATOM     18  C   UNL     1      13.853  44.543   0.236  1.00  0.00     0.000 C 
BRANCH  18  19
ATOM     19  C   UNL     1      15.196  44.325   0.951  1.00  0.00     0.000 C 
BRANCH  19  20
ATOM     20  C   UNL     1      16.284  45.306   0.484  1.00  0.00     0.006 C 
BRANCH  20  21
ATOM     21  C   UNL     1      15.997  45.892  -0.904  1.00  0.00     0.053 C 
BRANCH  21  22
ATOM     22  C   UNL     1      15.607  47.332  -0.792  1.00  0.00     0.041 C 
ATOM     23  O   UNL     1      14.812  47.840  -1.625  1.00  0.00    -0.550 OA
ATOM     24  O   UNL     1      16.157  48.124   0.208  1.00  0.00    -0.550 OA
ENDBRANCH  21  22
ENDBRANCH  20  21
ENDBRANCH  19  20
ENDBRANCH  18  19
ENDBRANCH  17  18
ENDBRANCH  16  17
ENDBRANCH  15  16
ENDBRANCH  14  15
ENDBRANCH  13  14
ENDBRANCH   1  13
TORSDOF 20
ENDMDL
