MODEL 1
REMARK VINA RESULT:    -4.644      0.000      0.000
REMARK INTER + INTRA:          -8.077
REMARK INTER:                  -7.358
REMARK INTRA:                  -0.718
REMARK UNBOUND:                -0.718
REMARK SMILES CCCCCCCCCCCC(=O)[O-]
REMARK SMILES IDX 7 1 8 2 9 3 10 4 11 5 12 6 13 7 14 8 6 9 5 10 4 11 3 12 2 13
REMARK SMILES IDX 1 14
REMARK H PARENT
REMARK Flexibility Score: inf
ROOT
ATOM      1  C   UNL     1     -15.815  42.274  21.454  1.00  0.00     0.000 C 
ENDROOT
BRANCH   1   2
ATOM      2  C   UNL     1     -15.637  43.616  22.186  1.00  0.00     0.000 C 
BRANCH   2   3
ATOM      3  C   UNL     1     -16.961  44.383  22.360  1.00  0.00     0.000 C 
BRANCH   3   4
ATOM      4  C   UNL     1     -16.993  45.380  23.536  1.00  0.00     0.006 C 
BRANCH   4   5
ATOM      5  C   UNL     1     -15.936  46.494  23.460  1.00  0.00     0.053 C 
BRANCH   5   6
ATOM      6  C   UNL     1     -16.342  47.589  22.522  1.00  0.00     0.041 C 
ATOM      7  O   UNL     1     -16.006  47.541  21.309  1.00  0.00    -0.550 OA
ATOM      8  O   UNL     1     -17.118  48.647  22.980  1.00  0.00    -0.550 OA
ENDBRANCH   5   6
ENDBRANCH   4   5
ENDBRANCH   3   4
ENDBRANCH   2   3
ENDBRANCH   1   2
BRANCH   1   9
ATOM      9  C   UNL     1     -16.367  41.172  22.371  1.00  0.00     0.000 C 
BRANCH   9  10
ATOM     10  C   UNL     1     -17.570  40.433  21.756  1.00  0.00    -0.000 C 
BRANCH  10  11
ATOM     11  C   UNL     1     -18.368  41.316  20.782  1.00  0.00    -0.000 C 
BRANCH  11  12
ATOM     12  C   UNL     1     -18.375  40.759  19.350  1.00  0.00    -0.000 C 
BRANCH  12  13
ATOM     13  C   UNL     1     -18.385  39.226  19.359  1.00  0.00    -0.003 C 
ATOM     14  C   UNL     1     -17.166  38.663  18.631  1.00  0.00     0.004 C 
ENDBRANCH  12  13
ENDBRANCH  11  12
ENDBRANCH  10  11
ENDBRANCH   9  10
ENDBRANCH   1   9
TORSDOF 10
ENDMDL
MODEL 2
REMARK VINA RESULT:    -4.566      3.243      6.469
REMARK INTER + INTRA:          -7.953
REMARK INTER:                  -7.170
REMARK INTRA:                  -0.783
REMARK UNBOUND:                -0.718
REMARK SMILES CCCCCCCCCCCC(=O)[O-]
REMARK SMILES IDX 7 1 8 2 9 3 10 4 11 5 12 6 13 7 14 8 6 9 5 10 4 11 3 12 2 13
REMARK SMILES IDX 1 14
REMARK H PARENT
REMARK Flexibility Score: inf
ROOT
ATOM      1  C   UNL     1     -14.969  41.282  22.552  1.00  0.00     0.000 C 
ENDROOT
BRANCH   1   2
ATOM      2  C   UNL     1     -16.281  40.584  22.951  1.00  0.00     0.000 C 
BRANCH   2   3
ATOM      3  C   UNL     1     -17.037  39.994  21.747  1.00  0.00     0.000 C 
BRANCH   3   4
ATOM      4  C   UNL     1     -18.237  40.827  21.252  1.00  0.00     0.006 C 
BRANCH   4   5
ATOM      5  C   UNL     1     -18.828  40.363  19.911  1.00  0.00     0.053 C 
BRANCH   5   6
ATOM      6  C   UNL     1     -17.762  40.085  18.895  1.00  0.00     0.041 C 
ATOM      7  O   UNL     1     -17.165  41.038  18.328  1.00  0.00    -0.550 OA
ATOM      8  O   UNL     1     -17.406  38.776  18.599  1.00  0.00    -0.550 OA
ENDBRANCH   5   6
ENDBRANCH   4   5
ENDBRANCH   3   4
ENDBRANCH   2   3
ENDBRANCH   1   2
BRANCH   1   9
ATOM      9  C   UNL     1     -15.058  42.812  22.660  1.00  0.00     0.000 C 
BRANCH   9  10
ATOM     10  C   UNL     1     -15.882  43.441  21.521  1.00  0.00    -0.000 C 
BRANCH  10  11
ATOM     11  C   UNL     1     -16.891  44.483  22.029  1.00  0.00    -0.000 C 
BRANCH  11  12
ATOM     12  C   UNL     1     -16.476  45.102  23.372  1.00  0.00    -0.000 C 
BRANCH  12  13
ATOM     13  C   UNL     1     -16.489  46.633  23.297  1.00  0.00    -0.003 C 
ATOM     14  C   UNL     1     -16.059  47.121  21.916  1.00  0.00     0.004 C 
ENDBRANCH  12  13
ENDBRANCH  11  12
ENDBRANCH  10  11
ENDBRANCH   9  10
ENDBRANCH   1   9
TORSDOF 10
ENDMDL
MODEL 3
REMARK VINA RESULT:    -4.455     10.078     12.078
REMARK INTER + INTRA:          -7.777
REMARK INTER:                  -7.056
REMARK INTRA:                  -0.721
REMARK UNBOUND:                -0.718
REMARK SMILES CCCCCCCCCCCC(=O)[O-]
REMARK SMILES IDX 7 1 8 2 9 3 10 4 11 5 12 6 13 7 14 8 6 9 5 10 4 11 3 12 2 13
REMARK SMILES IDX 1 14
REMARK H PARENT
REMARK Flexibility Score: inf
ROOT
ATOM      1  C   UNL     1     -17.216  34.086  12.578  1.00  0.00     0.000 C 
ENDROOT
BRANCH   1   2
ATOM      2  C   UNL     1     -17.113  35.620  12.535  1.00  0.00     0.000 C 
BRANCH   2   3
ATOM      3  C   UNL     1     -17.797  36.301  13.735  1.00  0.00     0.000 C 
BRANCH   3   4
ATOM      4  C   UNL     1     -16.846  37.016  14.716  1.00  0.00     0.006 C 
BRANCH   4   5
ATOM      5  C   UNL     1     -15.696  36.143  15.243  1.00  0.00     0.053 C 
BRANCH   5   6
ATOM      6  C   UNL     1     -14.355  36.681  14.844  1.00  0.00     0.041 C 
ATOM      7  O   UNL     1     -13.306  36.203  15.351  1.00  0.00    -0.550 OA
ATOM      8  O   UNL     1     -14.263  37.686  13.890  1.00  0.00    -0.550 OA
ENDBRANCH   5   6
ENDBRANCH   4   5
ENDBRANCH   3   4
ENDBRANCH   2   3
ENDBRANCH   1   2
BRANCH   1   9
ATOM      9  C   UNL     1     -18.160  33.589  13.685  1.00  0.00     0.000 C 
BRANCH   9  10
ATOM     10  C   UNL     1     -18.262  32.053  13.734  1.00  0.00    -0.000 C 
BRANCH  10  11
ATOM     11  C   UNL     1     -19.680  31.567  14.070  1.00  0.00    -0.000 C 
BRANCH  11  12
ATOM     12  C   UNL     1     -20.687  32.720  14.191  1.00  0.00    -0.000 C 
BRANCH  12  13
ATOM     13  C   UNL     1     -22.099  32.188  14.462  1.00  0.00    -0.003 C 
ATOM     14  C   UNL     1     -22.327  30.849  13.764  1.00  0.00     0.004 C 
ENDBRANCH  12  13
ENDBRANCH  11  12
ENDBRANCH  10  11
ENDBRANCH   9  10
ENDBRANCH   1   9
TORSDOF 10
ENDMDL
MODEL 4
REMARK VINA RESULT:    -4.453     11.189     13.318
REMARK INTER + INTRA:          -7.775
REMARK INTER:                  -7.152
REMARK INTRA:                  -0.623
REMARK UNBOUND:                -0.718
REMARK SMILES CCCCCCCCCCCC(=O)[O-]
REMARK SMILES IDX 7 1 8 2 9 3 10 4 11 5 12 6 13 7 14 8 6 9 5 10 4 11 3 12 2 13
REMARK SMILES IDX 1 14
REMARK H PARENT
REMARK Flexibility Score: inf
ROOT
ATOM      1  C   UNL     1     -17.180  40.885  11.829  1.00  0.00     0.000 C 
ENDROOT
BRANCH   1   2
ATOM      2  C   UNL     1     -16.694  39.458  12.134  1.00  0.00     0.000 C 
BRANCH   2   3
ATOM      3  C   UNL     1     -17.700  38.648  12.972  1.00  0.00     0.000 C 
BRANCH   3   4
ATOM      4  C   UNL     1     -17.306  37.181  13.236  1.00  0.00     0.006 C 
BRANCH   4   5
ATOM      5  C   UNL     1     -15.985  36.746  12.582  1.00  0.00     0.053 C 
BRANCH   5   6
ATOM      6  C   UNL     1     -16.201  35.722  11.510  1.00  0.00     0.041 C 
ATOM      7  O   UNL     1     -15.692  35.884  10.369  1.00  0.00    -0.550 OA
ATOM      8  O   UNL     1     -16.936  34.574  11.780  1.00  0.00    -0.550 OA
ENDBRANCH   5   6
ENDBRANCH   4   5
ENDBRANCH   3   4
ENDBRANCH   2   3
ENDBRANCH   1   2
BRANCH   1   9
ATOM      9  C   UNL     1     -17.470  41.103  10.335  1.00  0.00     0.000 C 
BRANCH   9  10
ATOM     10  C   UNL     1     -16.445  40.404   9.423  1.00  0.00    -0.000 C 
BRANCH  10  11
ATOM     11  C   UNL     1     -15.519  41.400   8.707  1.00  0.00    -0.000 C 
BRANCH  11  12
ATOM     12  C   UNL     1     -16.053  41.818   7.328  1.00  0.00    -0.000 C 
BRANCH  12  13
ATOM     13  C   UNL     1     -15.992  43.339   7.155  1.00  0.00    -0.003 C 
ATOM     14  C   UNL     1     -17.045  44.035   8.015  1.00  0.00     0.004 C 
ENDBRANCH  12  13
ENDBRANCH  11  12
ENDBRANCH  10  11
ENDBRANCH   9  10
ENDBRANCH   1   9
TORSDOF 10
ENDMDL
MODEL 5
REMARK VINA RESULT:    -4.431     10.728     13.087
REMARK INTER + INTRA:          -7.740
REMARK INTER:                  -7.029
REMARK INTRA:                  -0.711
REMARK UNBOUND:                -0.718
REMARK SMILES CCCCCCCCCCCC(=O)[O-]
REMARK SMILES IDX 7 1 8 2 9 3 10 4 11 5 12 6 13 7 14 8 6 9 5 10 4 11 3 12 2 13
REMARK SMILES IDX 1 14
REMARK H PARENT
REMARK Flexibility Score: inf
ROOT
ATOM      1  C   UNL     1     -17.406  40.881  10.244  1.00  0.00     0.000 C 
ENDROOT
BRANCH   1   2
ATOM      2  C   UNL     1     -17.272  40.541  11.739  1.00  0.00     0.000 C 
BRANCH   2   3
ATOM      3  C   UNL     1     -15.933  39.865  12.082  1.00  0.00     0.000 C 
BRANCH   3   4
ATOM      4  C   UNL     1     -16.046  38.527  12.842  1.00  0.00     0.006 C 
BRANCH   4   5
ATOM      5  C   UNL     1     -17.480  38.129  13.224  1.00  0.00     0.053 C 
BRANCH   5   6
ATOM      6  C   UNL     1     -17.690  36.647  13.149  1.00  0.00     0.041 C 
ATOM      7  O   UNL     1     -18.487  36.080  13.942  1.00  0.00    -0.550 OA
ATOM      8  O   UNL     1     -17.030  35.898  12.183  1.00  0.00    -0.550 OA
ENDBRANCH   5   6
ENDBRANCH   4   5
ENDBRANCH   3   4
ENDBRANCH   2   3
ENDBRANCH   1   2
BRANCH   1   9
ATOM      9  C   UNL     1     -16.242  40.329   9.408  1.00  0.00     0.000 C 
BRANCH   9  10
ATOM     10  C   UNL     1     -15.507  41.425   8.615  1.00  0.00    -0.000 C 
BRANCH  10  11
ATOM     11  C   UNL     1     -16.129  41.669   7.230  1.00  0.00    -0.000 C 
BRANCH  11  12
ATOM     12  C   UNL     1     -16.245  43.162   6.890  1.00  0.00    -0.000 C 
BRANCH  12  13
ATOM     13  C   UNL     1     -16.808  43.953   8.076  1.00  0.00    -0.003 C 
ATOM     14  C   UNL     1     -15.882  45.104   8.461  1.00  0.00     0.004 C 
ENDBRANCH  12  13
ENDBRANCH  11  12
ENDBRANCH  10  11
ENDBRANCH   9  10
ENDBRANCH   1   9
TORSDOF 10
ENDMDL
MODEL 6
REMARK VINA RESULT:    -4.406     10.274     11.305
REMARK INTER + INTRA:          -7.700
REMARK INTER:                  -6.748
REMARK INTRA:                  -0.952
REMARK UNBOUND:                -0.718
REMARK SMILES CCCCCCCCCCCC(=O)[O-]
REMARK SMILES IDX 7 1 8 2 9 3 10 4 11 5 12 6 13 7 14 8 6 9 5 10 4 11 3 12 2 13
REMARK SMILES IDX 1 14
REMARK H PARENT
REMARK Flexibility Score: inf
ROOT
ATOM      1  C   UNL     1     -14.860  37.318  14.079  1.00  0.00     0.000 C 
ENDROOT
BRANCH   1   2
ATOM      2  C   UNL     1     -14.712  38.622  13.275  1.00  0.00     0.000 C 
BRANCH   2   3
ATOM      3  C   UNL     1     -16.026  39.066  12.607  1.00  0.00     0.000 C 
BRANCH   3   4
ATOM      4  C   UNL     1     -15.919  40.320  11.715  1.00  0.00     0.006 C 
BRANCH   4   5
ATOM      5  C   UNL     1     -16.571  40.177  10.331  1.00  0.00     0.053 C 
BRANCH   5   6
ATOM      6  C   UNL     1     -16.180  41.292   9.410  1.00  0.00     0.041 C 
ATOM      7  O   UNL     1     -15.035  41.307   8.884  1.00  0.00    -0.550 OA
ATOM      8  O   UNL     1     -17.090  42.297   9.106  1.00  0.00    -0.550 OA
ENDBRANCH   5   6
ENDBRANCH   4   5
ENDBRANCH   3   4
ENDBRANCH   2   3
ENDBRANCH   1   2
BRANCH   1   9
ATOM      9  C   UNL     1     -16.294  37.097  14.586  1.00  0.00     0.000 C 
BRANCH   9  10
ATOM     10  C   UNL     1     -16.532  35.661  15.088  1.00  0.00    -0.000 C 
BRANCH  10  11
ATOM     11  C   UNL     1     -17.203  34.770  14.031  1.00  0.00    -0.000 C 
BRANCH  11  12
ATOM     12  C   UNL     1     -17.437  35.504  12.702  1.00  0.00    -0.000 C 
BRANCH  12  13
ATOM     13  C   UNL     1     -16.636  34.852  11.569  1.00  0.00    -0.003 C 
ATOM     14  C   UNL     1     -15.870  35.898  10.763  1.00  0.00     0.004 C 
ENDBRANCH  12  13
ENDBRANCH  11  12
ENDBRANCH  10  11
ENDBRANCH   9  10
ENDBRANCH   1   9
TORSDOF 10
ENDMDL
MODEL 7
REMARK VINA RESULT:    -4.383     10.461     11.819
REMARK INTER + INTRA:          -7.663
REMARK INTER:                  -6.883
REMARK INTRA:                  -0.780
REMARK UNBOUND:                -0.718
REMARK SMILES CCCCCCCCCCCC(=O)[O-]
REMARK SMILES IDX 7 1 8 2 9 3 10 4 11 5 12 6 13 7 14 8 6 9 5 10 4 11 3 12 2 13
REMARK SMILES IDX 1 14
REMARK H PARENT
REMARK Flexibility Score: inf
ROOT
ATOM      1  C   UNL     1     -16.048  39.753  12.075  1.00  0.00     0.000 C 
ENDROOT
BRANCH   1   2
ATOM      2  C   UNL     1     -17.434  40.165  11.551  1.00  0.00     0.000 C 
BRANCH   2   3
ATOM      3  C   UNL     1     -17.360  41.103  10.333  1.00  0.00     0.000 C 
BRANCH   3   4
ATOM      4  C   UNL     1     -16.293  40.734   9.282  1.00  0.00     0.006 C 
BRANCH   4   5
ATOM      5  C   UNL     1     -16.232  41.680   8.073  1.00  0.00     0.053 C 
BRANCH   5   6
ATOM      6  C   UNL     1     -16.221  43.120   8.487  1.00  0.00     0.041 C 
ATOM      7  O   UNL     1     -15.231  43.593   9.105  1.00  0.00    -0.550 OA
ATOM      8  O   UNL     1     -17.290  43.946   8.163  1.00  0.00    -0.550 OA
ENDBRANCH   5   6
ENDBRANCH   4   5
ENDBRANCH   3   4
ENDBRANCH   2   3
ENDBRANCH   1   2
BRANCH   1   9
ATOM      9  C   UNL     1     -16.112  38.548  13.027  1.00  0.00     0.000 C 
BRANCH   9  10
ATOM     10  C   UNL     1     -17.553  38.184  13.430  1.00  0.00    -0.000 C 
BRANCH  10  11
ATOM     11  C   UNL     1     -17.895  36.715  13.136  1.00  0.00    -0.000 C 
BRANCH  11  12
ATOM     12  C   UNL     1     -16.646  35.827  13.033  1.00  0.00    -0.000 C 
BRANCH  12  13
ATOM     13  C   UNL     1     -16.627  35.060  11.706  1.00  0.00    -0.003 C 
ATOM     14  C   UNL     1     -15.788  35.790  10.659  1.00  0.00     0.004 C 
ENDBRANCH  12  13
ENDBRANCH  11  12
ENDBRANCH  10  11
ENDBRANCH   9  10
ENDBRANCH   1   9
TORSDOF 10
ENDMDL
MODEL 8
REMARK VINA RESULT:    -4.368      4.267      7.119
REMARK INTER + INTRA:          -7.640
REMARK INTER:                  -7.054
REMARK INTRA:                  -0.586
REMARK UNBOUND:                -0.718
REMARK SMILES CCCCCCCCCCCC(=O)[O-]
REMARK SMILES IDX 7 1 8 2 9 3 10 4 11 5 12 6 13 7 14 8 6 9 5 10 4 11 3 12 2 13
REMARK SMILES IDX 1 14
REMARK H PARENT
REMARK Flexibility Score: inf
ROOT
ATOM      1  C   UNL     1     -16.557  37.395  16.787  1.00  0.00     0.000 C 
ENDROOT
BRANCH   1   2
ATOM      2  C   UNL     1     -16.896  37.708  18.255  1.00  0.00     0.000 C 
BRANCH   2   3
ATOM      3  C   UNL     1     -17.209  39.196  18.494  1.00  0.00     0.000 C 
BRANCH   3   4
ATOM      4  C   UNL     1     -17.738  39.540  19.901  1.00  0.00     0.006 C 
BRANCH   4   5
ATOM      5  C   UNL     1     -17.627  41.024  20.281  1.00  0.00     0.053 C 
BRANCH   5   6
ATOM      6  C   UNL     1     -17.058  41.211  21.655  1.00  0.00     0.041 C 
ATOM      7  O   UNL     1     -16.831  40.212  22.387  1.00  0.00    -0.550 OA
ATOM      8  O   UNL     1     -16.749  42.485  22.114  1.00  0.00    -0.550 OA
ENDBRANCH   5   6
ENDBRANCH   4   5
ENDBRANCH   3   4
ENDBRANCH   2   3
ENDBRANCH   1   2
BRANCH   1   9
ATOM      9  C   UNL     1     -15.853  36.039  16.621  1.00  0.00     0.000 C 
BRANCH   9  10
ATOM     10  C   UNL     1     -14.985  35.972  15.351  1.00  0.00    -0.000 C 
BRANCH  10  11
ATOM     11  C   UNL     1     -15.793  36.229  14.070  1.00  0.00    -0.000 C 
BRANCH  11  12
ATOM     12  C   UNL     1     -16.911  35.197  13.859  1.00  0.00    -0.000 C 
BRANCH  12  13
ATOM     13  C   UNL     1     -18.267  35.887  13.678  1.00  0.00    -0.003 C 
ATOM     14  C   UNL     1     -18.092  37.358  13.308  1.00  0.00     0.004 C 
ENDBRANCH  12  13
ENDBRANCH  11  12
ENDBRANCH  10  11
ENDBRANCH   9  10
ENDBRANCH   1   9
TORSDOF 10
ENDMDL
MODEL 9
REMARK VINA RESULT:    -4.359     10.918     13.708
REMARK INTER + INTRA:          -7.626
REMARK INTER:                  -6.909
REMARK INTRA:                  -0.716
REMARK UNBOUND:                -0.718
REMARK SMILES CCCCCCCCCCCC(=O)[O-]
REMARK SMILES IDX 7 1 8 2 9 3 10 4 11 5 12 6 13 7 14 8 6 9 5 10 4 11 3 12 2 13
REMARK SMILES IDX 1 14
REMARK H PARENT
REMARK Flexibility Score: inf
ROOT
ATOM      1  C   UNL     1     -18.178  33.713  13.674  1.00  0.00     0.000 C 
ENDROOT
BRANCH   1   2
ATOM      2  C   UNL     1     -18.222  32.176  13.699  1.00  0.00     0.000 C 
BRANCH   2   3
ATOM      3  C   UNL     1     -19.603  31.621  14.094  1.00  0.00     0.000 C 
BRANCH   3   4
ATOM      4  C   UNL     1     -20.733  32.667  14.174  1.00  0.00     0.006 C 
BRANCH   4   5
ATOM      5  C   UNL     1     -22.151  32.085  14.071  1.00  0.00     0.053 C 
BRANCH   5   6
ATOM      6  C   UNL     1     -22.773  31.881  15.419  1.00  0.00     0.041 C 
ATOM      7  O   UNL     1     -22.706  30.757  15.983  1.00  0.00    -0.550 OA
ATOM      8  O   UNL     1     -23.398  32.940  16.066  1.00  0.00    -0.550 OA
ENDBRANCH   5   6
ENDBRANCH   4   5
ENDBRANCH   3   4
ENDBRANCH   2   3
ENDBRANCH   1   2
BRANCH   1   9
ATOM      9  C   UNL     1     -17.269  34.259  12.562  1.00  0.00     0.000 C 
BRANCH   9  10
ATOM     10  C   UNL     1     -17.138  35.793  12.601  1.00  0.00    -0.000 C 
BRANCH  10  11
ATOM     11  C   UNL     1     -17.756  36.406  13.867  1.00  0.00    -0.000 C 
BRANCH  11  12
ATOM     12  C   UNL     1     -16.711  37.081  14.768  1.00  0.00    -0.000 C 
BRANCH  12  13
ATOM     13  C   UNL     1     -15.803  36.038  15.430  1.00  0.00    -0.003 C 
ATOM     14  C   UNL     1     -14.338  36.276  15.072  1.00  0.00     0.004 C 
ENDBRANCH  12  13
ENDBRANCH  11  12
ENDBRANCH  10  11
ENDBRANCH   9  10
ENDBRANCH   1   9
TORSDOF 10
ENDMDL
