MODEL 1
REMARK VINA RESULT:     4.231      0.000      0.000
REMARK INTER + INTRA:           6.363
REMARK INTER:                   6.705
REMARK INTRA:                  -0.342
REMARK UNBOUND:                -0.342
REMARK SMILES CCCCCCCCCCCC(=O)[O-]
REMARK SMILES IDX 7 1 8 2 9 3 10 4 11 5 12 6 13 7 14 8 6 9 5 10 4 11 3 12 2 13
REMARK SMILES IDX 1 14
REMARK H PARENT
REMARK Flexibility Score: inf
ROOT
ATOM      1  C   UNL     1      26.668  30.785  -4.474  1.00  0.00     0.000 C 
ENDROOT
BRANCH   1   2
ATOM      2  C   UNL     1      25.721  31.356  -5.544  1.00  0.00     0.000 C 
BRANCH   2   3
ATOM      3  C   UNL     1      26.273  31.206  -6.973  1.00  0.00     0.000 C 
BRANCH   3   4
ATOM      4  C   UNL     1      25.438  31.897  -8.065  1.00  0.00     0.006 C 
BRANCH   4   5
ATOM      5  C   UNL     1      24.383  32.854  -7.495  1.00  0.00     0.053 C 
BRANCH   5   6
ATOM      6  C   UNL     1      23.009  32.415  -7.896  1.00  0.00     0.041 C 
ATOM      7  O   UNL     1      22.100  33.267  -8.077  1.00  0.00    -0.550 OA
ATOM      8  O   UNL     1      22.746  31.069  -8.118  1.00  0.00    -0.550 OA
ENDBRANCH   5   6
ENDBRANCH   4   5
ENDBRANCH   3   4
ENDBRANCH   2   3
ENDBRANCH   1   2
BRANCH   1   9
ATOM      9  C   UNL     1      26.326  31.283  -3.061  1.00  0.00     0.000 C 
BRANCH   9  10
ATOM     10  C   UNL     1      27.251  30.683  -1.987  1.00  0.00    -0.000 C 
BRANCH  10  11
ATOM     11  C   UNL     1      26.474  30.049  -0.819  1.00  0.00    -0.000 C 
BRANCH  11  12
ATOM     12  C   UNL     1      27.119  30.236   0.569  1.00  0.00    -0.000 C 
BRANCH  12  13
ATOM     13  C   UNL     1      27.023  29.016   1.500  1.00  0.00    -0.003 C 
ATOM     14  C   UNL     1      28.130  27.992   1.256  1.00  0.00     0.004 C 
ENDBRANCH  12  13
ENDBRANCH  11  12
ENDBRANCH  10  11
ENDBRANCH   9  10
ENDBRANCH   1   9
TORSDOF 10
ENDMDL
MODEL 2
REMARK VINA RESULT:     4.431     15.385     16.614
REMARK INTER + INTRA:           6.679
REMARK INTER:                   7.107
REMARK INTRA:                  -0.428
REMARK UNBOUND:                -0.342
REMARK SMILES CCCCCCCCCCCC(=O)[O-]
REMARK SMILES IDX 7 1 8 2 9 3 10 4 11 5 12 6 13 7 14 8 6 9 5 10 4 11 3 12 2 13
REMARK SMILES IDX 1 14
REMARK H PARENT
REMARK Flexibility Score: inf
ROOT
ATOM      1  C   UNL     1      28.237  44.315   3.794  1.00  0.00     0.000 C 
ENDROOT
BRANCH   1   2
ATOM      2  C   UNL     1      26.790  43.916   3.457  1.00  0.00     0.000 C 
BRANCH   2   3
ATOM      3  C   UNL     1      26.053  43.274   4.646  1.00  0.00     0.000 C 
BRANCH   3   4
ATOM      4  C   UNL     1      24.761  42.522   4.278  1.00  0.00     0.006 C 
BRANCH   4   5
ATOM      5  C   UNL     1      24.507  42.476   2.766  1.00  0.00     0.053 C 
BRANCH   5   6
ATOM      6  C   UNL     1      23.045  42.314   2.486  1.00  0.00     0.041 C 
ATOM      7  O   UNL     1      22.221  43.164   2.915  1.00  0.00    -0.550 OA
ATOM      8  O   UNL     1      22.599  41.252   1.711  1.00  0.00    -0.550 OA
ENDBRANCH   5   6
ENDBRANCH   4   5
ENDBRANCH   3   4
ENDBRANCH   2   3
ENDBRANCH   1   2
BRANCH   1   9
ATOM      9  C   UNL     1      28.374  45.812   4.113  1.00  0.00     0.000 C 
BRANCH   9  10
ATOM     10  C   UNL     1      27.234  46.329   5.008  1.00  0.00    -0.000 C 
BRANCH  10  11
ATOM     11  C   UNL     1      27.682  47.463   5.947  1.00  0.00    -0.000 C 
BRANCH  11  12
ATOM     12  C   UNL     1      27.074  47.414   7.363  1.00  0.00    -0.000 C 
BRANCH  12  13
ATOM     13  C   UNL     1      26.013  46.321   7.577  1.00  0.00    -0.003 C 
ATOM     14  C   UNL     1      24.606  46.886   7.769  1.00  0.00     0.004 C 
ENDBRANCH  12  13
ENDBRANCH  11  12
ENDBRANCH  10  11
ENDBRANCH   9  10
ENDBRANCH   1   9
TORSDOF 10
ENDMDL
MODEL 3
REMARK VINA RESULT:     4.930     16.110     17.679
REMARK INTER + INTRA:           7.470
REMARK INTER:                   7.324
REMARK INTRA:                   0.145
REMARK UNBOUND:                -0.342
REMARK SMILES CCCCCCCCCCCC(=O)[O-]
REMARK SMILES IDX 7 1 8 2 9 3 10 4 11 5 12 6 13 7 14 8 6 9 5 10 4 11 3 12 2 13
REMARK SMILES IDX 1 14
REMARK H PARENT
REMARK Flexibility Score: inf
ROOT
ATOM      1  C   UNL     1      27.661  44.242   3.583  1.00  0.00     0.000 C 
ENDROOT
BRANCH   1   2
ATOM      2  C   UNL     1      28.134  45.585   4.167  1.00  0.00     0.000 C 
BRANCH   2   3
ATOM      3  C   UNL     1      27.200  46.120   5.268  1.00  0.00     0.000 C 
BRANCH   3   4
ATOM      4  C   UNL     1      27.613  47.478   5.863  1.00  0.00     0.006 C 
BRANCH   4   5
ATOM      5  C   UNL     1      27.152  47.659   7.315  1.00  0.00     0.053 C 
BRANCH   5   6
ATOM      6  C   UNL     1      26.121  46.633   7.668  1.00  0.00     0.041 C 
ATOM      7  O   UNL     1      26.472  45.468   7.991  1.00  0.00    -0.550 OA
ATOM      8  O   UNL     1      24.776  46.978   7.688  1.00  0.00    -0.550 OA
ENDBRANCH   5   6
ENDBRANCH   4   5
ENDBRANCH   3   4
ENDBRANCH   2   3
ENDBRANCH   1   2
BRANCH   1   9
ATOM      9  C   UNL     1      26.520  43.615   4.398  1.00  0.00     0.000 C 
BRANCH   9  10
ATOM     10  C   UNL     1      25.401  43.052   3.506  1.00  0.00    -0.000 C 
BRANCH  10  11
ATOM     11  C   UNL     1      24.477  42.075   4.254  1.00  0.00    -0.000 C 
BRANCH  11  12
ATOM     12  C   UNL     1      22.993  42.490   4.304  1.00  0.00    -0.000 C 
BRANCH  12  13
ATOM     13  C   UNL     1      22.326  42.683   2.932  1.00  0.00    -0.003 C 
ATOM     14  C   UNL     1      22.879  41.743   1.863  1.00  0.00     0.004 C 
ENDBRANCH  12  13
ENDBRANCH  11  12
ENDBRANCH  10  11
ENDBRANCH   9  10
ENDBRANCH   1   9
TORSDOF 10
ENDMDL
MODEL 4
REMARK VINA RESULT:     5.074     13.371     14.432
REMARK INTER + INTRA:           7.699
REMARK INTER:                   8.104
REMARK INTRA:                  -0.405
REMARK UNBOUND:                -0.342
REMARK SMILES CCCCCCCCCCCC(=O)[O-]
REMARK SMILES IDX 7 1 8 2 9 3 10 4 11 5 12 6 13 7 14 8 6 9 5 10 4 11 3 12 2 13
REMARK SMILES IDX 1 14
REMARK H PARENT
REMARK Flexibility Score: inf
ROOT
ATOM      1  C   UNL     1      28.956  44.388   3.595  1.00  0.00     0.000 C 
ENDROOT
BRANCH   1   2
ATOM      2  C   UNL     1      29.388  44.690   2.149  1.00  0.00     0.000 C 
BRANCH   2   3
ATOM      3  C   UNL     1      29.430  43.433   1.262  1.00  0.00     0.000 C 
BRANCH   3   4
ATOM      4  C   UNL     1      30.395  43.518   0.066  1.00  0.00     0.006 C 
BRANCH   4   5
ATOM      5  C   UNL     1      30.315  42.292  -0.854  1.00  0.00     0.053 C 
BRANCH   5   6
ATOM      6  C   UNL     1      29.507  42.607  -2.074  1.00  0.00     0.041 C 
ATOM      7  O   UNL     1      29.785  43.615  -2.774  1.00  0.00    -0.550 OA
ATOM      8  O   UNL     1      28.479  41.758  -2.466  1.00  0.00    -0.550 OA
ENDBRANCH   5   6
ENDBRANCH   4   5
ENDBRANCH   3   4
ENDBRANCH   2   3
ENDBRANCH   1   2
BRANCH   1   9
ATOM      9  C   UNL     1      27.556  44.933   3.917  1.00  0.00     0.000 C 
BRANCH   9  10
ATOM     10  C   UNL     1      26.641  43.867   4.545  1.00  0.00    -0.000 C 
BRANCH  10  11
ATOM     11  C   UNL     1      25.643  43.270   3.538  1.00  0.00    -0.000 C 
BRANCH  11  12
ATOM     12  C   UNL     1      24.608  42.301   4.144  1.00  0.00    -0.000 C 
BRANCH  12  13
ATOM     13  C   UNL     1      23.174  42.465   3.611  1.00  0.00    -0.003 C 
ATOM     14  C   UNL     1      23.018  41.993   2.166  1.00  0.00     0.004 C 
ENDBRANCH  12  13
ENDBRANCH  11  12
ENDBRANCH  10  11
ENDBRANCH   9  10
ENDBRANCH   1   9
TORSDOF 10
ENDMDL
MODEL 5
REMARK VINA RESULT:     5.076      4.266      8.113
REMARK INTER + INTRA:           7.702
REMARK INTER:                   8.192
REMARK INTRA:                  -0.490
REMARK UNBOUND:                -0.342
REMARK SMILES CCCCCCCCCCCC(=O)[O-]
REMARK SMILES IDX 7 1 8 2 9 3 10 4 11 5 12 6 13 7 14 8 6 9 5 10 4 11 3 12 2 13
REMARK SMILES IDX 1 14
REMARK H PARENT
REMARK Flexibility Score: inf
ROOT
ATOM      1  C   UNL     1      26.748  30.220  -4.522  1.00  0.00     0.000 C 
ENDROOT
BRANCH   1   2
ATOM      2  C   UNL     1      26.666  31.271  -3.401  1.00  0.00     0.000 C 
BRANCH   2   3
ATOM      3  C   UNL     1      27.471  30.876  -2.150  1.00  0.00     0.000 C 
BRANCH   3   4
ATOM      4  C   UNL     1      26.624  30.608  -0.893  1.00  0.00     0.006 C 
BRANCH   4   5
ATOM      5  C   UNL     1      26.697  29.149  -0.423  1.00  0.00     0.053 C 
BRANCH   5   6
ATOM      6  C   UNL     1      27.029  29.087   1.036  1.00  0.00     0.041 C 
ATOM      7  O   UNL     1      27.676  28.110   1.497  1.00  0.00    -0.550 OA
ATOM      8  O   UNL     1      26.667  30.131   1.876  1.00  0.00    -0.550 OA
ENDBRANCH   5   6
ENDBRANCH   4   5
ENDBRANCH   3   4
ENDBRANCH   2   3
ENDBRANCH   1   2
BRANCH   1   9
ATOM      9  C   UNL     1      25.751  30.494  -5.659  1.00  0.00     0.000 C 
BRANCH   9  10
ATOM     10  C   UNL     1      26.306  31.478  -6.703  1.00  0.00    -0.000 C 
BRANCH  10  11
ATOM     11  C   UNL     1      25.222  32.003  -7.661  1.00  0.00    -0.000 C 
BRANCH  11  12
ATOM     12  C   UNL     1      23.781  31.929  -7.117  1.00  0.00    -0.000 C 
BRANCH  12  13
ATOM     13  C   UNL     1      22.734  31.412  -8.119  1.00  0.00    -0.003 C 
ATOM     14  C   UNL     1      22.537  29.898  -8.046  1.00  0.00     0.004 C 
ENDBRANCH  12  13
ENDBRANCH  11  12
ENDBRANCH  10  11
ENDBRANCH   9  10
ENDBRANCH   1   9
TORSDOF 10
ENDMDL
MODEL 6
REMARK VINA RESULT:     5.436      4.020      8.166
REMARK INTER + INTRA:           8.273
REMARK INTER:                   8.677
REMARK INTRA:                  -0.404
REMARK UNBOUND:                -0.342
REMARK SMILES CCCCCCCCCCCC(=O)[O-]
REMARK SMILES IDX 7 1 8 2 9 3 10 4 11 5 12 6 13 7 14 8 6 9 5 10 4 11 3 12 2 13
REMARK SMILES IDX 1 14
REMARK H PARENT
REMARK Flexibility Score: inf
ROOT
ATOM      1  C   UNL     1      25.834  31.218  -4.838  1.00  0.00     0.000 C 
ENDROOT
BRANCH   1   2
ATOM      2  C   UNL     1      26.917  30.860  -3.804  1.00  0.00     0.000 C 
BRANCH   2   3
ATOM      3  C   UNL     1      26.507  31.210  -2.363  1.00  0.00     0.000 C 
BRANCH   3   4
ATOM      4  C   UNL     1      27.473  30.707  -1.275  1.00  0.00     0.006 C 
BRANCH   4   5
ATOM      5  C   UNL     1      26.761  30.348   0.036  1.00  0.00     0.053 C 
BRANCH   5   6
ATOM      6  C   UNL     1      27.087  28.944   0.441  1.00  0.00     0.041 C 
ATOM      7  O   UNL     1      27.890  28.728   1.386  1.00  0.00    -0.550 OA
ATOM      8  O   UNL     1      26.465  27.876  -0.194  1.00  0.00    -0.550 OA
ENDBRANCH   5   6
ENDBRANCH   4   5
ENDBRANCH   3   4
ENDBRANCH   2   3
ENDBRANCH   1   2
BRANCH   1   9
ATOM      9  C   UNL     1      26.011  30.459  -6.162  1.00  0.00     0.000 C 
BRANCH   9  10
ATOM     10  C   UNL     1      25.612  31.306  -7.382  1.00  0.00    -0.000 C 
BRANCH  10  11
ATOM     11  C   UNL     1      24.121  31.689  -7.379  1.00  0.00    -0.000 C 
BRANCH  11  12
ATOM     12  C   UNL     1      23.827  33.164  -7.720  1.00  0.00    -0.000 C 
BRANCH  12  13
ATOM     13  C   UNL     1      25.067  34.019  -8.032  1.00  0.00    -0.003 C 
ATOM     14  C   UNL     1      24.753  35.512  -8.125  1.00  0.00     0.004 C 
ENDBRANCH  12  13
ENDBRANCH  11  12
ENDBRANCH  10  11
ENDBRANCH   9  10
ENDBRANCH   1   9
TORSDOF 10
ENDMDL
MODEL 7
REMARK VINA RESULT:     5.500     13.509     15.093
REMARK INTER + INTRA:           8.373
REMARK INTER:                   8.751
REMARK INTRA:                  -0.378
REMARK UNBOUND:                -0.342
REMARK SMILES CCCCCCCCCCCC(=O)[O-]
REMARK SMILES IDX 7 1 8 2 9 3 10 4 11 5 12 6 13 7 14 8 6 9 5 10 4 11 3 12 2 13
REMARK SMILES IDX 1 14
REMARK H PARENT
REMARK Flexibility Score: inf
ROOT
ATOM      1  C   UNL     1      28.889  44.646   3.462  1.00  0.00     0.000 C 
ENDROOT
BRANCH   1   2
ATOM      2  C   UNL     1      27.378  44.365   3.400  1.00  0.00     0.000 C 
BRANCH   2   3
ATOM      3  C   UNL     1      26.788  43.958   4.763  1.00  0.00     0.000 C 
BRANCH   3   4
ATOM      4  C   UNL     1      25.430  43.238   4.691  1.00  0.00     0.006 C 
BRANCH   4   5
ATOM      5  C   UNL     1      25.068  42.784   3.271  1.00  0.00     0.053 C 
BRANCH   5   6
ATOM      6  C   UNL     1      23.637  42.348   3.210  1.00  0.00     0.041 C 
ATOM      7  O   UNL     1      23.125  42.008   2.111  1.00  0.00    -0.550 OA
ATOM      8  O   UNL     1      22.884  42.270   4.375  1.00  0.00    -0.550 OA
ENDBRANCH   5   6
ENDBRANCH   4   5
ENDBRANCH   3   4
ENDBRANCH   2   3
ENDBRANCH   1   2
BRANCH   1   9
ATOM      9  C   UNL     1      29.523  44.764   2.067  1.00  0.00     0.000 C 
BRANCH   9  10
ATOM     10  C   UNL     1      29.457  43.445   1.278  1.00  0.00    -0.000 C 
BRANCH  10  11
ATOM     11  C   UNL     1      30.411  43.426   0.070  1.00  0.00    -0.000 C 
BRANCH  11  12
ATOM     12  C   UNL     1      30.066  42.386  -1.015  1.00  0.00    -0.000 C 
BRANCH  12  13
ATOM     13  C   UNL     1      29.690  42.976  -2.385  1.00  0.00    -0.003 C 
ATOM     14  C   UNL     1      28.850  42.023  -3.233  1.00  0.00     0.004 C 
ENDBRANCH  12  13
ENDBRANCH  11  12
ENDBRANCH  10  11
ENDBRANCH   9  10
ENDBRANCH   1   9
TORSDOF 10
ENDMDL
MODEL 8
REMARK VINA RESULT:     6.894     14.414     16.065
REMARK INTER + INTRA:          10.582
REMARK INTER:                  10.847
REMARK INTRA:                  -0.264
REMARK UNBOUND:                -0.342
REMARK SMILES CCCCCCCCCCCC(=O)[O-]
REMARK SMILES IDX 7 1 8 2 9 3 10 4 11 5 12 6 13 7 14 8 6 9 5 10 4 11 3 12 2 13
REMARK SMILES IDX 1 14
REMARK H PARENT
REMARK Flexibility Score: inf
ROOT
ATOM      1  C   UNL     1      24.944  43.034   2.957  1.00  0.00     0.000 C 
ENDROOT
BRANCH   1   2
ATOM      2  C   UNL     1      23.750  42.121   3.288  1.00  0.00     0.000 C 
BRANCH   2   3
ATOM      3  C   UNL     1      23.777  41.600   4.736  1.00  0.00     0.000 C 
BRANCH   3   4
ATOM      4  C   UNL     1      24.782  40.464   4.996  1.00  0.00     0.006 C 
BRANCH   4   5
ATOM      5  C   UNL     1      24.662  39.872   6.407  1.00  0.00     0.053 C 
BRANCH   5   6
ATOM      6  C   UNL     1      25.644  38.757   6.591  1.00  0.00     0.041 C 
ATOM      7  O   UNL     1      26.389  38.730   7.606  1.00  0.00    -0.550 OA
ATOM      8  O   UNL     1      25.702  37.722   5.666  1.00  0.00    -0.550 OA
ENDBRANCH   5   6
ENDBRANCH   4   5
ENDBRANCH   3   4
ENDBRANCH   2   3
ENDBRANCH   1   2
BRANCH   1   9
ATOM      9  C   UNL     1      25.743  43.432   4.208  1.00  0.00     0.000 C 
BRANCH   9  10
ATOM     10  C   UNL     1      27.047  44.172   3.861  1.00  0.00    -0.000 C 
BRANCH  10  11
ATOM     11  C   UNL     1      27.357  45.321   4.836  1.00  0.00    -0.000 C 
BRANCH  11  12
ATOM     12  C   UNL     1      26.682  45.203   6.217  1.00  0.00    -0.000 C 
BRANCH  12  13
ATOM     13  C   UNL     1      26.543  46.527   6.988  1.00  0.00    -0.003 C 
ATOM     14  C   UNL     1      25.213  46.646   7.731  1.00  0.00     0.004 C 
ENDBRANCH  12  13
ENDBRANCH  11  12
ENDBRANCH  10  11
ENDBRANCH   9  10
ENDBRANCH   1   9
TORSDOF 10
ENDMDL
MODEL 9
REMARK VINA RESULT:     7.094     14.736     16.156
REMARK INTER + INTRA:          10.899
REMARK INTER:                  10.791
REMARK INTRA:                   0.108
REMARK UNBOUND:                -0.342
REMARK SMILES CCCCCCCCCCCC(=O)[O-]
REMARK SMILES IDX 7 1 8 2 9 3 10 4 11 5 12 6 13 7 14 8 6 9 5 10 4 11 3 12 2 13
REMARK SMILES IDX 1 14
REMARK H PARENT
REMARK Flexibility Score: inf
ROOT
ATOM      1  C   UNL     1      24.946  42.870   2.822  1.00  0.00     0.000 C 
ENDROOT
BRANCH   1   2
ATOM      2  C   UNL     1      25.793  43.313   4.028  1.00  0.00     0.000 C 
BRANCH   2   3
ATOM      3  C   UNL     1      27.077  44.056   3.617  1.00  0.00     0.000 C 
BRANCH   3   4
ATOM      4  C   UNL     1      27.499  45.192   4.566  1.00  0.00     0.006 C 
BRANCH   4   5
ATOM      5  C   UNL     1      26.764  45.150   5.912  1.00  0.00     0.053 C 
BRANCH   5   6
ATOM      6  C   UNL     1      26.799  46.495   6.568  1.00  0.00     0.041 C 
ATOM      7  O   UNL     1      26.087  46.724   7.581  1.00  0.00    -0.550 OA
ATOM      8  O   UNL     1      27.653  47.481   6.089  1.00  0.00    -0.550 OA
ENDBRANCH   5   6
ENDBRANCH   4   5
ENDBRANCH   3   4
ENDBRANCH   2   3
ENDBRANCH   1   2
BRANCH   1   9
ATOM      9  C   UNL     1      23.519  42.466   3.222  1.00  0.00     0.000 C 
BRANCH   9  10
ATOM     10  C   UNL     1      23.471  41.749   4.583  1.00  0.00    -0.000 C 
BRANCH  10  11
ATOM     11  C   UNL     1      24.618  40.739   4.764  1.00  0.00    -0.000 C 
BRANCH  11  12
ATOM     12  C   UNL     1      24.583  39.944   6.085  1.00  0.00    -0.000 C 
BRANCH  12  13
ATOM     13  C   UNL     1      25.474  38.691   6.114  1.00  0.00    -0.003 C 
ATOM     14  C   UNL     1      26.379  38.632   7.344  1.00  0.00     0.004 C 
ENDBRANCH  12  13
ENDBRANCH  11  12
ENDBRANCH  10  11
ENDBRANCH   9  10
ENDBRANCH   1   9
TORSDOF 10
ENDMDL
