MODEL 1
REMARK VINA RESULT:    -5.160      0.000      0.000
REMARK INTER + INTRA:          -6.359
REMARK INTER:                  -6.065
REMARK INTRA:                  -0.294
REMARK UNBOUND:                -0.294
REMARK SMILES O=c1cc(-c2ccc(O)c(O)c2)oc2cc(O)cc(O)c12
REMARK SMILES IDX 4 1 3 2 2 3 1 4 21 5 19 6 18 7 16 8 15 9 14 10 13 11 5 12
REMARK SMILES IDX 6 13 7 14 8 15 12 16 10 17 9 18 11 20 20 22 17 24
REMARK H PARENT 9 19 11 21 20 23 17 25
REMARK Flexibility Score: inf
ROOT
ATOM      1  C   UNL     1      75.013  88.756  11.007  1.00  0.00     0.138 A 
ATOM      2  C   UNL     1      73.969  87.964  11.502  1.00  0.00     0.100 A 
ATOM      3  C   UNL     1      72.900  88.565  12.168  1.00  0.00     0.197 A 
ATOM      4  O   UNL     1      72.007  87.822  12.648  1.00  0.00    -0.289 OA
ATOM      5  C   UNL     1      72.860  89.974  12.306  1.00  0.00     0.107 A 
ATOM      6  C   UNL     1      71.805  90.700  12.936  1.00  0.00     0.134 A 
ATOM      7  C   UNL     1      71.924  92.086  13.100  1.00  0.00     0.093 A 
ATOM      8  C   UNL     1      73.032  92.778  12.608  1.00  0.00     0.123 A 
ATOM      9  C   UNL     1      74.044  92.085  11.948  1.00  0.00     0.094 A 
ATOM     10  C   UNL     1      73.972  90.698  11.798  1.00  0.00     0.146 A 
ATOM     11  O   UNL     1      74.968  90.074  11.179  1.00  0.00    -0.456 OA
ENDROOT
BRANCH   1  12
ATOM     12  C   UNL     1      76.173  88.170  10.289  1.00  0.00     0.021 A 
ATOM     13  C   UNL     1      75.953  87.180   9.318  1.00  0.00     0.016 A 
ATOM     14  C   UNL     1      77.025  86.617   8.625  1.00  0.00     0.051 A 
ATOM     15  C   UNL     1      78.337  87.033   8.875  1.00  0.00     0.157 A 
ATOM     16  C   UNL     1      77.490  88.601  10.531  1.00  0.00     0.062 A 
ATOM     17  C   UNL     1      78.572  88.043   9.838  1.00  0.00     0.158 A 
BRANCH  15  18
ATOM     18  O   UNL     1      79.365  86.426   8.151  1.00  0.00    -0.504 OA
ATOM     19  H   UNL     1      79.383  85.445   7.911  1.00  0.00     0.293 HD
ENDBRANCH  15  18
BRANCH  17  20
ATOM     20  O   UNL     1      79.850  88.522  10.130  1.00  0.00    -0.504 OA
ATOM     21  H   UNL     1      80.201  89.418   9.826  1.00  0.00     0.293 HD
ENDBRANCH  17  20
ENDBRANCH   1  12
BRANCH   6  22
ATOM     22  O   UNL     1      70.617  90.120  13.392  1.00  0.00    -0.507 OA
ATOM     23  H   UNL     1      70.207  90.276  14.300  1.00  0.00     0.293 HD
ENDBRANCH   6  22
BRANCH   8  24
ATOM     24  O   UNL     1      73.135  94.159  12.762  1.00  0.00    -0.508 OA
ATOM     25  H   UNL     1      72.352  94.714  13.089  1.00  0.00     0.293 HD
ENDBRANCH   8  24
TORSDOF 5
ENDMDL
MODEL 2
REMARK VINA RESULT:    -5.074      1.555      2.789
REMARK INTER + INTRA:          -6.258
REMARK INTER:                  -5.962
REMARK INTRA:                  -0.296
REMARK UNBOUND:                -0.294
REMARK SMILES O=c1cc(-c2ccc(O)c(O)c2)oc2cc(O)cc(O)c12
REMARK SMILES IDX 4 1 3 2 2 3 1 4 21 5 19 6 18 7 16 8 15 9 14 10 13 11 5 12
REMARK SMILES IDX 6 13 7 14 8 15 12 16 10 17 9 18 11 20 20 22 17 24
REMARK H PARENT 9 19 11 21 20 23 17 25
REMARK Flexibility Score: inf
ROOT
ATOM      1  C   UNL     1      74.918  90.011  11.085  1.00  0.00     0.138 A 
ATOM      2  C   UNL     1      75.335  91.208  11.682  1.00  0.00     0.100 A 
ATOM      3  C   UNL     1      74.388  92.165  12.048  1.00  0.00     0.197 A 
ATOM      4  O   UNL     1      74.798  93.251  12.531  1.00  0.00    -0.289 OA
ATOM      5  C   UNL     1      73.011  91.904  11.848  1.00  0.00     0.107 A 
ATOM      6  C   UNL     1      71.953  92.790  12.213  1.00  0.00     0.134 A 
ATOM      7  C   UNL     1      70.633  92.466  11.874  1.00  0.00     0.093 A 
ATOM      8  C   UNL     1      70.328  91.262  11.236  1.00  0.00     0.123 A 
ATOM      9  C   UNL     1      71.348  90.368  10.920  1.00  0.00     0.094 A 
ATOM     10  C   UNL     1      72.678  90.677  11.213  1.00  0.00     0.146 A 
ATOM     11  O   UNL     1      73.622  89.805  10.878  1.00  0.00    -0.456 OA
ENDROOT
BRANCH   1  12
ATOM     12  C   UNL     1      75.883  88.959  10.678  1.00  0.00     0.021 A 
ATOM     13  C   UNL     1      75.403  87.699  10.284  1.00  0.00     0.016 A 
ATOM     14  C   UNL     1      76.289  86.694   9.891  1.00  0.00     0.051 A 
ATOM     15  C   UNL     1      77.668  86.924   9.872  1.00  0.00     0.157 A 
ATOM     16  C   UNL     1      77.270  89.196  10.644  1.00  0.00     0.062 A 
ATOM     17  C   UNL     1      78.165  88.194  10.248  1.00  0.00     0.158 A 
BRANCH  15  18
ATOM     18  O   UNL     1      78.499  85.875   9.474  1.00  0.00    -0.504 OA
ATOM     19  H   UNL     1      78.167  85.021   9.049  1.00  0.00     0.293 HD
ENDBRANCH  15  18
BRANCH  17  20
ATOM     20  O   UNL     1      79.526  88.503  10.238  1.00  0.00    -0.504 OA
ATOM     21  H   UNL     1      80.132  88.363   9.443  1.00  0.00     0.293 HD
ENDBRANCH  17  20
ENDBRANCH   1  12
BRANCH   6  22
ATOM     22  O   UNL     1      72.137  93.981  12.924  1.00  0.00    -0.507 OA
ATOM     23  H   UNL     1      71.979  94.906  12.556  1.00  0.00     0.293 HD
ENDBRANCH   6  22
BRANCH   8  24
ATOM     24  O   UNL     1      69.010  90.940  10.917  1.00  0.00    -0.508 OA
ATOM     25  H   UNL     1      68.265  91.623  10.994  1.00  0.00     0.293 HD
ENDBRANCH   8  24
TORSDOF 5
ENDMDL
MODEL 3
REMARK VINA RESULT:    -4.999      1.880      7.134
REMARK INTER + INTRA:          -6.170
REMARK INTER:                  -5.884
REMARK INTRA:                  -0.287
REMARK UNBOUND:                -0.294
REMARK SMILES O=c1cc(-c2ccc(O)c(O)c2)oc2cc(O)cc(O)c12
REMARK SMILES IDX 4 1 3 2 2 3 1 4 21 5 19 6 18 7 16 8 15 9 14 10 13 11 5 12
REMARK SMILES IDX 6 13 7 14 8 15 12 16 10 17 9 18 11 20 20 22 17 24
REMARK H PARENT 9 19 11 21 20 23 17 25
REMARK Flexibility Score: inf
ROOT
ATOM      1  C   UNL     1      75.603  89.492  11.342  1.00  0.00     0.138 A 
ATOM      2  C   UNL     1      76.310  88.919  12.408  1.00  0.00     0.100 A 
ATOM      3  C   UNL     1      77.236  87.905  12.157  1.00  0.00     0.197 A 
ATOM      4  O   UNL     1      77.813  87.373  13.139  1.00  0.00    -0.289 OA
ATOM      5  C   UNL     1      77.481  87.490  10.826  1.00  0.00     0.107 A 
ATOM      6  C   UNL     1      78.426  86.489  10.446  1.00  0.00     0.134 A 
ATOM      7  C   UNL     1      78.510  86.093   9.106  1.00  0.00     0.093 A 
ATOM      8  C   UNL     1      77.724  86.700   8.124  1.00  0.00     0.123 A 
ATOM      9  C   UNL     1      76.834  87.711   8.476  1.00  0.00     0.094 A 
ATOM     10  C   UNL     1      76.702  88.106   9.809  1.00  0.00     0.146 A 
ATOM     11  O   UNL     1      75.828  89.062  10.105  1.00  0.00    -0.456 OA
ENDROOT
BRANCH   1  12
ATOM     12  C   UNL     1      74.609  90.575  11.552  1.00  0.00     0.021 A 
ATOM     13  C   UNL     1      74.977  91.717  12.281  1.00  0.00     0.016 A 
ATOM     14  C   UNL     1      74.063  92.752  12.487  1.00  0.00     0.051 A 
ATOM     15  C   UNL     1      72.769  92.677  11.962  1.00  0.00     0.157 A 
ATOM     16  C   UNL     1      73.312  90.506  11.010  1.00  0.00     0.062 A 
ATOM     17  C   UNL     1      72.390  91.542  11.210  1.00  0.00     0.158 A 
BRANCH  15  18
ATOM     18  O   UNL     1      71.902  93.744  12.209  1.00  0.00    -0.504 OA
ATOM     19  H   UNL     1      70.898  93.653  12.269  1.00  0.00     0.293 HD
ENDBRANCH  15  18
BRANCH  17  20
ATOM     20  O   UNL     1      71.122  91.403  10.641  1.00  0.00    -0.504 OA
ATOM     21  H   UNL     1      70.892  90.721   9.934  1.00  0.00     0.293 HD
ENDBRANCH  17  20
ENDBRANCH   1  12
BRANCH   6  22
ATOM     22  O   UNL     1      79.317  85.875  11.333  1.00  0.00    -0.507 OA
ATOM     23  H   UNL     1      79.760  84.983  11.183  1.00  0.00     0.293 HD
ENDBRANCH   6  22
BRANCH   8  24
ATOM     24  O   UNL     1      77.825  86.309   6.790  1.00  0.00    -0.508 OA
ATOM     25  H   UNL     1      78.722  86.097   6.367  1.00  0.00     0.293 HD
ENDBRANCH   8  24
TORSDOF 5
ENDMDL
MODEL 4
REMARK VINA RESULT:    -4.987     11.960     15.261
REMARK INTER + INTRA:          -6.156
REMARK INTER:                  -5.889
REMARK INTRA:                  -0.267
REMARK UNBOUND:                -0.294
REMARK SMILES O=c1cc(-c2ccc(O)c(O)c2)oc2cc(O)cc(O)c12
REMARK SMILES IDX 4 1 3 2 2 3 1 4 21 5 19 6 18 7 16 8 15 9 14 10 13 11 5 12
REMARK SMILES IDX 6 13 7 14 8 15 12 16 10 17 9 18 11 20 20 22 17 24
REMARK H PARENT 9 19 11 21 20 23 17 25
REMARK Flexibility Score: inf
ROOT
ATOM      1  C   UNL     1      68.205 101.356   7.018  1.00  0.00     0.138 A 
ATOM      2  C   UNL     1      69.034 100.232   6.909  1.00  0.00     0.100 A 
ATOM      3  C   UNL     1      69.795  99.825   8.006  1.00  0.00     0.197 A 
ATOM      4  O   UNL     1      70.570  98.846   7.859  1.00  0.00    -0.289 OA
ATOM      5  C   UNL     1      69.696 100.528   9.231  1.00  0.00     0.107 A 
ATOM      6  C   UNL     1      70.397 100.185  10.426  1.00  0.00     0.134 A 
ATOM      7  C   UNL     1      70.295 101.016  11.549  1.00  0.00     0.093 A 
ATOM      8  C   UNL     1      69.471 102.143  11.538  1.00  0.00     0.123 A 
ATOM      9  C   UNL     1      68.744 102.460  10.394  1.00  0.00     0.094 A 
ATOM     10  C   UNL     1      68.851 101.671   9.246  1.00  0.00     0.146 A 
ATOM     11  O   UNL     1      68.154 102.018   8.169  1.00  0.00    -0.456 OA
ENDROOT
BRANCH   1  12
ATOM     12  C   UNL     1      67.372 101.831   5.884  1.00  0.00     0.021 A 
ATOM     13  C   UNL     1      66.005 101.515   5.853  1.00  0.00     0.016 A 
ATOM     14  C   UNL     1      65.199 101.954   4.802  1.00  0.00     0.051 A 
ATOM     15  C   UNL     1      65.734 102.726   3.765  1.00  0.00     0.157 A 
ATOM     16  C   UNL     1      67.909 102.621   4.850  1.00  0.00     0.062 A 
ATOM     17  C   UNL     1      67.106 103.068   3.792  1.00  0.00     0.158 A 
BRANCH  15  18
ATOM     18  O   UNL     1      64.875 103.129   2.741  1.00  0.00    -0.504 OA
ATOM     19  H   UNL     1      64.425 102.493   2.098  1.00  0.00     0.293 HD
ENDBRANCH  15  18
BRANCH  17  20
ATOM     20  O   UNL     1      67.708 103.849   2.803  1.00  0.00    -0.504 OA
ATOM     21  H   UNL     1      67.491 103.781   1.820  1.00  0.00     0.293 HD
ENDBRANCH  17  20
ENDBRANCH   1  12
BRANCH   6  22
ATOM     22  O   UNL     1      71.184  99.037  10.571  1.00  0.00    -0.507 OA
ATOM     23  H   UNL     1      72.183  99.001  10.449  1.00  0.00     0.293 HD
ENDBRANCH   6  22
BRANCH   8  24
ATOM     24  O   UNL     1      69.363 102.955  12.666  1.00  0.00    -0.508 OA
ATOM     25  H   UNL     1      69.001 103.900  12.605  1.00  0.00     0.293 HD
ENDBRANCH   8  24
TORSDOF 5
ENDMDL
MODEL 5
REMARK VINA RESULT:    -4.958      1.826      2.802
REMARK INTER + INTRA:          -6.122
REMARK INTER:                  -5.805
REMARK INTRA:                  -0.317
REMARK UNBOUND:                -0.294
REMARK SMILES O=c1cc(-c2ccc(O)c(O)c2)oc2cc(O)cc(O)c12
REMARK SMILES IDX 4 1 3 2 2 3 1 4 21 5 19 6 18 7 16 8 15 9 14 10 13 11 5 12
REMARK SMILES IDX 6 13 7 14 8 15 12 16 10 17 9 18 11 20 20 22 17 24
REMARK H PARENT 9 19 11 21 20 23 17 25
REMARK Flexibility Score: inf
ROOT
ATOM      1  C   UNL     1      75.866  89.702  11.055  1.00  0.00     0.138 A 
ATOM      2  C   UNL     1      76.349  90.349  12.200  1.00  0.00     0.100 A 
ATOM      3  C   UNL     1      75.547  91.281  12.859  1.00  0.00     0.197 A 
ATOM      4  O   UNL     1      76.030  91.884  13.851  1.00  0.00    -0.289 OA
ATOM      5  C   UNL     1      74.237  91.539  12.388  1.00  0.00     0.107 A 
ATOM      6  C   UNL     1      73.316  92.443  12.998  1.00  0.00     0.134 A 
ATOM      7  C   UNL     1      72.082  92.690  12.383  1.00  0.00     0.093 A 
ATOM      8  C   UNL     1      71.713  92.024  11.213  1.00  0.00     0.123 A 
ATOM      9  C   UNL     1      72.584  91.102  10.637  1.00  0.00     0.094 A 
ATOM     10  C   UNL     1      73.836  90.859  11.206  1.00  0.00     0.146 A 
ATOM     11  O   UNL     1      74.644  89.987  10.614  1.00  0.00    -0.456 OA
ENDROOT
BRANCH   1  12
ATOM     12  C   UNL     1      76.675  88.701  10.317  1.00  0.00     0.021 A 
ATOM     13  C   UNL     1      78.020  88.506  10.670  1.00  0.00     0.016 A 
ATOM     14  C   UNL     1      78.802  87.566   9.996  1.00  0.00     0.051 A 
ATOM     15  C   UNL     1      78.259  86.793   8.964  1.00  0.00     0.157 A 
ATOM     16  C   UNL     1      76.124  87.912   9.289  1.00  0.00     0.062 A 
ATOM     17  C   UNL     1      76.901  86.965   8.610  1.00  0.00     0.158 A 
BRANCH  15  18
ATOM     18  O   UNL     1      79.096  85.875   8.327  1.00  0.00    -0.504 OA
ATOM     19  H   UNL     1      79.397  85.004   8.740  1.00  0.00     0.293 HD
ENDBRANCH  15  18
BRANCH  17  20
ATOM     20  O   UNL     1      76.285  86.219   7.603  1.00  0.00    -0.504 OA
ATOM     21  H   UNL     1      75.412  86.474   7.165  1.00  0.00     0.293 HD
ENDBRANCH  17  20
ENDBRANCH   1  12
BRANCH   6  22
ATOM     22  O   UNL     1      73.550  93.102  14.210  1.00  0.00    -0.507 OA
ATOM     23  H   UNL     1      74.414  93.074  14.727  1.00  0.00     0.293 HD
ENDBRANCH   6  22
BRANCH   8  24
ATOM     24  O   UNL     1      70.476  92.264  10.617  1.00  0.00    -0.508 OA
ATOM     25  H   UNL     1      69.719  92.702  11.128  1.00  0.00     0.293 HD
ENDBRANCH   8  24
TORSDOF 5
ENDMDL
MODEL 6
REMARK VINA RESULT:    -4.897     10.766     14.672
REMARK INTER + INTRA:          -6.051
REMARK INTER:                  -5.786
REMARK INTRA:                  -0.264
REMARK UNBOUND:                -0.294
REMARK SMILES O=c1cc(-c2ccc(O)c(O)c2)oc2cc(O)cc(O)c12
REMARK SMILES IDX 4 1 3 2 2 3 1 4 21 5 19 6 18 7 16 8 15 9 14 10 13 11 5 12
REMARK SMILES IDX 6 13 7 14 8 15 12 16 10 17 9 18 11 20 20 22 17 24
REMARK H PARENT 9 19 11 21 20 23 17 25
REMARK Flexibility Score: inf
ROOT
ATOM      1  C   UNL     1      68.023 100.755   7.204  1.00  0.00     0.138 A 
ATOM      2  C   UNL     1      68.559 101.514   8.252  1.00  0.00     0.100 A 
ATOM      3  C   UNL     1      69.291 100.884   9.259  1.00  0.00     0.197 A 
ATOM      4  O   UNL     1      69.712 101.586  10.214  1.00  0.00    -0.289 OA
ATOM      5  C   UNL     1      69.519  99.488   9.195  1.00  0.00     0.107 A 
ATOM      6  C   UNL     1      70.278  98.743  10.146  1.00  0.00     0.134 A 
ATOM      7  C   UNL     1      70.351  97.349  10.031  1.00  0.00     0.093 A 
ATOM      8  C   UNL     1      69.740  96.681   8.968  1.00  0.00     0.123 A 
ATOM      9  C   UNL     1      69.038  97.404   8.007  1.00  0.00     0.094 A 
ATOM     10  C   UNL     1      68.918  98.791   8.112  1.00  0.00     0.146 A 
ATOM     11  O   UNL     1      68.223  99.441   7.184  1.00  0.00    -0.456 OA
ENDROOT
BRANCH   1  12
ATOM     12  C   UNL     1      67.239 101.373   6.105  1.00  0.00     0.021 A 
ATOM     13  C   UNL     1      65.850 101.175   6.053  1.00  0.00     0.016 A 
ATOM     14  C   UNL     1      65.089 101.751   5.034  1.00  0.00     0.051 A 
ATOM     15  C   UNL     1      65.692 102.544   4.053  1.00  0.00     0.157 A 
ATOM     16  C   UNL     1      67.845 102.185   5.127  1.00  0.00     0.062 A 
ATOM     17  C   UNL     1      67.088 102.769   4.103  1.00  0.00     0.158 A 
BRANCH  15  18
ATOM     18  O   UNL     1      64.875 103.086   3.059  1.00  0.00    -0.504 OA
ATOM     19  H   UNL     1      63.904 103.329   3.196  1.00  0.00     0.293 HD
ENDBRANCH  15  18
BRANCH  17  20
ATOM     20  O   UNL     1      67.757 103.562   3.170  1.00  0.00    -0.504 OA
ATOM     21  H   UNL     1      68.015 104.525   3.328  1.00  0.00     0.293 HD
ENDBRANCH  17  20
ENDBRANCH   1  12
BRANCH   6  22
ATOM     22  O   UNL     1      70.995  99.318  11.201  1.00  0.00    -0.507 OA
ATOM     23  H   UNL     1      71.820  98.923  11.623  1.00  0.00     0.293 HD
ENDBRANCH   6  22
BRANCH   8  24
ATOM     24  O   UNL     1      69.831  95.294   8.852  1.00  0.00    -0.508 OA
ATOM     25  H   UNL     1      70.626  94.852   8.406  1.00  0.00     0.293 HD
ENDBRANCH   8  24
TORSDOF 5
ENDMDL
MODEL 7
REMARK VINA RESULT:    -4.815      2.875      7.838
REMARK INTER + INTRA:          -5.953
REMARK INTER:                  -5.639
REMARK INTRA:                  -0.315
REMARK UNBOUND:                -0.294
REMARK SMILES O=c1cc(-c2ccc(O)c(O)c2)oc2cc(O)cc(O)c12
REMARK SMILES IDX 4 1 3 2 2 3 1 4 21 5 19 6 18 7 16 8 15 9 14 10 13 11 5 12
REMARK SMILES IDX 6 13 7 14 8 15 12 16 10 17 9 18 11 20 20 22 17 24
REMARK H PARENT 9 19 11 21 20 23 17 25
REMARK Flexibility Score: inf
ROOT
ATOM      1  C   UNL     1      72.808  92.656  12.373  1.00  0.00     0.138 A 
ATOM      2  C   UNL     1      73.599  92.833  13.516  1.00  0.00     0.100 A 
ATOM      3  C   UNL     1      74.747  92.059  13.689  1.00  0.00     0.197 A 
ATOM      4  O   UNL     1      75.405  92.204  14.751  1.00  0.00    -0.289 OA
ATOM      5  C   UNL     1      75.125  91.128  12.692  1.00  0.00     0.107 A 
ATOM      6  C   UNL     1      76.292  90.308  12.744  1.00  0.00     0.134 A 
ATOM      7  C   UNL     1      76.509  89.351  11.744  1.00  0.00     0.093 A 
ATOM      8  C   UNL     1      75.631  89.224  10.666  1.00  0.00     0.123 A 
ATOM      9  C   UNL     1      74.514  90.053  10.580  1.00  0.00     0.094 A 
ATOM     10  C   UNL     1      74.252  90.993  11.578  1.00  0.00     0.146 A 
ATOM     11  O   UNL     1      73.166  91.751  11.468  1.00  0.00    -0.456 OA
ENDROOT
BRANCH   1  12
ATOM     12  C   UNL     1      71.578  93.454  12.137  1.00  0.00     0.021 A 
ATOM     13  C   UNL     1      71.370  94.632  12.870  1.00  0.00     0.016 A 
ATOM     14  C   UNL     1      70.225  95.403  12.663  1.00  0.00     0.051 A 
ATOM     15  C   UNL     1      69.269  95.024  11.715  1.00  0.00     0.157 A 
ATOM     16  C   UNL     1      70.625  93.079  11.171  1.00  0.00     0.062 A 
ATOM     17  C   UNL     1      69.474  93.849  10.956  1.00  0.00     0.158 A 
BRANCH  15  18
ATOM     18  O   UNL     1      68.144  95.837  11.561  1.00  0.00    -0.504 OA
ATOM     19  H   UNL     1      67.391  95.642  10.917  1.00  0.00     0.293 HD
ENDBRANCH  15  18
BRANCH  17  20
ATOM     20  O   UNL     1      68.575  93.415   9.981  1.00  0.00    -0.504 OA
ATOM     21  H   UNL     1      68.845  92.936   9.134  1.00  0.00     0.293 HD
ENDBRANCH  17  20
ENDBRANCH   1  12
BRANCH   6  22
ATOM     22  O   UNL     1      77.277  90.407  13.733  1.00  0.00    -0.507 OA
ATOM     23  H   UNL     1      77.905  89.666  14.001  1.00  0.00     0.293 HD
ENDBRANCH   6  22
BRANCH   8  24
ATOM     24  O   UNL     1      75.862  88.280   9.667  1.00  0.00    -0.508 OA
ATOM     25  H   UNL     1      76.355  88.521   8.815  1.00  0.00     0.293 HD
ENDBRANCH   8  24
TORSDOF 5
ENDMDL
MODEL 8
REMARK VINA RESULT:    -4.748      4.950      7.172
REMARK INTER + INTRA:          -5.875
REMARK INTER:                  -5.565
REMARK INTRA:                  -0.309
REMARK UNBOUND:                -0.294
REMARK SMILES O=c1cc(-c2ccc(O)c(O)c2)oc2cc(O)cc(O)c12
REMARK SMILES IDX 4 1 3 2 2 3 1 4 21 5 19 6 18 7 16 8 15 9 14 10 13 11 5 12
REMARK SMILES IDX 6 13 7 14 8 15 12 16 10 17 9 18 11 20 20 22 17 24
REMARK H PARENT 9 19 11 21 20 23 17 25
REMARK Flexibility Score: inf
ROOT
ATOM      1  C   UNL     1      79.371  86.609   7.159  1.00  0.00     0.138 A 
ATOM      2  C   UNL     1      77.979  86.758   7.234  1.00  0.00     0.100 A 
ATOM      3  C   UNL     1      77.348  86.735   8.478  1.00  0.00     0.197 A 
ATOM      4  O   UNL     1      76.093  86.816   8.507  1.00  0.00    -0.289 OA
ATOM      5  C   UNL     1      78.119  86.599   9.657  1.00  0.00     0.107 A 
ATOM      6  C   UNL     1      77.588  86.597  10.982  1.00  0.00     0.134 A 
ATOM      7  C   UNL     1      78.441  86.355  12.066  1.00  0.00     0.093 A 
ATOM      8  C   UNL     1      79.812  86.174  11.878  1.00  0.00     0.123 A 
ATOM      9  C   UNL     1      80.348  86.224  10.594  1.00  0.00     0.094 A 
ATOM     10  C   UNL     1      79.520  86.428   9.488  1.00  0.00     0.146 A 
ATOM     11  O   UNL     1      80.069  86.450   8.279  1.00  0.00    -0.456 OA
ENDROOT
BRANCH   1  12
ATOM     12  C   UNL     1      80.094  86.628   5.863  1.00  0.00     0.021 A 
ATOM     13  C   UNL     1      79.413  86.277   4.687  1.00  0.00     0.016 A 
ATOM     14  C   UNL     1      80.068  86.292   3.455  1.00  0.00     0.051 A 
ATOM     15  C   UNL     1      81.413  86.668   3.366  1.00  0.00     0.157 A 
ATOM     16  C   UNL     1      81.443  87.022   5.772  1.00  0.00     0.062 A 
ATOM     17  C   UNL     1      82.108  87.043   4.539  1.00  0.00     0.158 A 
BRANCH  15  18
ATOM     18  O   UNL     1      82.011  86.657   2.104  1.00  0.00    -0.504 OA
ATOM     19  H   UNL     1      81.853  87.362   1.398  1.00  0.00     0.293 HD
ENDBRANCH  15  18
BRANCH  17  20
ATOM     20  O   UNL     1      83.444  87.445   4.527  1.00  0.00    -0.504 OA
ATOM     21  H   UNL     1      84.142  87.107   5.173  1.00  0.00     0.293 HD
ENDBRANCH  17  20
ENDBRANCH   1  12
BRANCH   6  22
ATOM     22  O   UNL     1      76.247  86.847  11.289  1.00  0.00    -0.507 OA
ATOM     23  H   UNL     1      75.516  86.999  10.612  1.00  0.00     0.293 HD
ENDBRANCH   6  22
BRANCH   8  24
ATOM     24  O   UNL     1      80.656  85.950  12.965  1.00  0.00    -0.508 OA
ATOM     25  H   UNL     1      80.365  86.163  13.913  1.00  0.00     0.293 HD
ENDBRANCH   8  24
TORSDOF 5
ENDMDL
MODEL 9
REMARK VINA RESULT:    -4.683      2.561      4.538
REMARK INTER + INTRA:          -5.799
REMARK INTER:                  -5.508
REMARK INTRA:                  -0.290
REMARK UNBOUND:                -0.294
REMARK SMILES O=c1cc(-c2ccc(O)c(O)c2)oc2cc(O)cc(O)c12
REMARK SMILES IDX 4 1 3 2 2 3 1 4 21 5 19 6 18 7 16 8 15 9 14 10 13 11 5 12
REMARK SMILES IDX 6 13 7 14 8 15 12 16 10 17 9 18 11 20 20 22 17 24
REMARK H PARENT 9 19 11 21 20 23 17 25
REMARK Flexibility Score: inf
ROOT
ATOM      1  C   UNL     1      73.308  92.114  12.081  1.00  0.00     0.138 A 
ATOM      2  C   UNL     1      73.392  93.275  12.860  1.00  0.00     0.100 A 
ATOM      3  C   UNL     1      72.254  94.057  13.062  1.00  0.00     0.197 A 
ATOM      4  O   UNL     1      72.375  95.121  13.720  1.00  0.00    -0.289 OA
ATOM      5  C   UNL     1      71.016  93.652  12.508  1.00  0.00     0.107 A 
ATOM      6  C   UNL     1      69.782  94.351  12.675  1.00  0.00     0.134 A 
ATOM      7  C   UNL     1      68.640  93.907  11.996  1.00  0.00     0.093 A 
ATOM      8  C   UNL     1      68.674  92.758  11.203  1.00  0.00     0.123 A 
ATOM      9  C   UNL     1      69.861  92.040  11.074  1.00  0.00     0.094 A 
ATOM     10  C   UNL     1      71.025  92.476  11.710  1.00  0.00     0.146 A 
ATOM     11  O   UNL     1      72.141  91.773  11.545  1.00  0.00    -0.456 OA
ENDROOT
BRANCH   1  12
ATOM     12  C   UNL     1      74.487  91.244  11.836  1.00  0.00     0.021 A 
ATOM     13  C   UNL     1      74.291  89.890  11.524  1.00  0.00     0.016 A 
ATOM     14  C   UNL     1      75.381  89.052  11.284  1.00  0.00     0.051 A 
ATOM     15  C   UNL     1      76.688  89.547  11.339  1.00  0.00     0.157 A 
ATOM     16  C   UNL     1      75.801  91.747  11.876  1.00  0.00     0.062 A 
ATOM     17  C   UNL     1      76.901  90.914  11.634  1.00  0.00     0.158 A 
BRANCH  15  18
ATOM     18  O   UNL     1      77.735  88.656  11.094  1.00  0.00    -0.504 OA
ATOM     19  H   UNL     1      78.701  88.842  11.324  1.00  0.00     0.293 HD
ENDBRANCH  15  18
BRANCH  17  20
ATOM     20  O   UNL     1      78.174  91.484  11.690  1.00  0.00    -0.504 OA
ATOM     21  H   UNL     1      79.031  90.963  11.579  1.00  0.00     0.293 HD
ENDBRANCH  17  20
ENDBRANCH   1  12
BRANCH   6  22
ATOM     22  O   UNL     1      69.617  95.463  13.507  1.00  0.00    -0.507 OA
ATOM     23  H   UNL     1      70.122  95.625  14.364  1.00  0.00     0.293 HD
ENDBRANCH   6  22
BRANCH   8  24
ATOM     24  O   UNL     1      67.529  92.314  10.544  1.00  0.00    -0.508 OA
ATOM     25  H   UNL     1      67.576  91.913   9.615  1.00  0.00     0.293 HD
ENDBRANCH   8  24
TORSDOF 5
ENDMDL
