MODEL 1
REMARK VINA RESULT:    -5.613      0.000      0.000
REMARK INTER + INTRA:         -12.272
REMARK INTER:                  -9.223
REMARK INTRA:                  -3.049
REMARK UNBOUND:                -3.049
REMARK SMILES C[C@@H]1O[C@@H](OC[C@@H]2O[C@H](Oc3c(-c4ccc(O)c(O)c4)oc4cc(O)cc(O)c4c3=O)[C@H](O)[C@H](O)[C@H]2O)[C@H](O)[C@@H](O)[C@H]1O
REMARK SMILES IDX 7 1 36 2 34 3 32 4 9 5 8 6 6 7 5 8 4 9 1 10 2 11 42 12 3 13
REMARK SMILES IDX 40 14 38 15 43 16 41 18 39 20 37 22 35 24 10 26 11 27 12 28
REMARK SMILES IDX 30 29 21 30 29 31 31 32 22 33 27 34 23 35 26 36 24 37 13 38
REMARK SMILES IDX 20 39 14 40 18 41 15 42 16 43 19 44 17 46 28 48 25 50 33 52
REMARK H PARENT 43 17 41 19 39 21 37 23 35 25 19 45 17 47 28 49 25 51 33 53
REMARK Flexibility Score: inf
ROOT
ATOM      1  C   UNL     1      -3.290  36.320  19.395  1.00  0.00     0.180 C 
ATOM      2  C   UNL     1      -1.910  35.644  19.677  1.00  0.00     0.177 C 
ATOM      3  C   UNL     1      -0.720  36.587  19.387  1.00  0.00     0.180 C 
ATOM      4  C   UNL     1      -1.009  38.031  19.855  1.00  0.00     0.214 C 
ATOM      5  C   UNL     1      -2.454  38.497  19.463  1.00  0.00     0.339 C 
ATOM      6  O   UNL     1      -3.136  37.530  18.670  1.00  0.00    -0.332 OA
ENDROOT
BRANCH   1   7
ATOM      7  C   UNL     1      -4.211  35.391  18.593  1.00  0.00     0.198 C 
BRANCH   7   8
ATOM      8  O   UNL     1      -3.522  34.854  17.473  1.00  0.00    -0.347 OA
BRANCH   8   9
ATOM      9  C   UNL     1      -4.105  35.218  16.233  1.00  0.00     0.281 C 
ATOM     10  C   UNL     1      -4.082  31.871  14.702  1.00  0.00     0.041 C 
ATOM     11  C   UNL     1      -3.491  33.147  15.305  1.00  0.00     0.150 C 
ATOM     12  C   UNL     1      -2.457  33.777  14.344  1.00  0.00     0.174 C 
ATOM     13  O   UNL     1      -4.560  34.049  15.558  1.00  0.00    -0.344 OA
ATOM     14  C   UNL     1      -1.937  35.113  14.918  1.00  0.00     0.179 C 
ATOM     15  C   UNL     1      -3.119  36.005  15.335  1.00  0.00     0.202 C 
BRANCH  12  16
ATOM     16  O   UNL     1      -1.389  32.889  14.142  1.00  0.00    -0.388 OA
ATOM     17  H   UNL     1      -1.014  32.687  15.037  1.00  0.00     0.211 HD
ENDBRANCH  12  16
BRANCH  14  18
ATOM     18  O   UNL     1      -1.112  34.877  16.037  1.00  0.00    -0.387 OA
ATOM     19  H   UNL     1      -0.489  34.144  15.792  1.00  0.00     0.211 HD
ENDBRANCH  14  18
BRANCH  15  20
ATOM     20  O   UNL     1      -3.780  36.458  14.182  1.00  0.00    -0.385 OA
ATOM     21  H   UNL     1      -3.100  36.520  13.465  1.00  0.00     0.211 HD
ENDBRANCH  15  20
ENDBRANCH   8   9
ENDBRANCH   7   8
ENDBRANCH   1   7
BRANCH   2  22
ATOM     22  O   UNL     1      -1.854  35.258  21.024  1.00  0.00    -0.387 OA
ATOM     23  H   UNL     1      -1.205  34.508  21.087  1.00  0.00     0.211 HD
ENDBRANCH   2  22
BRANCH   3  24
ATOM     24  O   UNL     1      -0.347  36.538  18.027  1.00  0.00    -0.387 OA
ATOM     25  H   UNL     1      -0.991  37.076  17.501  1.00  0.00     0.211 HD
ENDBRANCH   3  24
BRANCH   5  26
ATOM     26  O   UNL     1      -2.529  39.789  18.829  1.00  0.00    -0.454 OA
BRANCH  26  27
ATOM     27  C   UNL     1      -3.085  40.077  17.574  1.00  0.00     0.214 A 
ATOM     28  C   UNL     1      -4.274  40.815  17.421  1.00  0.00     0.180 A 
ATOM     29  C   UNL     1      -2.387  39.702  16.417  1.00  0.00     0.239 A 
ATOM     30  O   UNL     1      -4.786  41.009  16.210  1.00  0.00    -0.452 OA
ATOM     31  C   UNL     1      -2.952  39.928  15.147  1.00  0.00     0.111 A 
ATOM     32  O   UNL     1      -1.252  39.161  16.529  1.00  0.00    -0.285 OA
ATOM     33  C   UNL     1      -4.199  40.593  15.096  1.00  0.00     0.146 A 
ATOM     34  C   UNL     1      -2.344  39.517  13.934  1.00  0.00     0.134 A 
ATOM     35  C   UNL     1      -4.808  40.857  13.862  1.00  0.00     0.094 A 
ATOM     36  C   UNL     1      -2.975  39.773  12.708  1.00  0.00     0.093 A 
ATOM     37  C   UNL     1      -4.205  40.442  12.673  1.00  0.00     0.123 A 
BRANCH  28  38
ATOM     38  C   UNL     1      -4.905  41.525  18.540  1.00  0.00     0.025 A 
ATOM     39  C   UNL     1      -4.763  42.911  18.708  1.00  0.00     0.062 A 
ATOM     40  C   UNL     1      -5.470  40.759  19.570  1.00  0.00     0.016 A 
ATOM     41  C   UNL     1      -5.212  43.532  19.890  1.00  0.00     0.158 A 
ATOM     42  C   UNL     1      -5.917  41.367  20.748  1.00  0.00     0.051 A 
ATOM     43  C   UNL     1      -5.785  42.757  20.916  1.00  0.00     0.157 A 
BRANCH  41  44
ATOM     44  O   UNL     1      -5.068  44.908  20.065  1.00  0.00    -0.504 OA
ATOM     45  H   UNL     1      -5.877  45.514  20.178  1.00  0.00     0.293 HD
ENDBRANCH  41  44
BRANCH  43  46
ATOM     46  O   UNL     1      -6.202  43.369  22.099  1.00  0.00    -0.504 OA
ATOM     47  H   UNL     1      -6.612  44.295  22.111  1.00  0.00     0.293 HD
ENDBRANCH  43  46
ENDBRANCH  28  38
BRANCH  34  48
ATOM     48  O   UNL     1      -1.110  38.865  13.945  1.00  0.00    -0.507 OA
ATOM     49  H   UNL     1      -0.240  39.368  13.762  1.00  0.00     0.293 HD
ENDBRANCH  34  48
BRANCH  37  50
ATOM     50  O   UNL     1      -4.832  40.701  11.458  1.00  0.00    -0.508 OA
ATOM     51  H   UNL     1      -4.649  40.148  10.626  1.00  0.00     0.293 HD
ENDBRANCH  37  50
ENDBRANCH  26  27
ENDBRANCH   5  26
BRANCH   4  52
ATOM     52  O   UNL     1       0.001  38.867  19.329  1.00  0.00    -0.384 OA
ATOM     53  H   UNL     1       0.062  38.703  18.348  1.00  0.00     0.211 HD
ENDBRANCH   4  52
TORSDOF 16
ENDMDL
MODEL 2
REMARK VINA RESULT:    -5.519      3.189      5.017
REMARK INTER + INTRA:         -12.116
REMARK INTER:                  -9.134
REMARK INTRA:                  -2.983
REMARK UNBOUND:                -3.049
REMARK SMILES C[C@@H]1O[C@@H](OC[C@@H]2O[C@H](Oc3c(-c4ccc(O)c(O)c4)oc4cc(O)cc(O)c4c3=O)[C@H](O)[C@H](O)[C@H]2O)[C@H](O)[C@@H](O)[C@H]1O
REMARK SMILES IDX 7 1 36 2 34 3 32 4 9 5 8 6 6 7 5 8 4 9 1 10 2 11 42 12 3 13
REMARK SMILES IDX 40 14 38 15 43 16 41 18 39 20 37 22 35 24 10 26 11 27 12 28
REMARK SMILES IDX 30 29 21 30 29 31 31 32 22 33 27 34 23 35 26 36 24 37 13 38
REMARK SMILES IDX 20 39 14 40 18 41 15 42 16 43 19 44 17 46 28 48 25 50 33 52
REMARK H PARENT 43 17 41 19 39 21 37 23 35 25 19 45 17 47 28 49 25 51 33 53
REMARK Flexibility Score: inf
ROOT
ATOM      1  C   UNL     1      -5.278  34.524  15.768  1.00  0.00     0.180 C 
ATOM      2  C   UNL     1      -5.026  33.303  16.711  1.00  0.00     0.177 C 
ATOM      3  C   UNL     1      -4.171  33.677  17.943  1.00  0.00     0.180 C 
ATOM      4  C   UNL     1      -4.567  35.056  18.515  1.00  0.00     0.214 C 
ATOM      5  C   UNL     1      -4.768  36.125  17.386  1.00  0.00     0.339 C 
ATOM      6  O   UNL     1      -4.435  35.617  16.097  1.00  0.00    -0.332 OA
ENDROOT
BRANCH   1   7
ATOM      7  C   UNL     1      -5.033  34.152  14.299  1.00  0.00     0.198 C 
BRANCH   7   8
ATOM      8  O   UNL     1      -3.714  33.654  14.126  1.00  0.00    -0.347 OA
BRANCH   8   9
ATOM      9  C   UNL     1      -2.926  34.453  13.261  1.00  0.00     0.281 C 
ATOM     10  C   UNL     1      -1.488  31.713  11.268  1.00  0.00     0.041 C 
ATOM     11  C   UNL     1      -1.761  32.551  12.519  1.00  0.00     0.150 C 
ATOM     12  C   UNL     1      -0.435  32.986  13.184  1.00  0.00     0.174 C 
ATOM     13  O   UNL     1      -2.527  33.684  12.131  1.00  0.00    -0.344 OA
ATOM     14  C   UNL     1      -0.719  33.909  14.390  1.00  0.00     0.179 C 
ATOM     15  C   UNL     1      -1.683  35.035  13.978  1.00  0.00     0.202 C 
BRANCH  12  16
ATOM     16  O   UNL     1       0.285  31.856  13.601  1.00  0.00    -0.388 OA
ATOM     17  H   UNL     1      -0.383  31.181  13.885  1.00  0.00     0.211 HD
ENDBRANCH  12  16
BRANCH  14  18
ATOM     18  O   UNL     1      -1.287  33.171  15.448  1.00  0.00    -0.387 OA
ATOM     19  H   UNL     1      -2.210  33.512  15.579  1.00  0.00     0.211 HD
ENDBRANCH  14  18
BRANCH  15  20
ATOM     20  O   UNL     1      -1.011  35.924  13.124  1.00  0.00    -0.385 OA
ATOM     21  H   UNL     1      -0.217  35.445  12.776  1.00  0.00     0.211 HD
ENDBRANCH  15  20
ENDBRANCH   8   9
ENDBRANCH   7   8
ENDBRANCH   1   7
BRANCH   2  22
ATOM     22  O   UNL     1      -6.259  32.806  17.158  1.00  0.00    -0.387 OA
ATOM     23  H   UNL     1      -6.211  31.815  17.104  1.00  0.00     0.211 HD
ENDBRANCH   2  22
BRANCH   3  24
ATOM     24  O   UNL     1      -2.793  33.602  17.652  1.00  0.00    -0.387 OA
ATOM     25  H   UNL     1      -2.398  34.506  17.745  1.00  0.00     0.211 HD
ENDBRANCH   3  24
BRANCH   5  26
ATOM     26  O   UNL     1      -4.095  37.381  17.604  1.00  0.00    -0.454 OA
BRANCH  26  27
ATOM     27  C   UNL     1      -3.336  38.099  16.669  1.00  0.00     0.214 A 
ATOM     28  C   UNL     1      -1.933  38.193  16.740  1.00  0.00     0.180 A 
ATOM     29  C   UNL     1      -3.981  38.670  15.562  1.00  0.00     0.239 A 
ATOM     30  O   UNL     1      -1.270  38.935  15.860  1.00  0.00    -0.452 OA
ATOM     31  C   UNL     1      -3.250  39.445  14.641  1.00  0.00     0.111 A 
ATOM     32  O   UNL     1      -5.219  38.482  15.404  1.00  0.00    -0.285 OA
ATOM     33  C   UNL     1      -1.855  39.563  14.848  1.00  0.00     0.146 A 
ATOM     34  C   UNL     1      -3.837  40.113  13.537  1.00  0.00     0.134 A 
ATOM     35  C   UNL     1      -1.071  40.311  13.961  1.00  0.00     0.094 A 
ATOM     36  C   UNL     1      -3.041  40.872  12.669  1.00  0.00     0.093 A 
ATOM     37  C   UNL     1      -1.660  40.971  12.881  1.00  0.00     0.123 A 
BRANCH  28  38
ATOM     38  C   UNL     1      -1.139  37.373  17.662  1.00  0.00     0.025 A 
ATOM     39  C   UNL     1      -0.750  36.065  17.338  1.00  0.00     0.062 A 
ATOM     40  C   UNL     1      -0.964  37.841  18.974  1.00  0.00     0.016 A 
ATOM     41  C   UNL     1      -0.161  35.238  18.314  1.00  0.00     0.158 A 
ATOM     42  C   UNL     1      -0.381  37.025  19.950  1.00  0.00     0.051 A 
ATOM     43  C   UNL     1       0.018  35.717  19.626  1.00  0.00     0.157 A 
BRANCH  41  44
ATOM     44  O   UNL     1       0.222  33.934  17.999  1.00  0.00    -0.504 OA
ATOM     45  H   UNL     1       0.246  33.204  18.707  1.00  0.00     0.293 HD
ENDBRANCH  41  44
BRANCH  43  46
ATOM     46  O   UNL     1       0.574  34.886  20.600  1.00  0.00    -0.504 OA
ATOM     47  H   UNL     1       0.149  34.766  21.511  1.00  0.00     0.293 HD
ENDBRANCH  43  46
ENDBRANCH  28  38
BRANCH  34  48
ATOM     48  O   UNL     1      -5.208  40.012  13.297  1.00  0.00    -0.507 OA
ATOM     49  H   UNL     1      -5.728  40.770  12.851  1.00  0.00     0.293 HD
ENDBRANCH  34  48
BRANCH  37  50
ATOM     50  O   UNL     1      -0.865  41.721  12.018  1.00  0.00    -0.508 OA
ATOM     51  H   UNL     1      -0.340  42.531  12.334  1.00  0.00     0.293 HD
ENDBRANCH  37  50
ENDBRANCH  26  27
ENDBRANCH   5  26
BRANCH   4  52
ATOM     52  O   UNL     1      -3.584  35.431  19.460  1.00  0.00    -0.384 OA
ATOM     53  H   UNL     1      -3.248  36.337  19.217  1.00  0.00     0.211 HD
ENDBRANCH   4  52
TORSDOF 16
ENDMDL
MODEL 3
REMARK VINA RESULT:    -5.477      2.020      5.632
REMARK INTER + INTRA:         -12.048
REMARK INTER:                  -8.866
REMARK INTRA:                  -3.182
REMARK UNBOUND:                -3.049
REMARK SMILES C[C@@H]1O[C@@H](OC[C@@H]2O[C@H](Oc3c(-c4ccc(O)c(O)c4)oc4cc(O)cc(O)c4c3=O)[C@H](O)[C@H](O)[C@H]2O)[C@H](O)[C@@H](O)[C@H]1O
REMARK SMILES IDX 7 1 36 2 34 3 32 4 9 5 8 6 6 7 5 8 4 9 1 10 2 11 42 12 3 13
REMARK SMILES IDX 40 14 38 15 43 16 41 18 39 20 37 22 35 24 10 26 11 27 12 28
REMARK SMILES IDX 30 29 21 30 29 31 31 32 22 33 27 34 23 35 26 36 24 37 13 38
REMARK SMILES IDX 20 39 14 40 18 41 15 42 16 43 19 44 17 46 28 48 25 50 33 52
REMARK H PARENT 43 17 41 19 39 21 37 23 35 25 19 45 17 47 28 49 25 51 33 53
REMARK Flexibility Score: inf
ROOT
ATOM      1  C   UNL     1      -1.787  35.524  15.175  1.00  0.00     0.180 C 
ATOM      2  C   UNL     1      -1.918  35.380  13.624  1.00  0.00     0.177 C 
ATOM      3  C   UNL     1      -3.171  36.096  13.069  1.00  0.00     0.180 C 
ATOM      4  C   UNL     1      -3.407  37.455  13.766  1.00  0.00     0.214 C 
ATOM      5  C   UNL     1      -3.220  37.359  15.319  1.00  0.00     0.339 C 
ATOM      6  O   UNL     1      -2.983  36.023  15.753  1.00  0.00    -0.332 OA
ENDROOT
BRANCH   1   7
ATOM      7  C   UNL     1      -1.459  34.177  15.833  1.00  0.00     0.198 C 
BRANCH   7   8
ATOM      8  O   UNL     1      -2.611  33.346  15.864  1.00  0.00    -0.347 OA
BRANCH   8   9
ATOM      9  C   UNL     1      -3.025  33.016  17.179  1.00  0.00     0.281 C 
ATOM     10  C   UNL     1      -4.581  29.777  16.385  1.00  0.00     0.041 C 
ATOM     11  C   UNL     1      -4.393  31.295  16.348  1.00  0.00     0.150 C 
ATOM     12  C   UNL     1      -5.702  32.018  16.739  1.00  0.00     0.174 C 
ATOM     13  O   UNL     1      -3.344  31.631  17.246  1.00  0.00    -0.344 OA
ATOM     14  C   UNL     1      -5.476  33.545  16.789  1.00  0.00     0.179 C 
ATOM     15  C   UNL     1      -4.235  33.868  17.638  1.00  0.00     0.202 C 
BRANCH  12  16
ATOM     16  O   UNL     1      -6.713  31.710  15.815  1.00  0.00    -0.388 OA
ATOM     17  H   UNL     1      -6.350  31.004  15.220  1.00  0.00     0.211 HD
ENDBRANCH  12  16
BRANCH  14  18
ATOM     18  O   UNL     1      -5.299  34.058  15.488  1.00  0.00    -0.387 OA
ATOM     19  H   UNL     1      -4.431  33.712  15.153  1.00  0.00     0.211 HD
ENDBRANCH  14  18
BRANCH  15  20
ATOM     20  O   UNL     1      -4.521  33.602  18.988  1.00  0.00    -0.385 OA
ATOM     21  H   UNL     1      -3.818  34.048  19.524  1.00  0.00     0.211 HD
ENDBRANCH  15  20
ENDBRANCH   8   9
ENDBRANCH   7   8
ENDBRANCH   1   7
BRANCH   2  22
ATOM     22  O   UNL     1      -0.783  35.933  13.014  1.00  0.00    -0.387 OA
ATOM     23  H   UNL     1      -0.049  35.269  13.109  1.00  0.00     0.211 HD
ENDBRANCH   2  22
BRANCH   3  24
ATOM     24  O   UNL     1      -4.309  35.264  13.138  1.00  0.00    -0.387 OA
ATOM     25  H   UNL     1      -4.595  35.040  12.217  1.00  0.00     0.211 HD
ENDBRANCH   3  24
BRANCH   5  26
ATOM     26  O   UNL     1      -4.280  37.945  16.101  1.00  0.00    -0.454 OA
BRANCH  26  27
ATOM     27  C   UNL     1      -4.203  39.109  16.880  1.00  0.00     0.214 A 
ATOM     28  C   UNL     1      -3.481  39.168  18.088  1.00  0.00     0.180 A 
ATOM     29  C   UNL     1      -4.783  40.292  16.399  1.00  0.00     0.239 A 
ATOM     30  O   UNL     1      -3.489  40.280  18.814  1.00  0.00    -0.452 OA
ATOM     31  C   UNL     1      -4.769  41.457  17.189  1.00  0.00     0.111 A 
ATOM     32  O   UNL     1      -5.316  40.296  15.255  1.00  0.00    -0.285 OA
ATOM     33  C   UNL     1      -4.101  41.394  18.434  1.00  0.00     0.146 A 
ATOM     34  C   UNL     1      -5.393  42.671  16.807  1.00  0.00     0.134 A 
ATOM     35  C   UNL     1      -4.043  42.524  19.261  1.00  0.00     0.094 A 
ATOM     36  C   UNL     1      -5.341  43.787  17.653  1.00  0.00     0.093 A 
ATOM     37  C   UNL     1      -4.667  43.713  18.879  1.00  0.00     0.123 A 
BRANCH  28  38
ATOM     38  C   UNL     1      -2.578  38.093  18.514  1.00  0.00     0.025 A 
ATOM     39  C   UNL     1      -3.037  36.996  19.259  1.00  0.00     0.062 A 
ATOM     40  C   UNL     1      -1.198  38.292  18.358  1.00  0.00     0.016 A 
ATOM     41  C   UNL     1      -2.121  36.085  19.819  1.00  0.00     0.158 A 
ATOM     42  C   UNL     1      -0.281  37.393  18.913  1.00  0.00     0.051 A 
ATOM     43  C   UNL     1      -0.738  36.287  19.651  1.00  0.00     0.157 A 
BRANCH  41  44
ATOM     44  O   UNL     1      -2.572  34.996  20.565  1.00  0.00    -0.504 OA
ATOM     45  H   UNL     1      -3.475  35.013  21.033  1.00  0.00     0.293 HD
ENDBRANCH  41  44
BRANCH  43  46
ATOM     46  O   UNL     1       0.171  35.401  20.233  1.00  0.00    -0.504 OA
ATOM     47  H   UNL     1       0.870  35.707  20.898  1.00  0.00     0.293 HD
ENDBRANCH  43  46
ENDBRANCH  28  38
BRANCH  34  48
ATOM     48  O   UNL     1      -6.054  42.772  15.581  1.00  0.00    -0.507 OA
ATOM     49  H   UNL     1      -6.127  41.974  14.948  1.00  0.00     0.293 HD
ENDBRANCH  34  48
BRANCH  37  50
ATOM     50  O   UNL     1      -4.608  44.820  19.721  1.00  0.00    -0.508 OA
ATOM     51  H   UNL     1      -4.365  45.745  19.380  1.00  0.00     0.293 HD
ENDBRANCH  37  50
ENDBRANCH  26  27
ENDBRANCH   5  26
BRANCH   4  52
ATOM     52  O   UNL     1      -4.691  37.915  13.393  1.00  0.00    -0.384 OA
ATOM     53  H   UNL     1      -4.891  37.573  12.479  1.00  0.00     0.211 HD
ENDBRANCH   4  52
TORSDOF 16
ENDMDL
MODEL 4
REMARK VINA RESULT:    -5.353      1.958      7.774
REMARK INTER + INTRA:         -11.845
REMARK INTER:                  -9.322
REMARK INTRA:                  -2.523
REMARK UNBOUND:                -3.049
REMARK SMILES C[C@@H]1O[C@@H](OC[C@@H]2O[C@H](Oc3c(-c4ccc(O)c(O)c4)oc4cc(O)cc(O)c4c3=O)[C@H](O)[C@H](O)[C@H]2O)[C@H](O)[C@@H](O)[C@H]1O
REMARK SMILES IDX 7 1 36 2 34 3 32 4 9 5 8 6 6 7 5 8 4 9 1 10 2 11 42 12 3 13
REMARK SMILES IDX 40 14 38 15 43 16 41 18 39 20 37 22 35 24 10 26 11 27 12 28
REMARK SMILES IDX 30 29 21 30 29 31 31 32 22 33 27 34 23 35 26 36 24 37 13 38
REMARK SMILES IDX 20 39 14 40 18 41 15 42 16 43 19 44 17 46 28 48 25 50 33 52
REMARK H PARENT 43 17 41 19 39 21 37 23 35 25 19 45 17 47 28 49 25 51 33 53
REMARK Flexibility Score: inf
ROOT
ATOM      1  C   UNL     1      -5.023  38.698  16.572  1.00  0.00     0.180 C 
ATOM      2  C   UNL     1      -4.401  40.103  16.288  1.00  0.00     0.177 C 
ATOM      3  C   UNL     1      -2.976  40.009  15.697  1.00  0.00     0.180 C 
ATOM      4  C   UNL     1      -2.861  38.864  14.665  1.00  0.00     0.214 C 
ATOM      5  C   UNL     1      -3.559  37.552  15.164  1.00  0.00     0.339 C 
ATOM      6  O   UNL     1      -4.045  37.672  16.497  1.00  0.00    -0.332 OA
ENDROOT
BRANCH   1   7
ATOM      7  C   UNL     1      -5.671  38.647  17.962  1.00  0.00     0.198 C 
BRANCH   7   8
ATOM      8  O   UNL     1      -5.289  39.779  18.730  1.00  0.00    -0.347 OA
BRANCH   8   9
ATOM      9  C   UNL     1      -4.352  39.472  19.749  1.00  0.00     0.281 C 
ATOM     10  C   UNL     1      -6.438  40.452  22.619  1.00  0.00     0.041 C 
ATOM     11  C   UNL     1      -5.641  40.645  21.326  1.00  0.00     0.150 C 
ATOM     12  C   UNL     1      -4.587  41.763  21.497  1.00  0.00     0.174 C 
ATOM     13  O   UNL     1      -5.017  39.409  21.006  1.00  0.00    -0.344 OA
ATOM     14  C   UNL     1      -3.725  41.886  20.221  1.00  0.00     0.179 C 
ATOM     15  C   UNL     1      -3.197  40.502  19.805  1.00  0.00     0.202 C 
BRANCH  12  16
ATOM     16  O   UNL     1      -5.224  42.984  21.768  1.00  0.00    -0.388 OA
ATOM     17  H   UNL     1      -6.140  42.916  21.395  1.00  0.00     0.211 HD
ENDBRANCH  12  16
BRANCH  14  18
ATOM     18  O   UNL     1      -4.485  42.432  19.167  1.00  0.00    -0.387 OA
ATOM     19  H   UNL     1      -4.857  43.293  19.490  1.00  0.00     0.211 HD
ENDBRANCH  14  18
BRANCH  15  20
ATOM     20  O   UNL     1      -2.229  40.083  20.733  1.00  0.00    -0.385 OA
ATOM     21  H   UNL     1      -2.284  40.700  21.505  1.00  0.00     0.211 HD
ENDBRANCH  15  20
ENDBRANCH   8   9
ENDBRANCH   7   8
ENDBRANCH   1   7
BRANCH   2  22
ATOM     22  O   UNL     1      -5.216  40.792  15.378  1.00  0.00    -0.387 OA
ATOM     23  H   UNL     1      -6.072  40.289  15.314  1.00  0.00     0.211 HD
ENDBRANCH   2  22
BRANCH   3  24
ATOM     24  O   UNL     1      -2.005  39.900  16.715  1.00  0.00    -0.387 OA
ATOM     25  H   UNL     1      -2.388  40.249  17.559  1.00  0.00     0.211 HD
ENDBRANCH   3  24
BRANCH   5  26
ATOM     26  O   UNL     1      -2.768  36.353  15.040  1.00  0.00    -0.454 OA
BRANCH  26  27
ATOM     27  C   UNL     1      -3.042  35.104  15.615  1.00  0.00     0.214 A 
ATOM     28  C   UNL     1      -2.458  34.679  16.824  1.00  0.00     0.180 A 
ATOM     29  C   UNL     1      -4.008  34.277  15.022  1.00  0.00     0.239 A 
ATOM     30  O   UNL     1      -2.710  33.462  17.294  1.00  0.00    -0.452 OA
ATOM     31  C   UNL     1      -4.259  32.995  15.548  1.00  0.00     0.111 A 
ATOM     32  O   UNL     1      -4.645  34.695  14.016  1.00  0.00    -0.285 OA
ATOM     33  C   UNL     1      -3.552  32.617  16.713  1.00  0.00     0.146 A 
ATOM     34  C   UNL     1      -5.165  32.073  14.967  1.00  0.00     0.134 A 
ATOM     35  C   UNL     1      -3.765  31.358  17.290  1.00  0.00     0.094 A 
ATOM     36  C   UNL     1      -5.355  30.811  15.547  1.00  0.00     0.093 A 
ATOM     37  C   UNL     1      -4.655  30.454  16.707  1.00  0.00     0.123 A 
BRANCH  28  38
ATOM     38  C   UNL     1      -1.692  35.587  17.685  1.00  0.00     0.025 A 
ATOM     39  C   UNL     1      -2.083  35.857  19.006  1.00  0.00     0.062 A 
ATOM     40  C   UNL     1      -0.682  36.361  17.093  1.00  0.00     0.016 A 
ATOM     41  C   UNL     1      -1.446  36.876  19.740  1.00  0.00     0.158 A 
ATOM     42  C   UNL     1      -0.046  37.376  17.814  1.00  0.00     0.051 A 
ATOM     43  C   UNL     1      -0.428  37.642  19.140  1.00  0.00     0.157 A 
BRANCH  41  44
ATOM     44  O   UNL     1      -1.835  37.153  21.050  1.00  0.00    -0.504 OA
ATOM     45  H   UNL     1      -2.119  38.088  21.331  1.00  0.00     0.293 HD
ENDBRANCH  41  44
BRANCH  43  46
ATOM     46  O   UNL     1       0.182  38.672  19.859  1.00  0.00    -0.504 OA
ATOM     47  H   UNL     1      -0.044  39.647  19.699  1.00  0.00     0.293 HD
ENDBRANCH  43  46
ENDBRANCH  28  38
BRANCH  34  48
ATOM     48  O   UNL     1      -5.887  32.415  13.822  1.00  0.00    -0.507 OA
ATOM     49  H   UNL     1      -6.903  32.512  13.842  1.00  0.00     0.293 HD
ENDBRANCH  34  48
BRANCH  37  50
ATOM     50  O   UNL     1      -4.843  29.204  17.289  1.00  0.00    -0.508 OA
ATOM     51  H   UNL     1      -4.072  28.663  17.669  1.00  0.00     0.293 HD
ENDBRANCH  37  50
ENDBRANCH  26  27
ENDBRANCH   5  26
BRANCH   4  52
ATOM     52  O   UNL     1      -1.490  38.683  14.372  1.00  0.00    -0.384 OA
ATOM     53  H   UNL     1      -0.993  38.617  15.233  1.00  0.00     0.211 HD
ENDBRANCH   4  52
TORSDOF 16
ENDMDL
MODEL 5
REMARK VINA RESULT:    -5.297      3.272      9.243
REMARK INTER + INTRA:         -11.753
REMARK INTER:                  -9.876
REMARK INTRA:                  -1.877
REMARK UNBOUND:                -3.049
REMARK SMILES C[C@@H]1O[C@@H](OC[C@@H]2O[C@H](Oc3c(-c4ccc(O)c(O)c4)oc4cc(O)cc(O)c4c3=O)[C@H](O)[C@H](O)[C@H]2O)[C@H](O)[C@@H](O)[C@H]1O
REMARK SMILES IDX 7 1 36 2 34 3 32 4 9 5 8 6 6 7 5 8 4 9 1 10 2 11 42 12 3 13
REMARK SMILES IDX 40 14 38 15 43 16 41 18 39 20 37 22 35 24 10 26 11 27 12 28
REMARK SMILES IDX 30 29 21 30 29 31 31 32 22 33 27 34 23 35 26 36 24 37 13 38
REMARK SMILES IDX 20 39 14 40 18 41 15 42 16 43 19 44 17 46 28 48 25 50 33 52
REMARK H PARENT 43 17 41 19 39 21 37 23 35 25 19 45 17 47 28 49 25 51 33 53
REMARK Flexibility Score: inf
ROOT
ATOM      1  C   UNL     1      -2.270  36.382  15.101  1.00  0.00     0.180 C 
ATOM      2  C   UNL     1      -2.751  37.844  14.831  1.00  0.00     0.177 C 
ATOM      3  C   UNL     1      -2.543  38.271  13.360  1.00  0.00     0.180 C 
ATOM      4  C   UNL     1      -2.885  37.126  12.380  1.00  0.00     0.214 C 
ATOM      5  C   UNL     1      -2.301  35.751  12.856  1.00  0.00     0.339 C 
ATOM      6  O   UNL     1      -1.495  35.882  14.023  1.00  0.00    -0.332 OA
ENDROOT
BRANCH   1   7
ATOM      7  C   UNL     1      -1.425  36.302  16.380  1.00  0.00     0.198 C 
BRANCH   7   8
ATOM      8  O   UNL     1      -1.981  37.125  17.395  1.00  0.00    -0.347 OA
BRANCH   8   9
ATOM      9  C   UNL     1      -2.146  36.452  18.632  1.00  0.00     0.281 C 
ATOM     10  C   UNL     1      -4.051  39.088  20.355  1.00  0.00     0.041 C 
ATOM     11  C   UNL     1      -2.849  38.447  19.657  1.00  0.00     0.150 C 
ATOM     12  C   UNL     1      -1.586  38.549  20.542  1.00  0.00     0.174 C 
ATOM     13  O   UNL     1      -3.169  37.088  19.390  1.00  0.00    -0.344 OA
ATOM     14  C   UNL     1      -0.402  37.817  19.872  1.00  0.00     0.179 C 
ATOM     15  C   UNL     1      -0.829  36.401  19.446  1.00  0.00     0.202 C 
BRANCH  12  16
ATOM     16  O   UNL     1      -1.260  39.897  20.757  1.00  0.00    -0.388 OA
ATOM     17  H   UNL     1      -0.599  40.145  20.060  1.00  0.00     0.211 HD
ENDBRANCH  12  16
BRANCH  14  18
ATOM     18  O   UNL     1       0.039  38.532  18.740  1.00  0.00    -0.387 OA
ATOM     19  H   UNL     1       0.630  37.925  18.223  1.00  0.00     0.211 HD
ENDBRANCH  14  18
BRANCH  15  20
ATOM     20  O   UNL     1      -1.007  35.611  20.593  1.00  0.00    -0.385 OA
ATOM     21  H   UNL     1      -0.465  34.793  20.466  1.00  0.00     0.211 HD
ENDBRANCH  15  20
ENDBRANCH   8   9
ENDBRANCH   7   8
ENDBRANCH   1   7
BRANCH   2  22
ATOM     22  O   UNL     1      -4.116  37.943  15.135  1.00  0.00    -0.387 OA
ATOM     23  H   UNL     1      -4.185  38.229  16.084  1.00  0.00     0.211 HD
ENDBRANCH   2  22
BRANCH   3  24
ATOM     24  O   UNL     1      -1.241  38.771  13.151  1.00  0.00    -0.387 OA
ATOM     25  H   UNL     1      -1.240  39.324  12.329  1.00  0.00     0.211 HD
ENDBRANCH   3  24
BRANCH   5  26
ATOM     26  O   UNL     1      -1.585  35.009  11.849  1.00  0.00    -0.454 OA
BRANCH  26  27
ATOM     27  C   UNL     1      -0.754  33.898  12.058  1.00  0.00     0.214 A 
ATOM     28  C   UNL     1      -1.245  32.654  12.497  1.00  0.00     0.180 A 
ATOM     29  C   UNL     1       0.606  33.992  11.727  1.00  0.00     0.239 A 
ATOM     30  O   UNL     1      -0.405  31.652  12.733  1.00  0.00    -0.452 OA
ATOM     31  C   UNL     1       1.471  32.911  11.982  1.00  0.00     0.111 A 
ATOM     32  O   UNL     1       1.041  35.055  11.203  1.00  0.00    -0.285 OA
ATOM     33  C   UNL     1       0.902  31.731  12.516  1.00  0.00     0.146 A 
ATOM     34  C   UNL     1       2.867  32.951  11.744  1.00  0.00     0.134 A 
ATOM     35  C   UNL     1       1.708  30.616  12.782  1.00  0.00     0.094 A 
ATOM     36  C   UNL     1       3.663  31.833  12.031  1.00  0.00     0.093 A 
ATOM     37  C   UNL     1       3.084  30.668  12.549  1.00  0.00     0.123 A 
BRANCH  28  38
ATOM     38  C   UNL     1      -2.681  32.356  12.560  1.00  0.00     0.025 A 
ATOM     39  C   UNL     1      -3.366  32.283  13.782  1.00  0.00     0.062 A 
ATOM     40  C   UNL     1      -3.315  31.921  11.386  1.00  0.00     0.016 A 
ATOM     41  C   UNL     1      -4.690  31.806  13.826  1.00  0.00     0.158 A 
ATOM     42  C   UNL     1      -4.629  31.444  11.421  1.00  0.00     0.051 A 
ATOM     43  C   UNL     1      -5.322  31.379  12.642  1.00  0.00     0.157 A 
BRANCH  41  44
ATOM     44  O   UNL     1      -5.374  31.725  15.039  1.00  0.00    -0.504 OA
ATOM     45  H   UNL     1      -6.279  32.172  15.166  1.00  0.00     0.293 HD
ENDBRANCH  41  44
BRANCH  43  46
ATOM     46  O   UNL     1      -6.624  30.877  12.691  1.00  0.00    -0.504 OA
ATOM     47  H   UNL     1      -6.981  30.384  13.501  1.00  0.00     0.293 HD
ENDBRANCH  43  46
ENDBRANCH  28  38
BRANCH  34  48
ATOM     48  O   UNL     1       3.462  34.095  11.210  1.00  0.00    -0.507 OA
ATOM     49  H   UNL     1       3.679  34.168  10.215  1.00  0.00     0.293 HD
ENDBRANCH  34  48
BRANCH  37  50
ATOM     50  O   UNL     1       3.870  29.554  12.832  1.00  0.00    -0.508 OA
ATOM     51  H   UNL     1       3.761  29.020  13.689  1.00  0.00     0.293 HD
ENDBRANCH  37  50
ENDBRANCH  26  27
ENDBRANCH   5  26
BRANCH   4  52
ATOM     52  O   UNL     1      -2.429  37.504  11.097  1.00  0.00    -0.384 OA
ATOM     53  H   UNL     1      -1.756  36.834  10.796  1.00  0.00     0.211 HD
ENDBRANCH   4  52
TORSDOF 16
ENDMDL
MODEL 6
REMARK VINA RESULT:    -5.294      1.788      6.181
REMARK INTER + INTRA:         -11.748
REMARK INTER:                  -9.114
REMARK INTRA:                  -2.634
REMARK UNBOUND:                -3.049
REMARK SMILES C[C@@H]1O[C@@H](OC[C@@H]2O[C@H](Oc3c(-c4ccc(O)c(O)c4)oc4cc(O)cc(O)c4c3=O)[C@H](O)[C@H](O)[C@H]2O)[C@H](O)[C@@H](O)[C@H]1O
REMARK SMILES IDX 7 1 36 2 34 3 32 4 9 5 8 6 6 7 5 8 4 9 1 10 2 11 42 12 3 13
REMARK SMILES IDX 40 14 38 15 43 16 41 18 39 20 37 22 35 24 10 26 11 27 12 28
REMARK SMILES IDX 30 29 21 30 29 31 31 32 22 33 27 34 23 35 26 36 24 37 13 38
REMARK SMILES IDX 20 39 14 40 18 41 15 42 16 43 19 44 17 46 28 48 25 50 33 52
REMARK H PARENT 43 17 41 19 39 21 37 23 35 25 19 45 17 47 28 49 25 51 33 53
REMARK Flexibility Score: inf
ROOT
ATOM      1  C   UNL     1      -4.930  37.808  15.730  1.00  0.00     0.180 C 
ATOM      2  C   UNL     1      -5.613  38.557  14.541  1.00  0.00     0.177 C 
ATOM      3  C   UNL     1      -5.454  40.091  14.641  1.00  0.00     0.180 C 
ATOM      4  C   UNL     1      -4.041  40.488  15.126  1.00  0.00     0.214 C 
ATOM      5  C   UNL     1      -3.562  39.600  16.325  1.00  0.00     0.339 C 
ATOM      6  O   UNL     1      -4.574  38.703  16.772  1.00  0.00    -0.332 OA
ENDROOT
BRANCH   1   7
ATOM      7  C   UNL     1      -5.856  36.732  16.314  1.00  0.00     0.198 C 
BRANCH   7   8
ATOM      8  O   UNL     1      -5.156  35.505  16.468  1.00  0.00    -0.347 OA
BRANCH   8   9
ATOM      9  C   UNL     1      -3.878  35.512  15.854  1.00  0.00     0.281 C 
ATOM     10  C   UNL     1      -4.022  32.122  14.427  1.00  0.00     0.041 C 
ATOM     11  C   UNL     1      -3.992  33.187  15.526  1.00  0.00     0.150 C 
ATOM     12  C   UNL     1      -2.863  32.893  16.541  1.00  0.00     0.174 C 
ATOM     13  O   UNL     1      -3.797  34.452  14.908  1.00  0.00    -0.344 OA
ATOM     14  C   UNL     1      -2.780  34.022  17.591  1.00  0.00     0.179 C 
ATOM     15  C   UNL     1      -2.734  35.392  16.892  1.00  0.00     0.202 C 
BRANCH  12  16
ATOM     16  O   UNL     1      -3.097  31.662  17.173  1.00  0.00    -0.388 OA
ATOM     17  H   UNL     1      -3.220  31.856  18.138  1.00  0.00     0.211 HD
ENDBRANCH  12  16
BRANCH  14  18
ATOM     18  O   UNL     1      -3.895  33.974  18.452  1.00  0.00    -0.387 OA
ATOM     19  H   UNL     1      -3.654  33.379  19.209  1.00  0.00     0.211 HD
ENDBRANCH  14  18
BRANCH  15  20
ATOM     20  O   UNL     1      -1.492  35.539  16.253  1.00  0.00    -0.385 OA
ATOM     21  H   UNL     1      -1.562  35.081  15.378  1.00  0.00     0.211 HD
ENDBRANCH  15  20
ENDBRANCH   8   9
ENDBRANCH   7   8
ENDBRANCH   1   7
BRANCH   2  22
ATOM     22  O   UNL     1      -5.039  38.127  13.336  1.00  0.00    -0.387 OA
ATOM     23  H   UNL     1      -5.757  38.138  12.649  1.00  0.00     0.211 HD
ENDBRANCH   2  22
BRANCH   3  24
ATOM     24  O   UNL     1      -6.465  40.660  15.443  1.00  0.00    -0.387 OA
ATOM     25  H   UNL     1      -7.347  40.395  15.079  1.00  0.00     0.211 HD
ENDBRANCH   3  24
BRANCH   5  26
ATOM     26  O   UNL     1      -3.024  40.327  17.448  1.00  0.00    -0.454 OA
BRANCH  26  27
ATOM     27  C   UNL     1      -3.637  40.516  18.696  1.00  0.00     0.214 A 
ATOM     28  C   UNL     1      -3.549  39.573  19.737  1.00  0.00     0.180 A 
ATOM     29  C   UNL     1      -4.284  41.732  18.960  1.00  0.00     0.239 A 
ATOM     30  O   UNL     1      -4.197  39.778  20.879  1.00  0.00    -0.452 OA
ATOM     31  C   UNL     1      -4.956  41.923  20.182  1.00  0.00     0.111 A 
ATOM     32  O   UNL     1      -4.258  42.647  18.091  1.00  0.00    -0.285 OA
ATOM     33  C   UNL     1      -4.893  40.878  21.133  1.00  0.00     0.146 A 
ATOM     34  C   UNL     1      -5.693  43.093  20.498  1.00  0.00     0.134 A 
ATOM     35  C   UNL     1      -5.532  41.012  22.373  1.00  0.00     0.094 A 
ATOM     36  C   UNL     1      -6.341  43.204  21.736  1.00  0.00     0.093 A 
ATOM     37  C   UNL     1      -6.261  42.165  22.672  1.00  0.00     0.123 A 
BRANCH  28  38
ATOM     38  C   UNL     1      -2.635  38.426  19.679  1.00  0.00     0.025 A 
ATOM     39  C   UNL     1      -2.959  37.193  20.266  1.00  0.00     0.062 A 
ATOM     40  C   UNL     1      -1.327  38.649  19.221  1.00  0.00     0.016 A 
ATOM     41  C   UNL     1      -1.989  36.178  20.366  1.00  0.00     0.158 A 
ATOM     42  C   UNL     1      -0.357  37.646  19.318  1.00  0.00     0.051 A 
ATOM     43  C   UNL     1      -0.682  36.407  19.896  1.00  0.00     0.157 A 
BRANCH  41  44
ATOM     44  O   UNL     1      -2.305  34.953  20.953  1.00  0.00    -0.504 OA
ATOM     45  H   UNL     1      -2.384  34.855  21.962  1.00  0.00     0.293 HD
ENDBRANCH  41  44
BRANCH  43  46
ATOM     46  O   UNL     1       0.288  35.410  20.023  1.00  0.00    -0.504 OA
ATOM     47  H   UNL     1       0.232  34.537  19.513  1.00  0.00     0.293 HD
ENDBRANCH  43  46
ENDBRANCH  28  38
BRANCH  34  48
ATOM     48  O   UNL     1      -5.770  44.148  19.588  1.00  0.00    -0.507 OA
ATOM     49  H   UNL     1      -6.475  44.164  18.848  1.00  0.00     0.293 HD
ENDBRANCH  34  48
BRANCH  37  50
ATOM     50  O   UNL     1      -6.899  42.273  23.903  1.00  0.00    -0.508 OA
ATOM     51  H   UNL     1      -6.383  42.380  24.772  1.00  0.00     0.293 HD
ENDBRANCH  37  50
ENDBRANCH  26  27
ENDBRANCH   5  26
BRANCH   4  52
ATOM     52  O   UNL     1      -4.061  41.867  15.434  1.00  0.00    -0.384 OA
ATOM     53  H   UNL     1      -3.325  42.053  16.079  1.00  0.00     0.211 HD
ENDBRANCH   4  52
TORSDOF 16
ENDMDL
MODEL 7
REMARK VINA RESULT:    -5.239      2.063      7.148
REMARK INTER + INTRA:         -11.656
REMARK INTER:                  -9.002
REMARK INTRA:                  -2.654
REMARK UNBOUND:                -3.049
REMARK SMILES C[C@@H]1O[C@@H](OC[C@@H]2O[C@H](Oc3c(-c4ccc(O)c(O)c4)oc4cc(O)cc(O)c4c3=O)[C@H](O)[C@H](O)[C@H]2O)[C@H](O)[C@@H](O)[C@H]1O
REMARK SMILES IDX 7 1 36 2 34 3 32 4 9 5 8 6 6 7 5 8 4 9 1 10 2 11 42 12 3 13
REMARK SMILES IDX 40 14 38 15 43 16 41 18 39 20 37 22 35 24 10 26 11 27 12 28
REMARK SMILES IDX 30 29 21 30 29 31 31 32 22 33 27 34 23 35 26 36 24 37 13 38
REMARK SMILES IDX 20 39 14 40 18 41 15 42 16 43 19 44 17 46 28 48 25 50 33 52
REMARK H PARENT 43 17 41 19 39 21 37 23 35 25 19 45 17 47 28 49 25 51 33 53
REMARK Flexibility Score: inf
ROOT
ATOM      1  C   UNL     1      -2.063  38.368  19.408  1.00  0.00     0.180 C 
ATOM      2  C   UNL     1      -0.534  38.051  19.340  1.00  0.00     0.177 C 
ATOM      3  C   UNL     1      -0.253  36.553  19.077  1.00  0.00     0.180 C 
ATOM      4  C   UNL     1      -1.235  35.963  18.040  1.00  0.00     0.214 C 
ATOM      5  C   UNL     1      -2.712  36.418  18.305  1.00  0.00     0.339 C 
ATOM      6  O   UNL     1      -2.836  37.181  19.501  1.00  0.00    -0.332 OA
ENDROOT
BRANCH   1   7
ATOM      7  C   UNL     1      -2.394  39.255  20.615  1.00  0.00     0.198 C 
BRANCH   7   8
ATOM      8  O   UNL     1      -3.004  40.466  20.189  1.00  0.00    -0.347 OA
BRANCH   8   9
ATOM      9  C   UNL     1      -4.345  40.294  19.762  1.00  0.00     0.281 C 
ATOM     10  C   UNL     1      -4.734  43.558  18.108  1.00  0.00     0.041 C 
ATOM     11  C   UNL     1      -4.511  42.585  19.268  1.00  0.00     0.150 C 
ATOM     12  C   UNL     1      -5.519  42.855  20.408  1.00  0.00     0.174 C 
ATOM     13  O   UNL     1      -4.657  41.263  18.767  1.00  0.00    -0.344 OA
ATOM     14  C   UNL     1      -5.348  41.810  21.532  1.00  0.00     0.179 C 
ATOM     15  C   UNL     1      -5.347  40.391  20.938  1.00  0.00     0.202 C 
BRANCH  12  16
ATOM     16  O   UNL     1      -5.330  44.149  20.919  1.00  0.00    -0.388 OA
ATOM     17  H   UNL     1      -5.008  44.042  21.851  1.00  0.00     0.211 HD
ENDBRANCH  12  16
BRANCH  14  18
ATOM     18  O   UNL     1      -4.140  42.028  22.224  1.00  0.00    -0.387 OA
ATOM     19  H   UNL     1      -3.774  41.136  22.462  1.00  0.00     0.211 HD
ENDBRANCH  14  18
BRANCH  15  20
ATOM     20  O   UNL     1      -6.642  40.080  20.490  1.00  0.00    -0.385 OA
ATOM     21  H   UNL     1      -7.257  40.248  21.247  1.00  0.00     0.211 HD
ENDBRANCH  15  20
ENDBRANCH   8   9
ENDBRANCH   7   8
ENDBRANCH   1   7
BRANCH   2  22
ATOM     22  O   UNL     1       0.046  38.801  18.308  1.00  0.00    -0.387 OA
ATOM     23  H   UNL     1       0.999  38.947  18.552  1.00  0.00     0.211 HD
ENDBRANCH   2  22
BRANCH   3  24
ATOM     24  O   UNL     1      -0.247  35.814  20.278  1.00  0.00    -0.387 OA
ATOM     25  H   UNL     1      -0.050  36.428  21.029  1.00  0.00     0.211 HD
ENDBRANCH   3  24
BRANCH   5  26
ATOM     26  O   UNL     1      -3.690  35.358  18.300  1.00  0.00    -0.454 OA
BRANCH  26  27
ATOM     27  C   UNL     1      -4.280  34.767  17.173  1.00  0.00     0.214 A 
ATOM     28  C   UNL     1      -5.038  35.500  16.240  1.00  0.00     0.180 A 
ATOM     29  C   UNL     1      -4.031  33.413  16.904  1.00  0.00     0.239 A 
ATOM     30  O   UNL     1      -5.623  34.878  15.221  1.00  0.00    -0.452 OA
ATOM     31  C   UNL     1      -4.659  32.784  15.812  1.00  0.00     0.111 A 
ATOM     32  O   UNL     1      -3.243  32.770  17.651  1.00  0.00    -0.285 OA
ATOM     33  C   UNL     1      -5.482  33.581  14.983  1.00  0.00     0.146 A 
ATOM     34  C   UNL     1      -4.517  31.405  15.514  1.00  0.00     0.134 A 
ATOM     35  C   UNL     1      -6.126  33.015  13.875  1.00  0.00     0.094 A 
ATOM     36  C   UNL     1      -5.181  30.851  14.411  1.00  0.00     0.093 A 
ATOM     37  C   UNL     1      -5.985  31.655  13.593  1.00  0.00     0.123 A 
BRANCH  28  38
ATOM     38  C   UNL     1      -5.089  36.967  16.251  1.00  0.00     0.025 A 
ATOM     39  C   UNL     1      -6.032  37.667  17.018  1.00  0.00     0.062 A 
ATOM     40  C   UNL     1      -4.320  37.659  15.302  1.00  0.00     0.016 A 
ATOM     41  C   UNL     1      -6.185  39.058  16.859  1.00  0.00     0.158 A 
ATOM     42  C   UNL     1      -4.467  39.040  15.136  1.00  0.00     0.051 A 
ATOM     43  C   UNL     1      -5.404  39.746  15.910  1.00  0.00     0.157 A 
BRANCH  41  44
ATOM     44  O   UNL     1      -7.125  39.757  17.614  1.00  0.00    -0.504 OA
ATOM     45  H   UNL     1      -6.950  40.710  17.926  1.00  0.00     0.293 HD
ENDBRANCH  41  44
BRANCH  43  46
ATOM     46  O   UNL     1      -5.578  41.119  15.731  1.00  0.00    -0.504 OA
ATOM     47  H   UNL     1      -4.928  41.797  16.111  1.00  0.00     0.293 HD
ENDBRANCH  43  46
ENDBRANCH  28  38
BRANCH  34  48
ATOM     48  O   UNL     1      -3.706  30.589  16.305  1.00  0.00    -0.507 OA
ATOM     49  H   UNL     1      -4.011  29.661  16.601  1.00  0.00     0.293 HD
ENDBRANCH  34  48
BRANCH  37  50
ATOM     50  O   UNL     1      -6.643  31.109  12.495  1.00  0.00    -0.508 OA
ATOM     51  H   UNL     1      -6.215  31.067  11.575  1.00  0.00     0.293 HD
ENDBRANCH  37  50
ENDBRANCH  26  27
ENDBRANCH   5  26
BRANCH   4  52
ATOM     52  O   UNL     1      -1.081  34.558  18.050  1.00  0.00    -0.384 OA
ATOM     53  H   UNL     1      -1.943  34.148  17.765  1.00  0.00     0.211 HD
ENDBRANCH   4  52
TORSDOF 16
ENDMDL
MODEL 8
REMARK VINA RESULT:    -5.205      1.668      6.233
REMARK INTER + INTRA:         -11.602
REMARK INTER:                  -8.537
REMARK INTRA:                  -3.064
REMARK UNBOUND:                -3.049
REMARK SMILES C[C@@H]1O[C@@H](OC[C@@H]2O[C@H](Oc3c(-c4ccc(O)c(O)c4)oc4cc(O)cc(O)c4c3=O)[C@H](O)[C@H](O)[C@H]2O)[C@H](O)[C@@H](O)[C@H]1O
REMARK SMILES IDX 7 1 36 2 34 3 32 4 9 5 8 6 6 7 5 8 4 9 1 10 2 11 42 12 3 13
REMARK SMILES IDX 40 14 38 15 43 16 41 18 39 20 37 22 35 24 10 26 11 27 12 28
REMARK SMILES IDX 30 29 21 30 29 31 31 32 22 33 27 34 23 35 26 36 24 37 13 38
REMARK SMILES IDX 20 39 14 40 18 41 15 42 16 43 19 44 17 46 28 48 25 50 33 52
REMARK H PARENT 43 17 41 19 39 21 37 23 35 25 19 45 17 47 28 49 25 51 33 53
REMARK Flexibility Score: inf
ROOT
ATOM      1  C   UNL     1      -1.908  38.142  15.764  1.00  0.00     0.180 C 
ATOM      2  C   UNL     1      -1.873  38.919  14.408  1.00  0.00     0.177 C 
ATOM      3  C   UNL     1      -3.137  39.780  14.188  1.00  0.00     0.180 C 
ATOM      4  C   UNL     1      -3.587  40.476  15.493  1.00  0.00     0.214 C 
ATOM      5  C   UNL     1      -3.541  39.505  16.722  1.00  0.00     0.339 C 
ATOM      6  O   UNL     1      -3.202  38.173  16.346  1.00  0.00    -0.332 OA
ENDROOT
BRANCH   1   7
ATOM      7  C   UNL     1      -1.499  36.675  15.576  1.00  0.00     0.198 C 
BRANCH   7   8
ATOM      8  O   UNL     1      -2.454  35.812  16.177  1.00  0.00    -0.347 OA
BRANCH   8   9
ATOM      9  C   UNL     1      -3.208  35.072  15.232  1.00  0.00     0.281 C 
ATOM     10  C   UNL     1      -6.347  34.920  17.150  1.00  0.00     0.041 C 
ATOM     11  C   UNL     1      -4.870  34.658  16.842  1.00  0.00     0.150 C 
ATOM     12  C   UNL     1      -4.559  33.145  16.913  1.00  0.00     0.174 C 
ATOM     13  O   UNL     1      -4.594  35.169  15.545  1.00  0.00    -0.344 OA
ATOM     14  C   UNL     1      -3.091  32.882  16.510  1.00  0.00     0.179 C 
ATOM     15  C   UNL     1      -2.775  33.586  15.179  1.00  0.00     0.202 C 
BRANCH  12  16
ATOM     16  O   UNL     1      -4.795  32.669  18.212  1.00  0.00    -0.388 OA
ATOM     17  H   UNL     1      -5.106  33.443  18.748  1.00  0.00     0.211 HD
ENDBRANCH  12  16
BRANCH  14  18
ATOM     18  O   UNL     1      -2.216  33.354  17.508  1.00  0.00    -0.387 OA
ATOM     19  H   UNL     1      -2.742  33.430  18.347  1.00  0.00     0.211 HD
ENDBRANCH  14  18
BRANCH  15  20
ATOM     20  O   UNL     1      -3.452  32.927  14.140  1.00  0.00    -0.385 OA
ATOM     21  H   UNL     1      -4.100  33.574  13.763  1.00  0.00     0.211 HD
ENDBRANCH  15  20
ENDBRANCH   8   9
ENDBRANCH   7   8
ENDBRANCH   1   7
BRANCH   2  22
ATOM     22  O   UNL     1      -0.751  39.761  14.390  1.00  0.00    -0.387 OA
ATOM     23  H   UNL     1      -0.004  39.243  13.987  1.00  0.00     0.211 HD
ENDBRANCH   2  22
BRANCH   3  24
ATOM     24  O   UNL     1      -4.178  39.024  13.608  1.00  0.00    -0.387 OA
ATOM     25  H   UNL     1      -4.703  38.598  14.331  1.00  0.00     0.211 HD
ENDBRANCH   3  24
BRANCH   5  26
ATOM     26  O   UNL     1      -4.729  39.493  17.538  1.00  0.00    -0.454 OA
BRANCH  26  27
ATOM     27  C   UNL     1      -4.870  40.040  18.822  1.00  0.00     0.214 A 
ATOM     28  C   UNL     1      -4.253  39.482  19.958  1.00  0.00     0.180 A 
ATOM     29  C   UNL     1      -5.572  41.245  18.977  1.00  0.00     0.239 A 
ATOM     30  O   UNL     1      -4.467  40.008  21.159  1.00  0.00    -0.452 OA
ATOM     31  C   UNL     1      -5.777  41.782  20.262  1.00  0.00     0.111 A 
ATOM     32  O   UNL     1      -6.017  41.836  17.955  1.00  0.00    -0.285 OA
ATOM     33  C   UNL     1      -5.198  41.097  21.357  1.00  0.00     0.146 A 
ATOM     34  C   UNL     1      -6.534  42.954  20.511  1.00  0.00     0.134 A 
ATOM     35  C   UNL     1      -5.356  41.587  22.660  1.00  0.00     0.094 A 
ATOM     36  C   UNL     1      -6.697  43.422  21.822  1.00  0.00     0.093 A 
ATOM     37  C   UNL     1      -6.110  42.740  22.895  1.00  0.00     0.123 A 
BRANCH  28  38
ATOM     38  C   UNL     1      -3.243  38.421  19.859  1.00  0.00     0.025 A 
ATOM     39  C   UNL     1      -3.601  37.071  19.729  1.00  0.00     0.062 A 
ATOM     40  C   UNL     1      -1.906  38.759  20.123  1.00  0.00     0.016 A 
ATOM     41  C   UNL     1      -2.622  36.064  19.834  1.00  0.00     0.158 A 
ATOM     42  C   UNL     1      -0.928  37.765  20.230  1.00  0.00     0.051 A 
ATOM     43  C   UNL     1      -1.282  36.412  20.091  1.00  0.00     0.157 A 
BRANCH  41  44
ATOM     44  O   UNL     1      -2.973  34.720  19.712  1.00  0.00    -0.504 OA
ATOM     45  H   UNL     1      -3.734  34.321  20.257  1.00  0.00     0.293 HD
ENDBRANCH  41  44
BRANCH  43  46
ATOM     46  O   UNL     1      -0.317  35.411  20.225  1.00  0.00    -0.504 OA
ATOM     47  H   UNL     1       0.323  35.178  19.476  1.00  0.00     0.293 HD
ENDBRANCH  43  46
ENDBRANCH  28  38
BRANCH  34  48
ATOM     48  O   UNL     1      -7.112  43.661  19.455  1.00  0.00    -0.507 OA
ATOM     49  H   UNL     1      -7.717  44.467  19.621  1.00  0.00     0.293 HD
ENDBRANCH  34  48
BRANCH  37  50
ATOM     50  O   UNL     1      -6.266  43.203  24.197  1.00  0.00    -0.508 OA
ATOM     51  H   UNL     1      -5.832  44.063  24.521  1.00  0.00     0.293 HD
ENDBRANCH  37  50
ENDBRANCH  26  27
ENDBRANCH   5  26
BRANCH   4  52
ATOM     52  O   UNL     1      -4.871  41.023  15.270  1.00  0.00    -0.384 OA
ATOM     53  H   UNL     1      -5.110  40.878  14.314  1.00  0.00     0.211 HD
ENDBRANCH   4  52
TORSDOF 16
ENDMDL
MODEL 9
REMARK VINA RESULT:    -5.194      1.428      5.069
REMARK INTER + INTRA:         -11.582
REMARK INTER:                  -8.394
REMARK INTRA:                  -3.188
REMARK UNBOUND:                -3.049
REMARK SMILES C[C@@H]1O[C@@H](OC[C@@H]2O[C@H](Oc3c(-c4ccc(O)c(O)c4)oc4cc(O)cc(O)c4c3=O)[C@H](O)[C@H](O)[C@H]2O)[C@H](O)[C@@H](O)[C@H]1O
REMARK SMILES IDX 7 1 36 2 34 3 32 4 9 5 8 6 6 7 5 8 4 9 1 10 2 11 42 12 3 13
REMARK SMILES IDX 40 14 38 15 43 16 41 18 39 20 37 22 35 24 10 26 11 27 12 28
REMARK SMILES IDX 30 29 21 30 29 31 31 32 22 33 27 34 23 35 26 36 24 37 13 38
REMARK SMILES IDX 20 39 14 40 18 41 15 42 16 43 19 44 17 46 28 48 25 50 33 52
REMARK H PARENT 43 17 41 19 39 21 37 23 35 25 19 45 17 47 28 49 25 51 33 53
REMARK Flexibility Score: inf
ROOT
ATOM      1  C   UNL     1      -3.324  36.122  19.179  1.00  0.00     0.180 C 
ATOM      2  C   UNL     1      -1.952  35.505  19.599  1.00  0.00     0.177 C 
ATOM      3  C   UNL     1      -0.750  36.318  19.065  1.00  0.00     0.180 C 
ATOM      4  C   UNL     1      -1.003  37.840  19.164  1.00  0.00     0.214 C 
ATOM      5  C   UNL     1      -2.446  38.227  18.690  1.00  0.00     0.339 C 
ATOM      6  O   UNL     1      -3.163  37.110  18.173  1.00  0.00    -0.332 OA
ENDROOT
BRANCH   1   7
ATOM      7  C   UNL     1      -4.280  35.045  18.648  1.00  0.00     0.198 C 
BRANCH   7   8
ATOM      8  O   UNL     1      -4.197  34.962  17.232  1.00  0.00    -0.347 OA
BRANCH   8   9
ATOM      9  C   UNL     1      -3.387  33.889  16.783  1.00  0.00     0.281 C 
ATOM     10  C   UNL     1      -1.506  35.754  14.227  1.00  0.00     0.041 C 
ATOM     11  C   UNL     1      -2.734  35.133  14.899  1.00  0.00     0.150 C 
ATOM     12  C   UNL     1      -3.489  34.213  13.912  1.00  0.00     0.174 C 
ATOM     13  O   UNL     1      -2.290  34.399  16.033  1.00  0.00    -0.344 OA
ATOM     14  C   UNL     1      -4.670  33.519  14.625  1.00  0.00     0.179 C 
ATOM     15  C   UNL     1      -4.189  32.871  15.935  1.00  0.00     0.202 C 
BRANCH  12  16
ATOM     16  O   UNL     1      -3.958  34.964  12.822  1.00  0.00    -0.388 OA
ATOM     17  H   UNL     1      -4.882  35.244  13.046  1.00  0.00     0.211 HD
ENDBRANCH  12  16
BRANCH  14  18
ATOM     18  O   UNL     1      -5.687  34.451  14.911  1.00  0.00    -0.387 OA
ATOM     19  H   UNL     1      -5.743  34.530  15.899  1.00  0.00     0.211 HD
ENDBRANCH  14  18
BRANCH  15  20
ATOM     20  O   UNL     1      -3.382  31.763  15.629  1.00  0.00    -0.385 OA
ATOM     21  H   UNL     1      -3.320  31.715  14.642  1.00  0.00     0.211 HD
ENDBRANCH  15  20
ENDBRANCH   8   9
ENDBRANCH   7   8
ENDBRANCH   1   7
BRANCH   2  22
ATOM     22  O   UNL     1      -1.875  35.465  20.999  1.00  0.00    -0.387 OA
ATOM     23  H   UNL     1      -1.583  36.365  21.302  1.00  0.00     0.211 HD
ENDBRANCH   2  22
BRANCH   3  24
ATOM     24  O   UNL     1      -0.407  35.924  17.755  1.00  0.00    -0.387 OA
ATOM     25  H   UNL     1      -1.212  35.990  17.181  1.00  0.00     0.211 HD
ENDBRANCH   3  24
BRANCH   5  26
ATOM     26  O   UNL     1      -2.510  39.323  17.756  1.00  0.00    -0.454 OA
BRANCH  26  27
ATOM     27  C   UNL     1      -3.401  40.405  17.792  1.00  0.00     0.214 A 
ATOM     28  C   UNL     1      -4.077  40.872  16.648  1.00  0.00     0.180 A 
ATOM     29  C   UNL     1      -3.712  40.992  19.028  1.00  0.00     0.239 A 
ATOM     30  O   UNL     1      -4.866  41.938  16.729  1.00  0.00    -0.452 OA
ATOM     31  C   UNL     1      -4.557  42.117  19.083  1.00  0.00     0.111 A 
ATOM     32  O   UNL     1      -3.223  40.503  20.084  1.00  0.00    -0.285 OA
ATOM     33  C   UNL     1      -5.116  42.574  17.866  1.00  0.00     0.146 A 
ATOM     34  C   UNL     1      -4.864  42.810  20.281  1.00  0.00     0.134 A 
ATOM     35  C   UNL     1      -5.974  43.682  17.856  1.00  0.00     0.094 A 
ATOM     36  C   UNL     1      -5.710  43.927  20.251  1.00  0.00     0.093 A 
ATOM     37  C   UNL     1      -6.264  44.362  19.041  1.00  0.00     0.123 A 
BRANCH  28  38
ATOM     38  C   UNL     1      -4.074  40.132  15.380  1.00  0.00     0.025 A 
ATOM     39  C   UNL     1      -4.912  39.028  15.168  1.00  0.00     0.062 A 
ATOM     40  C   UNL     1      -3.052  40.411  14.459  1.00  0.00     0.016 A 
ATOM     41  C   UNL     1      -4.749  38.223  14.024  1.00  0.00     0.158 A 
ATOM     42  C   UNL     1      -2.882  39.615  13.322  1.00  0.00     0.051 A 
ATOM     43  C   UNL     1      -3.727  38.514  13.101  1.00  0.00     0.157 A 
BRANCH  41  44
ATOM     44  O   UNL     1      -5.576  37.120  13.811  1.00  0.00    -0.504 OA
ATOM     45  H   UNL     1      -5.192  36.186  13.690  1.00  0.00     0.293 HD
ENDBRANCH  41  44
BRANCH  43  46
ATOM     46  O   UNL     1      -3.547  37.697  11.983  1.00  0.00    -0.504 OA
ATOM     47  H   UNL     1      -3.541  36.687  12.050  1.00  0.00     0.293 HD
ENDBRANCH  43  46
ENDBRANCH  28  38
BRANCH  34  48
ATOM     48  O   UNL     1      -4.337  42.382  21.501  1.00  0.00    -0.507 OA
ATOM     49  H   UNL     1      -4.197  43.030  22.277  1.00  0.00     0.293 HD
ENDBRANCH  34  48
BRANCH  37  50
ATOM     50  O   UNL     1      -7.108  45.468  19.008  1.00  0.00    -0.508 OA
ATOM     51  H   UNL     1      -6.982  46.263  19.628  1.00  0.00     0.293 HD
ENDBRANCH  37  50
ENDBRANCH  26  27
ENDBRANCH   5  26
BRANCH   4  52
ATOM     52  O   UNL     1       0.013  38.494  18.430  1.00  0.00    -0.384 OA
ATOM     53  H   UNL     1       0.893  38.129  18.721  1.00  0.00     0.211 HD
ENDBRANCH   4  52
TORSDOF 16
ENDMDL
