MODEL 1
REMARK VINA RESULT:    -5.431      0.000      0.000
REMARK INTER + INTRA:          -6.520
REMARK INTER:                  -6.383
REMARK INTRA:                  -0.136
REMARK UNBOUND:                -0.136
REMARK SMILES O=C([O-])C=Cc1ccc(O)c(O)c1
REMARK SMILES IDX 6 1 13 2 7 3 11 4 8 5 9 6 5 7 4 8 2 9 1 10 3 11 12 12 10 14
REMARK H PARENT 12 13 10 15
REMARK Flexibility Score: inf
ROOT
ATOM      1  C   UNL     1      -2.303   5.625   8.884  1.00  0.00    -0.022 A 
ATOM      2  C   UNL     1      -3.178   4.577   9.237  1.00  0.00     0.058 A 
ATOM      3  C   UNL     1      -1.240   5.353   8.009  1.00  0.00     0.012 A 
ATOM      4  C   UNL     1      -2.973   3.280   8.742  1.00  0.00     0.157 A 
ATOM      5  C   UNL     1      -1.035   4.062   7.517  1.00  0.00     0.051 A 
ATOM      6  C   UNL     1      -1.894   3.022   7.882  1.00  0.00     0.157 A 
ENDROOT
BRANCH   1   7
ATOM      7  C   UNL     1      -2.485   7.014   9.372  1.00  0.00     0.010 C 
ATOM      8  C   UNL     1      -1.518   7.727   9.969  1.00  0.00     0.025 C 
BRANCH   8   9
ATOM      9  C   UNL     1      -1.732   9.108  10.430  1.00  0.00     0.064 C 
ATOM     10  O   UNL     1      -1.452  10.093   9.695  1.00  0.00    -0.545 OA
ATOM     11  O   UNL     1      -2.252   9.330  11.698  1.00  0.00    -0.545 OA
ENDBRANCH   8   9
ENDBRANCH   1   7
BRANCH   4  12
ATOM     12  O   UNL     1      -3.842   2.249   9.099  1.00  0.00    -0.504 OA
ATOM     13  H   UNL     1      -3.688   1.688   9.929  1.00  0.00     0.293 HD
ENDBRANCH   4  12
BRANCH   6  14
ATOM     14  O   UNL     1      -1.663   1.743   7.376  1.00  0.00    -0.504 OA
ATOM     15  H   UNL     1      -1.316   1.591   6.436  1.00  0.00     0.293 HD
ENDBRANCH   6  14
TORSDOF 4
ENDMDL
MODEL 2
REMARK VINA RESULT:    -5.332     15.665     17.846
REMARK INTER + INTRA:          -6.404
REMARK INTER:                  -6.281
REMARK INTRA:                  -0.123
REMARK UNBOUND:                -0.136
REMARK SMILES O=C([O-])C=Cc1ccc(O)c(O)c1
REMARK SMILES IDX 6 1 13 2 7 3 11 4 8 5 9 6 5 7 4 8 2 9 1 10 3 11 12 12 10 14
REMARK H PARENT 12 13 10 15
REMARK Flexibility Score: inf
ROOT
ATOM      1  C   UNL     1     -10.636   8.469  23.838  1.00  0.00    -0.022 A 
ATOM      2  C   UNL     1      -9.803   9.283  23.043  1.00  0.00     0.058 A 
ATOM      3  C   UNL     1     -11.005   8.921  25.115  1.00  0.00     0.012 A 
ATOM      4  C   UNL     1      -9.332  10.511  23.530  1.00  0.00     0.157 A 
ATOM      5  C   UNL     1     -10.535  10.143  25.600  1.00  0.00     0.051 A 
ATOM      6  C   UNL     1      -9.697  10.940  24.816  1.00  0.00     0.157 A 
ENDROOT
BRANCH   1   7
ATOM      7  C   UNL     1     -11.168   7.168  23.363  1.00  0.00     0.010 C 
ATOM      8  C   UNL     1     -10.763   6.562  22.237  1.00  0.00     0.025 C 
BRANCH   8   9
ATOM      9  C   UNL     1     -11.306   5.265  21.804  1.00  0.00     0.064 C 
ATOM     10  O   UNL     1     -10.578   4.238  21.745  1.00  0.00    -0.545 OA
ATOM     11  O   UNL     1     -12.647   5.170  21.455  1.00  0.00    -0.545 OA
ENDBRANCH   8   9
ENDBRANCH   1   7
BRANCH   4  12
ATOM     12  O   UNL     1      -8.506  11.309  22.738  1.00  0.00    -0.504 OA
ATOM     13  H   UNL     1      -7.535  11.470  22.977  1.00  0.00     0.293 HD
ENDBRANCH   4  12
BRANCH   6  14
ATOM     14  O   UNL     1      -9.243  12.155  25.329  1.00  0.00    -0.504 OA
ATOM     15  H   UNL     1      -8.309  12.502  25.142  1.00  0.00     0.293 HD
ENDBRANCH   6  14
TORSDOF 4
ENDMDL
MODEL 3
REMARK VINA RESULT:    -5.007      1.358      1.722
REMARK INTER + INTRA:          -6.021
REMARK INTER:                  -5.896
REMARK INTRA:                  -0.125
REMARK UNBOUND:                -0.136
REMARK SMILES O=C([O-])C=Cc1ccc(O)c(O)c1
REMARK SMILES IDX 6 1 13 2 7 3 11 4 8 5 9 6 5 7 4 8 2 9 1 10 3 11 12 12 10 14
REMARK H PARENT 12 13 10 15
REMARK Flexibility Score: inf
ROOT
ATOM      1  C   UNL     1      -2.446   6.322   9.575  1.00  0.00    -0.022 A 
ATOM      2  C   UNL     1      -2.430   5.390  10.633  1.00  0.00     0.058 A 
ATOM      3  C   UNL     1      -2.852   5.894   8.302  1.00  0.00     0.012 A 
ATOM      4  C   UNL     1      -2.788   4.053  10.411  1.00  0.00     0.157 A 
ATOM      5  C   UNL     1      -3.208   4.561   8.079  1.00  0.00     0.051 A 
ATOM      6  C   UNL     1      -3.176   3.637   9.126  1.00  0.00     0.157 A 
ENDROOT
BRANCH   1   7
ATOM      7  C   UNL     1      -2.086   7.749   9.763  1.00  0.00     0.010 C 
ATOM      8  C   UNL     1      -1.984   8.341  10.963  1.00  0.00     0.025 C 
BRANCH   8   9
ATOM      9  C   UNL     1      -1.613   9.758  11.110  1.00  0.00     0.064 C 
ATOM     10  O   UNL     1      -1.306  10.461  10.110  1.00  0.00    -0.545 OA
ATOM     11  O   UNL     1      -1.602  10.331  12.375  1.00  0.00    -0.545 OA
ENDBRANCH   8   9
ENDBRANCH   1   7
BRANCH   4  12
ATOM     12  O   UNL     1      -2.766   3.137  11.462  1.00  0.00    -0.504 OA
ATOM     13  H   UNL     1      -3.592   2.946  12.018  1.00  0.00     0.293 HD
ENDBRANCH   4  12
BRANCH   6  14
ATOM     14  O   UNL     1      -3.535   2.313   8.873  1.00  0.00    -0.504 OA
ATOM     15  H   UNL     1      -4.502   2.031   8.762  1.00  0.00     0.293 HD
ENDBRANCH   6  14
TORSDOF 4
ENDMDL
MODEL 4
REMARK VINA RESULT:    -4.963      0.827      1.933
REMARK INTER + INTRA:          -5.970
REMARK INTER:                  -5.844
REMARK INTRA:                  -0.125
REMARK UNBOUND:                -0.136
REMARK SMILES O=C([O-])C=Cc1ccc(O)c(O)c1
REMARK SMILES IDX 6 1 13 2 7 3 11 4 8 5 9 6 5 7 4 8 2 9 1 10 3 11 12 12 10 14
REMARK H PARENT 12 13 10 15
REMARK Flexibility Score: inf
ROOT
ATOM      1  C   UNL     1      -2.077   5.773   8.623  1.00  0.00    -0.022 A 
ATOM      2  C   UNL     1      -0.903   5.343   7.972  1.00  0.00     0.058 A 
ATOM      3  C   UNL     1      -3.100   4.841   8.860  1.00  0.00     0.012 A 
ATOM      4  C   UNL     1      -0.771   4.014   7.544  1.00  0.00     0.157 A 
ATOM      5  C   UNL     1      -2.969   3.518   8.434  1.00  0.00     0.051 A 
ATOM      6  C   UNL     1      -1.811   3.099   7.774  1.00  0.00     0.157 A 
ENDROOT
BRANCH   1   7
ATOM      7  C   UNL     1      -2.259   7.166   9.103  1.00  0.00     0.010 C 
ATOM      8  C   UNL     1      -1.550   7.708  10.104  1.00  0.00     0.025 C 
BRANCH   8   9
ATOM      9  C   UNL     1      -1.751   9.098  10.545  1.00  0.00     0.064 C 
ATOM     10  O   UNL     1      -1.635  10.062   9.742  1.00  0.00    -0.545 OA
ATOM     11  O   UNL     1      -2.076   9.351  11.872  1.00  0.00    -0.545 OA
ENDBRANCH   8   9
ENDBRANCH   1   7
BRANCH   4  12
ATOM     12  O   UNL     1       0.392   3.598   6.897  1.00  0.00    -0.504 OA
ATOM     13  H   UNL     1       0.677   3.995   6.009  1.00  0.00     0.293 HD
ENDBRANCH   4  12
BRANCH   6  14
ATOM     14  O   UNL     1      -1.711   1.771   7.359  1.00  0.00    -0.504 OA
ATOM     15  H   UNL     1      -2.520   1.237   7.064  1.00  0.00     0.293 HD
ENDBRANCH   6  14
TORSDOF 4
ENDMDL
MODEL 5
REMARK VINA RESULT:    -4.756      3.774      6.096
REMARK INTER + INTRA:          -5.727
REMARK INTER:                  -5.604
REMARK INTRA:                  -0.123
REMARK UNBOUND:                -0.136
REMARK SMILES O=C([O-])C=Cc1ccc(O)c(O)c1
REMARK SMILES IDX 6 1 13 2 7 3 11 4 8 5 9 6 5 7 4 8 2 9 1 10 3 11 12 12 10 14
REMARK H PARENT 12 13 10 15
REMARK Flexibility Score: inf
ROOT
ATOM      1  C   UNL     1      -2.122   7.836  12.476  1.00  0.00    -0.022 A 
ATOM      2  C   UNL     1      -2.090   7.274  11.183  1.00  0.00     0.058 A 
ATOM      3  C   UNL     1      -1.932   9.220  12.617  1.00  0.00     0.012 A 
ATOM      4  C   UNL     1      -1.847   8.079  10.061  1.00  0.00     0.157 A 
ATOM      5  C   UNL     1      -1.689  10.022  11.500  1.00  0.00     0.051 A 
ATOM      6  C   UNL     1      -1.642   9.459  10.222  1.00  0.00     0.157 A 
ENDROOT
BRANCH   1   7
ATOM      7  C   UNL     1      -2.386   7.027  13.692  1.00  0.00     0.010 C 
ATOM      8  C   UNL     1      -2.773   5.743  13.663  1.00  0.00     0.025 C 
BRANCH   8   9
ATOM      9  C   UNL     1      -3.014   4.968  14.892  1.00  0.00     0.064 C 
ATOM     10  O   UNL     1      -4.120   5.026  15.494  1.00  0.00    -0.545 OA
ATOM     11  O   UNL     1      -2.005   4.159  15.397  1.00  0.00    -0.545 OA
ENDBRANCH   8   9
ENDBRANCH   1   7
BRANCH   4  12
ATOM     12  O   UNL     1      -1.814   7.514   8.787  1.00  0.00    -0.504 OA
ATOM     13  H   UNL     1      -2.283   6.640   8.581  1.00  0.00     0.293 HD
ENDBRANCH   4  12
BRANCH   6  14
ATOM     14  O   UNL     1      -1.396  10.286   9.127  1.00  0.00    -0.504 OA
ATOM     15  H   UNL     1      -1.565   9.983   8.175  1.00  0.00     0.293 HD
ENDBRANCH   6  14
TORSDOF 4
ENDMDL
MODEL 6
REMARK VINA RESULT:    -4.687      6.872      7.964
REMARK INTER + INTRA:          -5.645
REMARK INTER:                  -5.523
REMARK INTRA:                  -0.122
REMARK UNBOUND:                -0.136
REMARK SMILES O=C([O-])C=Cc1ccc(O)c(O)c1
REMARK SMILES IDX 6 1 13 2 7 3 11 4 8 5 9 6 5 7 4 8 2 9 1 10 3 11 12 12 10 14
REMARK H PARENT 12 13 10 15
REMARK Flexibility Score: inf
ROOT
ATOM      1  C   UNL     1      -3.086   4.268  15.461  1.00  0.00    -0.022 A 
ATOM      2  C   UNL     1      -3.940   5.327  15.831  1.00  0.00     0.058 A 
ATOM      3  C   UNL     1      -3.573   2.952  15.522  1.00  0.00     0.012 A 
ATOM      4  C   UNL     1      -5.245   5.068  16.275  1.00  0.00     0.157 A 
ATOM      5  C   UNL     1      -4.872   2.694  15.965  1.00  0.00     0.051 A 
ATOM      6  C   UNL     1      -5.711   3.745  16.346  1.00  0.00     0.157 A 
ENDROOT
BRANCH   1   7
ATOM      7  C   UNL     1      -1.702   4.491  14.975  1.00  0.00     0.010 C 
ATOM      8  C   UNL     1      -0.678   4.835  15.770  1.00  0.00     0.025 C 
BRANCH   8   9
ATOM      9  C   UNL     1       0.685   5.037  15.253  1.00  0.00     0.064 C 
ATOM     10  O   UNL     1       0.926   5.899  14.366  1.00  0.00    -0.545 OA
ATOM     11  O   UNL     1       1.725   4.264  15.752  1.00  0.00    -0.545 OA
ENDBRANCH   8   9
ENDBRANCH   1   7
BRANCH   4  12
ATOM     12  O   UNL     1      -6.082   6.121  16.642  1.00  0.00    -0.504 OA
ATOM     13  H   UNL     1      -6.159   6.429  17.604  1.00  0.00     0.293 HD
ENDBRANCH   4  12
BRANCH   6  14
ATOM     14  O   UNL     1      -7.002   3.456  16.786  1.00  0.00    -0.504 OA
ATOM     15  H   UNL     1      -7.793   4.044  16.554  1.00  0.00     0.293 HD
ENDBRANCH   6  14
TORSDOF 4
ENDMDL
MODEL 7
REMARK VINA RESULT:    -4.666      4.888      6.817
REMARK INTER + INTRA:          -5.621
REMARK INTER:                  -5.490
REMARK INTRA:                  -0.131
REMARK UNBOUND:                -0.136
REMARK SMILES O=C([O-])C=Cc1ccc(O)c(O)c1
REMARK SMILES IDX 6 1 13 2 7 3 11 4 8 5 9 6 5 7 4 8 2 9 1 10 3 11 12 12 10 14
REMARK H PARENT 12 13 10 15
REMARK Flexibility Score: inf
ROOT
ATOM      1  C   UNL     1      -2.985   3.407  13.235  1.00  0.00    -0.022 A 
ATOM      2  C   UNL     1      -3.305   4.590  13.934  1.00  0.00     0.058 A 
ATOM      3  C   UNL     1      -3.314   2.170  13.813  1.00  0.00     0.012 A 
ATOM      4  C   UNL     1      -3.916   4.530  15.195  1.00  0.00     0.157 A 
ATOM      5  C   UNL     1      -3.921   2.111  15.069  1.00  0.00     0.051 A 
ATOM      6  C   UNL     1      -4.222   3.284  15.766  1.00  0.00     0.157 A 
ENDROOT
BRANCH   1   7
ATOM      7  C   UNL     1      -2.349   3.419  11.895  1.00  0.00     0.010 C 
ATOM      8  C   UNL     1      -3.036   3.421  10.744  1.00  0.00     0.025 C 
BRANCH   8   9
ATOM      9  C   UNL     1      -2.369   3.445   9.431  1.00  0.00     0.064 C 
ATOM     10  O   UNL     1      -1.188   3.027   9.291  1.00  0.00    -0.545 OA
ATOM     11  O   UNL     1      -3.054   3.935   8.327  1.00  0.00    -0.545 OA
ENDBRANCH   8   9
ENDBRANCH   1   7
BRANCH   4  12
ATOM     12  O   UNL     1      -4.225   5.705  15.880  1.00  0.00    -0.504 OA
ATOM     13  H   UNL     1      -4.040   5.807  16.871  1.00  0.00     0.293 HD
ENDBRANCH   4  12
BRANCH   6  14
ATOM     14  O   UNL     1      -4.827   3.192  17.019  1.00  0.00    -0.504 OA
ATOM     15  H   UNL     1      -4.292   3.028  17.863  1.00  0.00     0.293 HD
ENDBRANCH   6  14
TORSDOF 4
ENDMDL
MODEL 8
REMARK VINA RESULT:    -4.611     15.848     17.898
REMARK INTER + INTRA:          -5.556
REMARK INTER:                  -5.435
REMARK INTRA:                  -0.122
REMARK UNBOUND:                -0.136
REMARK SMILES O=C([O-])C=Cc1ccc(O)c(O)c1
REMARK SMILES IDX 6 1 13 2 7 3 11 4 8 5 9 6 5 7 4 8 2 9 1 10 3 11 12 12 10 14
REMARK H PARENT 12 13 10 15
REMARK Flexibility Score: inf
ROOT
ATOM      1  C   UNL     1     -10.646   7.564  23.373  1.00  0.00    -0.022 A 
ATOM      2  C   UNL     1     -11.136   7.611  24.694  1.00  0.00     0.058 A 
ATOM      3  C   UNL     1     -10.003   8.697  22.849  1.00  0.00     0.012 A 
ATOM      4  C   UNL     1     -11.007   8.778  25.461  1.00  0.00     0.157 A 
ATOM      5  C   UNL     1      -9.875   9.859  23.612  1.00  0.00     0.051 A 
ATOM      6  C   UNL     1     -10.377   9.908  24.915  1.00  0.00     0.157 A 
ENDROOT
BRANCH   1   7
ATOM      7  C   UNL     1     -10.749   6.350  22.526  1.00  0.00     0.010 C 
ATOM      8  C   UNL     1     -11.866   5.985  21.879  1.00  0.00     0.025 C 
BRANCH   8   9
ATOM      9  C   UNL     1     -11.927   4.779  21.037  1.00  0.00     0.064 C 
ATOM     10  O   UNL     1     -12.357   3.685  21.494  1.00  0.00    -0.545 OA
ATOM     11  O   UNL     1     -11.504   4.847  19.716  1.00  0.00    -0.545 OA
ENDBRANCH   8   9
ENDBRANCH   1   7
BRANCH   4  12
ATOM     12  O   UNL     1     -11.498   8.817  26.766  1.00  0.00    -0.504 OA
ATOM     13  H   UNL     1     -11.436   9.655  27.333  1.00  0.00     0.293 HD
ENDBRANCH   4  12
BRANCH   6  14
ATOM     14  O   UNL     1     -10.235  11.084  25.652  1.00  0.00    -0.504 OA
ATOM     15  H   UNL     1      -9.888  11.940  25.237  1.00  0.00     0.293 HD
ENDBRANCH   6  14
TORSDOF 4
ENDMDL
MODEL 9
REMARK VINA RESULT:    -4.561      4.727      6.264
REMARK INTER + INTRA:          -5.497
REMARK INTER:                  -5.373
REMARK INTRA:                  -0.124
REMARK UNBOUND:                -0.136
REMARK SMILES O=C([O-])C=Cc1ccc(O)c(O)c1
REMARK SMILES IDX 6 1 13 2 7 3 11 4 8 5 9 6 5 7 4 8 2 9 1 10 3 11 12 12 10 14
REMARK H PARENT 12 13 10 15
REMARK Flexibility Score: inf
ROOT
ATOM      1  C   UNL     1      -2.441  10.891  11.821  1.00  0.00    -0.022 A 
ATOM      2  C   UNL     1      -2.820   9.622  12.306  1.00  0.00     0.058 A 
ATOM      3  C   UNL     1      -1.304  10.991  11.003  1.00  0.00     0.012 A 
ATOM      4  C   UNL     1      -2.057   8.485  12.000  1.00  0.00     0.157 A 
ATOM      5  C   UNL     1      -0.544   9.859  10.699  1.00  0.00     0.051 A 
ATOM      6  C   UNL     1      -0.913   8.606  11.196  1.00  0.00     0.157 A 
ENDROOT
BRANCH   1   7
ATOM      7  C   UNL     1      -3.221  12.120  12.108  1.00  0.00     0.010 C 
ATOM      8  C   UNL     1      -4.505  12.116  12.495  1.00  0.00     0.025 C 
BRANCH   8   9
ATOM      9  C   UNL     1      -5.243  13.357  12.783  1.00  0.00     0.064 C 
ATOM     10  O   UNL     1      -6.412  13.328  13.252  1.00  0.00    -0.545 OA
ATOM     11  O   UNL     1      -4.639  14.582  12.533  1.00  0.00    -0.545 OA
ENDBRANCH   8   9
ENDBRANCH   1   7
BRANCH   4  12
ATOM     12  O   UNL     1      -2.437   7.235  12.488  1.00  0.00    -0.504 OA
ATOM     13  H   UNL     1      -1.835   6.424  12.398  1.00  0.00     0.293 HD
ENDBRANCH   4  12
BRANCH   6  14
ATOM     14  O   UNL     1      -0.133   7.495  10.876  1.00  0.00    -0.504 OA
ATOM     15  H   UNL     1      -0.346   6.569  11.229  1.00  0.00     0.293 HD
ENDBRANCH   6  14
TORSDOF 4
ENDMDL
