MODEL 1
REMARK VINA RESULT:    -6.091      0.000      0.000
REMARK INTER + INTRA:          -7.423
REMARK INTER:                  -7.159
REMARK INTRA:                  -0.264
REMARK UNBOUND:                -0.264
REMARK SMILES O=c1cc(-c2ccc(O)c(O)c2)oc2cc(O)cc(O)c12
REMARK SMILES IDX 4 1 3 2 2 3 1 4 21 5 19 6 18 7 16 8 15 9 14 10 13 11 5 12
REMARK SMILES IDX 6 13 7 14 8 15 12 16 10 17 9 18 11 20 20 22 17 24
REMARK H PARENT 9 19 11 21 20 23 17 25
REMARK Flexibility Score: inf
ROOT
ATOM      1  C   UNL     1      -8.941  -3.061  -5.716  1.00  0.00     0.138 A 
ATOM      2  C   UNL     1      -9.433  -2.174  -6.683  1.00  0.00     0.100 A 
ATOM      3  C   UNL     1      -9.368  -0.799  -6.455  1.00  0.00     0.197 A 
ATOM      4  O   UNL     1      -9.873  -0.030  -7.313  1.00  0.00    -0.289 OA
ATOM      5  C   UNL     1      -8.778  -0.311  -5.265  1.00  0.00     0.107 A 
ATOM      6  C   UNL     1      -8.621   1.071  -4.943  1.00  0.00     0.134 A 
ATOM      7  C   UNL     1      -8.128   1.433  -3.683  1.00  0.00     0.093 A 
ATOM      8  C   UNL     1      -7.732   0.468  -2.758  1.00  0.00     0.123 A 
ATOM      9  C   UNL     1      -7.831  -0.886  -3.083  1.00  0.00     0.094 A 
ATOM     10  C   UNL     1      -8.351  -1.280  -4.318  1.00  0.00     0.146 A 
ATOM     11  O   UNL     1      -8.443  -2.579  -4.583  1.00  0.00    -0.456 OA
ENDROOT
BRANCH   1  12
ATOM     12  C   UNL     1      -8.985  -4.533  -5.909  1.00  0.00     0.021 A 
ATOM     13  C   UNL     1      -9.807  -5.315  -5.078  1.00  0.00     0.016 A 
ATOM     14  C   UNL     1      -9.861  -6.703  -5.234  1.00  0.00     0.051 A 
ATOM     15  C   UNL     1      -9.088  -7.335  -6.212  1.00  0.00     0.157 A 
ATOM     16  C   UNL     1      -8.199  -5.177  -6.885  1.00  0.00     0.062 A 
ATOM     17  C   UNL     1      -8.251  -6.570  -7.040  1.00  0.00     0.158 A 
BRANCH  15  18
ATOM     18  O   UNL     1      -9.165  -8.721  -6.346  1.00  0.00    -0.504 OA
ATOM     19  H   UNL     1      -9.940  -9.255  -5.973  1.00  0.00     0.293 HD
ENDBRANCH  15  18
BRANCH  17  20
ATOM     20  O   UNL     1      -7.470  -7.196  -8.011  1.00  0.00    -0.504 OA
ATOM     21  H   UNL     1      -6.481  -6.997  -8.107  1.00  0.00     0.293 HD
ENDBRANCH  17  20
ENDBRANCH   1  12
BRANCH   6  22
ATOM     22  O   UNL     1      -8.906   2.115  -5.826  1.00  0.00    -0.507 OA
ATOM     23  H   UNL     1      -9.438   2.022  -6.678  1.00  0.00     0.293 HD
ENDBRANCH   6  22
BRANCH   8  24
ATOM     24  O   UNL     1      -7.233   0.867  -1.520  1.00  0.00    -0.508 OA
ATOM     25  H   UNL     1      -7.194   1.843  -1.253  1.00  0.00     0.293 HD
ENDBRANCH   8  24
TORSDOF 5
ENDMDL
MODEL 2
REMARK VINA RESULT:    -6.037     15.329     17.008
REMARK INTER + INTRA:          -7.360
REMARK INTER:                  -7.042
REMARK INTRA:                  -0.318
REMARK UNBOUND:                -0.264
REMARK SMILES O=c1cc(-c2ccc(O)c(O)c2)oc2cc(O)cc(O)c12
REMARK SMILES IDX 4 1 3 2 2 3 1 4 21 5 19 6 18 7 16 8 15 9 14 10 13 11 5 12
REMARK SMILES IDX 6 13 7 14 8 15 12 16 10 17 9 18 11 20 20 22 17 24
REMARK H PARENT 9 19 11 21 20 23 17 25
REMARK Flexibility Score: inf
ROOT
ATOM      1  C   UNL     1      -1.765   5.712   7.066  1.00  0.00     0.138 A 
ATOM      2  C   UNL     1      -3.114   5.619   7.439  1.00  0.00     0.100 A 
ATOM      3  C   UNL     1      -4.087   6.269   6.679  1.00  0.00     0.197 A 
ATOM      4  O   UNL     1      -5.280   6.219   7.073  1.00  0.00    -0.289 OA
ATOM      5  C   UNL     1      -3.709   6.990   5.521  1.00  0.00     0.107 A 
ATOM      6  C   UNL     1      -4.618   7.658   4.647  1.00  0.00     0.134 A 
ATOM      7  C   UNL     1      -4.118   8.438   3.597  1.00  0.00     0.093 A 
ATOM      8  C   UNL     1      -2.748   8.524   3.352  1.00  0.00     0.123 A 
ATOM      9  C   UNL     1      -1.852   7.831   4.168  1.00  0.00     0.094 A 
ATOM     10  C   UNL     1      -2.318   7.074   5.245  1.00  0.00     0.146 A 
ATOM     11  O   UNL     1      -1.432   6.441   6.007  1.00  0.00    -0.456 OA
ENDROOT
BRANCH   1  12
ATOM     12  C   UNL     1      -0.691   5.040   7.839  1.00  0.00     0.021 A 
ATOM     13  C   UNL     1      -1.027   4.281   8.974  1.00  0.00     0.016 A 
ATOM     14  C   UNL     1      -0.034   3.644   9.723  1.00  0.00     0.051 A 
ATOM     15  C   UNL     1       1.311   3.761   9.359  1.00  0.00     0.157 A 
ATOM     16  C   UNL     1       0.667   5.165   7.484  1.00  0.00     0.062 A 
ATOM     17  C   UNL     1       1.664   4.527   8.237  1.00  0.00     0.158 A 
BRANCH  15  18
ATOM     18  O   UNL     1       2.279   3.112  10.125  1.00  0.00    -0.504 OA
ATOM     19  H   UNL     1       2.488   3.390  11.076  1.00  0.00     0.293 HD
ENDBRANCH  15  18
BRANCH  17  20
ATOM     20  O   UNL     1       3.005   4.657   7.876  1.00  0.00    -0.504 OA
ATOM     21  H   UNL     1       3.722   4.864   8.561  1.00  0.00     0.293 HD
ENDBRANCH  17  20
ENDBRANCH   1  12
BRANCH   6  22
ATOM     22  O   UNL     1      -6.009   7.569   4.751  1.00  0.00    -0.507 OA
ATOM     23  H   UNL     1      -6.660   8.229   4.354  1.00  0.00     0.293 HD
ENDBRANCH   6  22
BRANCH   8  24
ATOM     24  O   UNL     1      -2.287   9.297   2.288  1.00  0.00    -0.508 OA
ATOM     25  H   UNL     1      -2.926   9.780   1.668  1.00  0.00     0.293 HD
ENDBRANCH   8  24
TORSDOF 5
ENDMDL
MODEL 3
REMARK VINA RESULT:    -5.989     14.956     17.088
REMARK INTER + INTRA:          -7.303
REMARK INTER:                  -7.010
REMARK INTRA:                  -0.293
REMARK UNBOUND:                -0.264
REMARK SMILES O=c1cc(-c2ccc(O)c(O)c2)oc2cc(O)cc(O)c12
REMARK SMILES IDX 4 1 3 2 2 3 1 4 21 5 19 6 18 7 16 8 15 9 14 10 13 11 5 12
REMARK SMILES IDX 6 13 7 14 8 15 12 16 10 17 9 18 11 20 20 22 17 24
REMARK H PARENT 9 19 11 21 20 23 17 25
REMARK Flexibility Score: inf
ROOT
ATOM      1  C   UNL     1      -1.048   6.310   6.565  1.00  0.00     0.138 A 
ATOM      2  C   UNL     1      -0.489   7.357   5.819  1.00  0.00     0.100 A 
ATOM      3  C   UNL     1      -1.312   8.149   5.017  1.00  0.00     0.197 A 
ATOM      4  O   UNL     1      -0.774   9.041   4.312  1.00  0.00    -0.289 OA
ATOM      5  C   UNL     1      -2.707   7.910   4.989  1.00  0.00     0.107 A 
ATOM      6  C   UNL     1      -3.648   8.678   4.240  1.00  0.00     0.134 A 
ATOM      7  C   UNL     1      -4.989   8.275   4.198  1.00  0.00     0.093 A 
ATOM      8  C   UNL     1      -5.433   7.170   4.922  1.00  0.00     0.123 A 
ATOM      9  C   UNL     1      -4.531   6.443   5.700  1.00  0.00     0.094 A 
ATOM     10  C   UNL     1      -3.181   6.799   5.736  1.00  0.00     0.146 A 
ATOM     11  O   UNL     1      -2.352   6.072   6.478  1.00  0.00    -0.456 OA
ENDROOT
BRANCH   1  12
ATOM     12  C   UNL     1      -0.218   5.438   7.434  1.00  0.00     0.021 A 
ATOM     13  C   UNL     1      -0.836   4.683   8.447  1.00  0.00     0.016 A 
ATOM     14  C   UNL     1      -0.076   3.861   9.284  1.00  0.00     0.051 A 
ATOM     15  C   UNL     1       1.311   3.785   9.132  1.00  0.00     0.157 A 
ATOM     16  C   UNL     1       1.182   5.368   7.293  1.00  0.00     0.062 A 
ATOM     17  C   UNL     1       1.945   4.544   8.134  1.00  0.00     0.158 A 
BRANCH  15  18
ATOM     18  O   UNL     1       2.042   2.954   9.980  1.00  0.00    -0.504 OA
ATOM     19  H   UNL     1       3.027   2.770   9.835  1.00  0.00     0.293 HD
ENDBRANCH  15  18
BRANCH  17  20
ATOM     20  O   UNL     1       3.330   4.480   7.984  1.00  0.00    -0.504 OA
ATOM     21  H   UNL     1       3.829   5.127   7.384  1.00  0.00     0.293 HD
ENDBRANCH  17  20
ENDBRANCH   1  12
BRANCH   6  22
ATOM     22  O   UNL     1      -3.327   9.850   3.549  1.00  0.00    -0.507 OA
ATOM     23  H   UNL     1      -3.691  10.765   3.764  1.00  0.00     0.293 HD
ENDBRANCH   6  22
BRANCH   8  24
ATOM     24  O   UNL     1      -6.777   6.808   4.868  1.00  0.00    -0.508 OA
ATOM     25  H   UNL     1      -7.353   7.027   4.064  1.00  0.00     0.293 HD
ENDBRANCH   8  24
TORSDOF 5
ENDMDL
MODEL 4
REMARK VINA RESULT:    -5.921      2.414      7.126
REMARK INTER + INTRA:          -7.223
REMARK INTER:                  -6.960
REMARK INTRA:                  -0.264
REMARK UNBOUND:                -0.264
REMARK SMILES O=c1cc(-c2ccc(O)c(O)c2)oc2cc(O)cc(O)c12
REMARK SMILES IDX 4 1 3 2 2 3 1 4 21 5 19 6 18 7 16 8 15 9 14 10 13 11 5 12
REMARK SMILES IDX 6 13 7 14 8 15 12 16 10 17 9 18 11 20 20 22 17 24
REMARK H PARENT 9 19 11 21 20 23 17 25
REMARK Flexibility Score: inf
ROOT
ATOM      1  C   UNL     1      -7.870  -1.653  -5.858  1.00  0.00     0.138 A 
ATOM      2  C   UNL     1      -8.774  -2.725  -5.866  1.00  0.00     0.100 A 
ATOM      3  C   UNL     1      -8.522  -3.833  -6.675  1.00  0.00     0.197 A 
ATOM      4  O   UNL     1      -9.382  -4.751  -6.709  1.00  0.00    -0.289 OA
ATOM      5  C   UNL     1      -7.342  -3.882  -7.454  1.00  0.00     0.107 A 
ATOM      6  C   UNL     1      -6.960  -4.978  -8.285  1.00  0.00     0.134 A 
ATOM      7  C   UNL     1      -5.828  -4.864  -9.100  1.00  0.00     0.093 A 
ATOM      8  C   UNL     1      -5.030  -3.721  -9.071  1.00  0.00     0.123 A 
ATOM      9  C   UNL     1      -5.364  -2.664  -8.223  1.00  0.00     0.094 A 
ATOM     10  C   UNL     1      -6.507  -2.733  -7.423  1.00  0.00     0.146 A 
ATOM     11  O   UNL     1      -6.798  -1.699  -6.640  1.00  0.00    -0.456 OA
ENDROOT
BRANCH   1  12
ATOM     12  C   UNL     1      -8.089  -0.450  -5.015  1.00  0.00     0.021 A 
ATOM     13  C   UNL     1      -8.793   0.646  -5.545  1.00  0.00     0.016 A 
ATOM     14  C   UNL     1      -9.007   1.793  -4.776  1.00  0.00     0.051 A 
ATOM     15  C   UNL     1      -8.514   1.871  -3.471  1.00  0.00     0.157 A 
ATOM     16  C   UNL     1      -7.583  -0.361  -3.703  1.00  0.00     0.062 A 
ATOM     17  C   UNL     1      -7.796   0.791  -2.932  1.00  0.00     0.158 A 
BRANCH  15  18
ATOM     18  O   UNL     1      -8.745   3.028  -2.727  1.00  0.00    -0.504 OA
ATOM     19  H   UNL     1      -8.741   3.948  -3.149  1.00  0.00     0.293 HD
ENDBRANCH  15  18
BRANCH  17  20
ATOM     20  O   UNL     1      -7.293   0.867  -1.633  1.00  0.00    -0.504 OA
ATOM     21  H   UNL     1      -7.906   0.905  -0.827  1.00  0.00     0.293 HD
ENDBRANCH  17  20
ENDBRANCH   1  12
BRANCH   6  22
ATOM     22  O   UNL     1      -7.639  -6.199  -8.326  1.00  0.00    -0.507 OA
ATOM     23  H   UNL     1      -7.465  -6.977  -7.707  1.00  0.00     0.293 HD
ENDBRANCH   6  22
BRANCH   8  24
ATOM     24  O   UNL     1      -3.902  -3.649  -9.886  1.00  0.00    -0.508 OA
ATOM     25  H   UNL     1      -3.919  -3.973 -10.845  1.00  0.00     0.293 HD
ENDBRANCH   8  24
TORSDOF 5
ENDMDL
MODEL 5
REMARK VINA RESULT:    -5.911      2.388      2.932
REMARK INTER + INTRA:          -7.211
REMARK INTER:                  -6.942
REMARK INTRA:                  -0.269
REMARK UNBOUND:                -0.264
REMARK SMILES O=c1cc(-c2ccc(O)c(O)c2)oc2cc(O)cc(O)c12
REMARK SMILES IDX 4 1 3 2 2 3 1 4 21 5 19 6 18 7 16 8 15 9 14 10 13 11 5 12
REMARK SMILES IDX 6 13 7 14 8 15 12 16 10 17 9 18 11 20 20 22 17 24
REMARK H PARENT 9 19 11 21 20 23 17 25
REMARK Flexibility Score: inf
ROOT
ATOM      1  C   UNL     1      -7.553  -1.406  -6.891  1.00  0.00     0.138 A 
ATOM      2  C   UNL     1      -8.547  -0.683  -7.564  1.00  0.00     0.100 A 
ATOM      3  C   UNL     1      -9.069   0.476  -6.987  1.00  0.00     0.197 A 
ATOM      4  O   UNL     1     -10.003   1.068  -7.585  1.00  0.00    -0.289 OA
ATOM      5  C   UNL     1      -8.568   0.929  -5.744  1.00  0.00     0.107 A 
ATOM      6  C   UNL     1      -8.995   2.118  -5.080  1.00  0.00     0.134 A 
ATOM      7  C   UNL     1      -8.511   2.403  -3.797  1.00  0.00     0.093 A 
ATOM      8  C   UNL     1      -7.572   1.578  -3.180  1.00  0.00     0.123 A 
ATOM      9  C   UNL     1      -7.107   0.441  -3.843  1.00  0.00     0.094 A 
ATOM     10  C   UNL     1      -7.596   0.110  -5.108  1.00  0.00     0.146 A 
ATOM     11  O   UNL     1      -7.139  -0.989  -5.699  1.00  0.00    -0.456 OA
ENDROOT
BRANCH   1  12
ATOM     12  C   UNL     1      -6.963  -2.644  -7.460  1.00  0.00     0.021 A 
ATOM     13  C   UNL     1      -7.743  -3.812  -7.531  1.00  0.00     0.016 A 
ATOM     14  C   UNL     1      -7.210  -4.992  -8.056  1.00  0.00     0.051 A 
ATOM     15  C   UNL     1      -5.888  -5.031  -8.508  1.00  0.00     0.157 A 
ATOM     16  C   UNL     1      -5.627  -2.692  -7.905  1.00  0.00     0.062 A 
ATOM     17  C   UNL     1      -5.091  -3.877  -8.430  1.00  0.00     0.158 A 
BRANCH  15  18
ATOM     18  O   UNL     1      -5.384  -6.223  -9.028  1.00  0.00    -0.504 OA
ATOM     19  H   UNL     1      -5.496  -7.108  -8.550  1.00  0.00     0.293 HD
ENDBRANCH  15  18
BRANCH  17  20
ATOM     20  O   UNL     1      -3.768  -3.913  -8.870  1.00  0.00    -0.504 OA
ATOM     21  H   UNL     1      -2.993  -3.764  -8.235  1.00  0.00     0.293 HD
ENDBRANCH  17  20
ENDBRANCH   1  12
BRANCH   6  22
ATOM     22  O   UNL     1      -9.865   3.056  -5.642  1.00  0.00    -0.507 OA
ATOM     23  H   UNL     1     -10.629   2.836  -6.262  1.00  0.00     0.293 HD
ENDBRANCH   6  22
BRANCH   8  24
ATOM     24  O   UNL     1      -7.102   1.901  -1.909  1.00  0.00    -0.508 OA
ATOM     25  H   UNL     1      -7.708   1.882  -1.098  1.00  0.00     0.293 HD
ENDBRANCH   8  24
TORSDOF 5
ENDMDL
MODEL 6
REMARK VINA RESULT:    -5.897      1.954      7.205
REMARK INTER + INTRA:          -7.195
REMARK INTER:                  -6.930
REMARK INTRA:                  -0.264
REMARK UNBOUND:                -0.264
REMARK SMILES O=c1cc(-c2ccc(O)c(O)c2)oc2cc(O)cc(O)c12
REMARK SMILES IDX 4 1 3 2 2 3 1 4 21 5 19 6 18 7 16 8 15 9 14 10 13 11 5 12
REMARK SMILES IDX 6 13 7 14 8 15 12 16 10 17 9 18 11 20 20 22 17 24
REMARK H PARENT 9 19 11 21 20 23 17 25
REMARK Flexibility Score: inf
ROOT
ATOM      1  C   UNL     1      -7.921  -0.661  -5.681  1.00  0.00     0.138 A 
ATOM      2  C   UNL     1      -7.062  -0.934  -6.755  1.00  0.00     0.100 A 
ATOM      3  C   UNL     1      -6.986  -2.230  -7.266  1.00  0.00     0.197 A 
ATOM      4  O   UNL     1      -6.162  -2.458  -8.188  1.00  0.00    -0.289 OA
ATOM      5  C   UNL     1      -7.800  -3.250  -6.718  1.00  0.00     0.107 A 
ATOM      6  C   UNL     1      -7.837  -4.598  -7.184  1.00  0.00     0.134 A 
ATOM      7  C   UNL     1      -8.595  -5.548  -6.488  1.00  0.00     0.093 A 
ATOM      8  C   UNL     1      -9.363  -5.188  -5.382  1.00  0.00     0.123 A 
ATOM      9  C   UNL     1      -9.376  -3.861  -4.949  1.00  0.00     0.094 A 
ATOM     10  C   UNL     1      -8.603  -2.897  -5.601  1.00  0.00     0.146 A 
ATOM     11  O   UNL     1      -8.632  -1.648  -5.149  1.00  0.00    -0.456 OA
ENDROOT
BRANCH   1  12
ATOM     12  C   UNL     1      -8.040   0.701  -5.100  1.00  0.00     0.021 A 
ATOM     13  C   UNL     1      -7.157   1.097  -4.079  1.00  0.00     0.016 A 
ATOM     14  C   UNL     1      -7.253   2.370  -3.511  1.00  0.00     0.051 A 
ATOM     15  C   UNL     1      -8.236   3.264  -3.942  1.00  0.00     0.157 A 
ATOM     16  C   UNL     1      -9.038   1.602  -5.522  1.00  0.00     0.062 A 
ATOM     17  C   UNL     1      -9.135   2.879  -4.950  1.00  0.00     0.158 A 
BRANCH  15  18
ATOM     18  O   UNL     1      -8.306   4.529  -3.357  1.00  0.00    -0.504 OA
ATOM     19  H   UNL     1      -7.849   5.335  -3.765  1.00  0.00     0.293 HD
ENDBRANCH  15  18
BRANCH  17  20
ATOM     20  O   UNL     1     -10.125   3.764  -5.376  1.00  0.00    -0.504 OA
ATOM     21  H   UNL     1     -11.108   3.524  -5.329  1.00  0.00     0.293 HD
ENDBRANCH  17  20
ENDBRANCH   1  12
BRANCH   6  22
ATOM     22  O   UNL     1      -7.175  -5.047  -8.330  1.00  0.00    -0.507 OA
ATOM     23  H   UNL     1      -7.244  -5.979  -8.710  1.00  0.00     0.293 HD
ENDBRANCH   6  22
BRANCH   8  24
ATOM     24  O   UNL     1     -10.117  -6.157  -4.723  1.00  0.00    -0.508 OA
ATOM     25  H   UNL     1     -10.981  -5.925  -4.250  1.00  0.00     0.293 HD
ENDBRANCH   8  24
TORSDOF 5
ENDMDL
MODEL 7
REMARK VINA RESULT:    -5.811     15.108     16.957
REMARK INTER + INTRA:          -7.094
REMARK INTER:                  -6.803
REMARK INTRA:                  -0.291
REMARK UNBOUND:                -0.264
REMARK SMILES O=c1cc(-c2ccc(O)c(O)c2)oc2cc(O)cc(O)c12
REMARK SMILES IDX 4 1 3 2 2 3 1 4 21 5 19 6 18 7 16 8 15 9 14 10 13 11 5 12
REMARK SMILES IDX 6 13 7 14 8 15 12 16 10 17 9 18 11 20 20 22 17 24
REMARK H PARENT 9 19 11 21 20 23 17 25
REMARK Flexibility Score: inf
ROOT
ATOM      1  C   UNL     1      -1.862   5.297   7.210  1.00  0.00     0.138 A 
ATOM      2  C   UNL     1      -1.768   5.691   5.867  1.00  0.00     0.100 A 
ATOM      3  C   UNL     1      -2.889   6.213   5.221  1.00  0.00     0.197 A 
ATOM      4  O   UNL     1      -2.792   6.499   4.000  1.00  0.00    -0.289 OA
ATOM      5  C   UNL     1      -4.102   6.370   5.934  1.00  0.00     0.107 A 
ATOM      6  C   UNL     1      -5.298   6.928   5.391  1.00  0.00     0.134 A 
ATOM      7  C   UNL     1      -6.470   6.925   6.157  1.00  0.00     0.093 A 
ATOM      8  C   UNL     1      -6.476   6.442   7.464  1.00  0.00     0.123 A 
ATOM      9  C   UNL     1      -5.299   5.943   8.025  1.00  0.00     0.094 A 
ATOM     10  C   UNL     1      -4.122   5.900   7.275  1.00  0.00     0.146 A 
ATOM     11  O   UNL     1      -3.026   5.404   7.840  1.00  0.00    -0.456 OA
ENDROOT
BRANCH   1  12
ATOM     12  C   UNL     1      -0.699   4.737   7.944  1.00  0.00     0.021 A 
ATOM     13  C   UNL     1      -0.919   3.935   9.079  1.00  0.00     0.016 A 
ATOM     14  C   UNL     1       0.157   3.402   9.792  1.00  0.00     0.051 A 
ATOM     15  C   UNL     1       1.471   3.668   9.394  1.00  0.00     0.157 A 
ATOM     16  C   UNL     1       0.627   5.012   7.555  1.00  0.00     0.062 A 
ATOM     17  C   UNL     1       1.707   4.479   8.272  1.00  0.00     0.158 A 
BRANCH  15  18
ATOM     18  O   UNL     1       2.524   3.120  10.125  1.00  0.00    -0.504 OA
ATOM     19  H   UNL     1       2.657   3.320  11.109  1.00  0.00     0.293 HD
ENDBRANCH  15  18
BRANCH  17  20
ATOM     20  O   UNL     1       3.016   4.756   7.877  1.00  0.00    -0.504 OA
ATOM     21  H   UNL     1       3.446   5.656   8.057  1.00  0.00     0.293 HD
ENDBRANCH  17  20
ENDBRANCH   1  12
BRANCH   6  22
ATOM     22  O   UNL     1      -5.380   7.515   4.125  1.00  0.00    -0.507 OA
ATOM     23  H   UNL     1      -4.873   7.205   3.310  1.00  0.00     0.293 HD
ENDBRANCH   6  22
BRANCH   8  24
ATOM     24  O   UNL     1      -7.658   6.469   8.202  1.00  0.00    -0.508 OA
ATOM     25  H   UNL     1      -7.793   7.125   8.962  1.00  0.00     0.293 HD
ENDBRANCH   8  24
TORSDOF 5
ENDMDL
MODEL 8
REMARK VINA RESULT:    -5.753      1.759      7.123
REMARK INTER + INTRA:          -7.025
REMARK INTER:                  -6.715
REMARK INTRA:                  -0.310
REMARK UNBOUND:                -0.264
REMARK SMILES O=c1cc(-c2ccc(O)c(O)c2)oc2cc(O)cc(O)c12
REMARK SMILES IDX 4 1 3 2 2 3 1 4 21 5 19 6 18 7 16 8 15 9 14 10 13 11 5 12
REMARK SMILES IDX 6 13 7 14 8 15 12 16 10 17 9 18 11 20 20 22 17 24
REMARK H PARENT 9 19 11 21 20 23 17 25
REMARK Flexibility Score: inf
ROOT
ATOM      1  C   UNL     1      -8.636  -2.260  -5.080  1.00  0.00     0.138 A 
ATOM      2  C   UNL     1      -9.385  -3.287  -4.489  1.00  0.00     0.100 A 
ATOM      3  C   UNL     1      -9.388  -4.558  -5.064  1.00  0.00     0.197 A 
ATOM      4  O   UNL     1     -10.119  -5.442  -4.547  1.00  0.00    -0.289 OA
ATOM      5  C   UNL     1      -8.612  -4.809  -6.221  1.00  0.00     0.107 A 
ATOM      6  C   UNL     1      -8.506  -6.075  -6.871  1.00  0.00     0.134 A 
ATOM      7  C   UNL     1      -7.800  -6.175  -8.075  1.00  0.00     0.093 A 
ATOM      8  C   UNL     1      -7.146  -5.072  -8.622  1.00  0.00     0.123 A 
ATOM      9  C   UNL     1      -7.197  -3.840  -7.967  1.00  0.00     0.094 A 
ATOM     10  C   UNL     1      -7.923  -3.700  -6.782  1.00  0.00     0.146 A 
ATOM     11  O   UNL     1      -7.959  -2.507  -6.196  1.00  0.00    -0.456 OA
ENDROOT
BRANCH   1  12
ATOM     12  C   UNL     1      -8.597  -0.890  -4.508  1.00  0.00     0.021 A 
ATOM     13  C   UNL     1      -9.655  -0.451  -3.692  1.00  0.00     0.016 A 
ATOM     14  C   UNL     1      -9.645   0.836  -3.148  1.00  0.00     0.051 A 
ATOM     15  C   UNL     1      -8.588   1.709  -3.416  1.00  0.00     0.157 A 
ATOM     16  C   UNL     1      -7.539  -0.001  -4.786  1.00  0.00     0.062 A 
ATOM     17  C   UNL     1      -7.531   1.291  -4.240  1.00  0.00     0.158 A 
BRANCH  15  18
ATOM     18  O   UNL     1      -8.605   2.987  -2.857  1.00  0.00    -0.504 OA
ATOM     19  H   UNL     1      -9.051   3.770  -3.318  1.00  0.00     0.293 HD
ENDBRANCH  15  18
BRANCH  17  20
ATOM     20  O   UNL     1      -6.478   2.162  -4.520  1.00  0.00    -0.504 OA
ATOM     21  H   UNL     1      -6.639   3.076  -4.926  1.00  0.00     0.293 HD
ENDBRANCH  17  20
ENDBRANCH   1  12
BRANCH   6  22
ATOM     22  O   UNL     1      -9.050  -7.259  -6.366  1.00  0.00    -0.507 OA
ATOM     23  H   UNL     1      -9.244  -7.436  -5.392  1.00  0.00     0.293 HD
ENDBRANCH   6  22
BRANCH   8  24
ATOM     24  O   UNL     1      -6.440  -5.212  -9.815  1.00  0.00    -0.508 OA
ATOM     25  H   UNL     1      -6.409  -6.094 -10.312  1.00  0.00     0.293 HD
ENDBRANCH   8  24
TORSDOF 5
ENDMDL
MODEL 9
REMARK VINA RESULT:    -5.746      1.713      7.059
REMARK INTER + INTRA:          -7.017
REMARK INTER:                  -6.746
REMARK INTRA:                  -0.271
REMARK UNBOUND:                -0.264
REMARK SMILES O=c1cc(-c2ccc(O)c(O)c2)oc2cc(O)cc(O)c12
REMARK SMILES IDX 4 1 3 2 2 3 1 4 21 5 19 6 18 7 16 8 15 9 14 10 13 11 5 12
REMARK SMILES IDX 6 13 7 14 8 15 12 16 10 17 9 18 11 20 20 22 17 24
REMARK H PARENT 9 19 11 21 20 23 17 25
REMARK Flexibility Score: inf
ROOT
ATOM      1  C   UNL     1      -8.018  -1.467  -5.746  1.00  0.00     0.138 A 
ATOM      2  C   UNL     1      -7.190  -1.612  -6.868  1.00  0.00     0.100 A 
ATOM      3  C   UNL     1      -7.094  -2.852  -7.500  1.00  0.00     0.197 A 
ATOM      4  O   UNL     1      -6.296  -2.967  -8.465  1.00  0.00    -0.289 OA
ATOM      5  C   UNL     1      -7.856  -3.946  -7.022  1.00  0.00     0.107 A 
ATOM      6  C   UNL     1      -7.869  -5.246  -7.610  1.00  0.00     0.134 A 
ATOM      7  C   UNL     1      -8.573  -6.280  -6.981  1.00  0.00     0.093 A 
ATOM      8  C   UNL     1      -9.311  -6.049  -5.821  1.00  0.00     0.123 A 
ATOM      9  C   UNL     1      -9.349  -4.768  -5.267  1.00  0.00     0.094 A 
ATOM     10  C   UNL     1      -8.630  -3.723  -5.852  1.00  0.00     0.146 A 
ATOM     11  O   UNL     1      -8.680  -2.522  -5.285  1.00  0.00    -0.456 OA
ENDROOT
BRANCH   1  12
ATOM     12  C   UNL     1      -8.158  -0.169  -5.038  1.00  0.00     0.021 A 
ATOM     13  C   UNL     1      -8.868   0.879  -5.650  1.00  0.00     0.016 A 
ATOM     14  C   UNL     1      -9.008   2.112  -5.008  1.00  0.00     0.051 A 
ATOM     15  C   UNL     1      -8.433   2.325  -3.752  1.00  0.00     0.157 A 
ATOM     16  C   UNL     1      -7.570   0.054  -3.778  1.00  0.00     0.062 A 
ATOM     17  C   UNL     1      -7.708   1.293  -3.134  1.00  0.00     0.158 A 
BRANCH  15  18
ATOM     18  O   UNL     1      -8.591   3.566  -3.135  1.00  0.00    -0.504 OA
ATOM     19  H   UNL     1      -9.497   3.905  -2.833  1.00  0.00     0.293 HD
ENDBRANCH  15  18
BRANCH  17  20
ATOM     20  O   UNL     1      -7.124   1.503  -1.885  1.00  0.00    -0.504 OA
ATOM     21  H   UNL     1      -7.355   0.923  -1.087  1.00  0.00     0.293 HD
ENDBRANCH  17  20
ENDBRANCH   1  12
BRANCH   6  22
ATOM     22  O   UNL     1      -7.235  -5.565  -8.814  1.00  0.00    -0.507 OA
ATOM     23  H   UNL     1      -6.657  -4.933  -9.347  1.00  0.00     0.293 HD
ENDBRANCH   6  22
BRANCH   8  24
ATOM     24  O   UNL     1     -10.011  -7.099  -5.231  1.00  0.00    -0.508 OA
ATOM     25  H   UNL     1      -9.727  -8.063  -5.357  1.00  0.00     0.293 HD
ENDBRANCH   8  24
TORSDOF 5
ENDMDL
