MODEL 1
REMARK VINA RESULT:    -5.389      0.000      0.000
REMARK INTER + INTRA:         -12.807
REMARK INTER:                 -10.114
REMARK INTRA:                  -2.693
REMARK UNBOUND:                -2.693
REMARK SMILES CCCCCCCCC=CCCCCCCCC(=O)[O-]
REMARK SMILES IDX 10 1 9 2 11 3 12 4 13 5 14 6 15 7 16 8 17 9 18 10 19 11
REMARK SMILES IDX 20 12 8 13 7 14 6 15 5 16 4 17 3 18 2 19 1 20
REMARK H PARENT
REMARK Flexibility Score: inf
ROOT
ATOM      1  C   UNL     1       8.874  49.751  22.654  1.00  0.00    -0.031 C 
ATOM      2  C   UNL     1       9.460  49.274  23.761  1.00  0.00    -0.031 C 
ENDROOT
BRANCH   1   3
ATOM      3  C   UNL     1       8.360  51.163  22.575  1.00  0.00     0.027 C 
BRANCH   3   4
ATOM      4  C   UNL     1       8.343  51.706  21.137  1.00  0.00     0.004 C 
BRANCH   4   5
ATOM      5  C   UNL     1       7.219  51.087  20.294  1.00  0.00     0.000 C 
BRANCH   5   6
ATOM      6  C   UNL     1       7.794  50.174  19.200  1.00  0.00     0.000 C 
BRANCH   6   7
ATOM      7  C   UNL     1       7.330  48.713  19.334  1.00  0.00     0.000 C 
BRANCH   7   8
ATOM      8  C   UNL     1       8.403  47.735  19.856  1.00  0.00     0.006 C 
BRANCH   8   9
ATOM      9  C   UNL     1       8.599  46.481  18.990  1.00  0.00     0.053 C 
BRANCH   9  10
ATOM     10  C   UNL     1       8.817  46.824  17.548  1.00  0.00     0.041 C 
ATOM     11  O   UNL     1       9.815  47.512  17.203  1.00  0.00    -0.550 OA
ATOM     12  O   UNL     1       7.908  46.398  16.585  1.00  0.00    -0.550 OA
ENDBRANCH   9  10
ENDBRANCH   8   9
ENDBRANCH   7   8
ENDBRANCH   6   7
ENDBRANCH   5   6
ENDBRANCH   4   5
ENDBRANCH   3   4
ENDBRANCH   1   3
BRANCH   2  13
ATOM     13  C   UNL     1       9.956  47.853  23.814  1.00  0.00     0.027 C 
BRANCH  13  14
ATOM     14  C   UNL     1       9.480  47.115  25.074  1.00  0.00     0.004 C 
BRANCH  14  15
ATOM     15  C   UNL     1       8.666  45.855  24.730  1.00  0.00     0.000 C 
BRANCH  15  16
ATOM     16  C   UNL     1       8.366  45.731  23.228  1.00  0.00     0.000 C 
BRANCH  16  17
ATOM     17  C   UNL     1       6.859  45.747  22.923  1.00  0.00    -0.000 C 
BRANCH  17  18
ATOM     18  C   UNL     1       6.285  47.172  22.825  1.00  0.00    -0.000 C 
BRANCH  18  19
ATOM     19  C   UNL     1       5.408  47.602  24.015  1.00  0.00    -0.003 C 
ATOM     20  C   UNL     1       5.927  48.852  24.722  1.00  0.00     0.004 C 
ENDBRANCH  18  19
ENDBRANCH  17  18
ENDBRANCH  16  17
ENDBRANCH  15  16
ENDBRANCH  14  15
ENDBRANCH  13  14
ENDBRANCH   2  13
TORSDOF 15
ENDMDL
MODEL 2
REMARK VINA RESULT:    -5.346      2.183      3.499
REMARK INTER + INTRA:         -12.726
REMARK INTER:                 -10.374
REMARK INTRA:                  -2.352
REMARK UNBOUND:                -2.693
REMARK SMILES CCCCCCCCC=CCCCCCCCC(=O)[O-]
REMARK SMILES IDX 10 1 9 2 11 3 12 4 13 5 14 6 15 7 16 8 17 9 18 10 19 11
REMARK SMILES IDX 20 12 8 13 7 14 6 15 5 16 4 17 3 18 2 19 1 20
REMARK H PARENT
REMARK Flexibility Score: inf
ROOT
ATOM      1  C   UNL     1       6.926  48.995  24.319  1.00  0.00    -0.031 C 
ATOM      2  C   UNL     1       5.772  48.337  24.497  1.00  0.00    -0.031 C 
ENDROOT
BRANCH   1   3
ATOM      3  C   UNL     1       7.292  49.608  22.994  1.00  0.00     0.027 C 
BRANCH   3   4
ATOM      4  C   UNL     1       7.939  50.994  23.142  1.00  0.00     0.004 C 
BRANCH   4   5
ATOM      5  C   UNL     1       8.490  51.525  21.811  1.00  0.00     0.000 C 
BRANCH   5   6
ATOM      6  C   UNL     1       7.637  51.036  20.631  1.00  0.00     0.000 C 
BRANCH   6   7
ATOM      7  C   UNL     1       8.449  50.244  19.591  1.00  0.00     0.000 C 
BRANCH   7   8
ATOM      8  C   UNL     1       9.975  50.240  19.822  1.00  0.00     0.006 C 
BRANCH   8   9
ATOM      9  C   UNL     1      10.640  48.864  19.669  1.00  0.00     0.053 C 
BRANCH   9  10
ATOM     10  C   UNL     1      10.580  48.068  20.937  1.00  0.00     0.041 C 
ATOM     11  O   UNL     1      10.534  46.810  20.894  1.00  0.00    -0.550 OA
ATOM     12  O   UNL     1      10.557  48.717  22.166  1.00  0.00    -0.550 OA
ENDBRANCH   9  10
ENDBRANCH   8   9
ENDBRANCH   7   8
ENDBRANCH   6   7
ENDBRANCH   5   6
ENDBRANCH   4   5
ENDBRANCH   3   4
ENDBRANCH   1   3
BRANCH   2  13
ATOM     13  C   UNL     1       5.436  47.727  25.833  1.00  0.00     0.027 C 
BRANCH  13  14
ATOM     14  C   UNL     1       5.065  46.242  25.719  1.00  0.00     0.004 C 
BRANCH  14  15
ATOM     15  C   UNL     1       4.570  45.878  24.307  1.00  0.00     0.000 C 
BRANCH  15  16
ATOM     16  C   UNL     1       5.381  44.739  23.669  1.00  0.00     0.000 C 
BRANCH  16  17
ATOM     17  C   UNL     1       6.404  45.247  22.639  1.00  0.00    -0.000 C 
BRANCH  17  18
ATOM     18  C   UNL     1       7.855  44.895  23.016  1.00  0.00    -0.000 C 
BRANCH  18  19
ATOM     19  C   UNL     1       8.648  46.036  23.679  1.00  0.00    -0.003 C 
ATOM     20  C   UNL     1       8.730  45.905  25.199  1.00  0.00     0.004 C 
ENDBRANCH  18  19
ENDBRANCH  17  18
ENDBRANCH  16  17
ENDBRANCH  15  16
ENDBRANCH  14  15
ENDBRANCH  13  14
ENDBRANCH   2  13
TORSDOF 15
ENDMDL
MODEL 3
REMARK VINA RESULT:    -5.332      2.972      5.691
REMARK INTER + INTRA:         -12.700
REMARK INTER:                 -10.262
REMARK INTRA:                  -2.438
REMARK UNBOUND:                -2.693
REMARK SMILES CCCCCCCCC=CCCCCCCCC(=O)[O-]
REMARK SMILES IDX 10 1 9 2 11 3 12 4 13 5 14 6 15 7 16 8 17 9 18 10 19 11
REMARK SMILES IDX 20 12 8 13 7 14 6 15 5 16 4 17 3 18 2 19 1 20
REMARK H PARENT
REMARK Flexibility Score: inf
ROOT
ATOM      1  C   UNL     1       6.716  47.005  24.360  1.00  0.00    -0.031 C 
ATOM      2  C   UNL     1       6.628  48.310  24.064  1.00  0.00    -0.031 C 
ENDROOT
BRANCH   1   3
ATOM      3  C   UNL     1       5.698  46.011  23.869  1.00  0.00     0.027 C 
BRANCH   3   4
ATOM      4  C   UNL     1       6.309  44.948  22.942  1.00  0.00     0.004 C 
BRANCH   4   5
ATOM      5  C   UNL     1       7.843  45.006  22.921  1.00  0.00     0.000 C 
BRANCH   5   6
ATOM      6  C   UNL     1       8.364  45.188  21.487  1.00  0.00     0.000 C 
BRANCH   6   7
ATOM      7  C   UNL     1       9.137  46.505  21.292  1.00  0.00     0.000 C 
BRANCH   7   8
ATOM      8  C   UNL     1       9.840  47.040  22.557  1.00  0.00     0.006 C 
BRANCH   8   9
ATOM      9  C   UNL     1      11.081  47.902  22.280  1.00  0.00     0.053 C 
BRANCH   9  10
ATOM     10  C   UNL     1      11.950  48.039  23.493  1.00  0.00     0.041 C 
ATOM     11  O   UNL     1      11.447  48.377  24.598  1.00  0.00    -0.550 OA
ATOM     12  O   UNL     1      13.318  47.810  23.400  1.00  0.00    -0.550 OA
ENDBRANCH   9  10
ENDBRANCH   8   9
ENDBRANCH   7   8
ENDBRANCH   6   7
ENDBRANCH   5   6
ENDBRANCH   4   5
ENDBRANCH   3   4
ENDBRANCH   1   3
BRANCH   2  13
ATOM     13  C   UNL     1       7.657  49.282  24.576  1.00  0.00     0.027 C 
BRANCH  13  14
ATOM     14  C   UNL     1       7.656  50.601  23.789  1.00  0.00     0.004 C 
BRANCH  14  15
ATOM     15  C   UNL     1       8.689  50.590  22.647  1.00  0.00     0.000 C 
BRANCH  15  16
ATOM     16  C   UNL     1       8.412  51.666  21.585  1.00  0.00     0.000 C 
BRANCH  16  17
ATOM     17  C   UNL     1       7.533  51.148  20.434  1.00  0.00    -0.000 C 
BRANCH  17  18
ATOM     18  C   UNL     1       7.925  49.732  19.975  1.00  0.00    -0.000 C 
BRANCH  18  19
ATOM     19  C   UNL     1       8.918  49.681  18.800  1.00  0.00    -0.003 C 
ATOM     20  C   UNL     1      10.379  49.704  19.247  1.00  0.00     0.004 C 
ENDBRANCH  18  19
ENDBRANCH  17  18
ENDBRANCH  16  17
ENDBRANCH  15  16
ENDBRANCH  14  15
ENDBRANCH  13  14
ENDBRANCH   2  13
TORSDOF 15
ENDMDL
MODEL 4
REMARK VINA RESULT:    -5.279      1.069      2.735
REMARK INTER + INTRA:         -12.601
REMARK INTER:                  -9.950
REMARK INTRA:                  -2.651
REMARK UNBOUND:                -2.693
REMARK SMILES CCCCCCCCC=CCCCCCCCC(=O)[O-]
REMARK SMILES IDX 10 1 9 2 11 3 12 4 13 5 14 6 15 7 16 8 17 9 18 10 19 11
REMARK SMILES IDX 20 12 8 13 7 14 6 15 5 16 4 17 3 18 2 19 1 20
REMARK H PARENT
REMARK Flexibility Score: inf
ROOT
ATOM      1  C   UNL     1       6.917  49.252  22.942  1.00  0.00    -0.031 C 
ATOM      2  C   UNL     1       6.137  48.450  23.681  1.00  0.00    -0.031 C 
ENDROOT
BRANCH   1   3
ATOM      3  C   UNL     1       7.690  50.389  23.554  1.00  0.00     0.027 C 
BRANCH   3   4
ATOM      4  C   UNL     1       8.379  51.270  22.500  1.00  0.00     0.004 C 
BRANCH   4   5
ATOM      5  C   UNL     1       7.923  50.936  21.073  1.00  0.00     0.000 C 
BRANCH   5   6
ATOM      6  C   UNL     1       9.035  50.214  20.297  1.00  0.00     0.000 C 
BRANCH   6   7
ATOM      7  C   UNL     1       8.496  49.147  19.329  1.00  0.00     0.000 C 
BRANCH   7   8
ATOM      8  C   UNL     1       8.200  47.776  19.971  1.00  0.00     0.006 C 
BRANCH   8   9
ATOM      9  C   UNL     1       8.676  46.569  19.148  1.00  0.00     0.053 C 
BRANCH   9  10
ATOM     10  C   UNL     1       8.550  46.810  17.675  1.00  0.00     0.041 C 
ATOM     11  O   UNL     1       9.579  47.009  16.975  1.00  0.00    -0.550 OA
ATOM     12  O   UNL     1       7.295  46.834  17.078  1.00  0.00    -0.550 OA
ENDBRANCH   9  10
ENDBRANCH   8   9
ENDBRANCH   7   8
ENDBRANCH   6   7
ENDBRANCH   5   6
ENDBRANCH   4   5
ENDBRANCH   3   4
ENDBRANCH   1   3
BRANCH   2  13
ATOM     13  C   UNL     1       5.368  47.325  23.039  1.00  0.00     0.027 C 
BRANCH  13  14
ATOM     14  C   UNL     1       5.680  45.965  23.681  1.00  0.00     0.004 C 
BRANCH  14  15
ATOM     15  C   UNL     1       6.588  45.101  22.788  1.00  0.00     0.000 C 
BRANCH  15  16
ATOM     16  C   UNL     1       8.016  44.972  23.341  1.00  0.00     0.000 C 
BRANCH  16  17
ATOM     17  C   UNL     1       8.915  46.153  22.939  1.00  0.00    -0.000 C 
BRANCH  17  18
ATOM     18  C   UNL     1       9.509  46.890  24.152  1.00  0.00    -0.000 C 
BRANCH  18  19
ATOM     19  C   UNL     1      10.372  48.118  23.808  1.00  0.00    -0.003 C 
ATOM     20  C   UNL     1      11.062  48.005  22.450  1.00  0.00     0.004 C 
ENDBRANCH  18  19
ENDBRANCH  17  18
ENDBRANCH  16  17
ENDBRANCH  15  16
ENDBRANCH  14  15
ENDBRANCH  13  14
ENDBRANCH   2  13
TORSDOF 15
ENDMDL
MODEL 5
REMARK VINA RESULT:    -5.262      1.434      3.459
REMARK INTER + INTRA:         -12.569
REMARK INTER:                  -9.861
REMARK INTRA:                  -2.709
REMARK UNBOUND:                -2.693
REMARK SMILES CCCCCCCCC=CCCCCCCCC(=O)[O-]
REMARK SMILES IDX 10 1 9 2 11 3 12 4 13 5 14 6 15 7 16 8 17 9 18 10 19 11
REMARK SMILES IDX 20 12 8 13 7 14 6 15 5 16 4 17 3 18 2 19 1 20
REMARK H PARENT
REMARK Flexibility Score: inf
ROOT
ATOM      1  C   UNL     1       5.886  48.342  24.844  1.00  0.00    -0.031 C 
ATOM      2  C   UNL     1       5.567  47.360  25.698  1.00  0.00    -0.031 C 
ENDROOT
BRANCH   1   3
ATOM      3  C   UNL     1       6.333  49.696  25.324  1.00  0.00     0.027 C 
BRANCH   3   4
ATOM      4  C   UNL     1       7.518  50.249  24.517  1.00  0.00     0.004 C 
BRANCH   4   5
ATOM      5  C   UNL     1       7.490  49.790  23.052  1.00  0.00     0.000 C 
BRANCH   5   6
ATOM      6  C   UNL     1       8.801  50.155  22.339  1.00  0.00     0.000 C 
BRANCH   6   7
ATOM      7  C   UNL     1       8.582  51.040  21.098  1.00  0.00     0.000 C 
BRANCH   7   8
ATOM      8  C   UNL     1       8.506  50.276  19.760  1.00  0.00     0.006 C 
BRANCH   8   9
ATOM      9  C   UNL     1       9.823  49.616  19.326  1.00  0.00     0.053 C 
BRANCH   9  10
ATOM     10  C   UNL     1       9.654  48.152  19.057  1.00  0.00     0.041 C 
ATOM     11  O   UNL     1       9.928  47.307  19.951  1.00  0.00    -0.550 OA
ATOM     12  O   UNL     1       9.211  47.719  17.812  1.00  0.00    -0.550 OA
ENDBRANCH   9  10
ENDBRANCH   8   9
ENDBRANCH   7   8
ENDBRANCH   6   7
ENDBRANCH   5   6
ENDBRANCH   4   5
ENDBRANCH   3   4
ENDBRANCH   1   3
BRANCH   2  13
ATOM     13  C   UNL     1       5.116  46.016  25.188  1.00  0.00     0.027 C 
BRANCH  13  14
ATOM     14  C   UNL     1       5.034  45.973  23.655  1.00  0.00     0.004 C 
BRANCH  14  15
ATOM     15  C   UNL     1       5.580  44.651  23.086  1.00  0.00     0.000 C 
BRANCH  15  16
ATOM     16  C   UNL     1       7.115  44.625  23.012  1.00  0.00     0.000 C 
BRANCH  16  17
ATOM     17  C   UNL     1       7.701  45.921  22.429  1.00  0.00    -0.000 C 
BRANCH  17  18
ATOM     18  C   UNL     1       8.887  46.462  23.249  1.00  0.00    -0.000 C 
BRANCH  18  19
ATOM     19  C   UNL     1       8.858  46.103  24.746  1.00  0.00    -0.003 C 
ATOM     20  C   UNL     1       9.453  47.193  25.635  1.00  0.00     0.004 C 
ENDBRANCH  18  19
ENDBRANCH  17  18
ENDBRANCH  16  17
ENDBRANCH  15  16
ENDBRANCH  14  15
ENDBRANCH  13  14
ENDBRANCH   2  13
TORSDOF 15
ENDMDL
MODEL 6
REMARK VINA RESULT:    -5.261      3.728      6.236
REMARK INTER + INTRA:         -12.568
REMARK INTER:                  -9.570
REMARK INTRA:                  -2.998
REMARK UNBOUND:                -2.693
REMARK SMILES CCCCCCCCC=CCCCCCCCC(=O)[O-]
REMARK SMILES IDX 10 1 9 2 11 3 12 4 13 5 14 6 15 7 16 8 17 9 18 10 19 11
REMARK SMILES IDX 20 12 8 13 7 14 6 15 5 16 4 17 3 18 2 19 1 20
REMARK H PARENT
REMARK Flexibility Score: inf
ROOT
ATOM      1  C   UNL     1      10.072  48.001  24.395  1.00  0.00    -0.031 C 
ATOM      2  C   UNL     1      10.265  47.516  23.160  1.00  0.00    -0.031 C 
ENDROOT
BRANCH   1   3
ATOM      3  C   UNL     1       9.330  47.219  25.446  1.00  0.00     0.027 C 
BRANCH   3   4
ATOM      4  C   UNL     1       8.633  45.974  24.875  1.00  0.00     0.004 C 
BRANCH   4   5
ATOM      5  C   UNL     1       7.111  46.155  24.772  1.00  0.00     0.000 C 
BRANCH   5   6
ATOM      6  C   UNL     1       6.719  46.736  23.406  1.00  0.00     0.000 C 
BRANCH   6   7
ATOM      7  C   UNL     1       6.118  48.149  23.505  1.00  0.00     0.000 C 
BRANCH   7   8
ATOM      8  C   UNL     1       5.791  48.618  24.938  1.00  0.00     0.006 C 
BRANCH   8   9
ATOM      9  C   UNL     1       6.647  49.793  25.436  1.00  0.00     0.053 C 
BRANCH   9  10
ATOM     10  C   UNL     1       6.604  49.924  26.928  1.00  0.00     0.041 C 
ATOM     11  O   UNL     1       5.665  50.555  27.482  1.00  0.00    -0.550 OA
ATOM     12  O   UNL     1       7.611  49.365  27.706  1.00  0.00    -0.550 OA
ENDBRANCH   9  10
ENDBRANCH   8   9
ENDBRANCH   7   8
ENDBRANCH   6   7
ENDBRANCH   5   6
ENDBRANCH   4   5
ENDBRANCH   3   4
ENDBRANCH   1   3
BRANCH   2  13
ATOM     13  C   UNL     1      11.005  48.325  22.127  1.00  0.00     0.027 C 
BRANCH  13  14
ATOM     14  C   UNL     1      10.402  48.168  20.723  1.00  0.00     0.004 C 
BRANCH  14  15
ATOM     15  C   UNL     1       9.259  47.138  20.698  1.00  0.00     0.000 C 
BRANCH  15  16
ATOM     16  C   UNL     1       7.976  47.688  20.055  1.00  0.00     0.000 C 
BRANCH  16  17
ATOM     17  C   UNL     1       8.111  49.162  19.634  1.00  0.00    -0.000 C 
BRANCH  17  18
ATOM     18  C   UNL     1       7.365  50.123  20.578  1.00  0.00    -0.000 C 
BRANCH  18  19
ATOM     19  C   UNL     1       8.200  51.312  21.086  1.00  0.00    -0.003 C 
ATOM     20  C   UNL     1       8.465  51.260  22.590  1.00  0.00     0.004 C 
ENDBRANCH  18  19
ENDBRANCH  17  18
ENDBRANCH  16  17
ENDBRANCH  15  16
ENDBRANCH  14  15
ENDBRANCH  13  14
ENDBRANCH   2  13
TORSDOF 15
ENDMDL
MODEL 7
REMARK VINA RESULT:    -5.249      2.690      4.800
REMARK INTER + INTRA:         -12.544
REMARK INTER:                  -9.856
REMARK INTRA:                  -2.688
REMARK UNBOUND:                -2.693
REMARK SMILES CCCCCCCCC=CCCCCCCCC(=O)[O-]
REMARK SMILES IDX 10 1 9 2 11 3 12 4 13 5 14 6 15 7 16 8 17 9 18 10 19 11
REMARK SMILES IDX 20 12 8 13 7 14 6 15 5 16 4 17 3 18 2 19 1 20
REMARK H PARENT
REMARK Flexibility Score: inf
ROOT
ATOM      1  C   UNL     1       8.227  50.683  21.283  1.00  0.00    -0.031 C 
ATOM      2  C   UNL     1       9.279  50.505  20.473  1.00  0.00    -0.031 C 
ENDROOT
BRANCH   1   3
ATOM      3  C   UNL     1       8.360  51.367  22.618  1.00  0.00     0.027 C 
BRANCH   3   4
ATOM      4  C   UNL     1       7.641  50.609  23.745  1.00  0.00     0.004 C 
BRANCH   4   5
ATOM      5  C   UNL     1       7.800  49.087  23.618  1.00  0.00     0.000 C 
BRANCH   5   6
ATOM      6  C   UNL     1       8.664  48.530  24.759  1.00  0.00     0.000 C 
BRANCH   6   7
ATOM      7  C   UNL     1       9.914  47.785  24.256  1.00  0.00     0.000 C 
BRANCH   7   8
ATOM      8  C   UNL     1      10.774  48.569  23.243  1.00  0.00     0.006 C 
BRANCH   8   9
ATOM      9  C   UNL     1      11.647  47.691  22.333  1.00  0.00     0.053 C 
BRANCH   9  10
ATOM     10  C   UNL     1      13.094  47.751  22.715  1.00  0.00     0.041 C 
ATOM     11  O   UNL     1      13.429  48.118  23.874  1.00  0.00    -0.550 OA
ATOM     12  O   UNL     1      14.075  47.420  21.787  1.00  0.00    -0.550 OA
ENDBRANCH   9  10
ENDBRANCH   8   9
ENDBRANCH   7   8
ENDBRANCH   6   7
ENDBRANCH   5   6
ENDBRANCH   4   5
ENDBRANCH   3   4
ENDBRANCH   1   3
BRANCH   2  13
ATOM     13  C   UNL     1       9.116  49.810  19.147  1.00  0.00     0.027 C 
BRANCH  13  14
ATOM     14  C   UNL     1      10.014  48.570  19.024  1.00  0.00     0.004 C 
BRANCH  14  15
ATOM     15  C   UNL     1       9.202  47.264  19.071  1.00  0.00     0.000 C 
BRANCH  15  16
ATOM     16  C   UNL     1       8.516  47.039  20.428  1.00  0.00     0.000 C 
BRANCH  16  17
ATOM     17  C   UNL     1       8.443  45.552  20.815  1.00  0.00    -0.000 C 
BRANCH  17  18
ATOM     18  C   UNL     1       8.271  45.338  22.330  1.00  0.00    -0.000 C 
BRANCH  18  19
ATOM     19  C   UNL     1       6.879  44.840  22.761  1.00  0.00    -0.003 C 
ATOM     20  C   UNL     1       6.204  45.753  23.782  1.00  0.00     0.004 C 
ENDBRANCH  18  19
ENDBRANCH  17  18
ENDBRANCH  16  17
ENDBRANCH  15  16
ENDBRANCH  14  15
ENDBRANCH  13  14
ENDBRANCH   2  13
TORSDOF 15
ENDMDL
MODEL 8
REMARK VINA RESULT:    -5.234      3.385      6.198
REMARK INTER + INTRA:         -12.516
REMARK INTER:                  -9.603
REMARK INTRA:                  -2.913
REMARK UNBOUND:                -2.693
REMARK SMILES CCCCCCCCC=CCCCCCCCC(=O)[O-]
REMARK SMILES IDX 10 1 9 2 11 3 12 4 13 5 14 6 15 7 16 8 17 9 18 10 19 11
REMARK SMILES IDX 20 12 8 13 7 14 6 15 5 16 4 17 3 18 2 19 1 20
REMARK H PARENT
REMARK Flexibility Score: inf
ROOT
ATOM      1  C   UNL     1       9.415  48.939  23.396  1.00  0.00    -0.031 C 
ATOM      2  C   UNL     1       8.239  49.418  23.824  1.00  0.00    -0.031 C 
ENDROOT
BRANCH   1   3
ATOM      3  C   UNL     1      10.052  47.726  24.021  1.00  0.00     0.027 C 
BRANCH   3   4
ATOM      4  C   UNL     1       9.245  47.181  25.210  1.00  0.00     0.004 C 
BRANCH   4   5
ATOM      5  C   UNL     1       8.715  45.763  24.954  1.00  0.00     0.000 C 
BRANCH   5   6
ATOM      6  C   UNL     1       8.239  45.610  23.502  1.00  0.00     0.000 C 
BRANCH   6   7
ATOM      7  C   UNL     1       6.716  45.420  23.388  1.00  0.00     0.000 C 
BRANCH   7   8
ATOM      8  C   UNL     1       5.886  46.712  23.527  1.00  0.00     0.006 C 
BRANCH   8   9
ATOM      9  C   UNL     1       4.749  46.634  24.558  1.00  0.00     0.053 C 
BRANCH   9  10
ATOM     10  C   UNL     1       5.233  46.919  25.948  1.00  0.00     0.041 C 
ATOM     11  O   UNL     1       4.987  46.111  26.883  1.00  0.00    -0.550 OA
ATOM     12  O   UNL     1       5.939  48.087  26.214  1.00  0.00    -0.550 OA
ENDBRANCH   9  10
ENDBRANCH   8   9
ENDBRANCH   7   8
ENDBRANCH   6   7
ENDBRANCH   5   6
ENDBRANCH   4   5
ENDBRANCH   3   4
ENDBRANCH   1   3
BRANCH   2  13
ATOM     13  C   UNL     1       7.631  50.638  23.185  1.00  0.00     0.027 C 
BRANCH  13  14
ATOM     14  C   UNL     1       8.658  51.450  22.383  1.00  0.00     0.004 C 
BRANCH  14  15
ATOM     15  C   UNL     1       8.375  51.403  20.870  1.00  0.00     0.000 C 
BRANCH  15  16
ATOM     16  C   UNL     1       9.465  50.656  20.085  1.00  0.00     0.000 C 
BRANCH  16  17
ATOM     17  C   UNL     1       8.888  49.585  19.144  1.00  0.00    -0.000 C 
BRANCH  17  18
ATOM     18  C   UNL     1       7.615  48.924  19.703  1.00  0.00    -0.000 C 
BRANCH  18  19
ATOM     19  C   UNL     1       7.852  47.626  20.497  1.00  0.00    -0.003 C 
ATOM     20  C   UNL     1       9.158  46.927  20.127  1.00  0.00     0.004 C 
ENDBRANCH  18  19
ENDBRANCH  17  18
ENDBRANCH  16  17
ENDBRANCH  15  16
ENDBRANCH  14  15
ENDBRANCH  13  14
ENDBRANCH   2  13
TORSDOF 15
ENDMDL
MODEL 9
REMARK VINA RESULT:    -5.231      1.517      2.897
REMARK INTER + INTRA:         -12.510
REMARK INTER:                  -9.508
REMARK INTRA:                  -3.002
REMARK UNBOUND:                -2.693
REMARK SMILES CCCCCCCCC=CCCCCCCCC(=O)[O-]
REMARK SMILES IDX 10 1 9 2 11 3 12 4 13 5 14 6 15 7 16 8 17 9 18 10 19 11
REMARK SMILES IDX 20 12 8 13 7 14 6 15 5 16 4 17 3 18 2 19 1 20
REMARK H PARENT
REMARK Flexibility Score: inf
ROOT
ATOM      1  C   UNL     1       7.585  49.591  22.942  1.00  0.00    -0.031 C 
ATOM      2  C   UNL     1       7.006  49.574  24.150  1.00  0.00    -0.031 C 
ENDROOT
BRANCH   1   3
ATOM      3  C   UNL     1       8.734  50.511  22.626  1.00  0.00     0.027 C 
BRANCH   3   4
ATOM      4  C   UNL     1       8.445  51.429  21.428  1.00  0.00     0.004 C 
BRANCH   4   5
ATOM      5  C   UNL     1       7.275  50.919  20.573  1.00  0.00     0.000 C 
BRANCH   5   6
ATOM      6  C   UNL     1       7.773  50.408  19.213  1.00  0.00     0.000 C 
BRANCH   6   7
ATOM      7  C   UNL     1       7.363  48.951  18.934  1.00  0.00     0.000 C 
BRANCH   7   8
ATOM      8  C   UNL     1       8.537  47.958  18.807  1.00  0.00     0.006 C 
BRANCH   8   9
ATOM      9  C   UNL     1       9.223  47.606  20.136  1.00  0.00     0.053 C 
BRANCH   9  10
ATOM     10  C   UNL     1      10.584  48.223  20.245  1.00  0.00     0.041 C 
ATOM     11  O   UNL     1      11.274  48.055  21.286  1.00  0.00    -0.550 OA
ATOM     12  O   UNL     1      11.082  48.999  19.205  1.00  0.00    -0.550 OA
ENDBRANCH   9  10
ENDBRANCH   8   9
ENDBRANCH   7   8
ENDBRANCH   6   7
ENDBRANCH   5   6
ENDBRANCH   4   5
ENDBRANCH   3   4
ENDBRANCH   1   3
BRANCH   2  13
ATOM     13  C   UNL     1       5.853  48.648  24.434  1.00  0.00     0.027 C 
BRANCH  13  14
ATOM     14  C   UNL     1       5.651  47.610  23.320  1.00  0.00     0.004 C 
BRANCH  14  15
ATOM     15  C   UNL     1       6.182  46.222  23.723  1.00  0.00     0.000 C 
BRANCH  15  16
ATOM     16  C   UNL     1       7.311  45.729  22.805  1.00  0.00     0.000 C 
BRANCH  16  17
ATOM     17  C   UNL     1       8.708  45.986  23.395  1.00  0.00    -0.000 C 
BRANCH  17  18
ATOM     18  C   UNL     1       8.720  45.957  24.934  1.00  0.00    -0.000 C 
BRANCH  18  19
ATOM     19  C   UNL     1       9.320  47.207  25.603  1.00  0.00    -0.003 C 
ATOM     20  C   UNL     1      10.445  47.842  24.788  1.00  0.00     0.004 C 
ENDBRANCH  18  19
ENDBRANCH  17  18
ENDBRANCH  16  17
ENDBRANCH  15  16
ENDBRANCH  14  15
ENDBRANCH  13  14
ENDBRANCH   2  13
TORSDOF 15
ENDMDL
