MODEL 1
REMARK VINA RESULT:    -3.834      0.000      0.000
REMARK INTER + INTRA:          -7.619
REMARK INTER:                  -6.075
REMARK INTRA:                  -1.543
REMARK UNBOUND:                -1.543
REMARK SMILES CCCCCCCCCCCC(=O)[O-]
REMARK SMILES IDX 7 1 8 2 9 3 10 4 11 5 12 6 13 7 14 8 6 9 5 10 4 11 3 12 2 13
REMARK SMILES IDX 1 14
REMARK H PARENT
REMARK Flexibility Score: inf
ROOT
ATOM      1  C   UNL     1      -1.874  -8.186 -14.568  1.00  0.00     0.000 C 
ENDROOT
BRANCH   1   2
ATOM      2  C   UNL     1      -2.218  -9.655 -14.860  1.00  0.00     0.000 C 
BRANCH   2   3
ATOM      3  C   UNL     1      -3.730  -9.888 -15.018  1.00  0.00     0.000 C 
BRANCH   3   4
ATOM      4  C   UNL     1      -4.558  -8.615 -14.762  1.00  0.00     0.006 C 
BRANCH   4   5
ATOM      5  C   UNL     1      -6.056  -8.756 -15.080  1.00  0.00     0.053 C 
BRANCH   5   6
ATOM      6  C   UNL     1      -6.637 -10.007 -14.497  1.00  0.00     0.041 C 
ATOM      7  O   UNL     1      -7.050 -10.926 -15.252  1.00  0.00    -0.550 OA
ATOM      8  O   UNL     1      -6.693 -10.171 -13.118  1.00  0.00    -0.550 OA
ENDBRANCH   5   6
ENDBRANCH   4   5
ENDBRANCH   3   4
ENDBRANCH   2   3
ENDBRANCH   1   2
BRANCH   1   9
ATOM      9  C   UNL     1      -1.010  -7.550 -15.672  1.00  0.00     0.000 C 
BRANCH   9  10
ATOM     10  C   UNL     1      -1.641  -7.689 -17.067  1.00  0.00    -0.000 C 
BRANCH  10  11
ATOM     11  C   UNL     1      -2.722  -6.628 -17.335  1.00  0.00    -0.000 C 
BRANCH  11  12
ATOM     12  C   UNL     1      -3.940  -7.192 -18.089  1.00  0.00    -0.000 C 
BRANCH  12  13
ATOM     13  C   UNL     1      -3.697  -8.531 -18.809  1.00  0.00    -0.003 C 
ATOM     14  C   UNL     1      -4.809  -9.551 -18.566  1.00  0.00     0.004 C 
ENDBRANCH  12  13
ENDBRANCH  11  12
ENDBRANCH  10  11
ENDBRANCH   9  10
ENDBRANCH   1   9
TORSDOF 10
ENDMDL
MODEL 2
REMARK VINA RESULT:    -3.815      3.288      5.196
REMARK INTER + INTRA:          -7.589
REMARK INTER:                  -6.117
REMARK INTRA:                  -1.473
REMARK UNBOUND:                -1.543
REMARK SMILES CCCCCCCCCCCC(=O)[O-]
REMARK SMILES IDX 7 1 8 2 9 3 10 4 11 5 12 6 13 7 14 8 6 9 5 10 4 11 3 12 2 13
REMARK SMILES IDX 1 14
REMARK H PARENT
REMARK Flexibility Score: inf
ROOT
ATOM      1  C   UNL     1      -5.940  -8.804 -14.389  1.00  0.00     0.000 C 
ENDROOT
BRANCH   1   2
ATOM      2  C   UNL     1      -4.789  -8.094 -15.121  1.00  0.00     0.000 C 
BRANCH   2   3
ATOM      3  C   UNL     1      -5.264  -7.334 -16.371  1.00  0.00     0.000 C 
BRANCH   3   4
ATOM      4  C   UNL     1      -4.096  -6.845 -17.249  1.00  0.00     0.006 C 
BRANCH   4   5
ATOM      5  C   UNL     1      -4.127  -7.367 -18.695  1.00  0.00     0.053 C 
BRANCH   5   6
ATOM      6  C   UNL     1      -2.750  -7.547 -19.256  1.00  0.00     0.041 C 
ATOM      7  O   UNL     1      -1.813  -7.955 -18.521  1.00  0.00    -0.550 OA
ATOM      8  O   UNL     1      -2.509  -7.293 -20.601  1.00  0.00    -0.550 OA
ENDBRANCH   5   6
ENDBRANCH   4   5
ENDBRANCH   3   4
ENDBRANCH   2   3
ENDBRANCH   1   2
BRANCH   1   9
ATOM      9  C   UNL     1      -5.712 -10.321 -14.260  1.00  0.00     0.000 C 
BRANCH   9  10
ATOM     10  C   UNL     1      -6.610 -11.135 -15.206  1.00  0.00    -0.000 C 
BRANCH  10  11
ATOM     11  C   UNL     1      -5.814 -11.827 -16.326  1.00  0.00    -0.000 C 
BRANCH  11  12
ATOM     12  C   UNL     1      -5.446 -10.873 -17.477  1.00  0.00    -0.000 C 
BRANCH  12  13
ATOM     13  C   UNL     1      -3.990 -10.974 -17.965  1.00  0.00    -0.003 C 
ATOM     14  C   UNL     1      -2.969 -10.833 -16.836  1.00  0.00     0.004 C 
ENDBRANCH  12  13
ENDBRANCH  11  12
ENDBRANCH  10  11
ENDBRANCH   9  10
ENDBRANCH   1   9
TORSDOF 10
ENDMDL
MODEL 3
REMARK VINA RESULT:    -3.785      1.153      3.102
REMARK INTER + INTRA:          -7.541
REMARK INTER:                  -6.213
REMARK INTRA:                  -1.328
REMARK UNBOUND:                -1.543
REMARK SMILES CCCCCCCCCCCC(=O)[O-]
REMARK SMILES IDX 7 1 8 2 9 3 10 4 11 5 12 6 13 7 14 8 6 9 5 10 4 11 3 12 2 13
REMARK SMILES IDX 1 14
REMARK H PARENT
REMARK Flexibility Score: inf
ROOT
ATOM      1  C   UNL     1      -3.907  -7.211 -18.375  1.00  0.00     0.000 C 
ENDROOT
BRANCH   1   2
ATOM      2  C   UNL     1      -4.703  -7.164 -17.061  1.00  0.00     0.000 C 
BRANCH   2   3
ATOM      3  C   UNL     1      -4.911  -8.558 -16.445  1.00  0.00     0.000 C 
BRANCH   3   4
ATOM      4  C   UNL     1      -5.140  -8.507 -14.922  1.00  0.00     0.006 C 
BRANCH   4   5
ATOM      5  C   UNL     1      -5.267  -9.886 -14.253  1.00  0.00     0.053 C 
BRANCH   5   6
ATOM      6  C   UNL     1      -6.668 -10.167 -13.809  1.00  0.00     0.041 C 
ATOM      7  O   UNL     1      -7.638  -9.925 -14.575  1.00  0.00    -0.550 OA
ATOM      8  O   UNL     1      -6.902 -10.729 -12.559  1.00  0.00    -0.550 OA
ENDBRANCH   5   6
ENDBRANCH   4   5
ENDBRANCH   3   4
ENDBRANCH   2   3
ENDBRANCH   1   2
BRANCH   1   9
ATOM      9  C   UNL     1      -2.393  -7.047 -18.157  1.00  0.00     0.000 C 
BRANCH   9  10
ATOM     10  C   UNL     1      -1.654  -8.395 -18.112  1.00  0.00    -0.000 C 
BRANCH  10  11
ATOM     11  C   UNL     1      -1.009  -8.669 -16.743  1.00  0.00    -0.000 C 
BRANCH  11  12
ATOM     12  C   UNL     1      -1.201  -7.510 -15.748  1.00  0.00    -0.000 C 
BRANCH  12  13
ATOM     13  C   UNL     1      -1.438  -7.937 -14.288  1.00  0.00    -0.003 C 
ATOM     14  C   UNL     1      -1.544  -9.452 -14.119  1.00  0.00     0.004 C 
ENDBRANCH  12  13
ENDBRANCH  11  12
ENDBRANCH  10  11
ENDBRANCH   9  10
ENDBRANCH   1   9
TORSDOF 10
ENDMDL
MODEL 4
REMARK VINA RESULT:    -3.784      2.030      4.017
REMARK INTER + INTRA:          -7.540
REMARK INTER:                  -6.181
REMARK INTRA:                  -1.359
REMARK UNBOUND:                -1.543
REMARK SMILES CCCCCCCCCCCC(=O)[O-]
REMARK SMILES IDX 7 1 8 2 9 3 10 4 11 5 12 6 13 7 14 8 6 9 5 10 4 11 3 12 2 13
REMARK SMILES IDX 1 14
REMARK H PARENT
REMARK Flexibility Score: inf
ROOT
ATOM      1  C   UNL     1      -0.871  -7.253 -15.135  1.00  0.00     0.000 C 
ENDROOT
BRANCH   1   2
ATOM      2  C   UNL     1      -1.079  -7.561 -16.627  1.00  0.00     0.000 C 
BRANCH   2   3
ATOM      3  C   UNL     1      -2.152  -6.667 -17.271  1.00  0.00     0.000 C 
BRANCH   3   4
ATOM      4  C   UNL     1      -2.727  -7.268 -18.568  1.00  0.00     0.006 C 
BRANCH   4   5
ATOM      5  C   UNL     1      -4.161  -7.806 -18.438  1.00  0.00     0.053 C 
BRANCH   5   6
ATOM      6  C   UNL     1      -4.219  -9.293 -18.602  1.00  0.00     0.041 C 
ATOM      7  O   UNL     1      -5.294  -9.852 -18.947  1.00  0.00    -0.550 OA
ATOM      8  O   UNL     1      -3.078 -10.060 -18.404  1.00  0.00    -0.550 OA
ENDBRANCH   5   6
ENDBRANCH   4   5
ENDBRANCH   3   4
ENDBRANCH   2   3
ENDBRANCH   1   2
BRANCH   1   9
ATOM      9  C   UNL     1      -1.671  -8.196 -14.219  1.00  0.00     0.000 C 
BRANCH   9  10
ATOM     10  C   UNL     1      -2.053  -9.512 -14.917  1.00  0.00    -0.000 C 
BRANCH  10  11
ATOM     11  C   UNL     1      -3.569  -9.775 -14.893  1.00  0.00    -0.000 C 
BRANCH  11  12
ATOM     12  C   UNL     1      -4.399  -8.480 -14.828  1.00  0.00    -0.000 C 
BRANCH  12  13
ATOM     13  C   UNL     1      -5.876  -8.634 -15.233  1.00  0.00    -0.003 C 
ATOM     14  C   UNL     1      -6.662  -9.549 -14.294  1.00  0.00     0.004 C 
ENDBRANCH  12  13
ENDBRANCH  11  12
ENDBRANCH  10  11
ENDBRANCH   9  10
ENDBRANCH   1   9
TORSDOF 10
ENDMDL
MODEL 5
REMARK VINA RESULT:    -3.758      1.121      1.799
REMARK INTER + INTRA:          -7.499
REMARK INTER:                  -6.158
REMARK INTRA:                  -1.341
REMARK UNBOUND:                -1.543
REMARK SMILES CCCCCCCCCCCC(=O)[O-]
REMARK SMILES IDX 7 1 8 2 9 3 10 4 11 5 12 6 13 7 14 8 6 9 5 10 4 11 3 12 2 13
REMARK SMILES IDX 1 14
REMARK H PARENT
REMARK Flexibility Score: inf
ROOT
ATOM      1  C   UNL     1      -1.385  -7.992 -14.110  1.00  0.00     0.000 C 
ENDROOT
BRANCH   1   2
ATOM      2  C   UNL     1      -1.153  -9.506 -14.240  1.00  0.00     0.000 C 
BRANCH   2   3
ATOM      3  C   UNL     1      -2.457 -10.316 -14.141  1.00  0.00     0.000 C 
BRANCH   3   4
ATOM      4  C   UNL     1      -3.473  -9.944 -15.238  1.00  0.00     0.006 C 
BRANCH   4   5
ATOM      5  C   UNL     1      -4.753  -9.270 -14.716  1.00  0.00     0.053 C 
BRANCH   5   6
ATOM      6  C   UNL     1      -5.976  -9.764 -15.425  1.00  0.00     0.041 C 
ATOM      7  O   UNL     1      -7.109  -9.654 -14.887  1.00  0.00    -0.550 OA
ATOM      8  O   UNL     1      -5.868 -10.317 -16.695  1.00  0.00    -0.550 OA
ENDBRANCH   5   6
ENDBRANCH   4   5
ENDBRANCH   3   4
ENDBRANCH   2   3
ENDBRANCH   1   2
BRANCH   1   9
ATOM      9  C   UNL     1      -0.711  -7.191 -15.239  1.00  0.00     0.000 C 
BRANCH   9  10
ATOM     10  C   UNL     1      -0.390  -8.059 -16.467  1.00  0.00    -0.000 C 
BRANCH  10  11
ATOM     11  C   UNL     1      -1.450  -7.927 -17.575  1.00  0.00    -0.000 C 
BRANCH  11  12
ATOM     12  C   UNL     1      -2.284  -6.638 -17.455  1.00  0.00    -0.000 C 
BRANCH  12  13
ATOM     13  C   UNL     1      -3.799  -6.857 -17.291  1.00  0.00    -0.003 C 
ATOM     14  C   UNL     1      -4.451  -7.478 -18.526  1.00  0.00     0.004 C 
ENDBRANCH  12  13
ENDBRANCH  11  12
ENDBRANCH  10  11
ENDBRANCH   9  10
ENDBRANCH   1   9
TORSDOF 10
ENDMDL
MODEL 6
REMARK VINA RESULT:    -3.711      2.711      5.140
REMARK INTER + INTRA:          -7.424
REMARK INTER:                  -6.039
REMARK INTRA:                  -1.385
REMARK UNBOUND:                -1.543
REMARK SMILES CCCCCCCCCCCC(=O)[O-]
REMARK SMILES IDX 7 1 8 2 9 3 10 4 11 5 12 6 13 7 14 8 6 9 5 10 4 11 3 12 2 13
REMARK SMILES IDX 1 14
REMARK H PARENT
REMARK Flexibility Score: inf
ROOT
ATOM      1  C   UNL     1      -3.990  -8.962 -18.753  1.00  0.00     0.000 C 
ENDROOT
BRANCH   1   2
ATOM      2  C   UNL     1      -4.315  -7.478 -18.516  1.00  0.00     0.000 C 
BRANCH   2   3
ATOM      3  C   UNL     1      -3.433  -6.846 -17.427  1.00  0.00     0.000 C 
BRANCH   3   4
ATOM      4  C   UNL     1      -1.930  -7.085 -17.664  1.00  0.00     0.006 C 
BRANCH   4   5
ATOM      5  C   UNL     1      -1.258  -7.993 -16.621  1.00  0.00     0.053 C 
BRANCH   5   6
ATOM      6  C   UNL     1      -1.050  -7.289 -15.316  1.00  0.00     0.041 C 
ATOM      7  O   UNL     1      -0.628  -6.103 -15.295  1.00  0.00    -0.550 OA
ATOM      8  O   UNL     1      -1.354  -7.933 -14.122  1.00  0.00    -0.550 OA
ENDBRANCH   5   6
ENDBRANCH   4   5
ENDBRANCH   3   4
ENDBRANCH   2   3
ENDBRANCH   1   2
BRANCH   1   9
ATOM      9  C   UNL     1      -5.232  -9.865 -18.644  1.00  0.00     0.000 C 
BRANCH   9  10
ATOM     10  C   UNL     1      -5.254 -10.682 -17.341  1.00  0.00    -0.000 C 
BRANCH  10  11
ATOM     11  C   UNL     1      -3.937 -10.571 -16.553  1.00  0.00    -0.000 C 
BRANCH  11  12
ATOM     12  C   UNL     1      -4.137 -10.028 -15.127  1.00  0.00    -0.000 C 
BRANCH  12  13
ATOM     13  C   UNL     1      -5.173  -8.896 -15.001  1.00  0.00    -0.003 C 
ATOM     14  C   UNL     1      -6.360  -9.267 -14.113  1.00  0.00     0.004 C 
ENDBRANCH  12  13
ENDBRANCH  11  12
ENDBRANCH  10  11
ENDBRANCH   9  10
ENDBRANCH   1   9
TORSDOF 10
ENDMDL
MODEL 7
REMARK VINA RESULT:    -3.706      1.608      3.725
REMARK INTER + INTRA:          -7.417
REMARK INTER:                  -6.166
REMARK INTRA:                  -1.251
REMARK UNBOUND:                -1.543
REMARK SMILES CCCCCCCCCCCC(=O)[O-]
REMARK SMILES IDX 7 1 8 2 9 3 10 4 11 5 12 6 13 7 14 8 6 9 5 10 4 11 3 12 2 13
REMARK SMILES IDX 1 14
REMARK H PARENT
REMARK Flexibility Score: inf
ROOT
ATOM      1  C   UNL     1      -3.778  -7.739 -18.010  1.00  0.00     0.000 C 
ENDROOT
BRANCH   1   2
ATOM      2  C   UNL     1      -4.576  -6.868 -17.027  1.00  0.00     0.000 C 
BRANCH   2   3
ATOM      3  C   UNL     1      -5.508  -7.695 -16.125  1.00  0.00     0.000 C 
BRANCH   3   4
ATOM      4  C   UNL     1      -4.782  -8.286 -14.901  1.00  0.00     0.006 C 
BRANCH   4   5
ATOM      5  C   UNL     1      -5.075  -9.773 -14.646  1.00  0.00     0.053 C 
BRANCH   5   6
ATOM      6  C   UNL     1      -4.817 -10.612 -15.858  1.00  0.00     0.041 C 
ATOM      7  O   UNL     1      -3.637 -10.825 -16.243  1.00  0.00    -0.550 OA
ATOM      8  O   UNL     1      -5.879 -11.188 -16.545  1.00  0.00    -0.550 OA
ENDBRANCH   5   6
ENDBRANCH   4   5
ENDBRANCH   3   4
ENDBRANCH   2   3
ENDBRANCH   1   2
BRANCH   1   9
ATOM      9  C   UNL     1      -2.284  -7.371 -18.048  1.00  0.00     0.000 C 
BRANCH   9  10
ATOM     10  C   UNL     1      -1.796  -6.750 -16.729  1.00  0.00    -0.000 C 
BRANCH  10  11
ATOM     11  C   UNL     1      -0.819  -7.665 -15.972  1.00  0.00    -0.000 C 
BRANCH  11  12
ATOM     12  C   UNL     1      -1.197  -7.848 -14.491  1.00  0.00    -0.000 C 
BRANCH  12  13
ATOM     13  C   UNL     1      -1.303  -9.311 -14.022  1.00  0.00    -0.003 C 
ATOM     14  C   UNL     1      -0.549  -9.578 -12.720  1.00  0.00     0.004 C 
ENDBRANCH  12  13
ENDBRANCH  11  12
ENDBRANCH  10  11
ENDBRANCH   9  10
ENDBRANCH   1   9
TORSDOF 10
ENDMDL
MODEL 8
REMARK VINA RESULT:    -3.675      1.547      2.689
REMARK INTER + INTRA:          -7.367
REMARK INTER:                  -5.868
REMARK INTRA:                  -1.499
REMARK UNBOUND:                -1.543
REMARK SMILES CCCCCCCCCCCC(=O)[O-]
REMARK SMILES IDX 7 1 8 2 9 3 10 4 11 5 12 6 13 7 14 8 6 9 5 10 4 11 3 12 2 13
REMARK SMILES IDX 1 14
REMARK H PARENT
REMARK Flexibility Score: inf
ROOT
ATOM      1  C   UNL     1      -5.270  -7.639 -16.148  1.00  0.00     0.000 C 
ENDROOT
BRANCH   1   2
ATOM      2  C   UNL     1      -4.413  -8.410 -15.131  1.00  0.00     0.000 C 
BRANCH   2   3
ATOM      3  C   UNL     1      -4.294  -9.906 -15.471  1.00  0.00     0.000 C 
BRANCH   3   4
ATOM      4  C   UNL     1      -5.431 -10.401 -16.385  1.00  0.00     0.006 C 
BRANCH   4   5
ATOM      5  C   UNL     1      -6.272 -11.542 -15.790  1.00  0.00     0.053 C 
BRANCH   5   6
ATOM      6  C   UNL     1      -6.993 -11.119 -14.547  1.00  0.00     0.041 C 
ATOM      7  O   UNL     1      -6.936 -11.828 -13.508  1.00  0.00    -0.550 OA
ATOM      8  O   UNL     1      -7.702  -9.924 -14.527  1.00  0.00    -0.550 OA
ENDBRANCH   5   6
ENDBRANCH   4   5
ENDBRANCH   3   4
ENDBRANCH   2   3
ENDBRANCH   1   2
BRANCH   1   9
ATOM      9  C   UNL     1      -4.422  -6.792 -17.114  1.00  0.00     0.000 C 
BRANCH   9  10
ATOM     10  C   UNL     1      -4.382  -7.380 -18.534  1.00  0.00    -0.000 C 
BRANCH  10  11
ATOM     11  C   UNL     1      -3.095  -8.177 -18.807  1.00  0.00    -0.000 C 
BRANCH  11  12
ATOM     12  C   UNL     1      -1.855  -7.559 -18.135  1.00  0.00    -0.000 C 
BRANCH  12  13
ATOM     13  C   UNL     1      -1.109  -8.491 -17.163  1.00  0.00    -0.003 C 
ATOM     14  C   UNL     1      -1.222  -9.966 -17.543  1.00  0.00     0.004 C 
ENDBRANCH  12  13
ENDBRANCH  11  12
ENDBRANCH  10  11
ENDBRANCH   9  10
ENDBRANCH   1   9
TORSDOF 10
ENDMDL
MODEL 9
REMARK VINA RESULT:    -3.669      1.356      3.233
REMARK INTER + INTRA:          -7.358
REMARK INTER:                  -6.024
REMARK INTRA:                  -1.334
REMARK UNBOUND:                -1.543
REMARK SMILES CCCCCCCCCCCC(=O)[O-]
REMARK SMILES IDX 7 1 8 2 9 3 10 4 11 5 12 6 13 7 14 8 6 9 5 10 4 11 3 12 2 13
REMARK SMILES IDX 1 14
REMARK H PARENT
REMARK Flexibility Score: inf
ROOT
ATOM      1  C   UNL     1      -4.785  -8.660 -18.696  1.00  0.00     0.000 C 
ENDROOT
BRANCH   1   2
ATOM      2  C   UNL     1      -3.730  -9.777 -18.644  1.00  0.00     0.000 C 
BRANCH   2   3
ATOM      3  C   UNL     1      -4.139 -10.934 -17.716  1.00  0.00     0.000 C 
BRANCH   3   4
ATOM      4  C   UNL     1      -5.580 -10.793 -17.188  1.00  0.00     0.006 C 
BRANCH   4   5
ATOM      5  C   UNL     1      -5.702 -10.842 -15.656  1.00  0.00     0.053 C 
BRANCH   5   6
ATOM      6  C   UNL     1      -6.533  -9.717 -15.123  1.00  0.00     0.041 C 
ATOM      7  O   UNL     1      -7.638  -9.951 -14.568  1.00  0.00    -0.550 OA
ATOM      8  O   UNL     1      -6.071  -8.409 -15.211  1.00  0.00    -0.550 OA
ENDBRANCH   5   6
ENDBRANCH   4   5
ENDBRANCH   3   4
ENDBRANCH   2   3
ENDBRANCH   1   2
BRANCH   1   9
ATOM      9  C   UNL     1      -4.160  -7.254 -18.665  1.00  0.00     0.000 C 
BRANCH   9  10
ATOM     10  C   UNL     1      -3.631  -6.873 -17.273  1.00  0.00    -0.000 C 
BRANCH  10  11
ATOM     11  C   UNL     1      -2.116  -6.606 -17.269  1.00  0.00    -0.000 C 
BRANCH  11  12
ATOM     12  C   UNL     1      -1.403  -7.217 -16.049  1.00  0.00    -0.000 C 
BRANCH  12  13
ATOM     13  C   UNL     1      -1.568  -8.739 -15.895  1.00  0.00    -0.003 C 
ATOM     14  C   UNL     1      -2.393  -9.130 -14.669  1.00  0.00     0.004 C 
ENDBRANCH  12  13
ENDBRANCH  11  12
ENDBRANCH  10  11
ENDBRANCH   9  10
ENDBRANCH   1   9
TORSDOF 10
ENDMDL
