MODEL 1
REMARK VINA RESULT:    -3.789      0.000      0.000
REMARK INTER + INTRA:         -10.040
REMARK INTER:                  -7.333
REMARK INTRA:                  -2.707
REMARK UNBOUND:                -2.707
REMARK SMILES CCCCCCCCCCCCCCCCCC(=O)[O-]
REMARK SMILES IDX 10 1 11 2 12 3 13 4 14 5 15 6 16 7 17 8 18 9 19 10 20 11
REMARK SMILES IDX 9 12 8 13 7 14 6 15 5 16 4 17 3 18 2 19 1 20
REMARK H PARENT
REMARK Flexibility Score: inf
ROOT
ATOM      1  C   UNL     1      -3.357   5.087  -8.896  1.00  0.00     0.000 C 
ENDROOT
BRANCH   1   2
ATOM      2  C   UNL     1      -3.858   5.300 -10.335  1.00  0.00     0.000 C 
BRANCH   2   3
ATOM      3  C   UNL     1      -2.793   4.984 -11.395  1.00  0.00     0.000 C 
BRANCH   3   4
ATOM      4  C   UNL     1      -3.154   3.716 -12.177  1.00  0.00     0.000 C 
BRANCH   4   5
ATOM      5  C   UNL     1      -3.056   2.472 -11.283  1.00  0.00     0.000 C 
BRANCH   5   6
ATOM      6  C   UNL     1      -4.137   1.422 -11.594  1.00  0.00     0.000 C 
BRANCH   6   7
ATOM      7  C   UNL     1      -5.503   1.675 -10.923  1.00  0.00     0.006 C 
BRANCH   7   8
ATOM      8  C   UNL     1      -5.430   1.985  -9.420  1.00  0.00     0.053 C 
BRANCH   8   9
ATOM      9  C   UNL     1      -6.537   2.892  -8.979  1.00  0.00     0.041 C 
ATOM     10  O   UNL     1      -7.555   3.047  -9.704  1.00  0.00    -0.550 OA
ATOM     11  O   UNL     1      -6.463   3.535  -7.751  1.00  0.00    -0.550 OA
ENDBRANCH   8   9
ENDBRANCH   7   8
ENDBRANCH   6   7
ENDBRANCH   5   6
ENDBRANCH   4   5
ENDBRANCH   3   4
ENDBRANCH   2   3
ENDBRANCH   1   2
BRANCH   1  12
ATOM     12  C   UNL     1      -2.045   5.810  -8.548  1.00  0.00     0.000 C 
BRANCH  12  13
ATOM     13  C   UNL     1      -0.870   4.846  -8.320  1.00  0.00    -0.000 C 
BRANCH  13  14
ATOM     14  C   UNL     1      -1.360   3.392  -8.240  1.00  0.00    -0.000 C 
BRANCH  14  15
ATOM     15  C   UNL     1      -0.210   2.390  -8.052  1.00  0.00    -0.000 C 
BRANCH  15  16
ATOM     16  C   UNL     1       0.030   1.519  -9.298  1.00  0.00    -0.000 C 
BRANCH  16  17
ATOM     17  C   UNL     1       1.111   2.116 -10.223  1.00  0.00    -0.000 C 
BRANCH  17  18
ATOM     18  C   UNL     1       0.544   2.748 -11.506  1.00  0.00    -0.000 C 
BRANCH  18  19
ATOM     19  C   UNL     1       1.379   3.935 -12.007  1.00  0.00    -0.003 C 
ATOM     20  C   UNL     1       0.900   5.244 -11.386  1.00  0.00     0.004 C 
ENDBRANCH  18  19
ENDBRANCH  17  18
ENDBRANCH  16  17
ENDBRANCH  15  16
ENDBRANCH  14  15
ENDBRANCH  13  14
ENDBRANCH  12  13
ENDBRANCH   1  12
TORSDOF 16
ENDMDL
MODEL 2
REMARK VINA RESULT:    -3.742      1.335      4.210
REMARK INTER + INTRA:          -9.949
REMARK INTER:                  -6.959
REMARK INTRA:                  -2.990
REMARK UNBOUND:                -2.707
REMARK SMILES CCCCCCCCCCCCCCCCCC(=O)[O-]
REMARK SMILES IDX 10 1 11 2 12 3 13 4 14 5 15 6 16 7 17 8 18 9 19 10 20 11
REMARK SMILES IDX 9 12 8 13 7 14 6 15 5 16 4 17 3 18 2 19 1 20
REMARK H PARENT
REMARK Flexibility Score: inf
ROOT
ATOM      1  C   UNL     1       0.345   1.638  -9.314  1.00  0.00     0.000 C 
ENDROOT
BRANCH   1   2
ATOM      2  C   UNL     1      -0.976   2.401  -9.106  1.00  0.00     0.000 C 
BRANCH   2   3
ATOM      3  C   UNL     1      -0.848   3.562  -8.109  1.00  0.00     0.000 C 
BRANCH   3   4
ATOM      4  C   UNL     1      -0.812   4.911  -8.837  1.00  0.00     0.000 C 
BRANCH   4   5
ATOM      5  C   UNL     1      -2.083   5.724  -8.553  1.00  0.00     0.000 C 
BRANCH   5   6
ATOM      6  C   UNL     1      -3.222   5.422  -9.543  1.00  0.00     0.000 C 
BRANCH   6   7
ATOM      7  C   UNL     1      -4.393   4.604  -8.962  1.00  0.00     0.006 C 
BRANCH   7   8
ATOM      8  C   UNL     1      -4.455   3.146  -9.444  1.00  0.00     0.053 C 
BRANCH   8   9
ATOM      9  C   UNL     1      -5.767   2.502  -9.117  1.00  0.00     0.041 C 
ATOM     10  O   UNL     1      -6.155   1.493  -9.761  1.00  0.00    -0.550 OA
ATOM     11  O   UNL     1      -6.543   2.993  -8.075  1.00  0.00    -0.550 OA
ENDBRANCH   8   9
ENDBRANCH   7   8
ENDBRANCH   6   7
ENDBRANCH   5   6
ENDBRANCH   4   5
ENDBRANCH   3   4
ENDBRANCH   2   3
ENDBRANCH   1   2
BRANCH   1  12
ATOM     12  C   UNL     1       0.747   1.418 -10.783  1.00  0.00     0.000 C 
BRANCH  12  13
ATOM     13  C   UNL     1       1.944   2.280 -11.213  1.00  0.00    -0.000 C 
BRANCH  13  14
ATOM     14  C   UNL     1       1.474   3.546 -11.946  1.00  0.00    -0.000 C 
BRANCH  14  15
ATOM     15  C   UNL     1       0.191   3.317 -12.760  1.00  0.00    -0.000 C 
BRANCH  15  16
ATOM     16  C   UNL     1      -0.945   4.278 -12.363  1.00  0.00    -0.000 C 
BRANCH  16  17
ATOM     17  C   UNL     1      -2.333   3.614 -12.475  1.00  0.00    -0.000 C 
BRANCH  17  18
ATOM     18  C   UNL     1      -2.294   2.204 -13.091  1.00  0.00    -0.000 C 
BRANCH  18  19
ATOM     19  C   UNL     1      -2.788   1.118 -12.127  1.00  0.00    -0.003 C 
ATOM     20  C   UNL     1      -2.205  -0.245 -12.490  1.00  0.00     0.004 C 
ENDBRANCH  18  19
ENDBRANCH  17  18
ENDBRANCH  16  17
ENDBRANCH  15  16
ENDBRANCH  14  15
ENDBRANCH  13  14
ENDBRANCH  12  13
ENDBRANCH   1  12
TORSDOF 16
ENDMDL
MODEL 3
REMARK VINA RESULT:    -3.657      1.128      3.961
REMARK INTER + INTRA:          -9.786
REMARK INTER:                  -7.180
REMARK INTRA:                  -2.605
REMARK UNBOUND:                -2.707
REMARK SMILES CCCCCCCCCCCCCCCCCC(=O)[O-]
REMARK SMILES IDX 10 1 11 2 12 3 13 4 14 5 15 6 16 7 17 8 18 9 19 10 20 11
REMARK SMILES IDX 9 12 8 13 7 14 6 15 5 16 4 17 3 18 2 19 1 20
REMARK H PARENT
REMARK Flexibility Score: inf
ROOT
ATOM      1  C   UNL     1       0.589   1.916  -9.353  1.00  0.00     0.000 C 
ENDROOT
BRANCH   1   2
ATOM      2  C   UNL     1      -0.314   1.460 -10.513  1.00  0.00     0.000 C 
BRANCH   2   3
ATOM      3  C   UNL     1      -0.404   2.492 -11.646  1.00  0.00     0.000 C 
BRANCH   3   4
ATOM      4  C   UNL     1      -1.862   2.873 -11.930  1.00  0.00     0.000 C 
BRANCH   4   5
ATOM      5  C   UNL     1      -2.828   1.940 -11.185  1.00  0.00     0.000 C 
BRANCH   5   6
ATOM      6  C   UNL     1      -4.154   1.723 -11.938  1.00  0.00     0.000 C 
BRANCH   6   7
ATOM      7  C   UNL     1      -5.399   2.321 -11.252  1.00  0.00     0.006 C 
BRANCH   7   8
ATOM      8  C   UNL     1      -5.477   2.070  -9.738  1.00  0.00     0.053 C 
BRANCH   8   9
ATOM      9  C   UNL     1      -6.643   2.772  -9.112  1.00  0.00     0.041 C 
ATOM     10  O   UNL     1      -6.573   3.179  -7.922  1.00  0.00    -0.550 OA
ATOM     11  O   UNL     1      -7.792   3.011  -9.854  1.00  0.00    -0.550 OA
ENDBRANCH   8   9
ENDBRANCH   7   8
ENDBRANCH   6   7
ENDBRANCH   5   6
ENDBRANCH   4   5
ENDBRANCH   3   4
ENDBRANCH   2   3
ENDBRANCH   1   2
BRANCH   1  12
ATOM     12  C   UNL     1      -0.131   2.124  -8.009  1.00  0.00     0.000 C 
BRANCH  12  13
ATOM     13  C   UNL     1      -1.296   3.122  -8.099  1.00  0.00    -0.000 C 
BRANCH  13  14
ATOM     14  C   UNL     1      -0.789   4.527  -8.458  1.00  0.00    -0.000 C 
BRANCH  14  15
ATOM     15  C   UNL     1      -1.932   5.512  -8.749  1.00  0.00    -0.000 C 
BRANCH  15  16
ATOM     16  C   UNL     1      -3.292   4.811  -8.922  1.00  0.00    -0.000 C 
BRANCH  16  17
ATOM     17  C   UNL     1      -4.337   5.729  -9.589  1.00  0.00    -0.000 C 
BRANCH  17  18
ATOM     18  C   UNL     1      -4.213   5.792 -11.121  1.00  0.00    -0.000 C 
BRANCH  18  19
ATOM     19  C   UNL     1      -4.747   7.105 -11.710  1.00  0.00    -0.003 C 
ATOM     20  C   UNL     1      -6.081   7.488 -11.077  1.00  0.00     0.004 C 
ENDBRANCH  18  19
ENDBRANCH  17  18
ENDBRANCH  16  17
ENDBRANCH  15  16
ENDBRANCH  14  15
ENDBRANCH  13  14
ENDBRANCH  12  13
ENDBRANCH   1  12
TORSDOF 16
ENDMDL
MODEL 4
REMARK VINA RESULT:    -3.653      1.466      4.026
REMARK INTER + INTRA:          -9.778
REMARK INTER:                  -7.074
REMARK INTRA:                  -2.703
REMARK UNBOUND:                -2.707
REMARK SMILES CCCCCCCCCCCCCCCCCC(=O)[O-]
REMARK SMILES IDX 10 1 11 2 12 3 13 4 14 5 15 6 16 7 17 8 18 9 19 10 20 11
REMARK SMILES IDX 9 12 8 13 7 14 6 15 5 16 4 17 3 18 2 19 1 20
REMARK H PARENT
REMARK Flexibility Score: inf
ROOT
ATOM      1  C   UNL     1      -0.943   2.449  -9.196  1.00  0.00     0.000 C 
ENDROOT
BRANCH   1   2
ATOM      2  C   UNL     1      -0.898   3.474  -8.048  1.00  0.00     0.000 C 
BRANCH   2   3
ATOM      3  C   UNL     1      -0.658   4.911  -8.535  1.00  0.00     0.000 C 
BRANCH   3   4
ATOM      4  C   UNL     1      -1.643   5.286  -9.649  1.00  0.00     0.000 C 
BRANCH   4   5
ATOM      5  C   UNL     1      -2.781   6.160  -9.105  1.00  0.00     0.000 C 
BRANCH   5   6
ATOM      6  C   UNL     1      -4.175   5.663  -9.528  1.00  0.00     0.000 C 
BRANCH   6   7
ATOM      7  C   UNL     1      -4.515   4.224  -9.092  1.00  0.00     0.006 C 
BRANCH   7   8
ATOM      8  C   UNL     1      -5.837   3.680  -9.657  1.00  0.00     0.053 C 
BRANCH   8   9
ATOM      9  C   UNL     1      -5.997   2.213  -9.399  1.00  0.00     0.041 C 
ATOM     10  O   UNL     1      -5.705   1.733  -8.273  1.00  0.00    -0.550 OA
ATOM     11  O   UNL     1      -6.505   1.383 -10.390  1.00  0.00    -0.550 OA
ENDBRANCH   8   9
ENDBRANCH   7   8
ENDBRANCH   6   7
ENDBRANCH   5   6
ENDBRANCH   4   5
ENDBRANCH   3   4
ENDBRANCH   2   3
ENDBRANCH   1   2
BRANCH   1  12
ATOM     12  C   UNL     1       0.355   1.651  -9.410  1.00  0.00     0.000 C 
BRANCH  12  13
ATOM     13  C   UNL     1       0.869   1.716 -10.856  1.00  0.00    -0.000 C 
BRANCH  13  14
ATOM     14  C   UNL     1       0.266   0.587 -11.705  1.00  0.00    -0.000 C 
BRANCH  14  15
ATOM     15  C   UNL     1      -0.853   1.080 -12.636  1.00  0.00    -0.000 C 
BRANCH  15  16
ATOM     16  C   UNL     1      -2.214   0.431 -12.324  1.00  0.00    -0.000 C 
BRANCH  16  17
ATOM     17  C   UNL     1      -3.245   1.459 -11.813  1.00  0.00    -0.000 C 
BRANCH  17  18
ATOM     18  C   UNL     1      -2.935   2.905 -12.238  1.00  0.00    -0.000 C 
BRANCH  18  19
ATOM     19  C   UNL     1      -4.091   3.563 -13.003  1.00  0.00    -0.003 C 
ATOM     20  C   UNL     1      -3.893   5.072 -13.108  1.00  0.00     0.004 C 
ENDBRANCH  18  19
ENDBRANCH  17  18
ENDBRANCH  16  17
ENDBRANCH  15  16
ENDBRANCH  14  15
ENDBRANCH  13  14
ENDBRANCH  12  13
ENDBRANCH   1  12
TORSDOF 16
ENDMDL
MODEL 5
REMARK VINA RESULT:    -3.634      1.613      3.477
REMARK INTER + INTRA:          -9.740
REMARK INTER:                  -6.556
REMARK INTRA:                  -3.184
REMARK UNBOUND:                -2.707
REMARK SMILES CCCCCCCCCCCCCCCCCC(=O)[O-]
REMARK SMILES IDX 10 1 11 2 12 3 13 4 14 5 15 6 16 7 17 8 18 9 19 10 20 11
REMARK SMILES IDX 9 12 8 13 7 14 6 15 5 16 4 17 3 18 2 19 1 20
REMARK H PARENT
REMARK Flexibility Score: inf
ROOT
ATOM      1  C   UNL     1       0.242   2.348 -10.050  1.00  0.00     0.000 C 
ENDROOT
BRANCH   1   2
ATOM      2  C   UNL     1      -0.403   1.204 -10.852  1.00  0.00     0.000 C 
BRANCH   2   3
ATOM      3  C   UNL     1      -1.505   1.686 -11.807  1.00  0.00     0.000 C 
BRANCH   3   4
ATOM      4  C   UNL     1      -1.373   3.187 -12.088  1.00  0.00     0.000 C 
BRANCH   4   5
ATOM      5  C   UNL     1      -2.748   3.826 -12.320  1.00  0.00     0.000 C 
BRANCH   5   6
ATOM      6  C   UNL     1      -3.915   2.873 -12.005  1.00  0.00     0.000 C 
BRANCH   6   7
ATOM      7  C   UNL     1      -5.311   3.528 -12.006  1.00  0.00     0.006 C 
BRANCH   7   8
ATOM      8  C   UNL     1      -6.076   3.406 -10.679  1.00  0.00     0.053 C 
BRANCH   8   9
ATOM      9  C   UNL     1      -6.179   1.984 -10.219  1.00  0.00     0.041 C 
ATOM     10  O   UNL     1      -5.701   1.643  -9.106  1.00  0.00    -0.550 OA
ATOM     11  O   UNL     1      -6.839   1.046 -11.001  1.00  0.00    -0.550 OA
ENDBRANCH   8   9
ENDBRANCH   7   8
ENDBRANCH   6   7
ENDBRANCH   5   6
ENDBRANCH   4   5
ENDBRANCH   3   4
ENDBRANCH   2   3
ENDBRANCH   1   2
BRANCH   1  12
ATOM     12  C   UNL     1      -0.148   2.402  -8.562  1.00  0.00     0.000 C 
BRANCH  12  13
ATOM     13  C   UNL     1      -1.041   3.604  -8.218  1.00  0.00    -0.000 C 
BRANCH  13  14
ATOM     14  C   UNL     1      -2.504   3.328  -8.598  1.00  0.00    -0.000 C 
BRANCH  14  15
ATOM     15  C   UNL     1      -3.327   4.615  -8.760  1.00  0.00    -0.000 C 
BRANCH  15  16
ATOM     16  C   UNL     1      -2.452   5.882  -8.779  1.00  0.00    -0.000 C 
BRANCH  16  17
ATOM     17  C   UNL     1      -2.749   6.775 -10.002  1.00  0.00    -0.000 C 
BRANCH  17  18
ATOM     18  C   UNL     1      -1.489   7.193 -10.780  1.00  0.00    -0.000 C 
BRANCH  18  19
ATOM     19  C   UNL     1      -0.189   6.862 -10.034  1.00  0.00    -0.003 C 
ATOM     20  C   UNL     1       0.687   5.917 -10.850  1.00  0.00     0.004 C 
ENDBRANCH  18  19
ENDBRANCH  17  18
ENDBRANCH  16  17
ENDBRANCH  15  16
ENDBRANCH  14  15
ENDBRANCH  13  14
ENDBRANCH  12  13
ENDBRANCH   1  12
TORSDOF 16
ENDMDL
MODEL 6
REMARK VINA RESULT:    -3.597      1.468      2.533
REMARK INTER + INTRA:          -9.669
REMARK INTER:                  -6.748
REMARK INTRA:                  -2.921
REMARK UNBOUND:                -2.707
REMARK SMILES CCCCCCCCCCCCCCCCCC(=O)[O-]
REMARK SMILES IDX 10 1 11 2 12 3 13 4 14 5 15 6 16 7 17 8 18 9 19 10 20 11
REMARK SMILES IDX 9 12 8 13 7 14 6 15 5 16 4 17 3 18 2 19 1 20
REMARK H PARENT
REMARK Flexibility Score: inf
ROOT
ATOM      1  C   UNL     1      -0.520   4.977 -11.846  1.00  0.00     0.000 C 
ENDROOT
BRANCH   1   2
ATOM      2  C   UNL     1      -1.989   5.298 -12.176  1.00  0.00     0.000 C 
BRANCH   2   3
ATOM      3  C   UNL     1      -2.802   4.055 -12.566  1.00  0.00     0.000 C 
BRANCH   3   4
ATOM      4  C   UNL     1      -3.863   3.736 -11.506  1.00  0.00     0.000 C 
BRANCH   4   5
ATOM      5  C   UNL     1      -4.573   5.014 -11.037  1.00  0.00     0.000 C 
BRANCH   5   6
ATOM      6  C   UNL     1      -4.683   5.113  -9.505  1.00  0.00     0.000 C 
BRANCH   6   7
ATOM      7  C   UNL     1      -4.948   3.777  -8.782  1.00  0.00     0.006 C 
BRANCH   7   8
ATOM      8  C   UNL     1      -6.433   3.468  -8.536  1.00  0.00     0.053 C 
BRANCH   8   9
ATOM      9  C   UNL     1      -7.007   2.587  -9.603  1.00  0.00     0.041 C 
ATOM     10  O   UNL     1      -8.116   2.870 -10.128  1.00  0.00    -0.550 OA
ATOM     11  O   UNL     1      -6.300   1.477 -10.044  1.00  0.00    -0.550 OA
ENDBRANCH   8   9
ENDBRANCH   7   8
ENDBRANCH   6   7
ENDBRANCH   5   6
ENDBRANCH   4   5
ENDBRANCH   3   4
ENDBRANCH   2   3
ENDBRANCH   1   2
BRANCH   1  12
ATOM     12  C   UNL     1      -0.032   5.488 -10.479  1.00  0.00     0.000 C 
BRANCH  12  13
ATOM     13  C   UNL     1      -1.169   5.653  -9.459  1.00  0.00    -0.000 C 
BRANCH  13  14
ATOM     14  C   UNL     1      -0.896   4.827  -8.193  1.00  0.00    -0.000 C 
BRANCH  14  15
ATOM     15  C   UNL     1      -1.364   3.370  -8.325  1.00  0.00    -0.000 C 
BRANCH  15  16
ATOM     16  C   UNL     1      -0.227   2.356  -8.096  1.00  0.00    -0.000 C 
BRANCH  16  17
ATOM     17  C   UNL     1       0.275   1.739  -9.418  1.00  0.00    -0.000 C 
BRANCH  17  18
ATOM     18  C   UNL     1      -0.808   1.652 -10.508  1.00  0.00    -0.000 C 
BRANCH  18  19
ATOM     19  C   UNL     1      -0.287   1.049 -11.820  1.00  0.00    -0.003 C 
ATOM     20  C   UNL     1       1.229   1.185 -11.923  1.00  0.00     0.004 C 
ENDBRANCH  18  19
ENDBRANCH  17  18
ENDBRANCH  16  17
ENDBRANCH  15  16
ENDBRANCH  14  15
ENDBRANCH  13  14
ENDBRANCH  12  13
ENDBRANCH   1  12
TORSDOF 16
ENDMDL
MODEL 7
REMARK VINA RESULT:    -3.571      1.414      3.216
REMARK INTER + INTRA:          -9.619
REMARK INTER:                  -6.588
REMARK INTRA:                  -3.031
REMARK UNBOUND:                -2.707
REMARK SMILES CCCCCCCCCCCCCCCCCC(=O)[O-]
REMARK SMILES IDX 10 1 11 2 12 3 13 4 14 5 15 6 16 7 17 8 18 9 19 10 20 11
REMARK SMILES IDX 9 12 8 13 7 14 6 15 5 16 4 17 3 18 2 19 1 20
REMARK H PARENT
REMARK Flexibility Score: inf
ROOT
ATOM      1  C   UNL     1      -2.208   3.871 -12.118  1.00  0.00     0.000 C 
ENDROOT
BRANCH   1   2
ATOM      2  C   UNL     1      -1.906   5.381 -12.101  1.00  0.00     0.000 C 
BRANCH   2   3
ATOM      3  C   UNL     1      -3.164   6.246 -12.264  1.00  0.00     0.000 C 
BRANCH   3   4
ATOM      4  C   UNL     1      -3.546   6.917 -10.939  1.00  0.00     0.000 C 
BRANCH   4   5
ATOM      5  C   UNL     1      -4.808   6.278 -10.343  1.00  0.00     0.000 C 
BRANCH   5   6
ATOM      6  C   UNL     1      -5.645   5.515 -11.385  1.00  0.00     0.000 C 
BRANCH   6   7
ATOM      7  C   UNL     1      -5.937   4.042 -11.036  1.00  0.00     0.006 C 
BRANCH   7   8
ATOM      8  C   UNL     1      -5.562   3.639  -9.602  1.00  0.00     0.053 C 
BRANCH   8   9
ATOM      9  C   UNL     1      -5.975   2.234  -9.287  1.00  0.00     0.041 C 
ATOM     10  O   UNL     1      -6.278   1.440 -10.215  1.00  0.00    -0.550 OA
ATOM     11  O   UNL     1      -5.988   1.791  -7.971  1.00  0.00    -0.550 OA
ENDBRANCH   8   9
ENDBRANCH   7   8
ENDBRANCH   6   7
ENDBRANCH   5   6
ENDBRANCH   4   5
ENDBRANCH   3   4
ENDBRANCH   2   3
ENDBRANCH   1   2
BRANCH   1  12
ATOM     12  C   UNL     1      -0.974   2.961 -12.245  1.00  0.00     0.000 C 
BRANCH  12  13
ATOM     13  C   UNL     1       0.276   3.545 -11.568  1.00  0.00    -0.000 C 
BRANCH  13  14
ATOM     14  C   UNL     1       0.941   2.507 -10.652  1.00  0.00    -0.000 C 
BRANCH  14  15
ATOM     15  C   UNL     1      -0.066   1.796  -9.734  1.00  0.00    -0.000 C 
BRANCH  15  16
ATOM     16  C   UNL     1      -0.414   2.622  -8.482  1.00  0.00    -0.000 C 
BRANCH  16  17
ATOM     17  C   UNL     1      -1.867   3.138  -8.512  1.00  0.00    -0.000 C 
BRANCH  17  18
ATOM     18  C   UNL     1      -1.977   4.673  -8.485  1.00  0.00    -0.000 C 
BRANCH  18  19
ATOM     19  C   UNL     1      -0.610   5.369  -8.474  1.00  0.00    -0.003 C 
ATOM     20  C   UNL     1      -0.764   6.884  -8.574  1.00  0.00     0.004 C 
ENDBRANCH  18  19
ENDBRANCH  17  18
ENDBRANCH  16  17
ENDBRANCH  15  16
ENDBRANCH  14  15
ENDBRANCH  13  14
ENDBRANCH  12  13
ENDBRANCH   1  12
TORSDOF 16
ENDMDL
MODEL 8
REMARK VINA RESULT:    -3.556      2.697      5.776
REMARK INTER + INTRA:          -9.589
REMARK INTER:                  -6.741
REMARK INTRA:                  -2.848
REMARK UNBOUND:                -2.707
REMARK SMILES CCCCCCCCCCCCCCCCCC(=O)[O-]
REMARK SMILES IDX 10 1 11 2 12 3 13 4 14 5 15 6 16 7 17 8 18 9 19 10 20 11
REMARK SMILES IDX 9 12 8 13 7 14 6 15 5 16 4 17 3 18 2 19 1 20
REMARK H PARENT
REMARK Flexibility Score: inf
ROOT
ATOM      1  C   UNL     1      -3.594   6.122  -9.889  1.00  0.00     0.000 C 
ENDROOT
BRANCH   1   2
ATOM      2  C   UNL     1      -3.165   5.161  -8.765  1.00  0.00     0.000 C 
BRANCH   2   3
ATOM      3  C   UNL     1      -1.829   4.460  -9.051  1.00  0.00     0.000 C 
BRANCH   3   4
ATOM      4  C   UNL     1      -1.830   3.028  -8.505  1.00  0.00     0.000 C 
BRANCH   4   5
ATOM      5  C   UNL     1      -0.460   2.662  -7.918  1.00  0.00     0.000 C 
BRANCH   5   6
ATOM      6  C   UNL     1       0.232   1.515  -8.676  1.00  0.00     0.000 C 
BRANCH   6   7
ATOM      7  C   UNL     1       0.824   1.903 -10.047  1.00  0.00     0.006 C 
BRANCH   7   8
ATOM      8  C   UNL     1       0.085   1.304 -11.254  1.00  0.00     0.053 C 
BRANCH   8   9
ATOM      9  C   UNL     1      -0.161   2.322 -12.324  1.00  0.00     0.041 C 
ATOM     10  O   UNL     1      -0.191   3.547 -12.037  1.00  0.00    -0.550 OA
ATOM     11  O   UNL     1      -0.316   1.921 -13.644  1.00  0.00    -0.550 OA
ENDBRANCH   8   9
ENDBRANCH   7   8
ENDBRANCH   6   7
ENDBRANCH   5   6
ENDBRANCH   4   5
ENDBRANCH   3   4
ENDBRANCH   2   3
ENDBRANCH   1   2
BRANCH   1  12
ATOM     12  C   UNL     1      -5.076   6.035 -10.292  1.00  0.00     0.000 C 
BRANCH  12  13
ATOM     13  C   UNL     1      -5.290   5.349 -11.650  1.00  0.00    -0.000 C 
BRANCH  13  14
ATOM     14  C   UNL     1      -3.948   4.948 -12.280  1.00  0.00    -0.000 C 
BRANCH  14  15
ATOM     15  C   UNL     1      -3.911   3.472 -12.704  1.00  0.00    -0.000 C 
BRANCH  15  16
ATOM     16  C   UNL     1      -3.700   2.517 -11.515  1.00  0.00    -0.000 C 
BRANCH  16  17
ATOM     17  C   UNL     1      -4.833   1.477 -11.398  1.00  0.00    -0.000 C 
BRANCH  17  18
ATOM     18  C   UNL     1      -5.966   1.905 -10.448  1.00  0.00    -0.000 C 
BRANCH  18  19
ATOM     19  C   UNL     1      -5.479   2.165  -9.016  1.00  0.00    -0.003 C 
ATOM     20  C   UNL     1      -6.365   3.188  -8.312  1.00  0.00     0.004 C 
ENDBRANCH  18  19
ENDBRANCH  17  18
ENDBRANCH  16  17
ENDBRANCH  15  16
ENDBRANCH  14  15
ENDBRANCH  13  14
ENDBRANCH  12  13
ENDBRANCH   1  12
TORSDOF 16
ENDMDL
MODEL 9
REMARK VINA RESULT:    -3.549      1.208      3.516
REMARK INTER + INTRA:          -9.576
REMARK INTER:                  -6.683
REMARK INTRA:                  -2.893
REMARK UNBOUND:                -2.707
REMARK SMILES CCCCCCCCCCCCCCCCCC(=O)[O-]
REMARK SMILES IDX 10 1 11 2 12 3 13 4 14 5 15 6 16 7 17 8 18 9 19 10 20 11
REMARK SMILES IDX 9 12 8 13 7 14 6 15 5 16 4 17 3 18 2 19 1 20
REMARK H PARENT
REMARK Flexibility Score: inf
ROOT
ATOM      1  C   UNL     1      -0.236   2.020  -8.711  1.00  0.00     0.000 C 
ENDROOT
BRANCH   1   2
ATOM      2  C   UNL     1      -1.007   3.167  -8.033  1.00  0.00     0.000 C 
BRANCH   2   3
ATOM      3  C   UNL     1      -0.553   4.556  -8.504  1.00  0.00     0.000 C 
BRANCH   3   4
ATOM      4  C   UNL     1      -1.715   5.556  -8.470  1.00  0.00     0.000 C 
BRANCH   4   5
ATOM      5  C   UNL     1      -3.036   4.877  -8.856  1.00  0.00     0.000 C 
BRANCH   5   6
ATOM      6  C   UNL     1      -3.941   5.771  -9.723  1.00  0.00     0.000 C 
BRANCH   6   7
ATOM      7  C   UNL     1      -5.306   5.157 -10.091  1.00  0.00     0.006 C 
BRANCH   7   8
ATOM      8  C   UNL     1      -5.383   3.630  -9.935  1.00  0.00     0.053 C 
BRANCH   8   9
ATOM      9  C   UNL     1      -6.606   3.203  -9.184  1.00  0.00     0.041 C 
ATOM     10  O   UNL     1      -7.624   2.803  -9.807  1.00  0.00    -0.550 OA
ATOM     11  O   UNL     1      -6.608   3.209  -7.795  1.00  0.00    -0.550 OA
ENDBRANCH   8   9
ENDBRANCH   7   8
ENDBRANCH   6   7
ENDBRANCH   5   6
ENDBRANCH   4   5
ENDBRANCH   3   4
ENDBRANCH   2   3
ENDBRANCH   1   2
BRANCH   1  12
ATOM     12  C   UNL     1       0.623   2.435  -9.918  1.00  0.00     0.000 C 
BRANCH  12  13
ATOM     13  C   UNL     1       0.222   1.718 -11.216  1.00  0.00    -0.000 C 
BRANCH  13  14
ATOM     14  C   UNL     1      -1.283   1.411 -11.232  1.00  0.00    -0.000 C 
BRANCH  14  15
ATOM     15  C   UNL     1      -2.134   2.639 -11.592  1.00  0.00    -0.000 C 
BRANCH  15  16
ATOM     16  C   UNL     1      -1.471   3.529 -12.659  1.00  0.00    -0.000 C 
BRANCH  16  17
ATOM     17  C   UNL     1      -1.342   4.995 -12.194  1.00  0.00    -0.000 C 
BRANCH  17  18
ATOM     18  C   UNL     1       0.115   5.470 -12.053  1.00  0.00    -0.000 C 
BRANCH  18  19
ATOM     19  C   UNL     1       0.228   6.887 -11.476  1.00  0.00    -0.003 C 
ATOM     20  C   UNL     1       1.363   6.979 -10.461  1.00  0.00     0.004 C 
ENDBRANCH  18  19
ENDBRANCH  17  18
ENDBRANCH  16  17
ENDBRANCH  15  16
ENDBRANCH  14  15
ENDBRANCH  13  14
ENDBRANCH  12  13
ENDBRANCH   1  12
TORSDOF 16
ENDMDL
