MODEL 1
REMARK VINA RESULT:    -0.259      0.000      0.000
REMARK INTER + INTRA:          -0.621
REMARK INTER:                  -0.305
REMARK INTRA:                  -0.316
REMARK UNBOUND:                -0.316
REMARK SMILES O=c1cc(-c2ccc(O)c(O)c2)oc2cc(O)cc(O)c12
REMARK SMILES IDX 4 1 3 2 2 3 1 4 21 5 19 6 18 7 16 8 15 9 14 10 13 11 5 12
REMARK SMILES IDX 6 13 7 14 8 15 12 16 10 17 9 18 11 20 20 22 17 24
REMARK H PARENT 9 19 11 21 20 23 17 25
REMARK Flexibility Score: inf
ROOT
ATOM      1  C   UNL     1      22.751  27.456  47.127  1.00  0.00     0.138 A 
ATOM      2  C   UNL     1      24.116  27.774  47.114  1.00  0.00     0.100 A 
ATOM      3  C   UNL     1      25.064  26.751  47.087  1.00  0.00     0.197 A 
ATOM      4  O   UNL     1      26.279  27.069  47.014  1.00  0.00    -0.289 OA
ATOM      5  C   UNL     1      24.641  25.400  47.105  1.00  0.00     0.107 A 
ATOM      6  C   UNL     1      25.518  24.274  47.121  1.00  0.00     0.134 A 
ATOM      7  C   UNL     1      24.985  22.983  47.020  1.00  0.00     0.093 A 
ATOM      8  C   UNL     1      23.607  22.775  46.964  1.00  0.00     0.123 A 
ATOM      9  C   UNL     1      22.738  23.866  47.002  1.00  0.00     0.094 A 
ATOM     10  C   UNL     1      23.241  25.167  47.068  1.00  0.00     0.146 A 
ATOM     11  O   UNL     1      22.380  26.180  47.087  1.00  0.00    -0.456 OA
ENDROOT
BRANCH   1  12
ATOM     12  C   UNL     1      21.702  28.505  47.156  1.00  0.00     0.021 A 
ATOM     13  C   UNL     1      22.012  29.868  46.981  1.00  0.00     0.016 A 
ATOM     14  C   UNL     1      21.005  30.835  47.025  1.00  0.00     0.051 A 
ATOM     15  C   UNL     1      19.677  30.465  47.250  1.00  0.00     0.157 A 
ATOM     16  C   UNL     1      20.364  28.141  47.396  1.00  0.00     0.062 A 
ATOM     17  C   UNL     1      19.353  29.112  47.439  1.00  0.00     0.158 A 
BRANCH  15  18
ATOM     18  O   UNL     1      18.694  31.454  47.286  1.00  0.00    -0.504 OA
ATOM     19  H   UNL     1      17.708  31.231  47.350  1.00  0.00     0.293 HD
ENDBRANCH  15  18
BRANCH  17  20
ATOM     20  O   UNL     1      18.030  28.736  47.668  1.00  0.00    -0.504 OA
ATOM     21  H   UNL     1      17.318  28.841  46.956  1.00  0.00     0.293 HD
ENDBRANCH  17  20
ENDBRANCH   1  12
BRANCH   6  22
ATOM     22  O   UNL     1      26.906  24.367  47.259  1.00  0.00    -0.507 OA
ATOM     23  H   UNL     1      27.516  24.874  46.635  1.00  0.00     0.293 HD
ENDBRANCH   6  22
BRANCH   8  24
ATOM     24  O   UNL     1      23.113  21.475  46.880  1.00  0.00    -0.508 OA
ATOM     25  H   UNL     1      23.068  20.872  47.693  1.00  0.00     0.293 HD
ENDBRANCH   8  24
TORSDOF 5
ENDMDL
MODEL 2
REMARK VINA RESULT:    -0.230      3.407      4.583
REMARK INTER + INTRA:          -0.587
REMARK INTER:                  -0.269
REMARK INTRA:                  -0.318
REMARK UNBOUND:                -0.316
REMARK SMILES O=c1cc(-c2ccc(O)c(O)c2)oc2cc(O)cc(O)c12
REMARK SMILES IDX 4 1 3 2 2 3 1 4 21 5 19 6 18 7 16 8 15 9 14 10 13 11 5 12
REMARK SMILES IDX 6 13 7 14 8 15 12 16 10 17 9 18 11 20 20 22 17 24
REMARK H PARENT 9 19 11 21 20 23 17 25
REMARK Flexibility Score: inf
ROOT
ATOM      1  C   UNL     1      26.856  26.108  47.157  1.00  0.00     0.138 A 
ATOM      2  C   UNL     1      28.120  25.517  47.286  1.00  0.00     0.100 A 
ATOM      3  C   UNL     1      28.229  24.128  47.360  1.00  0.00     0.197 A 
ATOM      4  O   UNL     1      29.380  23.624  47.413  1.00  0.00    -0.289 OA
ATOM      5  C   UNL     1      27.061  23.328  47.336  1.00  0.00     0.107 A 
ATOM      6  C   UNL     1      27.048  21.906  47.445  1.00  0.00     0.134 A 
ATOM      7  C   UNL     1      25.840  21.213  47.293  1.00  0.00     0.093 A 
ATOM      8  C   UNL     1      24.639  21.894  47.094  1.00  0.00     0.123 A 
ATOM      9  C   UNL     1      24.633  23.289  47.039  1.00  0.00     0.094 A 
ATOM     10  C   UNL     1      25.826  24.006  47.154  1.00  0.00     0.146 A 
ATOM     11  O   UNL     1      25.779  25.332  47.082  1.00  0.00    -0.456 OA
ENDROOT
BRANCH   1  12
ATOM     12  C   UNL     1      26.683  27.580  47.075  1.00  0.00     0.021 A 
ATOM     13  C   UNL     1      27.786  28.456  47.085  1.00  0.00     0.016 A 
ATOM     14  C   UNL     1      27.594  29.838  47.017  1.00  0.00     0.051 A 
ATOM     15  C   UNL     1      26.304  30.371  46.947  1.00  0.00     0.157 A 
ATOM     16  C   UNL     1      25.387  28.124  47.018  1.00  0.00     0.062 A 
ATOM     17  C   UNL     1      25.194  29.511  46.949  1.00  0.00     0.158 A 
BRANCH  15  18
ATOM     18  O   UNL     1      26.145  31.755  46.879  1.00  0.00    -0.504 OA
ATOM     19  H   UNL     1      26.931  32.383  46.764  1.00  0.00     0.293 HD
ENDBRANCH  15  18
BRANCH  17  20
ATOM     20  O   UNL     1      23.904  30.036  46.883  1.00  0.00    -0.504 OA
ATOM     21  H   UNL     1      23.492  30.531  47.665  1.00  0.00     0.293 HD
ENDBRANCH  17  20
ENDBRANCH   1  12
BRANCH   6  22
ATOM     22  O   UNL     1      28.178  21.134  47.727  1.00  0.00    -0.507 OA
ATOM     23  H   UNL     1      28.178  20.291  48.282  1.00  0.00     0.293 HD
ENDBRANCH   6  22
BRANCH   8  24
ATOM     24  O   UNL     1      23.455  21.172  46.961  1.00  0.00    -0.508 OA
ATOM     25  H   UNL     1      22.550  21.628  47.004  1.00  0.00     0.293 HD
ENDBRANCH   8  24
TORSDOF 5
ENDMDL
MODEL 3
REMARK VINA RESULT:    -0.223      2.418      4.009
REMARK INTER + INTRA:          -0.578
REMARK INTER:                  -0.267
REMARK INTRA:                  -0.311
REMARK UNBOUND:                -0.316
REMARK SMILES O=c1cc(-c2ccc(O)c(O)c2)oc2cc(O)cc(O)c12
REMARK SMILES IDX 4 1 3 2 2 3 1 4 21 5 19 6 18 7 16 8 15 9 14 10 13 11 5 12
REMARK SMILES IDX 6 13 7 14 8 15 12 16 10 17 9 18 11 20 20 22 17 24
REMARK H PARENT 9 19 11 21 20 23 17 25
REMARK Flexibility Score: inf
ROOT
ATOM      1  C   UNL     1      23.773  28.267  47.504  1.00  0.00     0.138 A 
ATOM      2  C   UNL     1      22.574  27.541  47.470  1.00  0.00     0.100 A 
ATOM      3  C   UNL     1      22.611  26.152  47.355  1.00  0.00     0.197 A 
ATOM      4  O   UNL     1      21.522  25.523  47.390  1.00  0.00    -0.289 OA
ATOM      5  C   UNL     1      23.856  25.488  47.242  1.00  0.00     0.107 A 
ATOM      6  C   UNL     1      24.015  24.079  47.080  1.00  0.00     0.134 A 
ATOM      7  C   UNL     1      25.300  23.523  47.096  1.00  0.00     0.093 A 
ATOM      8  C   UNL     1      26.433  24.329  47.208  1.00  0.00     0.123 A 
ATOM      9  C   UNL     1      26.292  25.713  47.313  1.00  0.00     0.094 A 
ATOM     10  C   UNL     1      25.022  26.294  47.335  1.00  0.00     0.146 A 
ATOM     11  O   UNL     1      24.930  27.615  47.451  1.00  0.00    -0.456 OA
ENDROOT
BRANCH   1  12
ATOM     12  C   UNL     1      23.790  29.747  47.624  1.00  0.00     0.021 A 
ATOM     13  C   UNL     1      22.685  30.462  48.124  1.00  0.00     0.016 A 
ATOM     14  C   UNL     1      22.725  31.855  48.215  1.00  0.00     0.051 A 
ATOM     15  C   UNL     1      23.860  32.559  47.805  1.00  0.00     0.157 A 
ATOM     16  C   UNL     1      24.924  30.463  47.200  1.00  0.00     0.062 A 
ATOM     17  C   UNL     1      24.966  31.862  47.292  1.00  0.00     0.158 A 
BRANCH  15  18
ATOM     18  O   UNL     1      23.870  33.950  47.910  1.00  0.00    -0.504 OA
ATOM     19  H   UNL     1      23.247  34.447  48.535  1.00  0.00     0.293 HD
ENDBRANCH  15  18
BRANCH  17  20
ATOM     20  O   UNL     1      26.099  32.558  46.878  1.00  0.00    -0.504 OA
ATOM     21  H   UNL     1      26.428  32.516  45.920  1.00  0.00     0.293 HD
ENDBRANCH  17  20
ENDBRANCH   1  12
BRANCH   6  22
ATOM     22  O   UNL     1      22.954  23.193  46.875  1.00  0.00    -0.507 OA
ATOM     23  H   UNL     1      22.998  22.196  47.023  1.00  0.00     0.293 HD
ENDBRANCH   6  22
BRANCH   8  24
ATOM     24  O   UNL     1      27.696  23.741  47.205  1.00  0.00    -0.508 OA
ATOM     25  H   UNL     1      28.519  24.257  46.915  1.00  0.00     0.293 HD
ENDBRANCH   8  24
TORSDOF 5
ENDMDL
MODEL 4
REMARK VINA RESULT:    -0.204      1.612      2.038
REMARK INTER + INTRA:          -0.556
REMARK INTER:                  -0.245
REMARK INTRA:                  -0.312
REMARK UNBOUND:                -0.316
REMARK SMILES O=c1cc(-c2ccc(O)c(O)c2)oc2cc(O)cc(O)c12
REMARK SMILES IDX 4 1 3 2 2 3 1 4 21 5 19 6 18 7 16 8 15 9 14 10 13 11 5 12
REMARK SMILES IDX 6 13 7 14 8 15 12 16 10 17 9 18 11 20 20 22 17 24
REMARK H PARENT 9 19 11 21 20 23 17 25
REMARK Flexibility Score: inf
ROOT
ATOM      1  C   UNL     1      22.532  29.159  47.973  1.00  0.00     0.138 A 
ATOM      2  C   UNL     1      23.889  29.424  47.741  1.00  0.00     0.100 A 
ATOM      3  C   UNL     1      24.748  28.378  47.404  1.00  0.00     0.197 A 
ATOM      4  O   UNL     1      25.946  28.655  47.140  1.00  0.00    -0.289 OA
ATOM      5  C   UNL     1      24.251  27.055  47.331  1.00  0.00     0.107 A 
ATOM      6  C   UNL     1      25.042  25.904  47.036  1.00  0.00     0.134 A 
ATOM      7  C   UNL     1      24.419  24.660  46.877  1.00  0.00     0.093 A 
ATOM      8  C   UNL     1      23.044  24.515  47.060  1.00  0.00     0.123 A 
ATOM      9  C   UNL     1      22.268  25.623  47.401  1.00  0.00     0.094 A 
ATOM     10  C   UNL     1      22.856  26.883  47.533  1.00  0.00     0.146 A 
ATOM     11  O   UNL     1      22.079  27.916  47.845  1.00  0.00    -0.456 OA
ENDROOT
BRANCH   1  12
ATOM     12  C   UNL     1      21.574  30.235  48.335  1.00  0.00     0.021 A 
ATOM     13  C   UNL     1      22.003  31.439  48.927  1.00  0.00     0.016 A 
ATOM     14  C   UNL     1      21.078  32.430  49.267  1.00  0.00     0.051 A 
ATOM     15  C   UNL     1      19.715  32.237  49.032  1.00  0.00     0.157 A 
ATOM     16  C   UNL     1      20.199  30.042  48.114  1.00  0.00     0.062 A 
ATOM     17  C   UNL     1      19.270  31.036  48.454  1.00  0.00     0.158 A 
BRANCH  15  18
ATOM     18  O   UNL     1      18.816  33.245  49.381  1.00  0.00    -0.504 OA
ATOM     19  H   UNL     1      18.629  34.033  48.773  1.00  0.00     0.293 HD
ENDBRANCH  15  18
BRANCH  17  20
ATOM     20  O   UNL     1      17.911  30.835  48.220  1.00  0.00    -0.504 OA
ATOM     21  H   UNL     1      17.532  29.911  48.050  1.00  0.00     0.293 HD
ENDBRANCH  17  20
ENDBRANCH   1  12
BRANCH   6  22
ATOM     22  O   UNL     1      26.434  25.924  46.918  1.00  0.00    -0.507 OA
ATOM     23  H   UNL     1      26.945  26.386  46.180  1.00  0.00     0.293 HD
ENDBRANCH   6  22
BRANCH   8  24
ATOM     24  O   UNL     1      22.461  23.259  46.908  1.00  0.00    -0.508 OA
ATOM     25  H   UNL     1      21.471  23.155  46.713  1.00  0.00     0.293 HD
ENDBRANCH   8  24
TORSDOF 5
ENDMDL
MODEL 5
REMARK VINA RESULT:    -0.203      1.810      2.319
REMARK INTER + INTRA:          -0.555
REMARK INTER:                  -0.237
REMARK INTRA:                  -0.318
REMARK UNBOUND:                -0.316
REMARK SMILES O=c1cc(-c2ccc(O)c(O)c2)oc2cc(O)cc(O)c12
REMARK SMILES IDX 4 1 3 2 2 3 1 4 21 5 19 6 18 7 16 8 15 9 14 10 13 11 5 12
REMARK SMILES IDX 6 13 7 14 8 15 12 16 10 17 9 18 11 20 20 22 17 24
REMARK H PARENT 9 19 11 21 20 23 17 25
REMARK Flexibility Score: inf
ROOT
ATOM      1  C   UNL     1      24.245  28.235  47.643  1.00  0.00     0.138 A 
ATOM      2  C   UNL     1      25.415  28.979  47.433  1.00  0.00     0.100 A 
ATOM      3  C   UNL     1      26.617  28.318  47.185  1.00  0.00     0.197 A 
ATOM      4  O   UNL     1      27.637  29.012  46.939  1.00  0.00    -0.289 OA
ATOM      5  C   UNL     1      26.655  26.902  47.179  1.00  0.00     0.107 A 
ATOM      6  C   UNL     1      27.831  26.121  46.977  1.00  0.00     0.134 A 
ATOM      7  C   UNL     1      27.725  24.728  46.875  1.00  0.00     0.093 A 
ATOM      8  C   UNL     1      26.497  24.086  47.028  1.00  0.00     0.123 A 
ATOM      9  C   UNL     1      25.347  24.836  47.279  1.00  0.00     0.094 A 
ATOM     10  C   UNL     1      25.416  26.230  47.351  1.00  0.00     0.146 A 
ATOM     11  O   UNL     1      24.296  26.909  47.578  1.00  0.00    -0.456 OA
ENDROOT
BRANCH   1  12
ATOM     12  C   UNL     1      22.939  28.888  47.912  1.00  0.00     0.021 A 
ATOM     13  C   UNL     1      22.828  30.283  48.075  1.00  0.00     0.016 A 
ATOM     14  C   UNL     1      21.588  30.869  48.338  1.00  0.00     0.051 A 
ATOM     15  C   UNL     1      20.441  30.079  48.451  1.00  0.00     0.157 A 
ATOM     16  C   UNL     1      21.782  28.098  48.041  1.00  0.00     0.062 A 
ATOM     17  C   UNL     1      20.537  28.686  48.304  1.00  0.00     0.158 A 
BRANCH  15  18
ATOM     18  O   UNL     1      19.217  30.694  48.713  1.00  0.00    -0.504 OA
ATOM     19  H   UNL     1      18.388  30.501  48.163  1.00  0.00     0.293 HD
ENDBRANCH  15  18
BRANCH  17  20
ATOM     20  O   UNL     1      19.397  27.892  48.420  1.00  0.00    -0.504 OA
ATOM     21  H   UNL     1      19.025  27.379  47.629  1.00  0.00     0.293 HD
ENDBRANCH  17  20
ENDBRANCH   1  12
BRANCH   6  22
ATOM     22  O   UNL     1      29.119  26.656  46.896  1.00  0.00    -0.507 OA
ATOM     23  H   UNL     1      29.956  26.201  47.230  1.00  0.00     0.293 HD
ENDBRANCH   6  22
BRANCH   8  24
ATOM     24  O   UNL     1      26.433  22.697  46.935  1.00  0.00    -0.508 OA
ATOM     25  H   UNL     1      27.096  22.103  47.421  1.00  0.00     0.293 HD
ENDBRANCH   8  24
TORSDOF 5
ENDMDL
MODEL 6
REMARK VINA RESULT:    -0.201      2.801      7.535
REMARK INTER + INTRA:          -0.552
REMARK INTER:                  -0.234
REMARK INTRA:                  -0.318
REMARK UNBOUND:                -0.316
REMARK SMILES O=c1cc(-c2ccc(O)c(O)c2)oc2cc(O)cc(O)c12
REMARK SMILES IDX 4 1 3 2 2 3 1 4 21 5 19 6 18 7 16 8 15 9 14 10 13 11 5 12
REMARK SMILES IDX 6 13 7 14 8 15 12 16 10 17 9 18 11 20 20 22 17 24
REMARK H PARENT 9 19 11 21 20 23 17 25
REMARK Flexibility Score: inf
ROOT
ATOM      1  C   UNL     1      23.839  29.993  47.297  1.00  0.00     0.138 A 
ATOM      2  C   UNL     1      24.775  31.037  47.308  1.00  0.00     0.100 A 
ATOM      3  C   UNL     1      24.334  32.357  47.401  1.00  0.00     0.197 A 
ATOM      4  O   UNL     1      25.199  33.268  47.471  1.00  0.00    -0.289 OA
ATOM      5  C   UNL     1      22.947  32.634  47.453  1.00  0.00     0.107 A 
ATOM      6  C   UNL     1      22.381  33.943  47.509  1.00  0.00     0.134 A 
ATOM      7  C   UNL     1      20.998  34.090  47.675  1.00  0.00     0.093 A 
ATOM      8  C   UNL     1      20.156  32.980  47.727  1.00  0.00     0.123 A 
ATOM      9  C   UNL     1      20.693  31.696  47.619  1.00  0.00     0.094 A 
ATOM     10  C   UNL     1      22.072  31.516  47.488  1.00  0.00     0.146 A 
ATOM     11  O   UNL     1      22.545  30.277  47.403  1.00  0.00    -0.456 OA
ENDROOT
BRANCH   1  12
ATOM     12  C   UNL     1      24.254  28.570  47.199  1.00  0.00     0.021 A 
ATOM     13  C   UNL     1      25.611  28.194  47.185  1.00  0.00     0.016 A 
ATOM     14  C   UNL     1      25.972  26.849  47.080  1.00  0.00     0.051 A 
ATOM     15  C   UNL     1      24.992  25.858  46.980  1.00  0.00     0.157 A 
ATOM     16  C   UNL     1      23.273  27.569  47.084  1.00  0.00     0.062 A 
ATOM     17  C   UNL     1      23.634  26.218  46.979  1.00  0.00     0.158 A 
BRANCH  15  18
ATOM     18  O   UNL     1      25.384  24.524  46.878  1.00  0.00    -0.504 OA
ATOM     19  H   UNL     1      26.352  24.256  46.744  1.00  0.00     0.293 HD
ENDBRANCH  15  18
BRANCH  17  20
ATOM     20  O   UNL     1      22.652  25.235  46.875  1.00  0.00    -0.504 OA
ATOM     21  H   UNL     1      22.861  24.257  47.034  1.00  0.00     0.293 HD
ENDBRANCH  17  20
ENDBRANCH   1  12
BRANCH   6  22
ATOM     22  O   UNL     1      23.123  35.120  47.382  1.00  0.00    -0.507 OA
ATOM     23  H   UNL     1      24.094  35.222  47.636  1.00  0.00     0.293 HD
ENDBRANCH   6  22
BRANCH   8  24
ATOM     24  O   UNL     1      18.784  33.165  47.878  1.00  0.00    -0.508 OA
ATOM     25  H   UNL     1      18.334  33.073  48.781  1.00  0.00     0.293 HD
ENDBRANCH   8  24
TORSDOF 5
ENDMDL
MODEL 7
REMARK VINA RESULT:    -0.194      3.275      6.776
REMARK INTER + INTRA:          -0.544
REMARK INTER:                  -0.230
REMARK INTRA:                  -0.314
REMARK UNBOUND:                -0.316
REMARK SMILES O=c1cc(-c2ccc(O)c(O)c2)oc2cc(O)cc(O)c12
REMARK SMILES IDX 4 1 3 2 2 3 1 4 21 5 19 6 18 7 16 8 15 9 14 10 13 11 5 12
REMARK SMILES IDX 6 13 7 14 8 15 12 16 10 17 9 18 11 20 20 22 17 24
REMARK H PARENT 9 19 11 21 20 23 17 25
REMARK Flexibility Score: inf
ROOT
ATOM      1  C   UNL     1      24.325  28.864  47.448  1.00  0.00     0.138 A 
ATOM      2  C   UNL     1      25.635  29.155  47.041  1.00  0.00     0.100 A 
ATOM      3  C   UNL     1      26.133  30.448  47.193  1.00  0.00     0.197 A 
ATOM      4  O   UNL     1      27.332  30.664  46.876  1.00  0.00    -0.289 OA
ATOM      5  C   UNL     1      25.304  31.464  47.726  1.00  0.00     0.107 A 
ATOM      6  C   UNL     1      25.692  32.828  47.889  1.00  0.00     0.134 A 
ATOM      7  C   UNL     1      24.826  33.719  48.535  1.00  0.00     0.093 A 
ATOM      8  C   UNL     1      23.565  33.311  48.970  1.00  0.00     0.123 A 
ATOM      9  C   UNL     1      23.154  31.992  48.768  1.00  0.00     0.094 A 
ATOM     10  C   UNL     1      24.009  31.072  48.157  1.00  0.00     0.146 A 
ATOM     11  O   UNL     1      23.585  29.823  47.996  1.00  0.00    -0.456 OA
ENDROOT
BRANCH   1  12
ATOM     12  C   UNL     1      23.744  27.504  47.308  1.00  0.00     0.021 A 
ATOM     13  C   UNL     1      24.552  26.376  47.066  1.00  0.00     0.016 A 
ATOM     14  C   UNL     1      23.977  25.110  46.928  1.00  0.00     0.051 A 
ATOM     15  C   UNL     1      22.593  24.947  47.021  1.00  0.00     0.157 A 
ATOM     16  C   UNL     1      22.350  27.335  47.388  1.00  0.00     0.062 A 
ATOM     17  C   UNL     1      21.773  26.064  47.250  1.00  0.00     0.158 A 
BRANCH  15  18
ATOM     18  O   UNL     1      22.049  23.670  46.881  1.00  0.00    -0.504 OA
ATOM     19  H   UNL     1      21.141  23.515  46.460  1.00  0.00     0.293 HD
ENDBRANCH  15  18
BRANCH  17  20
ATOM     20  O   UNL     1      20.391  25.909  47.341  1.00  0.00    -0.504 OA
ATOM     21  H   UNL     1      19.960  25.442  48.129  1.00  0.00     0.293 HD
ENDBRANCH  17  20
ENDBRANCH   1  12
BRANCH   6  22
ATOM     22  O   UNL     1      26.894  33.360  47.415  1.00  0.00    -0.507 OA
ATOM     23  H   UNL     1      27.393  33.027  46.604  1.00  0.00     0.293 HD
ENDBRANCH   6  22
BRANCH   8  24
ATOM     24  O   UNL     1      22.725  34.229  49.596  1.00  0.00    -0.508 OA
ATOM     25  H   UNL     1      22.932  35.222  49.595  1.00  0.00     0.293 HD
ENDBRANCH   8  24
TORSDOF 5
ENDMDL
MODEL 8
REMARK VINA RESULT:     0.019     10.115     10.382
REMARK INTER + INTRA:          -0.294
REMARK INTER:                   0.000
REMARK INTRA:                  -0.294
REMARK UNBOUND:                -0.316
REMARK SMILES O=c1cc(-c2ccc(O)c(O)c2)oc2cc(O)cc(O)c12
REMARK SMILES IDX 4 1 3 2 2 3 1 4 21 5 19 6 18 7 16 8 15 9 14 10 13 11 5 12
REMARK SMILES IDX 6 13 7 14 8 15 12 16 10 17 9 18 11 20 20 22 17 24
REMARK H PARENT 9 19 11 21 20 23 17 25
REMARK Flexibility Score: inf
ROOT
ATOM      1  C   UNL     1      23.891  29.079  57.025  1.00  0.00     0.138 A 
ATOM      2  C   UNL     1      24.357  29.930  56.013  1.00  0.00     0.100 A 
ATOM      3  C   UNL     1      25.025  29.393  54.913  1.00  0.00     0.197 A 
ATOM      4  O   UNL     1      25.377  30.174  53.992  1.00  0.00    -0.289 OA
ATOM      5  C   UNL     1      25.256  27.998  54.842  1.00  0.00     0.107 A 
ATOM      6  C   UNL     1      25.962  27.344  53.788  1.00  0.00     0.134 A 
ATOM      7  C   UNL     1      26.027  25.945  53.766  1.00  0.00     0.093 A 
ATOM      8  C   UNL     1      25.465  25.181  54.789  1.00  0.00     0.123 A 
ATOM      9  C   UNL     1      24.819  25.813  55.852  1.00  0.00     0.094 A 
ATOM     10  C   UNL     1      24.707  27.205  55.884  1.00  0.00     0.146 A 
ATOM     11  O   UNL     1      24.072  27.767  56.907  1.00  0.00    -0.456 OA
ENDROOT
BRANCH   1  12
ATOM     12  C   UNL     1      23.174  29.598  58.217  1.00  0.00     0.021 A 
ATOM     13  C   UNL     1      22.677  28.737  59.215  1.00  0.00     0.016 A 
ATOM     14  C   UNL     1      21.997  29.253  60.321  1.00  0.00     0.051 A 
ATOM     15  C   UNL     1      21.793  30.629  60.448  1.00  0.00     0.157 A 
ATOM     16  C   UNL     1      22.953  30.981  58.345  1.00  0.00     0.062 A 
ATOM     17  C   UNL     1      22.270  31.500  59.454  1.00  0.00     0.158 A 
BRANCH  15  18
ATOM     18  O   UNL     1      21.111  31.114  61.564  1.00  0.00    -0.504 OA
ATOM     19  H   UNL     1      21.472  31.873  62.128  1.00  0.00     0.293 HD
ENDBRANCH  15  18
BRANCH  17  20
ATOM     20  O   UNL     1      22.067  32.873  59.573  1.00  0.00    -0.504 OA
ATOM     21  H   UNL     1      22.685  33.456  60.125  1.00  0.00     0.293 HD
ENDBRANCH  17  20
ENDBRANCH   1  12
BRANCH   6  22
ATOM     22  O   UNL     1      26.633  28.015  52.763  1.00  0.00    -0.507 OA
ATOM     23  H   UNL     1      27.455  27.673  52.289  1.00  0.00     0.293 HD
ENDBRANCH   6  22
BRANCH   8  24
ATOM     24  O   UNL     1      25.563  23.792  54.741  1.00  0.00    -0.508 OA
ATOM     25  H   UNL     1      25.085  23.205  55.415  1.00  0.00     0.293 HD
ENDBRANCH   8  24
TORSDOF 5
ENDMDL
MODEL 9
REMARK VINA RESULT:     2.452      2.154      3.929
REMARK INTER + INTRA:           2.566
REMARK INTER:                   2.883
REMARK INTRA:                  -0.317
REMARK UNBOUND:                -0.316
REMARK SMILES O=c1cc(-c2ccc(O)c(O)c2)oc2cc(O)cc(O)c12
REMARK SMILES IDX 4 1 3 2 2 3 1 4 21 5 19 6 18 7 16 8 15 9 14 10 13 11 5 12
REMARK SMILES IDX 6 13 7 14 8 15 12 16 10 17 9 18 11 20 20 22 17 24
REMARK H PARENT 9 19 11 21 20 23 17 25
REMARK Flexibility Score: inf
ROOT
ATOM      1  C   UNL     1      24.438  26.648  47.155  1.00  0.00     0.138 A 
ATOM      2  C   UNL     1      23.581  25.540  47.100  1.00  0.00     0.100 A 
ATOM      3  C   UNL     1      24.117  24.252  47.099  1.00  0.00     0.197 A 
ATOM      4  O   UNL     1      23.322  23.278  47.111  1.00  0.00    -0.289 OA
ATOM      5  C   UNL     1      25.522  24.075  47.121  1.00  0.00     0.107 A 
ATOM      6  C   UNL     1      26.182  22.810  47.082  1.00  0.00     0.134 A 
ATOM      7  C   UNL     1      27.574  22.754  47.227  1.00  0.00     0.093 A 
ATOM      8  C   UNL     1      28.333  23.917  47.349  1.00  0.00     0.123 A 
ATOM      9  C   UNL     1      27.703  25.163  47.335  1.00  0.00     0.094 A 
ATOM     10  C   UNL     1      26.313  25.249  47.227  1.00  0.00     0.146 A 
ATOM     11  O   UNL     1      25.750  26.453  47.231  1.00  0.00    -0.456 OA
ENDROOT
BRANCH   1  12
ATOM     12  C   UNL     1      23.920  28.040  47.158  1.00  0.00     0.021 A 
ATOM     13  C   UNL     1      22.571  28.328  46.876  1.00  0.00     0.016 A 
ATOM     14  C   UNL     1      22.113  29.648  46.875  1.00  0.00     0.051 A 
ATOM     15  C   UNL     1      22.990  30.701  47.147  1.00  0.00     0.157 A 
ATOM     16  C   UNL     1      24.800  29.106  47.418  1.00  0.00     0.062 A 
ATOM     17  C   UNL     1      24.341  30.431  47.418  1.00  0.00     0.158 A 
BRANCH  15  18
ATOM     18  O   UNL     1      22.503  32.008  47.140  1.00  0.00    -0.504 OA
ATOM     19  H   UNL     1      22.600  32.623  47.939  1.00  0.00     0.293 HD
ENDBRANCH  15  18
BRANCH  17  20
ATOM     20  O   UNL     1      25.222  31.478  47.686  1.00  0.00    -0.504 OA
ATOM     21  H   UNL     1      26.225  31.364  47.597  1.00  0.00     0.293 HD
ENDBRANCH  17  20
ENDBRANCH   1  12
BRANCH   6  22
ATOM     22  O   UNL     1      25.526  21.593  46.879  1.00  0.00    -0.507 OA
ATOM     23  H   UNL     1      25.112  21.032  47.607  1.00  0.00     0.293 HD
ENDBRANCH   6  22
BRANCH   8  24
ATOM     24  O   UNL     1      29.717  23.823  47.477  1.00  0.00    -0.508 OA
ATOM     25  H   UNL     1      30.320  24.619  47.305  1.00  0.00     0.293 HD
ENDBRANCH   8  24
TORSDOF 5
ENDMDL
