MODEL 1
REMARK VINA RESULT:    -3.530      0.000      0.000
REMARK INTER + INTRA:          -7.208
REMARK INTER:                  -5.594
REMARK INTRA:                  -1.615
REMARK UNBOUND:                -1.615
REMARK SMILES CCCCCCCCCCCC(=O)[O-]
REMARK SMILES IDX 7 1 8 2 9 3 10 4 11 5 12 6 13 7 14 8 6 9 5 10 4 11 3 12 2 13
REMARK SMILES IDX 1 14
REMARK H PARENT
REMARK Flexibility Score: inf
ROOT
ATOM      1  C   UNL     1      27.253  -1.723  53.519  1.00  0.00     0.000 C 
ENDROOT
BRANCH   1   2
ATOM      2  C   UNL     1      26.650  -2.478  54.715  1.00  0.00     0.000 C 
BRANCH   2   3
ATOM      3  C   UNL     1      25.124  -2.642  54.601  1.00  0.00     0.000 C 
BRANCH   3   4
ATOM      4  C   UNL     1      24.652  -4.049  55.001  1.00  0.00     0.006 C 
BRANCH   4   5
ATOM      5  C   UNL     1      25.773  -4.899  55.616  1.00  0.00     0.053 C 
BRANCH   5   6
ATOM      6  C   UNL     1      25.463  -5.214  57.045  1.00  0.00     0.041 C 
ATOM      7  O   UNL     1      24.292  -5.073  57.486  1.00  0.00    -0.550 OA
ATOM      8  O   UNL     1      26.456  -5.712  57.879  1.00  0.00    -0.550 OA
ENDBRANCH   5   6
ENDBRANCH   4   5
ENDBRANCH   3   4
ENDBRANCH   2   3
ENDBRANCH   1   2
BRANCH   1   9
ATOM      9  C   UNL     1      26.360  -1.779  52.270  1.00  0.00     0.000 C 
BRANCH   9  10
ATOM     10  C   UNL     1      26.850  -2.854  51.292  1.00  0.00    -0.000 C 
BRANCH  10  11
ATOM     11  C   UNL     1      25.928  -4.083  51.319  1.00  0.00    -0.000 C 
BRANCH  11  12
ATOM     12  C   UNL     1      26.574  -5.292  52.015  1.00  0.00    -0.000 C 
BRANCH  12  13
ATOM     13  C   UNL     1      28.104  -5.187  52.081  1.00  0.00    -0.003 C 
ATOM     14  C   UNL     1      28.650  -5.899  53.315  1.00  0.00     0.004 C 
ENDBRANCH  12  13
ENDBRANCH  11  12
ENDBRANCH  10  11
ENDBRANCH   9  10
ENDBRANCH   1   9
TORSDOF 10
ENDMDL
MODEL 2
REMARK VINA RESULT:    -3.512      2.861      4.536
REMARK INTER + INTRA:          -7.179
REMARK INTER:                  -5.889
REMARK INTRA:                  -1.290
REMARK UNBOUND:                -1.615
REMARK SMILES CCCCCCCCCCCC(=O)[O-]
REMARK SMILES IDX 7 1 8 2 9 3 10 4 11 5 12 6 13 7 14 8 6 9 5 10 4 11 3 12 2 13
REMARK SMILES IDX 1 14
REMARK H PARENT
REMARK Flexibility Score: inf
ROOT
ATOM      1  C   UNL     1      26.071  -1.707  52.586  1.00  0.00     0.000 C 
ENDROOT
BRANCH   1   2
ATOM      2  C   UNL     1      26.808  -2.683  51.653  1.00  0.00     0.000 C 
BRANCH   2   3
ATOM      3  C   UNL     1      26.066  -4.022  51.494  1.00  0.00     0.000 C 
BRANCH   3   4
ATOM      4  C   UNL     1      26.964  -5.232  51.795  1.00  0.00     0.006 C 
BRANCH   4   5
ATOM      5  C   UNL     1      28.199  -4.862  52.627  1.00  0.00     0.053 C 
BRANCH   5   6
ATOM      6  C   UNL     1      29.435  -5.436  52.010  1.00  0.00     0.041 C 
ATOM      7  O   UNL     1      29.407  -5.880  50.831  1.00  0.00    -0.550 OA
ATOM      8  O   UNL     1      30.631  -5.437  52.716  1.00  0.00    -0.550 OA
ENDBRANCH   5   6
ENDBRANCH   4   5
ENDBRANCH   3   4
ENDBRANCH   2   3
ENDBRANCH   1   2
BRANCH   1   9
ATOM      9  C   UNL     1      26.165  -2.113  54.065  1.00  0.00     0.000 C 
BRANCH   9  10
ATOM     10  C   UNL     1      24.786  -2.489  54.619  1.00  0.00    -0.000 C 
BRANCH  10  11
ATOM     11  C   UNL     1      24.679  -4.004  54.850  1.00  0.00    -0.000 C 
BRANCH  11  12
ATOM     12  C   UNL     1      25.592  -4.495  55.985  1.00  0.00    -0.000 C 
BRANCH  12  13
ATOM     13  C   UNL     1      26.225  -5.861  55.684  1.00  0.00    -0.003 C 
ATOM     14  C   UNL     1      27.706  -5.873  56.051  1.00  0.00     0.004 C 
ENDBRANCH  12  13
ENDBRANCH  11  12
ENDBRANCH  10  11
ENDBRANCH   9  10
ENDBRANCH   1   9
TORSDOF 10
ENDMDL
MODEL 3
REMARK VINA RESULT:    -3.495      2.907      4.706
REMARK INTER + INTRA:          -7.153
REMARK INTER:                  -5.833
REMARK INTRA:                  -1.320
REMARK UNBOUND:                -1.615
REMARK SMILES CCCCCCCCCCCC(=O)[O-]
REMARK SMILES IDX 7 1 8 2 9 3 10 4 11 5 12 6 13 7 14 8 6 9 5 10 4 11 3 12 2 13
REMARK SMILES IDX 1 14
REMARK H PARENT
REMARK Flexibility Score: inf
ROOT
ATOM      1  C   UNL     1      26.597  -3.069  51.380  1.00  0.00     0.000 C 
ENDROOT
BRANCH   1   2
ATOM      2  C   UNL     1      27.148  -1.857  52.150  1.00  0.00     0.000 C 
BRANCH   2   3
ATOM      3  C   UNL     1      28.683  -1.875  52.259  1.00  0.00     0.000 C 
BRANCH   3   4
ATOM      4  C   UNL     1      29.325  -2.946  51.363  1.00  0.00     0.006 C 
BRANCH   4   5
ATOM      5  C   UNL     1      29.957  -4.091  52.167  1.00  0.00     0.053 C 
BRANCH   5   6
ATOM      6  C   UNL     1      29.319  -5.395  51.805  1.00  0.00     0.041 C 
ATOM      7  O   UNL     1      29.574  -5.939  50.699  1.00  0.00    -0.550 OA
ATOM      8  O   UNL     1      28.482  -6.035  52.710  1.00  0.00    -0.550 OA
ENDBRANCH   5   6
ENDBRANCH   4   5
ENDBRANCH   3   4
ENDBRANCH   2   3
ENDBRANCH   1   2
BRANCH   1   9
ATOM      9  C   UNL     1      25.525  -3.837  52.169  1.00  0.00     0.000 C 
BRANCH   9  10
ATOM     10  C   UNL     1      24.967  -2.981  53.312  1.00  0.00    -0.000 C 
BRANCH  10  11
ATOM     11  C   UNL     1      24.583  -3.853  54.516  1.00  0.00    -0.000 C 
BRANCH  11  12
ATOM     12  C   UNL     1      25.744  -4.734  55.004  1.00  0.00    -0.000 C 
BRANCH  12  13
ATOM     13  C   UNL     1      26.649  -4.013  56.014  1.00  0.00    -0.003 C 
ATOM     14  C   UNL     1      28.041  -3.781  55.436  1.00  0.00     0.004 C 
ENDBRANCH  12  13
ENDBRANCH  11  12
ENDBRANCH  10  11
ENDBRANCH   9  10
ENDBRANCH   1   9
TORSDOF 10
ENDMDL
MODEL 4
REMARK VINA RESULT:    -3.461      1.670      2.396
REMARK INTER + INTRA:          -7.099
REMARK INTER:                  -5.474
REMARK INTRA:                  -1.625
REMARK UNBOUND:                -1.615
REMARK SMILES CCCCCCCCCCCC(=O)[O-]
REMARK SMILES IDX 7 1 8 2 9 3 10 4 11 5 12 6 13 7 14 8 6 9 5 10 4 11 3 12 2 13
REMARK SMILES IDX 1 14
REMARK H PARENT
REMARK Flexibility Score: inf
ROOT
ATOM      1  C   UNL     1      25.766  -2.571  52.704  1.00  0.00     0.000 C 
ENDROOT
BRANCH   1   2
ATOM      2  C   UNL     1      24.636  -3.430  53.296  1.00  0.00     0.000 C 
BRANCH   2   3
ATOM      3  C   UNL     1      24.755  -3.592  54.822  1.00  0.00     0.000 C 
BRANCH   3   4
ATOM      4  C   UNL     1      26.158  -4.043  55.258  1.00  0.00     0.006 C 
BRANCH   4   5
ATOM      5  C   UNL     1      26.286  -5.570  55.354  1.00  0.00     0.053 C 
BRANCH   5   6
ATOM      6  C   UNL     1      27.654  -5.949  55.828  1.00  0.00     0.041 C 
ATOM      7  O   UNL     1      28.367  -6.730  55.145  1.00  0.00    -0.550 OA
ATOM      8  O   UNL     1      28.161  -5.401  56.999  1.00  0.00    -0.550 OA
ENDBRANCH   5   6
ENDBRANCH   4   5
ENDBRANCH   3   4
ENDBRANCH   2   3
ENDBRANCH   1   2
BRANCH   1   9
ATOM      9  C   UNL     1      26.443  -3.234  51.494  1.00  0.00     0.000 C 
BRANCH   9  10
ATOM     10  C   UNL     1      26.306  -4.760  51.556  1.00  0.00    -0.000 C 
BRANCH  10  11
ATOM     11  C   UNL     1      27.643  -5.418  51.931  1.00  0.00    -0.000 C 
BRANCH  11  12
ATOM     12  C   UNL     1      28.841  -4.474  51.739  1.00  0.00    -0.000 C 
BRANCH  12  13
ATOM     13  C   UNL     1      29.731  -4.390  52.987  1.00  0.00    -0.003 C 
ATOM     14  C   UNL     1      29.394  -3.157  53.820  1.00  0.00     0.004 C 
ENDBRANCH  12  13
ENDBRANCH  11  12
ENDBRANCH  10  11
ENDBRANCH   9  10
ENDBRANCH   1   9
TORSDOF 10
ENDMDL
MODEL 5
REMARK VINA RESULT:    -3.459      3.015      4.782
REMARK INTER + INTRA:          -7.096
REMARK INTER:                  -5.582
REMARK INTRA:                  -1.514
REMARK UNBOUND:                -1.615
REMARK SMILES CCCCCCCCCCCC(=O)[O-]
REMARK SMILES IDX 7 1 8 2 9 3 10 4 11 5 12 6 13 7 14 8 6 9 5 10 4 11 3 12 2 13
REMARK SMILES IDX 1 14
REMARK H PARENT
REMARK Flexibility Score: inf
ROOT
ATOM      1  C   UNL     1      25.623  -2.254  53.126  1.00  0.00     0.000 C 
ENDROOT
BRANCH   1   2
ATOM      2  C   UNL     1      26.410  -2.838  51.940  1.00  0.00     0.000 C 
BRANCH   2   3
ATOM      3  C   UNL     1      25.874  -4.209  51.493  1.00  0.00     0.000 C 
BRANCH   3   4
ATOM      4  C   UNL     1      26.911  -5.331  51.663  1.00  0.00     0.006 C 
BRANCH   4   5
ATOM      5  C   UNL     1      28.050  -4.946  52.617  1.00  0.00     0.053 C 
BRANCH   5   6
ATOM      6  C   UNL     1      29.368  -5.023  51.913  1.00  0.00     0.041 C 
ATOM      7  O   UNL     1      30.341  -4.332  52.313  1.00  0.00    -0.550 OA
ATOM      8  O   UNL     1      29.537  -5.896  50.846  1.00  0.00    -0.550 OA
ENDBRANCH   5   6
ENDBRANCH   4   5
ENDBRANCH   3   4
ENDBRANCH   2   3
ENDBRANCH   1   2
BRANCH   1   9
ATOM      9  C   UNL     1      24.527  -3.203  53.635  1.00  0.00     0.000 C 
BRANCH   9  10
ATOM     10  C   UNL     1      24.687  -3.471  55.137  1.00  0.00    -0.000 C 
BRANCH  10  11
ATOM     11  C   UNL     1      25.390  -4.814  55.384  1.00  0.00    -0.000 C 
BRANCH  11  12
ATOM     12  C   UNL     1      26.769  -4.649  56.043  1.00  0.00    -0.000 C 
BRANCH  12  13
ATOM     13  C   UNL     1      27.097  -3.185  56.367  1.00  0.00    -0.003 C 
ATOM     14  C   UNL     1      28.332  -2.717  55.603  1.00  0.00     0.004 C 
ENDBRANCH  12  13
ENDBRANCH  11  12
ENDBRANCH  10  11
ENDBRANCH   9  10
ENDBRANCH   1   9
TORSDOF 10
ENDMDL
MODEL 6
REMARK VINA RESULT:    -3.450      1.096      2.214
REMARK INTER + INTRA:          -7.081
REMARK INTER:                  -5.429
REMARK INTRA:                  -1.652
REMARK UNBOUND:                -1.615
REMARK SMILES CCCCCCCCCCCC(=O)[O-]
REMARK SMILES IDX 7 1 8 2 9 3 10 4 11 5 12 6 13 7 14 8 6 9 5 10 4 11 3 12 2 13
REMARK SMILES IDX 1 14
REMARK H PARENT
REMARK Flexibility Score: inf
ROOT
ATOM      1  C   UNL     1      26.906  -2.947  51.379  1.00  0.00     0.000 C 
ENDROOT
BRANCH   1   2
ATOM      2  C   UNL     1      26.679  -2.055  52.612  1.00  0.00     0.000 C 
BRANCH   2   3
ATOM      3  C   UNL     1      25.278  -2.235  53.221  1.00  0.00     0.000 C 
BRANCH   3   4
ATOM      4  C   UNL     1      25.327  -2.642  54.702  1.00  0.00     0.006 C 
BRANCH   4   5
ATOM      5  C   UNL     1      24.765  -4.049  54.950  1.00  0.00     0.053 C 
BRANCH   5   6
ATOM      6  C   UNL     1      24.968  -4.447  56.377  1.00  0.00     0.041 C 
ATOM      7  O   UNL     1      25.572  -5.515  56.657  1.00  0.00    -0.550 OA
ATOM      8  O   UNL     1      24.533  -3.614  57.401  1.00  0.00    -0.550 OA
ENDBRANCH   5   6
ENDBRANCH   4   5
ENDBRANCH   3   4
ENDBRANCH   2   3
ENDBRANCH   1   2
BRANCH   1   9
ATOM      9  C   UNL     1      25.983  -4.175  51.357  1.00  0.00     0.000 C 
BRANCH   9  10
ATOM     10  C   UNL     1      26.689  -5.404  51.942  1.00  0.00    -0.000 C 
BRANCH  10  11
ATOM     11  C   UNL     1      28.209  -5.314  51.736  1.00  0.00    -0.000 C 
BRANCH  11  12
ATOM     12  C   UNL     1      28.997  -5.530  53.038  1.00  0.00    -0.000 C 
BRANCH  12  13
ATOM     13  C   UNL     1      28.151  -5.263  54.291  1.00  0.00    -0.003 C 
ATOM     14  C   UNL     1      28.705  -4.085  55.087  1.00  0.00     0.004 C 
ENDBRANCH  12  13
ENDBRANCH  11  12
ENDBRANCH  10  11
ENDBRANCH   9  10
ENDBRANCH   1   9
TORSDOF 10
ENDMDL
MODEL 7
REMARK VINA RESULT:    -3.437      3.098      4.545
REMARK INTER + INTRA:          -7.061
REMARK INTER:                  -5.487
REMARK INTRA:                  -1.574
REMARK UNBOUND:                -1.615
REMARK SMILES CCCCCCCCCCCC(=O)[O-]
REMARK SMILES IDX 7 1 8 2 9 3 10 4 11 5 12 6 13 7 14 8 6 9 5 10 4 11 3 12 2 13
REMARK SMILES IDX 1 14
REMARK H PARENT
REMARK Flexibility Score: inf
ROOT
ATOM      1  C   UNL     1      25.138  -4.047  54.486  1.00  0.00     0.000 C 
ENDROOT
BRANCH   1   2
ATOM      2  C   UNL     1      26.320  -5.028  54.554  1.00  0.00     0.000 C 
BRANCH   2   3
ATOM      3  C   UNL     1      27.544  -4.430  55.270  1.00  0.00     0.000 C 
BRANCH   3   4
ATOM      4  C   UNL     1      28.873  -4.937  54.689  1.00  0.00     0.006 C 
BRANCH   4   5
ATOM      5  C   UNL     1      28.675  -5.887  53.499  1.00  0.00     0.053 C 
BRANCH   5   6
ATOM      6  C   UNL     1      29.599  -5.520  52.381  1.00  0.00     0.041 C 
ATOM      7  O   UNL     1      30.707  -4.975  52.627  1.00  0.00    -0.550 OA
ATOM      8  O   UNL     1      29.260  -5.825  51.069  1.00  0.00    -0.550 OA
ENDBRANCH   5   6
ENDBRANCH   4   5
ENDBRANCH   3   4
ENDBRANCH   2   3
ENDBRANCH   1   2
BRANCH   1   9
ATOM      9  C   UNL     1      24.807  -3.614  53.049  1.00  0.00     0.000 C 
BRANCH   9  10
ATOM     10  C   UNL     1      25.880  -4.103  52.068  1.00  0.00    -0.000 C 
BRANCH  10  11
ATOM     11  C   UNL     1      26.548  -2.921  51.350  1.00  0.00    -0.000 C 
BRANCH  11  12
ATOM     12  C   UNL     1      27.867  -2.494  52.015  1.00  0.00    -0.000 C 
BRANCH  12  13
ATOM     13  C   UNL     1      27.677  -1.354  53.026  1.00  0.00    -0.003 C 
ATOM     14  C   UNL     1      26.596  -0.383  52.561  1.00  0.00     0.004 C 
ENDBRANCH  12  13
ENDBRANCH  11  12
ENDBRANCH  10  11
ENDBRANCH   9  10
ENDBRANCH   1   9
TORSDOF 10
ENDMDL
MODEL 8
REMARK VINA RESULT:    -3.426      1.104      1.671
REMARK INTER + INTRA:          -7.043
REMARK INTER:                  -5.770
REMARK INTRA:                  -1.273
REMARK UNBOUND:                -1.615
REMARK SMILES CCCCCCCCCCCC(=O)[O-]
REMARK SMILES IDX 7 1 8 2 9 3 10 4 11 5 12 6 13 7 14 8 6 9 5 10 4 11 3 12 2 13
REMARK SMILES IDX 1 14
REMARK H PARENT
REMARK Flexibility Score: inf
ROOT
ATOM      1  C   UNL     1      26.069  -2.774  52.988  1.00  0.00     0.000 C 
ENDROOT
BRANCH   1   2
ATOM      2  C   UNL     1      24.645  -3.248  53.326  1.00  0.00     0.000 C 
BRANCH   2   3
ATOM      3  C   UNL     1      24.569  -3.972  54.681  1.00  0.00     0.000 C 
BRANCH   3   4
ATOM      4  C   UNL     1      25.958  -4.245  55.281  1.00  0.00     0.006 C 
BRANCH   4   5
ATOM      5  C   UNL     1      26.041  -5.605  55.989  1.00  0.00     0.053 C 
BRANCH   5   6
ATOM      6  C   UNL     1      25.938  -5.428  57.470  1.00  0.00     0.041 C 
ATOM      7  O   UNL     1      24.833  -5.131  57.998  1.00  0.00    -0.550 OA
ATOM      8  O   UNL     1      27.049  -5.640  58.276  1.00  0.00    -0.550 OA
ENDBRANCH   5   6
ENDBRANCH   4   5
ENDBRANCH   3   4
ENDBRANCH   2   3
ENDBRANCH   1   2
BRANCH   1   9
ATOM      9  C   UNL     1      26.544  -3.256  51.608  1.00  0.00     0.000 C 
BRANCH   9  10
ATOM     10  C   UNL     1      26.360  -4.772  51.464  1.00  0.00    -0.000 C 
BRANCH  10  11
ATOM     11  C   UNL     1      27.449  -5.534  52.234  1.00  0.00    -0.000 C 
BRANCH  11  12
ATOM     12  C   UNL     1      28.811  -5.502  51.522  1.00  0.00    -0.000 C 
BRANCH  12  13
ATOM     13  C   UNL     1      29.955  -5.080  52.454  1.00  0.00    -0.003 C 
ATOM     14  C   UNL     1      29.417  -4.430  53.725  1.00  0.00     0.004 C 
ENDBRANCH  12  13
ENDBRANCH  11  12
ENDBRANCH  10  11
ENDBRANCH   9  10
ENDBRANCH   1   9
TORSDOF 10
ENDMDL
MODEL 9
REMARK VINA RESULT:    -3.410      2.287      4.352
REMARK INTER + INTRA:          -7.018
REMARK INTER:                  -5.304
REMARK INTRA:                  -1.714
REMARK UNBOUND:                -1.615
REMARK SMILES CCCCCCCCCCCC(=O)[O-]
REMARK SMILES IDX 7 1 8 2 9 3 10 4 11 5 12 6 13 7 14 8 6 9 5 10 4 11 3 12 2 13
REMARK SMILES IDX 1 14
REMARK H PARENT
REMARK Flexibility Score: inf
ROOT
ATOM      1  C   UNL     1      26.951  -2.893  51.349  1.00  0.00     0.000 C 
ENDROOT
BRANCH   1   2
ATOM      2  C   UNL     1      25.969  -4.075  51.294  1.00  0.00     0.000 C 
BRANCH   2   3
ATOM      3  C   UNL     1      26.572  -5.371  51.864  1.00  0.00     0.000 C 
BRANCH   3   4
ATOM      4  C   UNL     1      28.108  -5.371  51.828  1.00  0.00     0.006 C 
BRANCH   4   5
ATOM      5  C   UNL     1      28.734  -5.592  53.213  1.00  0.00     0.053 C 
BRANCH   5   6
ATOM      6  C   UNL     1      29.704  -4.497  53.526  1.00  0.00     0.041 C 
ATOM      7  O   UNL     1      30.334  -3.924  52.599  1.00  0.00    -0.550 OA
ATOM      8  O   UNL     1      29.876  -4.074  54.838  1.00  0.00    -0.550 OA
ENDBRANCH   5   6
ENDBRANCH   4   5
ENDBRANCH   3   4
ENDBRANCH   2   3
ENDBRANCH   1   2
BRANCH   1   9
ATOM      9  C   UNL     1      26.445  -1.741  52.231  1.00  0.00     0.000 C 
BRANCH   9  10
ATOM     10  C   UNL     1      27.258  -1.644  53.527  1.00  0.00    -0.000 C 
BRANCH  10  11
ATOM     11  C   UNL     1      26.659  -2.542  54.620  1.00  0.00    -0.000 C 
BRANCH  11  12
ATOM     12  C   UNL     1      25.127  -2.634  54.537  1.00  0.00    -0.000 C 
BRANCH  12  13
ATOM     13  C   UNL     1      24.588  -3.982  55.036  1.00  0.00    -0.003 C 
ATOM     14  C   UNL     1      25.728  -4.939  55.371  1.00  0.00     0.004 C 
ENDBRANCH  12  13
ENDBRANCH  11  12
ENDBRANCH  10  11
ENDBRANCH   9  10
ENDBRANCH   1   9
TORSDOF 10
ENDMDL
