MODEL 1
REMARK VINA RESULT:    -4.005      0.000      0.000
REMARK INTER + INTRA:          -8.307
REMARK INTER:                  -6.814
REMARK INTRA:                  -1.494
REMARK UNBOUND:                -1.494
REMARK SMILES CCCCCCCCCCCCCC(=O)[O-]
REMARK SMILES IDX 8 1 9 2 10 3 11 4 12 5 13 6 14 7 15 8 16 9 7 10 6 11 5 12
REMARK SMILES IDX 4 13 3 14 2 15 1 16
REMARK H PARENT
REMARK Flexibility Score: inf
ROOT
ATOM      1  C   UNL     1     -10.544   4.541  -7.922  1.00  0.00     0.000 C 
ENDROOT
BRANCH   1   2
ATOM      2  C   UNL     1      -9.072   4.419  -7.475  1.00  0.00     0.000 C 
BRANCH   2   3
ATOM      3  C   UNL     1      -8.111   4.272  -8.665  1.00  0.00     0.000 C 
BRANCH   3   4
ATOM      4  C   UNL     1      -7.260   5.535  -8.845  1.00  0.00     0.000 C 
BRANCH   4   5
ATOM      5  C   UNL     1      -8.135   6.739  -9.216  1.00  0.00     0.006 C 
BRANCH   5   6
ATOM      6  C   UNL     1      -8.820   6.522 -10.569  1.00  0.00     0.053 C 
BRANCH   6   7
ATOM      7  C   UNL     1      -7.825   6.077 -11.594  1.00  0.00     0.041 C 
ATOM      8  O   UNL     1      -7.929   4.939 -12.124  1.00  0.00    -0.550 OA
ATOM      9  O   UNL     1      -6.754   6.897 -11.927  1.00  0.00    -0.550 OA
ENDBRANCH   6   7
ENDBRANCH   5   6
ENDBRANCH   4   5
ENDBRANCH   3   4
ENDBRANCH   2   3
ENDBRANCH   1   2
BRANCH   1  10
ATOM     10  C   UNL     1     -10.992   3.430  -8.892  1.00  0.00     0.000 C 
BRANCH  10  11
ATOM     11  C   UNL     1     -11.057   3.849 -10.370  1.00  0.00    -0.000 C 
BRANCH  11  12
ATOM     12  C   UNL     1     -10.800   2.677 -11.334  1.00  0.00    -0.000 C 
BRANCH  12  13
ATOM     13  C   UNL     1     -10.317   1.416 -10.594  1.00  0.00    -0.000 C 
BRANCH  13  14
ATOM     14  C   UNL     1      -8.823   1.102 -10.838  1.00  0.00    -0.000 C 
BRANCH  14  15
ATOM     15  C   UNL     1      -8.047   0.785  -9.548  1.00  0.00    -0.003 C 
ATOM     16  C   UNL     1      -8.961   0.489  -8.362  1.00  0.00     0.004 C 
ENDBRANCH  14  15
ENDBRANCH  13  14
ENDBRANCH  12  13
ENDBRANCH  11  12
ENDBRANCH  10  11
ENDBRANCH   1  10
TORSDOF 12
ENDMDL
MODEL 2
REMARK VINA RESULT:    -3.604      1.562      3.149
REMARK INTER + INTRA:          -7.626
REMARK INTER:                  -5.860
REMARK INTRA:                  -1.765
REMARK UNBOUND:                -1.494
REMARK SMILES CCCCCCCCCCCCCC(=O)[O-]
REMARK SMILES IDX 8 1 9 2 10 3 11 4 12 5 13 6 14 7 15 8 16 9 7 10 6 11 5 12
REMARK SMILES IDX 4 13 3 14 2 15 1 16
REMARK H PARENT
REMARK Flexibility Score: inf
ROOT
ATOM      1  C   UNL     1      -9.150   3.530 -11.998  1.00  0.00     0.000 C 
ENDROOT
BRANCH   1   2
ATOM      2  C   UNL     1      -9.704   4.910 -11.585  1.00  0.00     0.000 C 
BRANCH   2   3
ATOM      3  C   UNL     1     -10.921   4.796 -10.654  1.00  0.00     0.000 C 
BRANCH   3   4
ATOM      4  C   UNL     1     -10.868   5.857  -9.547  1.00  0.00     0.000 C 
BRANCH   4   5
ATOM      5  C   UNL     1      -9.728   6.852  -9.794  1.00  0.00     0.006 C 
BRANCH   5   6
ATOM      6  C   UNL     1      -8.712   6.817  -8.648  1.00  0.00     0.053 C 
BRANCH   6   7
ATOM      7  C   UNL     1      -7.345   6.506  -9.170  1.00  0.00     0.041 C 
ATOM      8  O   UNL     1      -7.026   6.834 -10.343  1.00  0.00    -0.550 OA
ATOM      9  O   UNL     1      -6.439   5.810  -8.380  1.00  0.00    -0.550 OA
ENDBRANCH   6   7
ENDBRANCH   5   6
ENDBRANCH   4   5
ENDBRANCH   3   4
ENDBRANCH   2   3
ENDBRANCH   1   2
BRANCH   1  10
ATOM     10  C   UNL     1     -10.209   2.409 -11.992  1.00  0.00     0.000 C 
BRANCH  10  11
ATOM     11  C   UNL     1      -9.717   1.058 -11.445  1.00  0.00    -0.000 C 
BRANCH  11  12
ATOM     12  C   UNL     1      -8.276   1.122 -10.908  1.00  0.00    -0.000 C 
BRANCH  12  13
ATOM     13  C   UNL     1      -8.182   0.650  -9.446  1.00  0.00    -0.000 C 
BRANCH  13  14
ATOM     14  C   UNL     1      -9.019   1.512  -8.472  1.00  0.00    -0.000 C 
BRANCH  14  15
ATOM     15  C   UNL     1      -8.610   2.994  -8.463  1.00  0.00    -0.003 C 
ATOM     16  C   UNL     1      -9.024   3.717  -7.183  1.00  0.00     0.004 C 
ENDBRANCH  14  15
ENDBRANCH  13  14
ENDBRANCH  12  13
ENDBRANCH  11  12
ENDBRANCH  10  11
ENDBRANCH   1  10
TORSDOF 12
ENDMDL
MODEL 3
REMARK VINA RESULT:    -3.456      1.931      3.049
REMARK INTER + INTRA:          -7.375
REMARK INTER:                  -6.197
REMARK INTRA:                  -1.178
REMARK UNBOUND:                -1.494
REMARK SMILES CCCCCCCCCCCCCC(=O)[O-]
REMARK SMILES IDX 8 1 9 2 10 3 11 4 12 5 13 6 14 7 15 8 16 9 7 10 6 11 5 12
REMARK SMILES IDX 4 13 3 14 2 15 1 16
REMARK H PARENT
REMARK Flexibility Score: inf
ROOT
ATOM      1  C   UNL     1      -8.823   4.241 -11.877  1.00  0.00     0.000 C 
ENDROOT
BRANCH   1   2
ATOM      2  C   UNL     1      -8.114   5.593 -12.105  1.00  0.00     0.000 C 
BRANCH   2   3
ATOM      3  C   UNL     1      -8.444   6.618 -11.010  1.00  0.00     0.000 C 
BRANCH   3   4
ATOM      4  C   UNL     1      -7.217   6.906 -10.136  1.00  0.00     0.000 C 
BRANCH   4   5
ATOM      5  C   UNL     1      -7.447   6.434  -8.695  1.00  0.00     0.006 C 
BRANCH   5   6
ATOM      6  C   UNL     1      -8.895   5.979  -8.492  1.00  0.00     0.053 C 
BRANCH   6   7
ATOM      7  C   UNL     1      -8.934   4.585  -7.950  1.00  0.00     0.041 C 
ATOM      8  O   UNL     1      -7.879   3.902  -7.884  1.00  0.00    -0.550 OA
ATOM      9  O   UNL     1     -10.144   4.021  -7.564  1.00  0.00    -0.550 OA
ENDBRANCH   6   7
ENDBRANCH   5   6
ENDBRANCH   4   5
ENDBRANCH   3   4
ENDBRANCH   2   3
ENDBRANCH   1   2
BRANCH   1  10
ATOM     10  C   UNL     1     -10.291   4.379 -11.426  1.00  0.00     0.000 C 
BRANCH  10  11
ATOM     11  C   UNL     1     -11.125   3.092 -11.535  1.00  0.00    -0.000 C 
BRANCH  11  12
ATOM     12  C   UNL     1     -11.102   2.256 -10.243  1.00  0.00    -0.000 C 
BRANCH  12  13
ATOM     13  C   UNL     1     -10.421   0.891 -10.449  1.00  0.00    -0.000 C 
BRANCH  13  14
ATOM     14  C   UNL     1      -8.893   0.999 -10.660  1.00  0.00    -0.000 C 
BRANCH  14  15
ATOM     15  C   UNL     1      -8.081   0.778  -9.373  1.00  0.00    -0.003 C 
ATOM     16  C   UNL     1      -8.959   0.471  -8.162  1.00  0.00     0.004 C 
ENDBRANCH  14  15
ENDBRANCH  13  14
ENDBRANCH  12  13
ENDBRANCH  11  12
ENDBRANCH  10  11
ENDBRANCH   1  10
TORSDOF 12
ENDMDL
MODEL 4
REMARK VINA RESULT:    -3.357     13.269     16.290
REMARK INTER + INTRA:          -7.205
REMARK INTER:                  -6.540
REMARK INTRA:                  -0.665
REMARK UNBOUND:                -1.494
REMARK SMILES CCCCCCCCCCCCCC(=O)[O-]
REMARK SMILES IDX 8 1 9 2 10 3 11 4 12 5 13 6 14 7 15 8 16 9 7 10 6 11 5 12
REMARK SMILES IDX 4 13 3 14 2 15 1 16
REMARK H PARENT
REMARK Flexibility Score: inf
ROOT
ATOM      1  C   UNL     1      -0.657  -8.542 -10.748  1.00  0.00     0.000 C 
ENDROOT
BRANCH   1   2
ATOM      2  C   UNL     1      -2.050  -9.102 -11.103  1.00  0.00     0.000 C 
BRANCH   2   3
ATOM      3  C   UNL     1      -2.445 -10.292 -10.215  1.00  0.00     0.000 C 
BRANCH   3   4
ATOM      4  C   UNL     1      -2.684 -11.552 -11.056  1.00  0.00     0.000 C 
BRANCH   4   5
ATOM      5  C   UNL     1      -1.739 -12.683 -10.632  1.00  0.00     0.006 C 
BRANCH   5   6
ATOM      6  C   UNL     1      -0.328 -12.453 -11.181  1.00  0.00     0.053 C 
BRANCH   6   7
ATOM      7  C   UNL     1       0.664 -12.389 -10.063  1.00  0.00     0.041 C 
ATOM      8  O   UNL     1       1.761 -11.792 -10.224  1.00  0.00    -0.550 OA
ATOM      9  O   UNL     1       0.399 -13.030  -8.859  1.00  0.00    -0.550 OA
ENDBRANCH   6   7
ENDBRANCH   5   6
ENDBRANCH   4   5
ENDBRANCH   3   4
ENDBRANCH   2   3
ENDBRANCH   1   2
BRANCH   1  10
ATOM     10  C   UNL     1      -0.674  -7.061 -10.320  1.00  0.00     0.000 C 
BRANCH  10  11
ATOM     11  C   UNL     1      -1.291  -6.098 -11.349  1.00  0.00    -0.000 C 
BRANCH  11  12
ATOM     12  C   UNL     1      -1.310  -4.638 -10.861  1.00  0.00    -0.000 C 
BRANCH  12  13
ATOM     13  C   UNL     1      -0.372  -3.740 -11.687  1.00  0.00    -0.000 C 
BRANCH  13  14
ATOM     14  C   UNL     1       1.120  -3.924 -11.329  1.00  0.00    -0.000 C 
BRANCH  14  15
ATOM     15  C   UNL     1       1.907  -2.604 -11.291  1.00  0.00    -0.003 C 
ATOM     16  C   UNL     1       2.214  -2.135  -9.871  1.00  0.00     0.004 C 
ENDBRANCH  14  15
ENDBRANCH  13  14
ENDBRANCH  12  13
ENDBRANCH  11  12
ENDBRANCH  10  11
ENDBRANCH   1  10
TORSDOF 12
ENDMDL
MODEL 5
REMARK VINA RESULT:    -3.328     13.255     16.425
REMARK INTER + INTRA:          -7.157
REMARK INTER:                  -5.789
REMARK INTRA:                  -1.368
REMARK UNBOUND:                -1.494
REMARK SMILES CCCCCCCCCCCCCC(=O)[O-]
REMARK SMILES IDX 8 1 9 2 10 3 11 4 12 5 13 6 14 7 15 8 16 9 7 10 6 11 5 12
REMARK SMILES IDX 4 13 3 14 2 15 1 16
REMARK H PARENT
REMARK Flexibility Score: inf
ROOT
ATOM      1  C   UNL     1       1.249 -10.325 -11.123  1.00  0.00     0.000 C 
ENDROOT
BRANCH   1   2
ATOM      2  C   UNL     1       0.869 -11.547 -11.986  1.00  0.00     0.000 C 
BRANCH   2   3
ATOM      3  C   UNL     1       0.416 -12.744 -11.136  1.00  0.00     0.000 C 
BRANCH   3   4
ATOM      4  C   UNL     1       0.108 -12.314  -9.697  1.00  0.00     0.000 C 
BRANCH   4   5
ATOM      5  C   UNL     1      -1.405 -12.273  -9.447  1.00  0.00     0.006 C 
BRANCH   5   6
ATOM      6  C   UNL     1      -1.935 -10.838  -9.529  1.00  0.00     0.053 C 
BRANCH   6   7
ATOM      7  C   UNL     1      -2.861 -10.687 -10.694  1.00  0.00     0.041 C 
ATOM      8  O   UNL     1      -2.421 -10.791 -11.869  1.00  0.00    -0.550 OA
ATOM      9  O   UNL     1      -4.200 -10.382 -10.484  1.00  0.00    -0.550 OA
ENDBRANCH   6   7
ENDBRANCH   5   6
ENDBRANCH   4   5
ENDBRANCH   3   4
ENDBRANCH   2   3
ENDBRANCH   1   2
BRANCH   1  10
ATOM     10  C   UNL     1       0.608  -9.006 -11.598  1.00  0.00     0.000 C 
BRANCH  10  11
ATOM     11  C   UNL     1       0.233  -8.028 -10.472  1.00  0.00    -0.000 C 
BRANCH  11  12
ATOM     12  C   UNL     1      -1.177  -7.435 -10.645  1.00  0.00    -0.000 C 
BRANCH  12  13
ATOM     13  C   UNL     1      -1.342  -6.719 -11.997  1.00  0.00    -0.000 C 
BRANCH  13  14
ATOM     14  C   UNL     1      -2.061  -5.355 -11.881  1.00  0.00    -0.000 C 
BRANCH  14  15
ATOM     15  C   UNL     1      -1.361  -4.375 -10.924  1.00  0.00    -0.003 C 
ATOM     16  C   UNL     1       0.068  -4.047 -11.348  1.00  0.00     0.004 C 
ENDBRANCH  14  15
ENDBRANCH  13  14
ENDBRANCH  12  13
ENDBRANCH  11  12
ENDBRANCH  10  11
ENDBRANCH   1  10
TORSDOF 12
ENDMDL
MODEL 6
REMARK VINA RESULT:    -3.307      1.418      2.400
REMARK INTER + INTRA:          -7.120
REMARK INTER:                  -6.004
REMARK INTRA:                  -1.116
REMARK UNBOUND:                -1.494
REMARK SMILES CCCCCCCCCCCCCC(=O)[O-]
REMARK SMILES IDX 8 1 9 2 10 3 11 4 12 5 13 6 14 7 15 8 16 9 7 10 6 11 5 12
REMARK SMILES IDX 4 13 3 14 2 15 1 16
REMARK H PARENT
REMARK Flexibility Score: inf
ROOT
ATOM      1  C   UNL     1      -8.855   2.769  -8.640  1.00  0.00     0.000 C 
ENDROOT
BRANCH   1   2
ATOM      2  C   UNL     1      -8.902   3.658  -7.379  1.00  0.00     0.000 C 
BRANCH   2   3
ATOM      3  C   UNL     1      -9.623   4.991  -7.631  1.00  0.00     0.000 C 
BRANCH   3   4
ATOM      4  C   UNL     1     -10.592   4.879  -8.814  1.00  0.00     0.000 C 
BRANCH   4   5
ATOM      5  C   UNL     1     -10.117   5.735  -9.995  1.00  0.00     0.006 C 
BRANCH   5   6
ATOM      6  C   UNL     1      -9.302   6.937  -9.508  1.00  0.00     0.053 C 
BRANCH   6   7
ATOM      7  C   UNL     1      -7.849   6.738  -9.806  1.00  0.00     0.041 C 
ATOM      8  O   UNL     1      -6.989   6.906  -8.902  1.00  0.00    -0.550 OA
ATOM      9  O   UNL     1      -7.440   6.418 -11.094  1.00  0.00    -0.550 OA
ENDBRANCH   6   7
ENDBRANCH   5   6
ENDBRANCH   4   5
ENDBRANCH   3   4
ENDBRANCH   2   3
ENDBRANCH   1   2
BRANCH   1  10
ATOM     10  C   UNL     1      -9.248   1.302  -8.379  1.00  0.00     0.000 C 
BRANCH  10  11
ATOM     11  C   UNL     1     -10.247   0.711  -9.388  1.00  0.00    -0.000 C 
BRANCH  11  12
ATOM     12  C   UNL     1     -10.916   1.787 -10.262  1.00  0.00    -0.000 C 
BRANCH  12  13
ATOM     13  C   UNL     1     -10.302   1.850 -11.672  1.00  0.00    -0.000 C 
BRANCH  13  14
ATOM     14  C   UNL     1      -9.283   0.720 -11.945  1.00  0.00    -0.000 C 
BRANCH  14  15
ATOM     15  C   UNL     1      -7.842   1.226 -12.124  1.00  0.00    -0.003 C 
ATOM     16  C   UNL     1      -6.903   0.749 -11.019  1.00  0.00     0.004 C 
ENDBRANCH  14  15
ENDBRANCH  13  14
ENDBRANCH  12  13
ENDBRANCH  11  12
ENDBRANCH  10  11
ENDBRANCH   1  10
TORSDOF 12
ENDMDL
MODEL 7
REMARK VINA RESULT:    -3.295      1.895      2.795
REMARK INTER + INTRA:          -7.101
REMARK INTER:                  -5.812
REMARK INTRA:                  -1.289
REMARK UNBOUND:                -1.494
REMARK SMILES CCCCCCCCCCCCCC(=O)[O-]
REMARK SMILES IDX 8 1 9 2 10 3 11 4 12 5 13 6 14 7 15 8 16 9 7 10 6 11 5 12
REMARK SMILES IDX 4 13 3 14 2 15 1 16
REMARK H PARENT
REMARK Flexibility Score: inf
ROOT
ATOM      1  C   UNL     1     -10.958   4.369  -9.866  1.00  0.00     0.000 C 
ENDROOT
BRANCH   1   2
ATOM      2  C   UNL     1     -11.124   5.902  -9.802  1.00  0.00     0.000 C 
BRANCH   2   3
ATOM      3  C   UNL     1      -9.864   6.604  -9.273  1.00  0.00     0.000 C 
BRANCH   3   4
ATOM      4  C   UNL     1      -8.798   6.724 -10.368  1.00  0.00     0.000 C 
BRANCH   4   5
ATOM      5  C   UNL     1      -7.538   5.930  -9.998  1.00  0.00     0.006 C 
BRANCH   5   6
ATOM      6  C   UNL     1      -7.482   5.663  -8.491  1.00  0.00     0.053 C 
BRANCH   6   7
ATOM      7  C   UNL     1      -7.699   4.209  -8.209  1.00  0.00     0.041 C 
ATOM      8  O   UNL     1      -8.359   3.852  -7.199  1.00  0.00    -0.550 OA
ATOM      9  O   UNL     1      -7.128   3.248  -9.034  1.00  0.00    -0.550 OA
ENDBRANCH   6   7
ENDBRANCH   5   6
ENDBRANCH   4   5
ENDBRANCH   3   4
ENDBRANCH   2   3
ENDBRANCH   1   2
BRANCH   1  10
ATOM     10  C   UNL     1     -10.744   3.826 -11.293  1.00  0.00     0.000 C 
BRANCH  10  11
ATOM     11  C   UNL     1      -9.349   3.237 -11.558  1.00  0.00    -0.000 C 
BRANCH  11  12
ATOM     12  C   UNL     1      -9.364   1.703 -11.686  1.00  0.00    -0.000 C 
BRANCH  12  13
ATOM     13  C   UNL     1     -10.722   1.103 -11.280  1.00  0.00    -0.000 C 
BRANCH  13  14
ATOM     14  C   UNL     1     -10.693   0.408  -9.900  1.00  0.00    -0.000 C 
BRANCH  14  15
ATOM     15  C   UNL     1      -9.839   1.151  -8.859  1.00  0.00    -0.003 C 
ATOM     16  C   UNL     1      -8.819   0.247  -8.172  1.00  0.00     0.004 C 
ENDBRANCH  14  15
ENDBRANCH  13  14
ENDBRANCH  12  13
ENDBRANCH  11  12
ENDBRANCH  10  11
ENDBRANCH   1  10
TORSDOF 12
ENDMDL
MODEL 8
REMARK VINA RESULT:    -3.280     12.264     14.710
REMARK INTER + INTRA:          -7.074
REMARK INTER:                  -5.424
REMARK INTRA:                  -1.650
REMARK UNBOUND:                -1.494
REMARK SMILES CCCCCCCCCCCCCC(=O)[O-]
REMARK SMILES IDX 8 1 9 2 10 3 11 4 12 5 13 6 14 7 15 8 16 9 7 10 6 11 5 12
REMARK SMILES IDX 4 13 3 14 2 15 1 16
REMARK H PARENT
REMARK Flexibility Score: inf
ROOT
ATOM      1  C   UNL     1       0.561  -7.735 -10.348  1.00  0.00     0.000 C 
ENDROOT
BRANCH   1   2
ATOM      2  C   UNL     1      -0.821  -7.056 -10.248  1.00  0.00     0.000 C 
BRANCH   2   3
ATOM      3  C   UNL     1      -1.324  -6.550 -11.608  1.00  0.00     0.000 C 
BRANCH   3   4
ATOM      4  C   UNL     1      -1.395  -5.019 -11.635  1.00  0.00     0.000 C 
BRANCH   4   5
ATOM      5  C   UNL     1      -0.063  -4.415 -12.096  1.00  0.00     0.006 C 
BRANCH   5   6
ATOM      6  C   UNL     1       0.455  -3.390 -11.081  1.00  0.00     0.053 C 
BRANCH   6   7
ATOM      7  C   UNL     1       1.874  -3.689 -10.714  1.00  0.00     0.041 C 
ATOM      8  O   UNL     1       2.381  -4.805 -11.001  1.00  0.00    -0.550 OA
ATOM      9  O   UNL     1       2.622  -2.754 -10.009  1.00  0.00    -0.550 OA
ENDBRANCH   6   7
ENDBRANCH   5   6
ENDBRANCH   4   5
ENDBRANCH   3   4
ENDBRANCH   2   3
ENDBRANCH   1   2
BRANCH   1  10
ATOM     10  C   UNL     1       0.924  -8.196 -11.773  1.00  0.00     0.000 C 
BRANCH  10  11
ATOM     11  C   UNL     1       0.748  -9.702 -12.031  1.00  0.00    -0.000 C 
BRANCH  11  12
ATOM     12  C   UNL     1       0.718 -10.528 -10.732  1.00  0.00    -0.000 C 
BRANCH  12  13
ATOM     13  C   UNL     1      -0.574 -11.353 -10.602  1.00  0.00    -0.000 C 
BRANCH  13  14
ATOM     14  C   UNL     1      -1.623 -10.701  -9.672  1.00  0.00    -0.000 C 
BRANCH  14  15
ATOM     15  C   UNL     1      -2.823 -10.105 -10.427  1.00  0.00    -0.003 C 
ATOM     16  C   UNL     1      -3.174 -10.882 -11.694  1.00  0.00     0.004 C 
ENDBRANCH  14  15
ENDBRANCH  13  14
ENDBRANCH  12  13
ENDBRANCH  11  12
ENDBRANCH  10  11
ENDBRANCH   1  10
TORSDOF 12
ENDMDL
MODEL 9
REMARK VINA RESULT:    -3.222     12.800     15.565
REMARK INTER + INTRA:          -6.976
REMARK INTER:                  -5.434
REMARK INTRA:                  -1.543
REMARK UNBOUND:                -1.494
REMARK SMILES CCCCCCCCCCCCCC(=O)[O-]
REMARK SMILES IDX 8 1 9 2 10 3 11 4 12 5 13 6 14 7 15 8 16 9 7 10 6 11 5 12
REMARK SMILES IDX 4 13 3 14 2 15 1 16
REMARK H PARENT
REMARK Flexibility Score: inf
ROOT
ATOM      1  C   UNL     1      -1.358  -6.246 -10.672  1.00  0.00     0.000 C 
ENDROOT
BRANCH   1   2
ATOM      2  C   UNL     1      -1.356  -6.952 -12.045  1.00  0.00     0.000 C 
BRANCH   2   3
ATOM      3  C   UNL     1      -1.401  -8.482 -11.916  1.00  0.00     0.000 C 
BRANCH   3   4
ATOM      4  C   UNL     1      -1.042  -8.926 -10.493  1.00  0.00     0.000 C 
BRANCH   4   5
ATOM      5  C   UNL     1      -0.664 -10.412 -10.460  1.00  0.00     0.006 C 
BRANCH   5   6
ATOM      6  C   UNL     1      -1.577 -11.230 -11.378  1.00  0.00     0.053 C 
BRANCH   6   7
ATOM      7  C   UNL     1      -2.686 -11.855 -10.592  1.00  0.00     0.041 C 
ATOM      8  O   UNL     1      -3.886 -11.626 -10.899  1.00  0.00    -0.550 OA
ATOM      9  O   UNL     1      -2.396 -12.649  -9.489  1.00  0.00    -0.550 OA
ENDBRANCH   6   7
ENDBRANCH   5   6
ENDBRANCH   4   5
ENDBRANCH   3   4
ENDBRANCH   2   3
ENDBRANCH   1   2
BRANCH   1  10
ATOM     10  C   UNL     1      -1.345  -4.708 -10.765  1.00  0.00     0.000 C 
BRANCH  10  11
ATOM     11  C   UNL     1      -0.413  -4.132 -11.844  1.00  0.00    -0.000 C 
BRANCH  11  12
ATOM     12  C   UNL     1       0.683  -3.222 -11.261  1.00  0.00    -0.000 C 
BRANCH  12  13
ATOM     13  C   UNL     1       2.015  -3.969 -11.074  1.00  0.00    -0.000 C 
BRANCH  13  14
ATOM     14  C   UNL     1       2.064  -5.325 -11.815  1.00  0.00    -0.000 C 
BRANCH  14  15
ATOM     15  C   UNL     1       2.325  -6.521 -10.884  1.00  0.00    -0.003 C 
ATOM     16  C   UNL     1       2.340  -7.857 -11.623  1.00  0.00     0.004 C 
ENDBRANCH  14  15
ENDBRANCH  13  14
ENDBRANCH  12  13
ENDBRANCH  11  12
ENDBRANCH  10  11
ENDBRANCH   1  10
TORSDOF 12
ENDMDL
