MODEL 1
REMARK VINA RESULT:    -4.097      0.000      0.000
REMARK INTER + INTRA:          -9.813
REMARK INTER:                  -7.451
REMARK INTRA:                  -2.363
REMARK UNBOUND:                -2.363
REMARK SMILES CCCCCCCCCCCCCCCC(=O)[O-]
REMARK SMILES IDX 9 1 10 2 11 3 12 4 13 5 14 6 15 7 16 8 17 9 18 10 8 11 7 12
REMARK SMILES IDX 6 13 5 14 4 15 3 16 2 17 1 18
REMARK H PARENT
REMARK Flexibility Score: inf
ROOT
ATOM      1  C   UNL     1      31.108  39.684  46.946  1.00  0.00     0.000 C 
ENDROOT
BRANCH   1   2
ATOM      2  C   UNL     1      31.003  40.218  45.507  1.00  0.00     0.000 C 
BRANCH   2   3
ATOM      3  C   UNL     1      29.960  39.509  44.618  1.00  0.00     0.000 C 
BRANCH   3   4
ATOM      4  C   UNL     1      28.936  40.436  43.937  1.00  0.00     0.000 C 
BRANCH   4   5
ATOM      5  C   UNL     1      27.777  40.830  44.867  1.00  0.00     0.000 C 
BRANCH   5   6
ATOM      6  C   UNL     1      27.770  42.332  45.212  1.00  0.00     0.006 C 
BRANCH   6   7
ATOM      7  C   UNL     1      27.559  42.629  46.708  1.00  0.00     0.053 C 
BRANCH   7   8
ATOM      8  C   UNL     1      26.414  43.561  46.956  1.00  0.00     0.041 C 
ATOM      9  O   UNL     1      26.052  43.826  48.133  1.00  0.00    -0.550 OA
ATOM     10  O   UNL     1      25.758  44.158  45.886  1.00  0.00    -0.550 OA
ENDBRANCH   7   8
ENDBRANCH   6   7
ENDBRANCH   5   6
ENDBRANCH   4   5
ENDBRANCH   3   4
ENDBRANCH   2   3
ENDBRANCH   1   2
BRANCH   1  11
ATOM     11  C   UNL     1      29.738  39.500  47.616  1.00  0.00     0.000 C 
BRANCH  11  12
ATOM     12  C   UNL     1      29.661  38.151  48.347  1.00  0.00    -0.000 C 
BRANCH  12  13
ATOM     13  C   UNL     1      28.930  37.079  47.524  1.00  0.00    -0.000 C 
BRANCH  13  14
ATOM     14  C   UNL     1      27.734  37.650  46.742  1.00  0.00    -0.000 C 
BRANCH  14  15
ATOM     15  C   UNL     1      26.479  37.806  47.628  1.00  0.00    -0.000 C 
BRANCH  15  16
ATOM     16  C   UNL     1      25.937  39.247  47.681  1.00  0.00    -0.000 C 
BRANCH  16  17
ATOM     17  C   UNL     1      26.314  40.029  48.951  1.00  0.00    -0.003 C 
ATOM     18  C   UNL     1      26.109  39.217  50.230  1.00  0.00     0.004 C 
ENDBRANCH  16  17
ENDBRANCH  15  16
ENDBRANCH  14  15
ENDBRANCH  13  14
ENDBRANCH  12  13
ENDBRANCH  11  12
ENDBRANCH   1  11
TORSDOF 14
ENDMDL
MODEL 2
REMARK VINA RESULT:    -4.057      9.925     12.386
REMARK INTER + INTRA:          -9.741
REMARK INTER:                  -7.355
REMARK INTRA:                  -2.386
REMARK UNBOUND:                -2.363
REMARK SMILES CCCCCCCCCCCCCCCC(=O)[O-]
REMARK SMILES IDX 9 1 10 2 11 3 12 4 13 5 14 6 15 7 16 8 17 9 18 10 8 11 7 12
REMARK SMILES IDX 6 13 5 14 4 15 3 16 2 17 1 18
REMARK H PARENT
REMARK Flexibility Score: inf
ROOT
ATOM      1  C   UNL     1      21.065  33.558  45.043  1.00  0.00     0.000 C 
ENDROOT
BRANCH   1   2
ATOM      2  C   UNL     1      20.964  32.187  44.352  1.00  0.00     0.000 C 
BRANCH   2   3
ATOM      3  C   UNL     1      19.542  31.775  43.918  1.00  0.00     0.000 C 
BRANCH   3   4
ATOM      4  C   UNL     1      18.880  30.685  44.780  1.00  0.00     0.000 C 
BRANCH   4   5
ATOM      5  C   UNL     1      18.117  31.257  45.986  1.00  0.00     0.000 C 
BRANCH   5   6
ATOM      6  C   UNL     1      18.540  30.616  47.322  1.00  0.00     0.006 C 
BRANCH   6   7
ATOM      7  C   UNL     1      19.773  29.701  47.213  1.00  0.00     0.053 C 
BRANCH   7   8
ATOM      8  C   UNL     1      20.149  29.078  48.522  1.00  0.00     0.041 C 
ATOM      9  O   UNL     1      19.302  28.984  49.448  1.00  0.00    -0.550 OA
ATOM     10  O   UNL     1      21.433  28.581  48.713  1.00  0.00    -0.550 OA
ENDBRANCH   7   8
ENDBRANCH   6   7
ENDBRANCH   5   6
ENDBRANCH   4   5
ENDBRANCH   3   4
ENDBRANCH   2   3
ENDBRANCH   1   2
BRANCH   1  11
ATOM     11  C   UNL     1      19.817  34.428  44.832  1.00  0.00     0.000 C 
BRANCH  11  12
ATOM     12  C   UNL     1      19.476  35.217  46.105  1.00  0.00    -0.000 C 
BRANCH  12  13
ATOM     13  C   UNL     1      19.291  34.305  47.328  1.00  0.00    -0.000 C 
BRANCH  13  14
ATOM     14  C   UNL     1      20.126  34.762  48.537  1.00  0.00    -0.000 C 
BRANCH  14  15
ATOM     15  C   UNL     1      21.554  34.174  48.515  1.00  0.00    -0.000 C 
BRANCH  15  16
ATOM     16  C   UNL     1      21.596  32.649  48.729  1.00  0.00    -0.000 C 
BRANCH  16  17
ATOM     17  C   UNL     1      22.569  31.897  47.804  1.00  0.00    -0.003 C 
ATOM     18  C   UNL     1      23.858  32.676  47.541  1.00  0.00     0.004 C 
ENDBRANCH  16  17
ENDBRANCH  15  16
ENDBRANCH  14  15
ENDBRANCH  13  14
ENDBRANCH  12  13
ENDBRANCH  11  12
ENDBRANCH   1  11
TORSDOF 14
ENDMDL
MODEL 3
REMARK VINA RESULT:    -4.054     10.105     12.487
REMARK INTER + INTRA:          -9.735
REMARK INTER:                  -7.629
REMARK INTRA:                  -2.106
REMARK UNBOUND:                -2.363
REMARK SMILES CCCCCCCCCCCCCCCC(=O)[O-]
REMARK SMILES IDX 9 1 10 2 11 3 12 4 13 5 14 6 15 7 16 8 17 9 18 10 8 11 7 12
REMARK SMILES IDX 6 13 5 14 4 15 3 16 2 17 1 18
REMARK H PARENT
REMARK Flexibility Score: inf
ROOT
ATOM      1  C   UNL     1      20.143  31.969  44.303  1.00  0.00     0.000 C 
ENDROOT
BRANCH   1   2
ATOM      2  C   UNL     1      19.025  30.991  43.900  1.00  0.00     0.000 C 
BRANCH   2   3
ATOM      3  C   UNL     1      18.631  29.963  44.981  1.00  0.00     0.000 C 
BRANCH   3   4
ATOM      4  C   UNL     1      19.258  30.192  46.368  1.00  0.00     0.000 C 
BRANCH   4   5
ATOM      5  C   UNL     1      18.209  30.427  47.467  1.00  0.00     0.000 C 
BRANCH   5   6
ATOM      6  C   UNL     1      18.808  30.388  48.886  1.00  0.00     0.006 C 
BRANCH   6   7
ATOM      7  C   UNL     1      18.253  31.471  49.829  1.00  0.00     0.053 C 
BRANCH   7   8
ATOM      8  C   UNL     1      19.216  31.842  50.914  1.00  0.00     0.041 C 
ATOM      9  O   UNL     1      20.292  31.204  51.056  1.00  0.00    -0.550 OA
ATOM     10  O   UNL     1      18.936  32.912  51.757  1.00  0.00    -0.550 OA
ENDBRANCH   7   8
ENDBRANCH   6   7
ENDBRANCH   5   6
ENDBRANCH   4   5
ENDBRANCH   3   4
ENDBRANCH   2   3
ENDBRANCH   1   2
BRANCH   1  11
ATOM     11  C   UNL     1      19.828  33.424  43.927  1.00  0.00     0.000 C 
BRANCH  11  12
ATOM     12  C   UNL     1      20.329  34.392  45.009  1.00  0.00    -0.000 C 
BRANCH  12  13
ATOM     13  C   UNL     1      19.177  35.061  45.776  1.00  0.00    -0.000 C 
BRANCH  13  14
ATOM     14  C   UNL     1      19.406  35.066  47.298  1.00  0.00    -0.000 C 
BRANCH  14  15
ATOM     15  C   UNL     1      20.076  33.765  47.790  1.00  0.00    -0.000 C 
BRANCH  15  16
ATOM     16  C   UNL     1      21.357  34.003  48.613  1.00  0.00    -0.000 C 
BRANCH  16  17
ATOM     17  C   UNL     1      22.369  32.846  48.577  1.00  0.00    -0.003 C 
ATOM     18  C   UNL     1      22.369  32.099  47.242  1.00  0.00     0.004 C 
ENDBRANCH  16  17
ENDBRANCH  15  16
ENDBRANCH  14  15
ENDBRANCH  13  14
ENDBRANCH  12  13
ENDBRANCH  11  12
ENDBRANCH   1  11
TORSDOF 14
ENDMDL
MODEL 4
REMARK VINA RESULT:    -4.024     10.031     12.246
REMARK INTER + INTRA:          -9.681
REMARK INTER:                  -7.212
REMARK INTRA:                  -2.469
REMARK UNBOUND:                -2.363
REMARK SMILES CCCCCCCCCCCCCCCC(=O)[O-]
REMARK SMILES IDX 9 1 10 2 11 3 12 4 13 5 14 6 15 7 16 8 17 9 18 10 8 11 7 12
REMARK SMILES IDX 6 13 5 14 4 15 3 16 2 17 1 18
REMARK H PARENT
REMARK Flexibility Score: inf
ROOT
ATOM      1  C   UNL     1      20.822  32.204  44.268  1.00  0.00     0.000 C 
ENDROOT
BRANCH   1   2
ATOM      2  C   UNL     1      21.185  33.246  45.341  1.00  0.00     0.000 C 
BRANCH   2   3
ATOM      3  C   UNL     1      20.021  34.150  45.798  1.00  0.00     0.000 C 
BRANCH   3   4
ATOM      4  C   UNL     1      19.930  34.390  47.316  1.00  0.00     0.000 C 
BRANCH   4   5
ATOM      5  C   UNL     1      21.243  34.077  48.051  1.00  0.00     0.000 C 
BRANCH   5   6
ATOM      6  C   UNL     1      21.110  34.172  49.583  1.00  0.00     0.006 C 
BRANCH   6   7
ATOM      7  C   UNL     1      20.821  32.825  50.270  1.00  0.00     0.053 C 
BRANCH   7   8
ATOM      8  C   UNL     1      19.643  32.888  51.193  1.00  0.00     0.041 C 
ATOM      9  O   UNL     1      19.599  33.747  52.112  1.00  0.00    -0.550 OA
ATOM     10  O   UNL     1      18.580  32.008  51.023  1.00  0.00    -0.550 OA
ENDBRANCH   7   8
ENDBRANCH   6   7
ENDBRANCH   5   6
ENDBRANCH   4   5
ENDBRANCH   3   4
ENDBRANCH   2   3
ENDBRANCH   1   2
BRANCH   1  11
ATOM     11  C   UNL     1      19.309  32.100  44.024  1.00  0.00     0.000 C 
BRANCH  11  12
ATOM     12  C   UNL     1      18.870  30.632  43.920  1.00  0.00    -0.000 C 
BRANCH  12  13
ATOM     13  C   UNL     1      18.748  29.957  45.296  1.00  0.00    -0.000 C 
BRANCH  13  14
ATOM     14  C   UNL     1      18.033  30.847  46.328  1.00  0.00    -0.000 C 
BRANCH  14  15
ATOM     15  C   UNL     1      18.810  30.933  47.660  1.00  0.00    -0.000 C 
BRANCH  15  16
ATOM     16  C   UNL     1      20.252  30.399  47.570  1.00  0.00    -0.000 C 
BRANCH  16  17
ATOM     17  C   UNL     1      20.644  29.416  48.685  1.00  0.00    -0.003 C 
ATOM     18  C   UNL     1      19.437  28.888  49.462  1.00  0.00     0.004 C 
ENDBRANCH  16  17
ENDBRANCH  15  16
ENDBRANCH  14  15
ENDBRANCH  13  14
ENDBRANCH  12  13
ENDBRANCH  11  12
ENDBRANCH   1  11
TORSDOF 14
ENDMDL
MODEL 5
REMARK VINA RESULT:    -4.021      1.228      3.980
REMARK INTER + INTRA:          -9.674
REMARK INTER:                  -7.277
REMARK INTRA:                  -2.397
REMARK UNBOUND:                -2.363
REMARK SMILES CCCCCCCCCCCCCCCC(=O)[O-]
REMARK SMILES IDX 9 1 10 2 11 3 12 4 13 5 14 6 15 7 16 8 17 9 18 10 8 11 7 12
REMARK SMILES IDX 6 13 5 14 4 15 3 16 2 17 1 18
REMARK H PARENT
REMARK Flexibility Score: inf
ROOT
ATOM      1  C   UNL     1      28.906  37.039  46.317  1.00  0.00     0.000 C 
ENDROOT
BRANCH   1   2
ATOM      2  C   UNL     1      27.425  37.032  46.737  1.00  0.00     0.000 C 
BRANCH   2   3
ATOM      3  C   UNL     1      27.078  37.939  47.936  1.00  0.00     0.000 C 
BRANCH   3   4
ATOM      4  C   UNL     1      26.128  39.109  47.624  1.00  0.00     0.000 C 
BRANCH   4   5
ATOM      5  C   UNL     1      26.182  40.222  48.682  1.00  0.00     0.000 C 
BRANCH   5   6
ATOM      6  C   UNL     1      26.817  41.522  48.153  1.00  0.00     0.006 C 
BRANCH   6   7
ATOM      7  C   UNL     1      26.690  41.704  46.629  1.00  0.00     0.053 C 
BRANCH   7   8
ATOM      8  C   UNL     1      26.729  43.142  46.213  1.00  0.00     0.041 C 
ATOM      9  O   UNL     1      26.183  44.025  46.925  1.00  0.00    -0.550 OA
ATOM     10  O   UNL     1      27.390  43.511  45.047  1.00  0.00    -0.550 OA
ENDBRANCH   7   8
ENDBRANCH   6   7
ENDBRANCH   5   6
ENDBRANCH   4   5
ENDBRANCH   3   4
ENDBRANCH   2   3
ENDBRANCH   1   2
BRANCH   1  11
ATOM     11  C   UNL     1      29.119  37.560  44.888  1.00  0.00     0.000 C 
BRANCH  11  12
ATOM     12  C   UNL     1      28.214  38.768  44.603  1.00  0.00    -0.000 C 
BRANCH  12  13
ATOM     13  C   UNL     1      29.009  40.077  44.470  1.00  0.00    -0.000 C 
BRANCH  13  14
ATOM     14  C   UNL     1      30.527  39.840  44.397  1.00  0.00    -0.000 C 
BRANCH  14  15
ATOM     15  C   UNL     1      31.249  40.284  45.688  1.00  0.00    -0.000 C 
BRANCH  15  16
ATOM     16  C   UNL     1      30.297  40.819  46.775  1.00  0.00    -0.000 C 
BRANCH  16  17
ATOM     17  C   UNL     1      30.218  39.953  48.043  1.00  0.00    -0.003 C 
ATOM     18  C   UNL     1      31.438  39.048  48.220  1.00  0.00     0.004 C 
ENDBRANCH  16  17
ENDBRANCH  15  16
ENDBRANCH  14  15
ENDBRANCH  13  14
ENDBRANCH  12  13
ENDBRANCH  11  12
ENDBRANCH   1  11
TORSDOF 14
ENDMDL
MODEL 6
REMARK VINA RESULT:    -4.008     10.643     13.267
REMARK INTER + INTRA:          -9.650
REMARK INTER:                  -7.051
REMARK INTRA:                  -2.599
REMARK UNBOUND:                -2.363
REMARK SMILES CCCCCCCCCCCCCCCC(=O)[O-]
REMARK SMILES IDX 9 1 10 2 11 3 12 4 13 5 14 6 15 7 16 8 17 9 18 10 8 11 7 12
REMARK SMILES IDX 6 13 5 14 4 15 3 16 2 17 1 18
REMARK H PARENT
REMARK Flexibility Score: inf
ROOT
ATOM      1  C   UNL     1      18.206  31.457  48.794  1.00  0.00     0.000 C 
ENDROOT
BRANCH   1   2
ATOM      2  C   UNL     1      19.000  32.676  48.290  1.00  0.00     0.000 C 
BRANCH   2   3
ATOM      3  C   UNL     1      20.331  32.941  49.023  1.00  0.00     0.000 C 
BRANCH   3   4
ATOM      4  C   UNL     1      21.602  32.667  48.199  1.00  0.00     0.000 C 
BRANCH   4   5
ATOM      5  C   UNL     1      21.606  31.273  47.550  1.00  0.00     0.000 C 
BRANCH   5   6
ATOM      6  C   UNL     1      22.089  30.167  48.508  1.00  0.00     0.006 C 
BRANCH   6   7
ATOM      7  C   UNL     1      21.094  29.005  48.675  1.00  0.00     0.053 C 
BRANCH   7   8
ATOM      8  C   UNL     1      20.565  28.892  50.071  1.00  0.00     0.041 C 
ATOM      9  O   UNL     1      20.653  29.864  50.866  1.00  0.00    -0.550 OA
ATOM     10  O   UNL     1      19.951  27.717  50.490  1.00  0.00    -0.550 OA
ENDBRANCH   7   8
ENDBRANCH   6   7
ENDBRANCH   5   6
ENDBRANCH   4   5
ENDBRANCH   3   4
ENDBRANCH   2   3
ENDBRANCH   1   2
BRANCH   1  11
ATOM     11  C   UNL     1      17.877  30.455  47.677  1.00  0.00     0.000 C 
BRANCH  11  12
ATOM     12  C   UNL     1      18.178  31.055  46.296  1.00  0.00    -0.000 C 
BRANCH  12  13
ATOM     13  C   UNL     1      18.560  29.982  45.262  1.00  0.00    -0.000 C 
BRANCH  13  14
ATOM     14  C   UNL     1      18.965  30.587  43.907  1.00  0.00    -0.000 C 
BRANCH  14  15
ATOM     15  C   UNL     1      19.310  32.089  44.019  1.00  0.00    -0.000 C 
BRANCH  15  16
ATOM     16  C   UNL     1      20.819  32.384  43.914  1.00  0.00    -0.000 C 
BRANCH  16  17
ATOM     17  C   UNL     1      21.263  33.698  44.580  1.00  0.00    -0.003 C 
ATOM     18  C   UNL     1      20.107  34.449  45.240  1.00  0.00     0.004 C 
ENDBRANCH  16  17
ENDBRANCH  15  16
ENDBRANCH  14  15
ENDBRANCH  13  14
ENDBRANCH  12  13
ENDBRANCH  11  12
ENDBRANCH   1  11
TORSDOF 14
ENDMDL
MODEL 7
REMARK VINA RESULT:    -3.969     10.707     12.307
REMARK INTER + INTRA:          -9.580
REMARK INTER:                  -7.368
REMARK INTRA:                  -2.212
REMARK UNBOUND:                -2.363
REMARK SMILES CCCCCCCCCCCCCCCC(=O)[O-]
REMARK SMILES IDX 9 1 10 2 11 3 12 4 13 5 14 6 15 7 16 8 17 9 18 10 8 11 7 12
REMARK SMILES IDX 6 13 5 14 4 15 3 16 2 17 1 18
REMARK H PARENT
REMARK Flexibility Score: inf
ROOT
ATOM      1  C   UNL     1      21.291  33.448  44.624  1.00  0.00     0.000 C 
ENDROOT
BRANCH   1   2
ATOM      2  C   UNL     1      20.983  32.129  43.894  1.00  0.00     0.000 C 
BRANCH   2   3
ATOM      3  C   UNL     1      19.496  31.720  43.875  1.00  0.00     0.000 C 
BRANCH   3   4
ATOM      4  C   UNL     1      19.069  30.735  44.978  1.00  0.00     0.000 C 
BRANCH   4   5
ATOM      5  C   UNL     1      18.121  31.367  46.010  1.00  0.00     0.000 C 
BRANCH   5   6
ATOM      6  C   UNL     1      18.595  31.163  47.462  1.00  0.00     0.006 C 
BRANCH   6   7
ATOM      7  C   UNL     1      20.053  30.683  47.582  1.00  0.00     0.053 C 
BRANCH   7   8
ATOM      8  C   UNL     1      20.214  29.563  48.564  1.00  0.00     0.041 C 
ATOM      9  O   UNL     1      21.076  28.667  48.370  1.00  0.00    -0.550 OA
ATOM     10  O   UNL     1      19.425  29.522  49.708  1.00  0.00    -0.550 OA
ENDBRANCH   7   8
ENDBRANCH   6   7
ENDBRANCH   5   6
ENDBRANCH   4   5
ENDBRANCH   3   4
ENDBRANCH   2   3
ENDBRANCH   1   2
BRANCH   1  11
ATOM     11  C   UNL     1      20.203  34.513  44.416  1.00  0.00     0.000 C 
BRANCH  11  12
ATOM     12  C   UNL     1      19.642  34.994  45.763  1.00  0.00    -0.000 C 
BRANCH  12  13
ATOM     13  C   UNL     1      20.265  34.252  46.956  1.00  0.00    -0.000 C 
BRANCH  13  14
ATOM     14  C   UNL     1      19.872  34.874  48.307  1.00  0.00    -0.000 C 
BRANCH  14  15
ATOM     15  C   UNL     1      20.618  34.219  49.490  1.00  0.00    -0.000 C 
BRANCH  15  16
ATOM     16  C   UNL     1      19.739  33.268  50.324  1.00  0.00    -0.000 C 
BRANCH  16  17
ATOM     17  C   UNL     1      20.464  32.583  51.494  1.00  0.00    -0.003 C 
ATOM     18  C   UNL     1      21.872  32.113  51.127  1.00  0.00     0.004 C 
ENDBRANCH  16  17
ENDBRANCH  15  16
ENDBRANCH  14  15
ENDBRANCH  13  14
ENDBRANCH  12  13
ENDBRANCH  11  12
ENDBRANCH   1  11
TORSDOF 14
ENDMDL
MODEL 8
REMARK VINA RESULT:    -3.871      1.422      2.706
REMARK INTER + INTRA:          -9.401
REMARK INTER:                  -6.935
REMARK INTRA:                  -2.466
REMARK UNBOUND:                -2.363
REMARK SMILES CCCCCCCCCCCCCCCC(=O)[O-]
REMARK SMILES IDX 9 1 10 2 11 3 12 4 13 5 14 6 15 7 16 8 17 9 18 10 8 11 7 12
REMARK SMILES IDX 6 13 5 14 4 15 3 16 2 17 1 18
REMARK H PARENT
REMARK Flexibility Score: inf
ROOT
ATOM      1  C   UNL     1      29.075  37.219  46.189  1.00  0.00     0.000 C 
ENDROOT
BRANCH   1   2
ATOM      2  C   UNL     1      29.718  38.297  47.080  1.00  0.00     0.000 C 
BRANCH   2   3
ATOM      3  C   UNL     1      30.242  39.540  46.332  1.00  0.00     0.000 C 
BRANCH   3   4
ATOM      4  C   UNL     1      29.921  39.588  44.827  1.00  0.00     0.000 C 
BRANCH   4   5
ATOM      5  C   UNL     1      28.723  40.494  44.499  1.00  0.00     0.000 C 
BRANCH   5   6
ATOM      6  C   UNL     1      28.394  41.486  45.631  1.00  0.00     0.006 C 
BRANCH   6   7
ATOM      7  C   UNL     1      26.904  41.864  45.719  1.00  0.00     0.053 C 
BRANCH   7   8
ATOM      8  C   UNL     1      26.684  43.344  45.762  1.00  0.00     0.041 C 
ATOM      9  O   UNL     1      25.875  43.843  46.588  1.00  0.00    -0.550 OA
ATOM     10  O   UNL     1      27.392  44.178  44.904  1.00  0.00    -0.550 OA
ENDBRANCH   7   8
ENDBRANCH   6   7
ENDBRANCH   5   6
ENDBRANCH   4   5
ENDBRANCH   3   4
ENDBRANCH   2   3
ENDBRANCH   1   2
BRANCH   1  11
ATOM     11  C   UNL     1      27.585  37.003  46.493  1.00  0.00     0.000 C 
BRANCH  11  12
ATOM     12  C   UNL     1      27.185  37.702  47.801  1.00  0.00    -0.000 C 
BRANCH  12  13
ATOM     13  C   UNL     1      26.131  38.799  47.581  1.00  0.00    -0.000 C 
BRANCH  13  14
ATOM     14  C   UNL     1      25.959  39.707  48.811  1.00  0.00    -0.000 C 
BRANCH  14  15
ATOM     15  C   UNL     1      27.261  40.456  49.169  1.00  0.00    -0.000 C 
BRANCH  15  16
ATOM     16  C   UNL     1      27.068  41.973  49.358  1.00  0.00    -0.000 C 
BRANCH  16  17
ATOM     17  C   UNL     1      28.371  42.790  49.373  1.00  0.00    -0.003 C 
ATOM     18  C   UNL     1      29.609  41.935  49.098  1.00  0.00     0.004 C 
ENDBRANCH  16  17
ENDBRANCH  15  16
ENDBRANCH  14  15
ENDBRANCH  13  14
ENDBRANCH  12  13
ENDBRANCH  11  12
ENDBRANCH   1  11
TORSDOF 14
ENDMDL
MODEL 9
REMARK VINA RESULT:    -3.844     10.144     12.778
REMARK INTER + INTRA:          -9.352
REMARK INTER:                  -7.255
REMARK INTRA:                  -2.097
REMARK UNBOUND:                -2.363
REMARK SMILES CCCCCCCCCCCCCCCC(=O)[O-]
REMARK SMILES IDX 9 1 10 2 11 3 12 4 13 5 14 6 15 7 16 8 17 9 18 10 8 11 7 12
REMARK SMILES IDX 6 13 5 14 4 15 3 16 2 17 1 18
REMARK H PARENT
REMARK Flexibility Score: inf
ROOT
ATOM      1  C   UNL     1      18.112  31.389  46.687  1.00  0.00     0.000 C 
ENDROOT
BRANCH   1   2
ATOM      2  C   UNL     1      18.603  31.072  48.111  1.00  0.00     0.000 C 
BRANCH   2   3
ATOM      3  C   UNL     1      17.940  31.897  49.233  1.00  0.00     0.000 C 
BRANCH   3   4
ATOM      4  C   UNL     1      18.534  31.695  50.639  1.00  0.00     0.000 C 
BRANCH   4   5
ATOM      5  C   UNL     1      19.476  32.834  51.060  1.00  0.00     0.000 C 
BRANCH   5   6
ATOM      6  C   UNL     1      20.899  32.344  51.390  1.00  0.00     0.006 C 
BRANCH   6   7
ATOM      7  C   UNL     1      21.176  30.892  50.960  1.00  0.00     0.053 C 
BRANCH   7   8
ATOM      8  C   UNL     1      22.443  30.753  50.174  1.00  0.00     0.041 C 
ATOM      9  O   UNL     1      23.073  31.776  49.796  1.00  0.00    -0.550 OA
ATOM     10  O   UNL     1      22.943  29.491  49.878  1.00  0.00    -0.550 OA
ENDBRANCH   7   8
ENDBRANCH   6   7
ENDBRANCH   5   6
ENDBRANCH   4   5
ENDBRANCH   3   4
ENDBRANCH   2   3
ENDBRANCH   1   2
BRANCH   1  11
ATOM     11  C   UNL     1      18.640  30.399  45.639  1.00  0.00     0.000 C 
BRANCH  11  12
ATOM     12  C   UNL     1      19.001  31.122  44.333  1.00  0.00    -0.000 C 
BRANCH  12  13
ATOM     13  C   UNL     1      18.720  32.632  44.403  1.00  0.00    -0.000 C 
BRANCH  13  14
ATOM     14  C   UNL     1      19.915  33.477  43.929  1.00  0.00    -0.000 C 
BRANCH  14  15
ATOM     15  C   UNL     1      20.426  34.433  45.029  1.00  0.00    -0.000 C 
BRANCH  15  16
ATOM     16  C   UNL     1      19.314  34.951  45.962  1.00  0.00    -0.000 C 
BRANCH  16  17
ATOM     17  C   UNL     1      19.585  34.742  47.461  1.00  0.00    -0.003 C 
ATOM     18  C   UNL     1      20.914  34.037  47.731  1.00  0.00     0.004 C 
ENDBRANCH  16  17
ENDBRANCH  15  16
ENDBRANCH  14  15
ENDBRANCH  13  14
ENDBRANCH  12  13
ENDBRANCH  11  12
ENDBRANCH   1  11
TORSDOF 14
ENDMDL
