MODEL 1
REMARK VINA RESULT:    -3.904      0.000      0.000
REMARK INTER + INTRA:          -9.421
REMARK INTER:                  -7.100
REMARK INTRA:                  -2.322
REMARK UNBOUND:                -2.322
REMARK SMILES CCCCCCCCCCCCCCCC(=O)[O-]
REMARK SMILES IDX 9 1 10 2 11 3 12 4 13 5 14 6 15 7 16 8 17 9 18 10 8 11 7 12
REMARK SMILES IDX 6 13 5 14 4 15 3 16 2 17 1 18
REMARK H PARENT
REMARK Flexibility Score: inf
ROOT
ATOM      1  C   UNL     1      26.858   4.668  10.372  1.00  0.00     0.000 C 
ENDROOT
BRANCH   1   2
ATOM      2  C   UNL     1      25.415   4.137  10.288  1.00  0.00     0.000 C 
BRANCH   2   3
ATOM      3  C   UNL     1      25.193   3.018   9.253  1.00  0.00     0.000 C 
BRANCH   3   4
ATOM      4  C   UNL     1      24.546   3.476   7.932  1.00  0.00     0.000 C 
BRANCH   4   5
ATOM      5  C   UNL     1      25.493   4.312   7.060  1.00  0.00     0.000 C 
BRANCH   5   6
ATOM      6  C   UNL     1      25.018   5.770   6.975  1.00  0.00     0.006 C 
BRANCH   6   7
ATOM      7  C   UNL     1      26.096   6.761   7.431  1.00  0.00     0.053 C 
BRANCH   7   8
ATOM      8  C   UNL     1      25.587   7.688   8.491  1.00  0.00     0.041 C 
ATOM      9  O   UNL     1      26.236   8.723   8.794  1.00  0.00    -0.550 OA
ATOM     10  O   UNL     1      24.413   7.389   9.172  1.00  0.00    -0.550 OA
ENDBRANCH   7   8
ENDBRANCH   6   7
ENDBRANCH   5   6
ENDBRANCH   4   5
ENDBRANCH   3   4
ENDBRANCH   2   3
ENDBRANCH   1   2
BRANCH   1  11
ATOM     11  C   UNL     1      27.932   3.581  10.153  1.00  0.00     0.000 C 
BRANCH  11  12
ATOM     12  C   UNL     1      28.744   3.812   8.866  1.00  0.00    -0.000 C 
BRANCH  12  13
ATOM     13  C   UNL     1      28.650   2.631   7.887  1.00  0.00    -0.000 C 
BRANCH  13  14
ATOM     14  C   UNL     1      28.379   1.293   8.596  1.00  0.00    -0.000 C 
BRANCH  14  15
ATOM     15  C   UNL     1      28.740   0.081   7.710  1.00  0.00    -0.000 C 
BRANCH  15  16
ATOM     16  C   UNL     1      27.515  -0.710   7.213  1.00  0.00    -0.000 C 
BRANCH  16  17
ATOM     17  C   UNL     1      26.230   0.122   7.065  1.00  0.00    -0.003 C 
ATOM     18  C   UNL     1      26.125   0.814   5.708  1.00  0.00     0.004 C 
ENDBRANCH  16  17
ENDBRANCH  15  16
ENDBRANCH  14  15
ENDBRANCH  13  14
ENDBRANCH  12  13
ENDBRANCH  11  12
ENDBRANCH   1  11
TORSDOF 14
ENDMDL
MODEL 2
REMARK VINA RESULT:    -3.850      1.233      3.276
REMARK INTER + INTRA:          -9.323
REMARK INTER:                  -7.264
REMARK INTRA:                  -2.059
REMARK UNBOUND:                -2.322
REMARK SMILES CCCCCCCCCCCCCCCC(=O)[O-]
REMARK SMILES IDX 9 1 10 2 11 3 12 4 13 5 14 6 15 7 16 8 17 9 18 10 8 11 7 12
REMARK SMILES IDX 6 13 5 14 4 15 3 16 2 17 1 18
REMARK H PARENT
REMARK Flexibility Score: inf
ROOT
ATOM      1  C   UNL     1      25.385   3.331   6.730  1.00  0.00     0.000 C 
ENDROOT
BRANCH   1   2
ATOM      2  C   UNL     1      24.419   3.591   7.901  1.00  0.00     0.000 C 
BRANCH   2   3
ATOM      3  C   UNL     1      24.838   2.956   9.241  1.00  0.00     0.000 C 
BRANCH   3   4
ATOM      4  C   UNL     1      25.138   3.960  10.369  1.00  0.00     0.000 C 
BRANCH   4   5
ATOM      5  C   UNL     1      25.077   5.421   9.901  1.00  0.00     0.000 C 
BRANCH   5   6
ATOM      6  C   UNL     1      26.479   6.046   9.863  1.00  0.00     0.006 C 
BRANCH   6   7
ATOM      7  C   UNL     1      26.980   6.267   8.430  1.00  0.00     0.053 C 
BRANCH   7   8
ATOM      8  C   UNL     1      26.632   7.633   7.924  1.00  0.00     0.041 C 
ATOM      9  O   UNL     1      26.716   7.895   6.695  1.00  0.00    -0.550 OA
ATOM     10  O   UNL     1      26.249   8.628   8.815  1.00  0.00    -0.550 OA
ENDBRANCH   7   8
ENDBRANCH   6   7
ENDBRANCH   5   6
ENDBRANCH   4   5
ENDBRANCH   3   4
ENDBRANCH   2   3
ENDBRANCH   1   2
BRANCH   1  11
ATOM     11  C   UNL     1      25.033   2.077   5.901  1.00  0.00     0.000 C 
BRANCH  11  12
ATOM     12  C   UNL     1      25.826   0.838   6.351  1.00  0.00    -0.000 C 
BRANCH  12  13
ATOM     13  C   UNL     1      27.240   0.790   5.747  1.00  0.00    -0.000 C 
BRANCH  13  14
ATOM     14  C   UNL     1      28.330   1.188   6.756  1.00  0.00    -0.000 C 
BRANCH  14  15
ATOM     15  C   UNL     1      28.294   0.313   8.028  1.00  0.00    -0.000 C 
BRANCH  15  16
ATOM     16  C   UNL     1      28.751   1.052   9.301  1.00  0.00    -0.000 C 
BRANCH  16  17
ATOM     17  C   UNL     1      28.487   2.567   9.295  1.00  0.00    -0.003 C 
ATOM     18  C   UNL     1      28.803   3.229  10.635  1.00  0.00     0.004 C 
ENDBRANCH  16  17
ENDBRANCH  15  16
ENDBRANCH  14  15
ENDBRANCH  13  14
ENDBRANCH  12  13
ENDBRANCH  11  12
ENDBRANCH   1  11
TORSDOF 14
ENDMDL
MODEL 3
REMARK VINA RESULT:    -3.812      1.375      3.037
REMARK INTER + INTRA:          -9.254
REMARK INTER:                  -7.296
REMARK INTRA:                  -1.958
REMARK UNBOUND:                -2.322
REMARK SMILES CCCCCCCCCCCCCCCC(=O)[O-]
REMARK SMILES IDX 9 1 10 2 11 3 12 4 13 5 14 6 15 7 16 8 17 9 18 10 8 11 7 12
REMARK SMILES IDX 6 13 5 14 4 15 3 16 2 17 1 18
REMARK H PARENT
REMARK Flexibility Score: inf
ROOT
ATOM      1  C   UNL     1      28.751   1.693   9.651  1.00  0.00     0.000 C 
ENDROOT
BRANCH   1   2
ATOM      2  C   UNL     1      28.589   2.658   8.461  1.00  0.00     0.000 C 
BRANCH   2   3
ATOM      3  C   UNL     1      27.962   4.021   8.812  1.00  0.00     0.000 C 
BRANCH   3   4
ATOM      4  C   UNL     1      27.428   4.138  10.251  1.00  0.00     0.000 C 
BRANCH   4   5
ATOM      5  C   UNL     1      26.468   5.322  10.438  1.00  0.00     0.000 C 
BRANCH   5   6
ATOM      6  C   UNL     1      25.433   5.376   9.305  1.00  0.00     0.006 C 
BRANCH   6   7
ATOM      7  C   UNL     1      25.182   6.807   8.813  1.00  0.00     0.053 C 
BRANCH   7   8
ATOM      8  C   UNL     1      26.048   7.152   7.640  1.00  0.00     0.041 C 
ATOM      9  O   UNL     1      26.941   8.033   7.749  1.00  0.00    -0.550 OA
ATOM     10  O   UNL     1      25.845   6.526   6.417  1.00  0.00    -0.550 OA
ENDBRANCH   7   8
ENDBRANCH   6   7
ENDBRANCH   5   6
ENDBRANCH   4   5
ENDBRANCH   3   4
ENDBRANCH   2   3
ENDBRANCH   1   2
BRANCH   1  11
ATOM     11  C   UNL     1      28.805   0.206   9.239  1.00  0.00     0.000 C 
BRANCH  11  12
ATOM     12  C   UNL     1      29.062   0.025   7.733  1.00  0.00    -0.000 C 
BRANCH  12  13
ATOM     13  C   UNL     1      28.648  -1.366   7.226  1.00  0.00    -0.000 C 
BRANCH  13  14
ATOM     14  C   UNL     1      27.301  -1.350   6.483  1.00  0.00    -0.000 C 
BRANCH  14  15
ATOM     15  C   UNL     1      26.733   0.078   6.336  1.00  0.00    -0.000 C 
BRANCH  15  16
ATOM     16  C   UNL     1      25.386   0.286   7.053  1.00  0.00    -0.000 C 
BRANCH  16  17
ATOM     17  C   UNL     1      25.204   1.673   7.691  1.00  0.00    -0.003 C 
ATOM     18  C   UNL     1      25.142   2.797   6.658  1.00  0.00     0.004 C 
ENDBRANCH  16  17
ENDBRANCH  15  16
ENDBRANCH  14  15
ENDBRANCH  13  14
ENDBRANCH  12  13
ENDBRANCH  11  12
ENDBRANCH   1  11
TORSDOF 14
ENDMDL
MODEL 4
REMARK VINA RESULT:    -3.794      9.873     12.090
REMARK INTER + INTRA:          -9.221
REMARK INTER:                  -7.183
REMARK INTRA:                  -2.038
REMARK UNBOUND:                -2.322
REMARK SMILES CCCCCCCCCCCCCCCC(=O)[O-]
REMARK SMILES IDX 9 1 10 2 11 3 12 4 13 5 14 6 15 7 16 8 17 9 18 10 8 11 7 12
REMARK SMILES IDX 6 13 5 14 4 15 3 16 2 17 1 18
REMARK H PARENT
REMARK Flexibility Score: inf
ROOT
ATOM      1  C   UNL     1      25.376   1.623  17.222  1.00  0.00     0.000 C 
ENDROOT
BRANCH   1   2
ATOM      2  C   UNL     1      25.368   0.459  18.231  1.00  0.00     0.000 C 
BRANCH   2   3
ATOM      3  C   UNL     1      24.823  -0.873  17.681  1.00  0.00     0.000 C 
BRANCH   3   4
ATOM      4  C   UNL     1      24.669  -0.928  16.150  1.00  0.00     0.000 C 
BRANCH   4   5
ATOM      5  C   UNL     1      23.621  -1.953  15.691  1.00  0.00     0.000 C 
BRANCH   5   6
ATOM      6  C   UNL     1      23.325  -2.971  16.802  1.00  0.00     0.006 C 
BRANCH   6   7
ATOM      7  C   UNL     1      22.523  -4.175  16.290  1.00  0.00     0.053 C 
BRANCH   7   8
ATOM      8  C   UNL     1      21.118  -4.169  16.809  1.00  0.00     0.041 C 
ATOM      9  O   UNL     1      20.559  -3.083  17.112  1.00  0.00    -0.550 OA
ATOM     10  O   UNL     1      20.440  -5.367  16.992  1.00  0.00    -0.550 OA
ENDBRANCH   7   8
ENDBRANCH   6   7
ENDBRANCH   5   6
ENDBRANCH   4   5
ENDBRANCH   3   4
ENDBRANCH   2   3
ENDBRANCH   1   2
BRANCH   1  11
ATOM     11  C   UNL     1      25.295   3.016  17.882  1.00  0.00     0.000 C 
BRANCH  11  12
ATOM     12  C   UNL     1      24.521   4.028  17.019  1.00  0.00    -0.000 C 
BRANCH  12  13
ATOM     13  C   UNL     1      23.256   4.555  17.717  1.00  0.00    -0.000 C 
BRANCH  13  14
ATOM     14  C   UNL     1      22.982   3.853  19.058  1.00  0.00    -0.000 C 
BRANCH  14  15
ATOM     15  C   UNL     1      21.825   2.836  18.958  1.00  0.00    -0.000 C 
BRANCH  15  16
ATOM     16  C   UNL     1      22.180   1.439  19.502  1.00  0.00    -0.000 C 
BRANCH  16  17
ATOM     17  C   UNL     1      21.479   0.273  18.786  1.00  0.00    -0.003 C 
ATOM     18  C   UNL     1      21.370   0.483  17.276  1.00  0.00     0.004 C 
ENDBRANCH  16  17
ENDBRANCH  15  16
ENDBRANCH  14  15
ENDBRANCH  13  14
ENDBRANCH  12  13
ENDBRANCH  11  12
ENDBRANCH   1  11
TORSDOF 14
ENDMDL
MODEL 5
REMARK VINA RESULT:    -3.791      2.068      3.224
REMARK INTER + INTRA:          -9.215
REMARK INTER:                  -6.700
REMARK INTRA:                  -2.515
REMARK UNBOUND:                -2.322
REMARK SMILES CCCCCCCCCCCCCCCC(=O)[O-]
REMARK SMILES IDX 9 1 10 2 11 3 12 4 13 5 14 6 15 7 16 8 17 9 18 10 8 11 7 12
REMARK SMILES IDX 6 13 5 14 4 15 3 16 2 17 1 18
REMARK H PARENT
REMARK Flexibility Score: inf
ROOT
ATOM      1  C   UNL     1      27.625   4.099  10.483  1.00  0.00     0.000 C 
ENDROOT
BRANCH   1   2
ATOM      2  C   UNL     1      26.847   5.350  10.029  1.00  0.00     0.000 C 
BRANCH   2   3
ATOM      3  C   UNL     1      27.101   5.777   8.570  1.00  0.00     0.000 C 
BRANCH   3   4
ATOM      4  C   UNL     1      25.865   6.323   7.830  1.00  0.00     0.000 C 
BRANCH   4   5
ATOM      5  C   UNL     1      24.750   6.776   8.783  1.00  0.00     0.000 C 
BRANCH   5   6
ATOM      6  C   UNL     1      23.439   6.032   8.487  1.00  0.00     0.006 C 
BRANCH   6   7
ATOM      7  C   UNL     1      23.304   5.658   7.006  1.00  0.00     0.053 C 
BRANCH   7   8
ATOM      8  C   UNL     1      21.932   5.952   6.480  1.00  0.00     0.041 C 
ATOM      9  O   UNL     1      21.392   5.176   5.649  1.00  0.00    -0.550 OA
ATOM     10  O   UNL     1      21.265   7.102   6.883  1.00  0.00    -0.550 OA
ENDBRANCH   7   8
ENDBRANCH   6   7
ENDBRANCH   5   6
ENDBRANCH   4   5
ENDBRANCH   3   4
ENDBRANCH   2   3
ENDBRANCH   1   2
BRANCH   1  11
ATOM     11  C   UNL     1      28.558   3.521   9.399  1.00  0.00     0.000 C 
BRANCH  11  12
ATOM     12  C   UNL     1      28.689   1.991   9.494  1.00  0.00    -0.000 C 
BRANCH  12  13
ATOM     13  C   UNL     1      28.515   1.297   8.133  1.00  0.00    -0.000 C 
BRANCH  13  14
ATOM     14  C   UNL     1      28.428   2.294   6.966  1.00  0.00    -0.000 C 
BRANCH  14  15
ATOM     15  C   UNL     1      27.157   2.085   6.114  1.00  0.00    -0.000 C 
BRANCH  15  16
ATOM     16  C   UNL     1      25.957   2.934   6.573  1.00  0.00    -0.000 C 
BRANCH  16  17
ATOM     17  C   UNL     1      24.873   2.155   7.337  1.00  0.00    -0.003 C 
ATOM     18  C   UNL     1      24.796   2.539   8.814  1.00  0.00     0.004 C 
ENDBRANCH  16  17
ENDBRANCH  15  16
ENDBRANCH  14  15
ENDBRANCH  13  14
ENDBRANCH  12  13
ENDBRANCH  11  12
ENDBRANCH   1  11
TORSDOF 14
ENDMDL
MODEL 6
REMARK VINA RESULT:    -3.748      3.526      6.700
REMARK INTER + INTRA:          -9.136
REMARK INTER:                  -7.007
REMARK INTRA:                  -2.129
REMARK UNBOUND:                -2.322
REMARK SMILES CCCCCCCCCCCCCCCC(=O)[O-]
REMARK SMILES IDX 9 1 10 2 11 3 12 4 13 5 14 6 15 7 16 8 17 9 18 10 8 11 7 12
REMARK SMILES IDX 6 13 5 14 4 15 3 16 2 17 1 18
REMARK H PARENT
REMARK Flexibility Score: inf
ROOT
ATOM      1  C   UNL     1      26.150   2.049   6.197  1.00  0.00     0.000 C 
ENDROOT
BRANCH   1   2
ATOM      2  C   UNL     1      27.688   1.973   6.156  1.00  0.00     0.000 C 
BRANCH   2   3
ATOM      3  C   UNL     1      28.391   2.325   7.481  1.00  0.00     0.000 C 
BRANCH   3   4
ATOM      4  C   UNL     1      27.997   1.441   8.679  1.00  0.00     0.000 C 
BRANCH   4   5
ATOM      5  C   UNL     1      29.003   0.311   8.946  1.00  0.00     0.000 C 
BRANCH   5   6
ATOM      6  C   UNL     1      28.353  -1.064   8.736  1.00  0.00     0.006 C 
BRANCH   6   7
ATOM      7  C   UNL     1      28.583  -1.606   7.319  1.00  0.00     0.053 C 
BRANCH   7   8
ATOM      8  C   UNL     1      27.297  -1.760   6.567  1.00  0.00     0.041 C 
ATOM      9  O   UNL     1      26.217  -1.349   7.065  1.00  0.00    -0.550 OA
ATOM     10  O   UNL     1      27.287  -2.392   5.329  1.00  0.00    -0.550 OA
ENDBRANCH   7   8
ENDBRANCH   6   7
ENDBRANCH   5   6
ENDBRANCH   4   5
ENDBRANCH   3   4
ENDBRANCH   2   3
ENDBRANCH   1   2
BRANCH   1  11
ATOM     11  C   UNL     1      25.609   3.418   6.662  1.00  0.00     0.000 C 
BRANCH  11  12
ATOM     12  C   UNL     1      24.100   3.378   6.964  1.00  0.00    -0.000 C 
BRANCH  12  13
ATOM     13  C   UNL     1      23.786   3.658   8.443  1.00  0.00    -0.000 C 
BRANCH  13  14
ATOM     14  C   UNL     1      24.873   3.126   9.392  1.00  0.00    -0.000 C 
BRANCH  14  15
ATOM     15  C   UNL     1      25.331   4.192  10.410  1.00  0.00    -0.000 C 
BRANCH  15  16
ATOM     16  C   UNL     1      26.814   4.586  10.269  1.00  0.00    -0.000 C 
BRANCH  16  17
ATOM     17  C   UNL     1      27.128   5.487   9.063  1.00  0.00    -0.003 C 
ATOM     18  C   UNL     1      26.264   6.746   9.022  1.00  0.00     0.004 C 
ENDBRANCH  16  17
ENDBRANCH  15  16
ENDBRANCH  14  15
ENDBRANCH  13  14
ENDBRANCH  12  13
ENDBRANCH  11  12
ENDBRANCH   1  11
TORSDOF 14
ENDMDL
MODEL 7
REMARK VINA RESULT:    -3.739      1.404      2.519
REMARK INTER + INTRA:          -9.121
REMARK INTER:                  -6.957
REMARK INTRA:                  -2.164
REMARK UNBOUND:                -2.322
REMARK SMILES CCCCCCCCCCCCCCCC(=O)[O-]
REMARK SMILES IDX 9 1 10 2 11 3 12 4 13 5 14 6 15 7 16 8 17 9 18 10 8 11 7 12
REMARK SMILES IDX 6 13 5 14 4 15 3 16 2 17 1 18
REMARK H PARENT
REMARK Flexibility Score: inf
ROOT
ATOM      1  C   UNL     1      27.942   2.622   7.149  1.00  0.00     0.000 C 
ENDROOT
BRANCH   1   2
ATOM      2  C   UNL     1      26.504   3.145   6.969  1.00  0.00     0.000 C 
BRANCH   2   3
ATOM      3  C   UNL     1      25.401   2.198   7.478  1.00  0.00     0.000 C 
BRANCH   3   4
ATOM      4  C   UNL     1      24.856   2.531   8.879  1.00  0.00     0.000 C 
BRANCH   4   5
ATOM      5  C   UNL     1      24.526   4.021   9.054  1.00  0.00     0.000 C 
BRANCH   5   6
ATOM      6  C   UNL     1      25.049   4.546  10.399  1.00  0.00     0.006 C 
BRANCH   6   7
ATOM      7  C   UNL     1      26.422   5.218  10.268  1.00  0.00     0.053 C 
BRANCH   7   8
ATOM      8  C   UNL     1      26.406   6.321   9.255  1.00  0.00     0.041 C 
ATOM      9  O   UNL     1      27.239   6.328   8.311  1.00  0.00    -0.550 OA
ATOM     10  O   UNL     1      25.494   7.363   9.375  1.00  0.00    -0.550 OA
ENDBRANCH   7   8
ENDBRANCH   6   7
ENDBRANCH   5   6
ENDBRANCH   4   5
ENDBRANCH   3   4
ENDBRANCH   2   3
ENDBRANCH   1   2
BRANCH   1  11
ATOM     11  C   UNL     1      28.403   2.571   8.622  1.00  0.00     0.000 C 
BRANCH  11  12
ATOM     12  C   UNL     1      28.738   1.141   9.080  1.00  0.00    -0.000 C 
BRANCH  12  13
ATOM     13  C   UNL     1      28.893   0.164   7.903  1.00  0.00    -0.000 C 
BRANCH  13  14
ATOM     14  C   UNL     1      28.289  -1.220   8.197  1.00  0.00    -0.000 C 
BRANCH  14  15
ATOM     15  C   UNL     1      27.630  -1.845   6.948  1.00  0.00    -0.000 C 
BRANCH  15  16
ATOM     16  C   UNL     1      26.515  -0.977   6.336  1.00  0.00    -0.000 C 
BRANCH  16  17
ATOM     17  C   UNL     1      26.562  -0.856   4.803  1.00  0.00    -0.003 C 
ATOM     18  C   UNL     1      26.888   0.560   4.330  1.00  0.00     0.004 C 
ENDBRANCH  16  17
ENDBRANCH  15  16
ENDBRANCH  14  15
ENDBRANCH  13  14
ENDBRANCH  12  13
ENDBRANCH  11  12
ENDBRANCH   1  11
TORSDOF 14
ENDMDL
MODEL 8
REMARK VINA RESULT:    -3.716      1.556      3.372
REMARK INTER + INTRA:          -9.079
REMARK INTER:                  -7.593
REMARK INTRA:                  -1.486
REMARK UNBOUND:                -2.322
REMARK SMILES CCCCCCCCCCCCCCCC(=O)[O-]
REMARK SMILES IDX 9 1 10 2 11 3 12 4 13 5 14 6 15 7 16 8 17 9 18 10 8 11 7 12
REMARK SMILES IDX 6 13 5 14 4 15 3 16 2 17 1 18
REMARK H PARENT
REMARK Flexibility Score: inf
ROOT
ATOM      1  C   UNL     1      27.768   1.366   8.530  1.00  0.00     0.000 C 
ENDROOT
BRANCH   1   2
ATOM      2  C   UNL     1      28.253   2.684   7.895  1.00  0.00     0.000 C 
BRANCH   2   3
ATOM      3  C   UNL     1      28.703   3.762   8.899  1.00  0.00     0.000 C 
BRANCH   3   4
ATOM      4  C   UNL     1      27.824   3.883  10.157  1.00  0.00     0.000 C 
BRANCH   4   5
ATOM      5  C   UNL     1      26.455   4.519   9.872  1.00  0.00     0.000 C 
BRANCH   5   6
ATOM      6  C   UNL     1      26.569   6.047   9.771  1.00  0.00     0.006 C 
BRANCH   6   7
ATOM      7  C   UNL     1      26.546   6.538   8.318  1.00  0.00     0.053 C 
BRANCH   7   8
ATOM      8  C   UNL     1      25.515   5.818   7.504  1.00  0.00     0.041 C 
ATOM      9  O   UNL     1      25.867   4.993   6.620  1.00  0.00    -0.550 OA
ATOM     10  O   UNL     1      24.165   6.085   7.697  1.00  0.00    -0.550 OA
ENDBRANCH   7   8
ENDBRANCH   6   7
ENDBRANCH   5   6
ENDBRANCH   4   5
ENDBRANCH   3   4
ENDBRANCH   2   3
ENDBRANCH   1   2
BRANCH   1  11
ATOM     11  C   UNL     1      28.851   0.267   8.580  1.00  0.00     0.000 C 
BRANCH  11  12
ATOM     12  C   UNL     1      28.352  -1.015   9.269  1.00  0.00    -0.000 C 
BRANCH  12  13
ATOM     13  C   UNL     1      28.273  -2.211   8.306  1.00  0.00    -0.000 C 
BRANCH  13  14
ATOM     14  C   UNL     1      27.950  -1.790   6.862  1.00  0.00    -0.000 C 
BRANCH  14  15
ATOM     15  C   UNL     1      26.432  -1.794   6.581  1.00  0.00    -0.000 C 
BRANCH  15  16
ATOM     16  C   UNL     1      25.922  -0.498   5.920  1.00  0.00    -0.000 C 
BRANCH  16  17
ATOM     17  C   UNL     1      26.992   0.299   5.157  1.00  0.00    -0.003 C 
ATOM     18  C   UNL     1      26.617   0.549   3.697  1.00  0.00     0.004 C 
ENDBRANCH  16  17
ENDBRANCH  15  16
ENDBRANCH  14  15
ENDBRANCH  13  14
ENDBRANCH  12  13
ENDBRANCH  11  12
ENDBRANCH   1  11
TORSDOF 14
ENDMDL
MODEL 9
REMARK VINA RESULT:    -3.682      3.240      5.762
REMARK INTER + INTRA:          -9.016
REMARK INTER:                  -6.815
REMARK INTRA:                  -2.201
REMARK UNBOUND:                -2.322
REMARK SMILES CCCCCCCCCCCCCCCC(=O)[O-]
REMARK SMILES IDX 9 1 10 2 11 3 12 4 13 5 14 6 15 7 16 8 17 9 18 10 8 11 7 12
REMARK SMILES IDX 6 13 5 14 4 15 3 16 2 17 1 18
REMARK H PARENT
REMARK Flexibility Score: inf
ROOT
ATOM      1  C   UNL     1      27.185   3.763  10.377  1.00  0.00     0.000 C 
ENDROOT
BRANCH   1   2
ATOM      2  C   UNL     1      28.562   3.425   9.774  1.00  0.00     0.000 C 
BRANCH   2   3
ATOM      3  C   UNL     1      28.555   2.286   8.737  1.00  0.00     0.000 C 
BRANCH   3   4
ATOM      4  C   UNL     1      28.717   0.872   9.327  1.00  0.00     0.000 C 
BRANCH   4   5
ATOM      5  C   UNL     1      28.350  -0.237   8.330  1.00  0.00     0.000 C 
BRANCH   5   6
ATOM      6  C   UNL     1      28.048   0.349   6.943  1.00  0.00     0.006 C 
BRANCH   6   7
ATOM      7  C   UNL     1      26.875  -0.360   6.254  1.00  0.00     0.053 C 
BRANCH   7   8
ATOM      8  C   UNL     1      26.817  -0.047   4.791  1.00  0.00     0.041 C 
ATOM      9  O   UNL     1      27.212   1.070   4.365  1.00  0.00    -0.550 OA
ATOM     10  O   UNL     1      26.294  -0.977   3.900  1.00  0.00    -0.550 OA
ENDBRANCH   7   8
ENDBRANCH   6   7
ENDBRANCH   5   6
ENDBRANCH   4   5
ENDBRANCH   3   4
ENDBRANCH   2   3
ENDBRANCH   1   2
BRANCH   1  11
ATOM     11  C   UNL     1      26.850   5.270  10.351  1.00  0.00     0.000 C 
BRANCH  11  12
ATOM     12  C   UNL     1      25.336   5.530  10.269  1.00  0.00    -0.000 C 
BRANCH  12  13
ATOM     13  C   UNL     1      24.952   6.406   9.065  1.00  0.00    -0.000 C 
BRANCH  13  14
ATOM     14  C   UNL     1      26.050   6.451   7.989  1.00  0.00    -0.000 C 
BRANCH  14  15
ATOM     15  C   UNL     1      25.664   5.647   6.728  1.00  0.00    -0.000 C 
BRANCH  15  16
ATOM     16  C   UNL     1      25.984   4.143   6.831  1.00  0.00    -0.000 C 
BRANCH  16  17
ATOM     17  C   UNL     1      24.752   3.230   6.949  1.00  0.00    -0.003 C 
ATOM     18  C   UNL     1      24.892   2.187   8.057  1.00  0.00     0.004 C 
ENDBRANCH  16  17
ENDBRANCH  15  16
ENDBRANCH  14  15
ENDBRANCH  13  14
ENDBRANCH  12  13
ENDBRANCH  11  12
ENDBRANCH   1  11
TORSDOF 14
ENDMDL
