MODEL 1
REMARK VINA RESULT:    -7.684      0.000      0.000
REMARK INTER + INTRA:          -9.342
REMARK INTER:                  -9.031
REMARK INTRA:                  -0.311
REMARK UNBOUND:                -0.311
REMARK SMILES O=c1cc(-c2ccc(O)c(O)c2)oc2cc(O)cc(O)c12
REMARK SMILES IDX 4 1 3 2 2 3 1 4 21 5 19 6 18 7 16 8 15 9 14 10 13 11 5 12
REMARK SMILES IDX 6 13 7 14 8 15 12 16 10 17 9 18 11 20 20 22 17 24
REMARK H PARENT 9 19 11 21 20 23 17 25
REMARK Flexibility Score: inf
ROOT
ATOM      1  C   UNL     1     164.528 152.495 150.242  1.00  0.00     0.138 A 
ATOM      2  C   UNL     1     164.929 152.349 148.907  1.00  0.00     0.100 A 
ATOM      3  C   UNL     1     164.770 151.118 148.268  1.00  0.00     0.197 A 
ATOM      4  O   UNL     1     165.088 151.035 147.053  1.00  0.00    -0.289 OA
ATOM      5  C   UNL     1     164.241 150.017 148.983  1.00  0.00     0.107 A 
ATOM      6  C   UNL     1     164.067 148.705 148.447  1.00  0.00     0.134 A 
ATOM      7  C   UNL     1     163.440 147.721 149.222  1.00  0.00     0.093 A 
ATOM      8  C   UNL     1     163.036 147.984 150.533  1.00  0.00     0.123 A 
ATOM      9  C   UNL     1     163.248 149.246 151.082  1.00  0.00     0.094 A 
ATOM     10  C   UNL     1     163.837 150.260 150.324  1.00  0.00     0.146 A 
ATOM     11  O   UNL     1     164.005 151.455 150.881  1.00  0.00    -0.456 OA
ENDROOT
BRANCH   1  12
ATOM     12  C   UNL     1     164.676 153.780 150.970  1.00  0.00     0.021 A 
ATOM     13  C   UNL     1     165.613 154.753 150.573  1.00  0.00     0.016 A 
ATOM     14  C   UNL     1     165.723 155.957 151.273  1.00  0.00     0.051 A 
ATOM     15  C   UNL     1     164.896 156.215 152.372  1.00  0.00     0.157 A 
ATOM     16  C   UNL     1     163.839 154.053 152.068  1.00  0.00     0.062 A 
ATOM     17  C   UNL     1     163.951 155.261 152.770  1.00  0.00     0.158 A 
BRANCH  15  18
ATOM     18  O   UNL     1     165.004 157.415 153.073  1.00  0.00    -0.504 OA
ATOM     19  H   UNL     1     164.957 158.310 152.599  1.00  0.00     0.293 HD
ENDBRANCH  15  18
BRANCH  17  20
ATOM     20  O   UNL     1     163.126 155.522 153.862  1.00  0.00    -0.504 OA
ATOM     21  H   UNL     1     162.146 155.751 153.744  1.00  0.00     0.293 HD
ENDBRANCH  17  20
ENDBRANCH   1  12
BRANCH   6  22
ATOM     22  O   UNL     1     164.505 148.312 147.179  1.00  0.00    -0.507 OA
ATOM     23  H   UNL     1     164.738 147.369 146.912  1.00  0.00     0.293 HD
ENDBRANCH   6  22
BRANCH   8  24
ATOM     24  O   UNL     1     162.428 146.994 151.301  1.00  0.00    -0.508 OA
ATOM     25  H   UNL     1     162.206 147.143 152.279  1.00  0.00     0.293 HD
ENDBRANCH   8  24
TORSDOF 5
ENDMDL
MODEL 2
REMARK VINA RESULT:    -7.671      8.049      9.383
REMARK INTER + INTRA:          -9.327
REMARK INTER:                  -9.065
REMARK INTRA:                  -0.263
REMARK UNBOUND:                -0.311
REMARK SMILES O=c1cc(-c2ccc(O)c(O)c2)oc2cc(O)cc(O)c12
REMARK SMILES IDX 4 1 3 2 2 3 1 4 21 5 19 6 18 7 16 8 15 9 14 10 13 11 5 12
REMARK SMILES IDX 6 13 7 14 8 15 12 16 10 17 9 18 11 20 20 22 17 24
REMARK H PARENT 9 19 11 21 20 23 17 25
REMARK Flexibility Score: inf
ROOT
ATOM      1  C   UNL     1     168.462 144.997 154.060  1.00  0.00     0.138 A 
ATOM      2  C   UNL     1     168.288 143.645 154.386  1.00  0.00     0.100 A 
ATOM      3  C   UNL     1     168.184 142.696 153.366  1.00  0.00     0.197 A 
ATOM      4  O   UNL     1     168.085 141.485 153.692  1.00  0.00    -0.289 OA
ATOM      5  C   UNL     1     168.217 143.111 152.013  1.00  0.00     0.107 A 
ATOM      6  C   UNL     1     168.085 142.239 150.891  1.00  0.00     0.134 A 
ATOM      7  C   UNL     1     168.233 142.752 149.597  1.00  0.00     0.093 A 
ATOM      8  C   UNL     1     168.450 144.116 149.383  1.00  0.00     0.123 A 
ATOM      9  C   UNL     1     168.530 144.983 150.469  1.00  0.00     0.094 A 
ATOM     10  C   UNL     1     168.422 144.497 151.773  1.00  0.00     0.146 A 
ATOM     11  O   UNL     1     168.522 145.356 152.783  1.00  0.00    -0.456 OA
ENDROOT
BRANCH   1  12
ATOM     12  C   UNL     1     168.576 146.047 155.103  1.00  0.00     0.021 A 
ATOM     13  C   UNL     1     167.454 146.771 155.551  1.00  0.00     0.016 A 
ATOM     14  C   UNL     1     167.591 147.747 156.542  1.00  0.00     0.051 A 
ATOM     15  C   UNL     1     168.844 148.012 157.107  1.00  0.00     0.157 A 
ATOM     16  C   UNL     1     169.829 146.310 155.686  1.00  0.00     0.062 A 
ATOM     17  C   UNL     1     169.965 147.290 156.679  1.00  0.00     0.158 A 
BRANCH  15  18
ATOM     18  O   UNL     1     168.984 148.985 158.094  1.00  0.00    -0.504 OA
ATOM     19  H   UNL     1     169.816 149.039 158.670  1.00  0.00     0.293 HD
ENDBRANCH  15  18
BRANCH  17  20
ATOM     20  O   UNL     1     171.212 147.552 157.245  1.00  0.00    -0.504 OA
ATOM     21  H   UNL     1     171.513 147.096 158.098  1.00  0.00     0.293 HD
ENDBRANCH  17  20
ENDBRANCH   1  12
BRANCH   6  22
ATOM     22  O   UNL     1     167.789 140.876 150.988  1.00  0.00    -0.507 OA
ATOM     23  H   UNL     1     168.445 140.157 151.250  1.00  0.00     0.293 HD
ENDBRANCH   6  22
BRANCH   8  24
ATOM     24  O   UNL     1     168.580 144.620 148.090  1.00  0.00    -0.508 OA
ATOM     25  H   UNL     1     169.032 144.087 147.356  1.00  0.00     0.293 HD
ENDBRANCH   8  24
TORSDOF 5
ENDMDL
MODEL 3
REMARK VINA RESULT:    -7.537      1.779      7.230
REMARK INTER + INTRA:          -9.169
REMARK INTER:                  -8.855
REMARK INTRA:                  -0.314
REMARK UNBOUND:                -0.311
REMARK SMILES O=c1cc(-c2ccc(O)c(O)c2)oc2cc(O)cc(O)c12
REMARK SMILES IDX 4 1 3 2 2 3 1 4 21 5 19 6 18 7 16 8 15 9 14 10 13 11 5 12
REMARK SMILES IDX 6 13 7 14 8 15 12 16 10 17 9 18 11 20 20 22 17 24
REMARK H PARENT 9 19 11 21 20 23 17 25
REMARK Flexibility Score: inf
ROOT
ATOM      1  C   UNL     1     164.004 150.643 150.430  1.00  0.00     0.138 A 
ATOM      2  C   UNL     1     163.772 151.399 151.587  1.00  0.00     0.100 A 
ATOM      3  C   UNL     1     164.325 152.676 151.701  1.00  0.00     0.197 A 
ATOM      4  O   UNL     1     164.052 153.351 152.727  1.00  0.00    -0.289 OA
ATOM      5  C   UNL     1     165.145 153.183 150.664  1.00  0.00     0.107 A 
ATOM      6  C   UNL     1     165.791 154.456 150.685  1.00  0.00     0.134 A 
ATOM      7  C   UNL     1     166.497 154.890 149.557  1.00  0.00     0.093 A 
ATOM      8  C   UNL     1     166.631 154.073 148.431  1.00  0.00     0.123 A 
ATOM      9  C   UNL     1     166.047 152.808 148.421  1.00  0.00     0.094 A 
ATOM     10  C   UNL     1     165.306 152.361 149.516  1.00  0.00     0.146 A 
ATOM     11  O   UNL     1     164.751 151.154 149.458  1.00  0.00    -0.456 OA
ENDROOT
BRANCH   1  12
ATOM     12  C   UNL     1     163.444 149.280 150.258  1.00  0.00     0.021 A 
ATOM     13  C   UNL     1     162.942 148.542 151.347  1.00  0.00     0.016 A 
ATOM     14  C   UNL     1     162.411 147.264 151.152  1.00  0.00     0.051 A 
ATOM     15  C   UNL     1     162.364 146.705 149.870  1.00  0.00     0.157 A 
ATOM     16  C   UNL     1     163.380 148.716 148.970  1.00  0.00     0.062 A 
ATOM     17  C   UNL     1     162.848 147.433 148.777  1.00  0.00     0.158 A 
BRANCH  15  18
ATOM     18  O   UNL     1     161.836 145.430 149.673  1.00  0.00    -0.504 OA
ATOM     19  H   UNL     1     161.883 144.720 150.394  1.00  0.00     0.293 HD
ENDBRANCH  15  18
BRANCH  17  20
ATOM     20  O   UNL     1     162.797 146.876 147.500  1.00  0.00    -0.504 OA
ATOM     21  H   UNL     1     163.457 146.167 147.204  1.00  0.00     0.293 HD
ENDBRANCH  17  20
ENDBRANCH   1  12
BRANCH   6  22
ATOM     22  O   UNL     1     165.788 155.318 151.786  1.00  0.00    -0.507 OA
ATOM     23  H   UNL     1     165.841 156.323 151.736  1.00  0.00     0.293 HD
ENDBRANCH   6  22
BRANCH   8  24
ATOM     24  O   UNL     1     167.349 154.507 147.319  1.00  0.00    -0.508 OA
ATOM     25  H   UNL     1     168.342 154.702 147.373  1.00  0.00     0.293 HD
ENDBRANCH   8  24
TORSDOF 5
ENDMDL
MODEL 4
REMARK VINA RESULT:    -7.536      5.570      9.156
REMARK INTER + INTRA:          -9.168
REMARK INTER:                  -8.874
REMARK INTRA:                  -0.295
REMARK UNBOUND:                -0.311
REMARK SMILES O=c1cc(-c2ccc(O)c(O)c2)oc2cc(O)cc(O)c12
REMARK SMILES IDX 4 1 3 2 2 3 1 4 21 5 19 6 18 7 16 8 15 9 14 10 13 11 5 12
REMARK SMILES IDX 6 13 7 14 8 15 12 16 10 17 9 18 11 20 20 22 17 24
REMARK H PARENT 9 19 11 21 20 23 17 25
REMARK Flexibility Score: inf
ROOT
ATOM      1  C   UNL     1     169.243 149.193 146.686  1.00  0.00     0.138 A 
ATOM      2  C   UNL     1     169.923 150.357 147.069  1.00  0.00     0.100 A 
ATOM      3  C   UNL     1     169.211 151.545 147.249  1.00  0.00     0.197 A 
ATOM      4  O   UNL     1     169.841 152.558 147.648  1.00  0.00    -0.289 OA
ATOM      5  C   UNL     1     167.817 151.574 147.007  1.00  0.00     0.107 A 
ATOM      6  C   UNL     1     166.994 152.735 147.124  1.00  0.00     0.134 A 
ATOM      7  C   UNL     1     165.609 152.618 146.955  1.00  0.00     0.093 A 
ATOM      8  C   UNL     1     165.024 151.395 146.616  1.00  0.00     0.123 A 
ATOM      9  C   UNL     1     165.824 150.268 146.450  1.00  0.00     0.094 A 
ATOM     10  C   UNL     1     167.204 150.343 146.647  1.00  0.00     0.146 A 
ATOM     11  O   UNL     1     167.929 149.239 146.496  1.00  0.00    -0.456 OA
ENDROOT
BRANCH   1  12
ATOM     12  C   UNL     1     169.949 147.904 146.478  1.00  0.00     0.021 A 
ATOM     13  C   UNL     1     169.265 146.739 146.080  1.00  0.00     0.016 A 
ATOM     14  C   UNL     1     169.959 145.543 145.882  1.00  0.00     0.051 A 
ATOM     15  C   UNL     1     171.345 145.489 146.070  1.00  0.00     0.157 A 
ATOM     16  C   UNL     1     171.345 147.845 146.651  1.00  0.00     0.062 A 
ATOM     17  C   UNL     1     172.039 146.643 146.454  1.00  0.00     0.158 A 
BRANCH  15  18
ATOM     18  O   UNL     1     172.040 144.297 145.875  1.00  0.00    -0.504 OA
ATOM     19  H   UNL     1     171.555 143.422 145.711  1.00  0.00     0.293 HD
ENDBRANCH  15  18
BRANCH  17  20
ATOM     20  O   UNL     1     173.420 146.588 146.636  1.00  0.00    -0.504 OA
ATOM     21  H   UNL     1     174.052 147.141 146.069  1.00  0.00     0.293 HD
ENDBRANCH  17  20
ENDBRANCH   1  12
BRANCH   6  22
ATOM     22  O   UNL     1     167.483 154.019 147.379  1.00  0.00    -0.507 OA
ATOM     23  H   UNL     1     166.914 154.838 147.524  1.00  0.00     0.293 HD
ENDBRANCH   6  22
BRANCH   8  24
ATOM     24  O   UNL     1     163.646 151.292 146.435  1.00  0.00    -0.508 OA
ATOM     25  H   UNL     1     163.065 150.764 147.076  1.00  0.00     0.293 HD
ENDBRANCH   8  24
TORSDOF 5
ENDMDL
MODEL 5
REMARK VINA RESULT:    -7.534      1.388      6.917
REMARK INTER + INTRA:          -9.166
REMARK INTER:                  -8.880
REMARK INTRA:                  -0.286
REMARK UNBOUND:                -0.311
REMARK SMILES O=c1cc(-c2ccc(O)c(O)c2)oc2cc(O)cc(O)c12
REMARK SMILES IDX 4 1 3 2 2 3 1 4 21 5 19 6 18 7 16 8 15 9 14 10 13 11 5 12
REMARK SMILES IDX 6 13 7 14 8 15 12 16 10 17 9 18 11 20 20 22 17 24
REMARK H PARENT 9 19 11 21 20 23 17 25
REMARK Flexibility Score: inf
ROOT
ATOM      1  C   UNL     1     164.150 151.175 150.444  1.00  0.00     0.138 A 
ATOM      2  C   UNL     1     165.151 151.673 149.599  1.00  0.00     0.100 A 
ATOM      3  C   UNL     1     165.615 152.978 149.772  1.00  0.00     0.197 A 
ATOM      4  O   UNL     1     166.553 153.376 149.034  1.00  0.00    -0.289 OA
ATOM      5  C   UNL     1     165.045 153.801 150.773  1.00  0.00     0.107 A 
ATOM      6  C   UNL     1     165.413 155.158 151.018  1.00  0.00     0.134 A 
ATOM      7  C   UNL     1     164.848 155.841 152.102  1.00  0.00     0.093 A 
ATOM      8  C   UNL     1     163.886 155.234 152.914  1.00  0.00     0.123 A 
ATOM      9  C   UNL     1     163.484 153.927 152.652  1.00  0.00     0.094 A 
ATOM     10  C   UNL     1     164.054 153.208 151.600  1.00  0.00     0.146 A 
ATOM     11  O   UNL     1     163.654 151.957 151.396  1.00  0.00    -0.456 OA
ENDROOT
BRANCH   1  12
ATOM     12  C   UNL     1     163.618 149.796 150.303  1.00  0.00     0.021 A 
ATOM     13  C   UNL     1     163.084 149.092 151.400  1.00  0.00     0.016 A 
ATOM     14  C   UNL     1     162.581 147.799 151.234  1.00  0.00     0.051 A 
ATOM     15  C   UNL     1     162.596 147.189 149.974  1.00  0.00     0.157 A 
ATOM     16  C   UNL     1     163.616 149.181 149.037  1.00  0.00     0.062 A 
ATOM     17  C   UNL     1     163.113 147.883 148.873  1.00  0.00     0.158 A 
BRANCH  15  18
ATOM     18  O   UNL     1     162.097 145.899 149.806  1.00  0.00    -0.504 OA
ATOM     19  H   UNL     1     162.637 145.179 149.341  1.00  0.00     0.293 HD
ENDBRANCH  15  18
BRANCH  17  20
ATOM     20  O   UNL     1     163.123 147.276 147.618  1.00  0.00    -0.504 OA
ATOM     21  H   UNL     1     162.406 146.616 147.343  1.00  0.00     0.293 HD
ENDBRANCH  17  20
ENDBRANCH   1  12
BRANCH   6  22
ATOM     22  O   UNL     1     166.303 155.885 150.222  1.00  0.00    -0.507 OA
ATOM     23  H   UNL     1     166.339 155.854 149.215  1.00  0.00     0.293 HD
ENDBRANCH   6  22
BRANCH   8  24
ATOM     24  O   UNL     1     163.318 155.927 153.981  1.00  0.00    -0.508 OA
ATOM     25  H   UNL     1     162.601 156.629 153.837  1.00  0.00     0.293 HD
ENDBRANCH   8  24
TORSDOF 5
ENDMDL
MODEL 6
REMARK VINA RESULT:    -7.493      3.295      7.319
REMARK INTER + INTRA:          -9.118
REMARK INTER:                  -8.819
REMARK INTRA:                  -0.299
REMARK UNBOUND:                -0.311
REMARK SMILES O=c1cc(-c2ccc(O)c(O)c2)oc2cc(O)cc(O)c12
REMARK SMILES IDX 4 1 3 2 2 3 1 4 21 5 19 6 18 7 16 8 15 9 14 10 13 11 5 12
REMARK SMILES IDX 6 13 7 14 8 15 12 16 10 17 9 18 11 20 20 22 17 24
REMARK H PARENT 9 19 11 21 20 23 17 25
REMARK Flexibility Score: inf
ROOT
ATOM      1  C   UNL     1     166.478 153.295 150.107  1.00  0.00     0.138 A 
ATOM      2  C   UNL     1     165.781 152.464 150.995  1.00  0.00     0.100 A 
ATOM      3  C   UNL     1     165.015 153.032 152.015  1.00  0.00     0.197 A 
ATOM      4  O   UNL     1     164.357 152.261 152.761  1.00  0.00    -0.289 OA
ATOM      5  C   UNL     1     164.978 154.439 152.168  1.00  0.00     0.107 A 
ATOM      6  C   UNL     1     164.261 155.127 153.192  1.00  0.00     0.134 A 
ATOM      7  C   UNL     1     164.218 156.527 153.182  1.00  0.00     0.093 A 
ATOM      8  C   UNL     1     164.915 157.263 152.220  1.00  0.00     0.123 A 
ATOM      9  C   UNL     1     165.659 156.601 151.248  1.00  0.00     0.094 A 
ATOM     10  C   UNL     1     165.693 155.206 151.209  1.00  0.00     0.146 A 
ATOM     11  O   UNL     1     166.401 154.613 150.252  1.00  0.00    -0.456 OA
ENDROOT
BRANCH   1  12
ATOM     12  C   UNL     1     167.309 152.746 149.006  1.00  0.00     0.021 A 
ATOM     13  C   UNL     1     166.894 151.634 148.248  1.00  0.00     0.016 A 
ATOM     14  C   UNL     1     167.693 151.145 147.212  1.00  0.00     0.051 A 
ATOM     15  C   UNL     1     168.914 151.761 146.908  1.00  0.00     0.157 A 
ATOM     16  C   UNL     1     168.530 153.367 148.686  1.00  0.00     0.062 A 
ATOM     17  C   UNL     1     169.332 152.875 147.646  1.00  0.00     0.158 A 
BRANCH  15  18
ATOM     18  O   UNL     1     169.714 151.275 145.876  1.00  0.00    -0.504 OA
ATOM     19  H   UNL     1     169.515 150.390 145.424  1.00  0.00     0.293 HD
ENDBRANCH  15  18
BRANCH  17  20
ATOM     20  O   UNL     1     170.545 153.490 147.339  1.00  0.00    -0.504 OA
ATOM     21  H   UNL     1     171.019 154.088 148.005  1.00  0.00     0.293 HD
ENDBRANCH  17  20
ENDBRANCH   1  12
BRANCH   6  22
ATOM     22  O   UNL     1     163.597 154.493 154.247  1.00  0.00    -0.507 OA
ATOM     23  H   UNL     1     163.594 153.500 154.416  1.00  0.00     0.293 HD
ENDBRANCH   6  22
BRANCH   8  24
ATOM     24  O   UNL     1     164.879 158.656 152.228  1.00  0.00    -0.508 OA
ATOM     25  H   UNL     1     164.030 159.166 152.014  1.00  0.00     0.293 HD
ENDBRANCH   8  24
TORSDOF 5
ENDMDL
MODEL 7
REMARK VINA RESULT:    -7.373      1.988      3.525
REMARK INTER + INTRA:          -8.976
REMARK INTER:                  -8.682
REMARK INTRA:                  -0.294
REMARK UNBOUND:                -0.311
REMARK SMILES O=c1cc(-c2ccc(O)c(O)c2)oc2cc(O)cc(O)c12
REMARK SMILES IDX 4 1 3 2 2 3 1 4 21 5 19 6 18 7 16 8 15 9 14 10 13 11 5 12
REMARK SMILES IDX 6 13 7 14 8 15 12 16 10 17 9 18 11 20 20 22 17 24
REMARK H PARENT 9 19 11 21 20 23 17 25
REMARK Flexibility Score: inf
ROOT
ATOM      1  C   UNL     1     164.974 152.566 149.882  1.00  0.00     0.138 A 
ATOM      2  C   UNL     1     164.095 151.491 149.684  1.00  0.00     0.100 A 
ATOM      3  C   UNL     1     164.391 150.526 148.720  1.00  0.00     0.197 A 
ATOM      4  O   UNL     1     163.612 149.545 148.606  1.00  0.00    -0.289 OA
ATOM      5  C   UNL     1     165.555 150.658 147.925  1.00  0.00     0.107 A 
ATOM      6  C   UNL     1     165.939 149.755 146.888  1.00  0.00     0.134 A 
ATOM      7  C   UNL     1     167.165 149.937 146.236  1.00  0.00     0.093 A 
ATOM      8  C   UNL     1     167.991 151.021 146.541  1.00  0.00     0.123 A 
ATOM      9  C   UNL     1     167.601 151.936 147.515  1.00  0.00     0.094 A 
ATOM     10  C   UNL     1     166.401 151.763 148.210  1.00  0.00     0.146 A 
ATOM     11  O   UNL     1     166.075 152.650 149.144  1.00  0.00    -0.456 OA
ENDROOT
BRANCH   1  12
ATOM     12  C   UNL     1     164.708 153.622 150.891  1.00  0.00     0.021 A 
ATOM     13  C   UNL     1     165.497 154.785 150.972  1.00  0.00     0.016 A 
ATOM     14  C   UNL     1     165.216 155.766 151.926  1.00  0.00     0.051 A 
ATOM     15  C   UNL     1     164.141 155.609 152.808  1.00  0.00     0.157 A 
ATOM     16  C   UNL     1     163.620 153.478 151.772  1.00  0.00     0.062 A 
ATOM     17  C   UNL     1     163.340 154.463 152.729  1.00  0.00     0.158 A 
BRANCH  15  18
ATOM     18  O   UNL     1     163.858 156.585 153.762  1.00  0.00    -0.504 OA
ATOM     19  H   UNL     1     164.391 156.656 154.621  1.00  0.00     0.293 HD
ENDBRANCH  15  18
BRANCH  17  20
ATOM     20  O   UNL     1     162.266 154.310 153.606  1.00  0.00    -0.504 OA
ATOM     21  H   UNL     1     162.384 153.886 154.518  1.00  0.00     0.293 HD
ENDBRANCH  17  20
ENDBRANCH   1  12
BRANCH   6  22
ATOM     22  O   UNL     1     165.153 148.686 146.448  1.00  0.00    -0.507 OA
ATOM     23  H   UNL     1     165.192 148.278 145.528  1.00  0.00     0.293 HD
ENDBRANCH   6  22
BRANCH   8  24
ATOM     24  O   UNL     1     169.202 151.202 145.875  1.00  0.00    -0.508 OA
ATOM     25  H   UNL     1     169.720 150.418 145.495  1.00  0.00     0.293 HD
ENDBRANCH   8  24
TORSDOF 5
ENDMDL
MODEL 8
REMARK VINA RESULT:    -7.297      1.798      3.225
REMARK INTER + INTRA:          -8.888
REMARK INTER:                  -8.618
REMARK INTRA:                  -0.270
REMARK UNBOUND:                -0.311
REMARK SMILES O=c1cc(-c2ccc(O)c(O)c2)oc2cc(O)cc(O)c12
REMARK SMILES IDX 4 1 3 2 2 3 1 4 21 5 19 6 18 7 16 8 15 9 14 10 13 11 5 12
REMARK SMILES IDX 6 13 7 14 8 15 12 16 10 17 9 18 11 20 20 22 17 24
REMARK H PARENT 9 19 11 21 20 23 17 25
REMARK Flexibility Score: inf
ROOT
ATOM      1  C   UNL     1     165.064 153.216 151.208  1.00  0.00     0.138 A 
ATOM      2  C   UNL     1     164.246 152.255 151.818  1.00  0.00     0.100 A 
ATOM      3  C   UNL     1     163.935 151.077 151.135  1.00  0.00     0.197 A 
ATOM      4  O   UNL     1     163.246 150.211 151.731  1.00  0.00    -0.289 OA
ATOM      5  C   UNL     1     164.417 150.879 149.818  1.00  0.00     0.107 A 
ATOM      6  C   UNL     1     164.136 149.735 149.012  1.00  0.00     0.134 A 
ATOM      7  C   UNL     1     164.750 149.606 147.761  1.00  0.00     0.093 A 
ATOM      8  C   UNL     1     165.589 150.606 147.262  1.00  0.00     0.123 A 
ATOM      9  C   UNL     1     165.828 151.750 148.020  1.00  0.00     0.094 A 
ATOM     10  C   UNL     1     165.259 151.893 149.286  1.00  0.00     0.146 A 
ATOM     11  O   UNL     1     165.529 152.992 149.984  1.00  0.00    -0.456 OA
ENDROOT
BRANCH   1  12
ATOM     12  C   UNL     1     165.423 154.486 151.887  1.00  0.00     0.021 A 
ATOM     13  C   UNL     1     166.292 154.513 152.994  1.00  0.00     0.016 A 
ATOM     14  C   UNL     1     166.620 155.726 153.607  1.00  0.00     0.051 A 
ATOM     15  C   UNL     1     166.095 156.929 153.121  1.00  0.00     0.157 A 
ATOM     16  C   UNL     1     164.911 155.701 151.396  1.00  0.00     0.062 A 
ATOM     17  C   UNL     1     165.240 156.917 152.013  1.00  0.00     0.158 A 
BRANCH  15  18
ATOM     18  O   UNL     1     166.419 158.140 153.731  1.00  0.00    -0.504 OA
ATOM     19  H   UNL     1     166.027 158.403 154.628  1.00  0.00     0.293 HD
ENDBRANCH  15  18
BRANCH  17  20
ATOM     20  O   UNL     1     164.721 158.117 151.528  1.00  0.00    -0.504 OA
ATOM     21  H   UNL     1     165.051 159.012 151.867  1.00  0.00     0.293 HD
ENDBRANCH  17  20
ENDBRANCH   1  12
BRANCH   6  22
ATOM     22  O   UNL     1     163.252 148.716 149.379  1.00  0.00    -0.507 OA
ATOM     23  H   UNL     1     163.280 147.771 149.031  1.00  0.00     0.293 HD
ENDBRANCH   6  22
BRANCH   8  24
ATOM     24  O   UNL     1     166.183 150.476 146.009  1.00  0.00    -0.508 OA
ATOM     25  H   UNL     1     166.245 149.578 145.542  1.00  0.00     0.293 HD
ENDBRANCH   8  24
TORSDOF 5
ENDMDL
MODEL 9
REMARK VINA RESULT:    -7.055      2.951      3.929
REMARK INTER + INTRA:          -8.603
REMARK INTER:                  -8.340
REMARK INTRA:                  -0.263
REMARK UNBOUND:                -0.311
REMARK SMILES O=c1cc(-c2ccc(O)c(O)c2)oc2cc(O)cc(O)c12
REMARK SMILES IDX 4 1 3 2 2 3 1 4 21 5 19 6 18 7 16 8 15 9 14 10 13 11 5 12
REMARK SMILES IDX 6 13 7 14 8 15 12 16 10 17 9 18 11 20 20 22 17 24
REMARK H PARENT 9 19 11 21 20 23 17 25
REMARK Flexibility Score: inf
ROOT
ATOM      1  C   UNL     1     167.326 153.217 149.457  1.00  0.00     0.138 A 
ATOM      2  C   UNL     1     168.640 153.265 148.971  1.00  0.00     0.100 A 
ATOM      3  C   UNL     1     169.056 152.341 148.010  1.00  0.00     0.197 A 
ATOM      4  O   UNL     1     170.223 152.446 147.554  1.00  0.00    -0.289 OA
ATOM      5  C   UNL     1     168.159 151.342 147.561  1.00  0.00     0.107 A 
ATOM      6  C   UNL     1     168.483 150.326 146.611  1.00  0.00     0.134 A 
ATOM      7  C   UNL     1     167.482 149.452 146.169  1.00  0.00     0.093 A 
ATOM      8  C   UNL     1     166.186 149.518 146.687  1.00  0.00     0.123 A 
ATOM      9  C   UNL     1     165.874 150.473 147.651  1.00  0.00     0.094 A 
ATOM     10  C   UNL     1     166.840 151.383 148.086  1.00  0.00     0.146 A 
ATOM     11  O   UNL     1     166.495 152.289 148.995  1.00  0.00    -0.456 OA
ENDROOT
BRANCH   1  12
ATOM     12  C   UNL     1     166.832 154.172 150.480  1.00  0.00     0.021 A 
ATOM     13  C   UNL     1     166.223 155.391 150.124  1.00  0.00     0.016 A 
ATOM     14  C   UNL     1     165.760 156.266 151.110  1.00  0.00     0.051 A 
ATOM     15  C   UNL     1     165.887 155.937 152.465  1.00  0.00     0.157 A 
ATOM     16  C   UNL     1     166.944 153.843 151.844  1.00  0.00     0.062 A 
ATOM     17  C   UNL     1     166.479 154.722 152.832  1.00  0.00     0.158 A 
BRANCH  15  18
ATOM     18  O   UNL     1     165.426 156.807 153.451  1.00  0.00    -0.504 OA
ATOM     19  H   UNL     1     164.993 157.693 153.215  1.00  0.00     0.293 HD
ENDBRANCH  15  18
BRANCH  17  20
ATOM     20  O   UNL     1     166.601 154.395 154.182  1.00  0.00    -0.504 OA
ATOM     21  H   UNL     1     166.629 155.109 154.900  1.00  0.00     0.293 HD
ENDBRANCH  17  20
ENDBRANCH   1  12
BRANCH   6  22
ATOM     22  O   UNL     1     169.763 150.119 146.089  1.00  0.00    -0.507 OA
ATOM     23  H   UNL     1     170.074 150.421 145.180  1.00  0.00     0.293 HD
ENDBRANCH   6  22
BRANCH   8  24
ATOM     24  O   UNL     1     165.201 148.633 146.253  1.00  0.00    -0.508 OA
ATOM     25  H   UNL     1     165.235 148.214 145.330  1.00  0.00     0.293 HD
ENDBRANCH   8  24
TORSDOF 5
ENDMDL
