MODEL 1
REMARK VINA RESULT:    -8.067      0.000      0.000
REMARK INTER + INTRA:          -9.754
REMARK INTER:                  -9.482
REMARK INTRA:                  -0.272
REMARK UNBOUND:                -0.272
REMARK SMILES O=c1cc(-c2ccc(O)c(O)c2)oc2cc(O)cc(O)c12
REMARK SMILES IDX 4 1 3 2 2 3 1 4 21 5 19 6 18 7 16 8 15 9 14 10 13 11 5 12
REMARK SMILES IDX 6 13 7 14 8 15 12 16 10 17 9 18 11 20 20 22 17 24
REMARK H PARENT 9 19 11 21 20 23 17 25
REMARK Flexibility Score: inf
ROOT
ATOM      1  C   UNL     1     -11.664 -66.382 -32.842  1.00  0.00     0.138 A 
ATOM      2  C   UNL     1     -11.139 -67.076 -31.743  1.00  0.00     0.100 A 
ATOM      3  C   UNL     1      -9.790 -66.933 -31.417  1.00  0.00     0.197 A 
ATOM      4  O   UNL     1      -9.362 -67.518 -30.389  1.00  0.00    -0.289 OA
ATOM      5  C   UNL     1      -8.956 -66.113 -32.215  1.00  0.00     0.107 A 
ATOM      6  C   UNL     1      -7.558 -65.925 -32.002  1.00  0.00     0.134 A 
ATOM      7  C   UNL     1      -6.859 -64.999 -32.787  1.00  0.00     0.093 A 
ATOM      8  C   UNL     1      -7.492 -64.301 -33.814  1.00  0.00     0.123 A 
ATOM      9  C   UNL     1      -8.847 -64.518 -34.066  1.00  0.00     0.094 A 
ATOM     10  C   UNL     1      -9.580 -65.410 -33.279  1.00  0.00     0.146 A 
ATOM     11  O   UNL     1     -10.871 -65.577 -33.543  1.00  0.00    -0.456 OA
ENDROOT
BRANCH   1  12
ATOM     12  C   UNL     1     -13.091 -66.499 -33.235  1.00  0.00     0.021 A 
ATOM     13  C   UNL     1     -14.123 -65.983 -32.431  1.00  0.00     0.016 A 
ATOM     14  C   UNL     1     -15.457 -66.116 -32.820  1.00  0.00     0.051 A 
ATOM     15  C   UNL     1     -15.794 -66.770 -34.009  1.00  0.00     0.157 A 
ATOM     16  C   UNL     1     -13.431 -67.168 -34.423  1.00  0.00     0.062 A 
ATOM     17  C   UNL     1     -14.766 -67.305 -34.821  1.00  0.00     0.158 A 
BRANCH  15  18
ATOM     18  O   UNL     1     -17.146 -66.867 -34.341  1.00  0.00    -0.504 OA
ATOM     19  H   UNL     1     -17.881 -67.040 -33.671  1.00  0.00     0.293 HD
ENDBRANCH  15  18
BRANCH  17  20
ATOM     20  O   UNL     1     -15.024 -67.975 -36.018  1.00  0.00    -0.504 OA
ATOM     21  H   UNL     1     -15.949 -68.128 -36.392  1.00  0.00     0.293 HD
ENDBRANCH  17  20
ENDBRANCH   1  12
BRANCH   6  22
ATOM     22  O   UNL     1      -6.809 -66.633 -31.058  1.00  0.00    -0.507 OA
ATOM     23  H   UNL     1      -7.174 -67.009 -30.196  1.00  0.00     0.293 HD
ENDBRANCH   6  22
BRANCH   8  24
ATOM     24  O   UNL     1      -6.761 -63.399 -34.585  1.00  0.00    -0.508 OA
ATOM     25  H   UNL     1      -7.213 -62.643 -35.086  1.00  0.00     0.293 HD
ENDBRANCH   8  24
TORSDOF 5
ENDMDL
MODEL 2
REMARK VINA RESULT:    -7.942      1.460      6.911
REMARK INTER + INTRA:          -9.607
REMARK INTER:                  -9.336
REMARK INTRA:                  -0.270
REMARK UNBOUND:                -0.272
REMARK SMILES O=c1cc(-c2ccc(O)c(O)c2)oc2cc(O)cc(O)c12
REMARK SMILES IDX 4 1 3 2 2 3 1 4 21 5 19 6 18 7 16 8 15 9 14 10 13 11 5 12
REMARK SMILES IDX 6 13 7 14 8 15 12 16 10 17 9 18 11 20 20 22 17 24
REMARK H PARENT 9 19 11 21 20 23 17 25
REMARK Flexibility Score: inf
ROOT
ATOM      1  C   UNL     1     -11.258 -66.443 -32.904  1.00  0.00     0.138 A 
ATOM      2  C   UNL     1     -12.370 -66.117 -32.115  1.00  0.00     0.100 A 
ATOM      3  C   UNL     1     -13.650 -66.182 -32.666  1.00  0.00     0.197 A 
ATOM      4  O   UNL     1     -14.632 -65.944 -31.916  1.00  0.00    -0.289 OA
ATOM      5  C   UNL     1     -13.814 -66.547 -34.024  1.00  0.00     0.107 A 
ATOM      6  C   UNL     1     -15.067 -66.608 -34.703  1.00  0.00     0.134 A 
ATOM      7  C   UNL     1     -15.118 -67.095 -36.015  1.00  0.00     0.093 A 
ATOM      8  C   UNL     1     -13.957 -67.465 -36.692  1.00  0.00     0.123 A 
ATOM      9  C   UNL     1     -12.720 -67.359 -36.055  1.00  0.00     0.094 A 
ATOM     10  C   UNL     1     -12.639 -66.909 -34.735  1.00  0.00     0.146 A 
ATOM     11  O   UNL     1     -11.444 -66.835 -34.160  1.00  0.00    -0.456 OA
ENDROOT
BRANCH   1  12
ATOM     12  C   UNL     1      -9.874 -66.389 -32.370  1.00  0.00     0.021 A 
ATOM     13  C   UNL     1      -9.435 -67.270 -31.365  1.00  0.00     0.016 A 
ATOM     14  C   UNL     1      -8.131 -67.189 -30.873  1.00  0.00     0.051 A 
ATOM     15  C   UNL     1      -7.239 -66.231 -31.364  1.00  0.00     0.157 A 
ATOM     16  C   UNL     1      -8.981 -65.417 -32.853  1.00  0.00     0.062 A 
ATOM     17  C   UNL     1      -7.671 -65.331 -32.367  1.00  0.00     0.158 A 
BRANCH  15  18
ATOM     18  O   UNL     1      -5.948 -66.206 -30.832  1.00  0.00    -0.504 OA
ATOM     19  H   UNL     1      -5.702 -65.741 -29.971  1.00  0.00     0.293 HD
ENDBRANCH  15  18
BRANCH  17  20
ATOM     20  O   UNL     1      -6.841 -64.345 -32.902  1.00  0.00    -0.504 OA
ATOM     21  H   UNL     1      -7.019 -63.354 -32.826  1.00  0.00     0.293 HD
ENDBRANCH  17  20
ENDBRANCH   1  12
BRANCH   6  22
ATOM     22  O   UNL     1     -16.278 -66.183 -34.148  1.00  0.00    -0.507 OA
ATOM     23  H   UNL     1     -16.736 -65.311 -34.363  1.00  0.00     0.293 HD
ENDBRANCH   6  22
BRANCH   8  24
ATOM     24  O   UNL     1     -14.044 -67.931 -38.002  1.00  0.00    -0.508 OA
ATOM     25  H   UNL     1     -14.605 -67.453 -38.698  1.00  0.00     0.293 HD
ENDBRANCH   8  24
TORSDOF 5
ENDMDL
MODEL 3
REMARK VINA RESULT:    -7.817      1.398      3.264
REMARK INTER + INTRA:          -9.460
REMARK INTER:                  -9.188
REMARK INTRA:                  -0.272
REMARK UNBOUND:                -0.272
REMARK SMILES O=c1cc(-c2ccc(O)c(O)c2)oc2cc(O)cc(O)c12
REMARK SMILES IDX 4 1 3 2 2 3 1 4 21 5 19 6 18 7 16 8 15 9 14 10 13 11 5 12
REMARK SMILES IDX 6 13 7 14 8 15 12 16 10 17 9 18 11 20 20 22 17 24
REMARK H PARENT 9 19 11 21 20 23 17 25
REMARK Flexibility Score: inf
ROOT
ATOM      1  C   UNL     1     -11.192 -66.513 -33.410  1.00  0.00     0.138 A 
ATOM      2  C   UNL     1     -10.273 -65.595 -33.937  1.00  0.00     0.100 A 
ATOM      3  C   UNL     1      -9.071 -65.362 -33.268  1.00  0.00     0.197 A 
ATOM      4  O   UNL     1      -8.238 -64.581 -33.797  1.00  0.00    -0.289 OA
ATOM      5  C   UNL     1      -8.803 -66.029 -32.048  1.00  0.00     0.107 A 
ATOM      6  C   UNL     1      -7.630 -65.839 -31.259  1.00  0.00     0.134 A 
ATOM      7  C   UNL     1      -7.421 -66.641 -30.130  1.00  0.00     0.093 A 
ATOM      8  C   UNL     1      -8.369 -67.581 -29.727  1.00  0.00     0.123 A 
ATOM      9  C   UNL     1      -9.545 -67.737 -30.462  1.00  0.00     0.094 A 
ATOM     10  C   UNL     1      -9.767 -66.977 -31.613  1.00  0.00     0.146 A 
ATOM     11  O   UNL     1     -10.893 -67.166 -32.292  1.00  0.00    -0.456 OA
ENDROOT
BRANCH   1  12
ATOM     12  C   UNL     1     -12.486 -66.798 -34.080  1.00  0.00     0.021 A 
ATOM     13  C   UNL     1     -12.544 -67.404 -35.348  1.00  0.00     0.016 A 
ATOM     14  C   UNL     1     -13.775 -67.651 -35.959  1.00  0.00     0.051 A 
ATOM     15  C   UNL     1     -14.971 -67.296 -35.327  1.00  0.00     0.157 A 
ATOM     16  C   UNL     1     -13.688 -66.430 -33.452  1.00  0.00     0.062 A 
ATOM     17  C   UNL     1     -14.927 -66.676 -34.057  1.00  0.00     0.158 A 
BRANCH  15  18
ATOM     18  O   UNL     1     -16.168 -67.574 -35.991  1.00  0.00    -0.504 OA
ATOM     19  H   UNL     1     -16.460 -68.501 -36.264  1.00  0.00     0.293 HD
ENDBRANCH  15  18
BRANCH  17  20
ATOM     20  O   UNL     1     -16.078 -66.289 -33.367  1.00  0.00    -0.504 OA
ATOM     21  H   UNL     1     -16.268 -66.531 -32.406  1.00  0.00     0.293 HD
ENDBRANCH  17  20
ENDBRANCH   1  12
BRANCH   6  22
ATOM     22  O   UNL     1      -6.659 -64.869 -31.522  1.00  0.00    -0.507 OA
ATOM     23  H   UNL     1      -5.676 -65.056 -31.645  1.00  0.00     0.293 HD
ENDBRANCH   6  22
BRANCH   8  24
ATOM     24  O   UNL     1      -8.134 -68.350 -28.590  1.00  0.00    -0.508 OA
ATOM     25  H   UNL     1      -7.647 -69.238 -28.642  1.00  0.00     0.293 HD
ENDBRANCH   8  24
TORSDOF 5
ENDMDL
MODEL 4
REMARK VINA RESULT:    -7.559      1.399      7.213
REMARK INTER + INTRA:          -9.156
REMARK INTER:                  -8.891
REMARK INTRA:                  -0.265
REMARK UNBOUND:                -0.272
REMARK SMILES O=c1cc(-c2ccc(O)c(O)c2)oc2cc(O)cc(O)c12
REMARK SMILES IDX 4 1 3 2 2 3 1 4 21 5 19 6 18 7 16 8 15 9 14 10 13 11 5 12
REMARK SMILES IDX 6 13 7 14 8 15 12 16 10 17 9 18 11 20 20 22 17 24
REMARK H PARENT 9 19 11 21 20 23 17 25
REMARK Flexibility Score: inf
ROOT
ATOM      1  C   UNL     1     -11.294 -66.261 -33.540  1.00  0.00     0.138 A 
ATOM      2  C   UNL     1     -11.557 -66.839 -34.790  1.00  0.00     0.100 A 
ATOM      3  C   UNL     1     -12.861 -67.217 -35.114  1.00  0.00     0.197 A 
ATOM      4  O   UNL     1     -13.078 -67.675 -36.265  1.00  0.00    -0.289 OA
ATOM      5  C   UNL     1     -13.900 -67.043 -34.168  1.00  0.00     0.107 A 
ATOM      6  C   UNL     1     -15.258 -67.428 -34.373  1.00  0.00     0.134 A 
ATOM      7  C   UNL     1     -16.221 -67.100 -33.411  1.00  0.00     0.093 A 
ATOM      8  C   UNL     1     -15.867 -66.456 -32.226  1.00  0.00     0.123 A 
ATOM      9  C   UNL     1     -14.532 -66.122 -31.992  1.00  0.00     0.094 A 
ATOM     10  C   UNL     1     -13.553 -66.405 -32.947  1.00  0.00     0.146 A 
ATOM     11  O   UNL     1     -12.296 -66.059 -32.692  1.00  0.00    -0.456 OA
ENDROOT
BRANCH   1  12
ATOM     12  C   UNL     1      -9.926 -65.842 -33.143  1.00  0.00     0.021 A 
ATOM     13  C   UNL     1      -9.251 -66.446 -32.067  1.00  0.00     0.016 A 
ATOM     14  C   UNL     1      -7.970 -66.024 -31.710  1.00  0.00     0.051 A 
ATOM     15  C   UNL     1      -7.335 -64.992 -32.407  1.00  0.00     0.157 A 
ATOM     16  C   UNL     1      -9.293 -64.795 -33.835  1.00  0.00     0.062 A 
ATOM     17  C   UNL     1      -8.007 -64.367 -33.484  1.00  0.00     0.158 A 
BRANCH  15  18
ATOM     18  O   UNL     1      -6.052 -64.621 -32.000  1.00  0.00    -0.504 OA
ATOM     19  H   UNL     1      -5.321 -64.331 -32.633  1.00  0.00     0.293 HD
ENDBRANCH  15  18
BRANCH  17  20
ATOM     20  O   UNL     1      -7.441 -63.327 -34.224  1.00  0.00    -0.504 OA
ATOM     21  H   UNL     1      -6.929 -62.558 -33.817  1.00  0.00     0.293 HD
ENDBRANCH  17  20
ENDBRANCH   1  12
BRANCH   6  22
ATOM     22  O   UNL     1     -15.707 -68.151 -35.483  1.00  0.00    -0.507 OA
ATOM     23  H   UNL     1     -15.108 -68.599 -36.159  1.00  0.00     0.293 HD
ENDBRANCH   6  22
BRANCH   8  24
ATOM     24  O   UNL     1     -16.850 -66.159 -31.285  1.00  0.00    -0.508 OA
ATOM     25  H   UNL     1     -17.316 -65.259 -31.272  1.00  0.00     0.293 HD
ENDBRANCH   8  24
TORSDOF 5
ENDMDL
MODEL 5
REMARK VINA RESULT:    -7.441      4.131      6.442
REMARK INTER + INTRA:          -9.018
REMARK INTER:                  -8.736
REMARK INTRA:                  -0.282
REMARK UNBOUND:                -0.272
REMARK SMILES O=c1cc(-c2ccc(O)c(O)c2)oc2cc(O)cc(O)c12
REMARK SMILES IDX 4 1 3 2 2 3 1 4 21 5 19 6 18 7 16 8 15 9 14 10 13 11 5 12
REMARK SMILES IDX 6 13 7 14 8 15 12 16 10 17 9 18 11 20 20 22 17 24
REMARK H PARENT 9 19 11 21 20 23 17 25
REMARK Flexibility Score: inf
ROOT
ATOM      1  C   UNL     1      -7.535 -65.094 -32.832  1.00  0.00     0.138 A 
ATOM      2  C   UNL     1      -6.463 -64.915 -31.947  1.00  0.00     0.100 A 
ATOM      3  C   UNL     1      -6.469 -65.571 -30.716  1.00  0.00     0.197 A 
ATOM      4  O   UNL     1      -5.465 -65.440 -29.968  1.00  0.00    -0.289 OA
ATOM      5  C   UNL     1      -7.569 -66.387 -30.357  1.00  0.00     0.107 A 
ATOM      6  C   UNL     1      -7.702 -67.071 -29.113  1.00  0.00     0.134 A 
ATOM      7  C   UNL     1      -8.780 -67.943 -28.916  1.00  0.00     0.093 A 
ATOM      8  C   UNL     1      -9.760 -68.109 -29.893  1.00  0.00     0.123 A 
ATOM      9  C   UNL     1      -9.669 -67.403 -31.093  1.00  0.00     0.094 A 
ATOM     10  C   UNL     1      -8.587 -66.551 -31.334  1.00  0.00     0.146 A 
ATOM     11  O   UNL     1      -8.530 -65.908 -32.494  1.00  0.00    -0.456 OA
ENDROOT
BRANCH   1  12
ATOM     12  C   UNL     1      -7.582 -64.419 -34.154  1.00  0.00     0.021 A 
ATOM     13  C   UNL     1      -8.793 -63.975 -34.715  1.00  0.00     0.016 A 
ATOM     14  C   UNL     1      -8.808 -63.353 -35.964  1.00  0.00     0.051 A 
ATOM     15  C   UNL     1      -7.625 -63.166 -36.685  1.00  0.00     0.157 A 
ATOM     16  C   UNL     1      -6.395 -64.243 -34.885  1.00  0.00     0.062 A 
ATOM     17  C   UNL     1      -6.401 -63.618 -36.138  1.00  0.00     0.158 A 
BRANCH  15  18
ATOM     18  O   UNL     1      -7.709 -62.533 -37.927  1.00  0.00    -0.504 OA
ATOM     19  H   UNL     1      -8.574 -62.375 -38.422  1.00  0.00     0.293 HD
ENDBRANCH  15  18
BRANCH  17  20
ATOM     20  O   UNL     1      -5.180 -63.471 -36.799  1.00  0.00    -0.504 OA
ATOM     21  H   UNL     1      -5.079 -63.056 -37.714  1.00  0.00     0.293 HD
ENDBRANCH  17  20
ENDBRANCH   1  12
BRANCH   6  22
ATOM     22  O   UNL     1      -6.824 -66.913 -28.036  1.00  0.00    -0.507 OA
ATOM     23  H   UNL     1      -6.227 -67.638 -27.668  1.00  0.00     0.293 HD
ENDBRANCH   6  22
BRANCH   8  24
ATOM     24  O   UNL     1     -10.827 -68.973 -29.657  1.00  0.00    -0.508 OA
ATOM     25  H   UNL     1     -10.747 -69.971 -29.819  1.00  0.00     0.293 HD
ENDBRANCH   8  24
TORSDOF 5
ENDMDL
MODEL 6
REMARK VINA RESULT:    -7.419      3.350      6.351
REMARK INTER + INTRA:          -8.993
REMARK INTER:                  -8.726
REMARK INTRA:                  -0.266
REMARK UNBOUND:                -0.272
REMARK SMILES O=c1cc(-c2ccc(O)c(O)c2)oc2cc(O)cc(O)c12
REMARK SMILES IDX 4 1 3 2 2 3 1 4 21 5 19 6 18 7 16 8 15 9 14 10 13 11 5 12
REMARK SMILES IDX 6 13 7 14 8 15 12 16 10 17 9 18 11 20 20 22 17 24
REMARK H PARENT 9 19 11 21 20 23 17 25
REMARK Flexibility Score: inf
ROOT
ATOM      1  C   UNL     1      -9.249 -67.971 -29.948  1.00  0.00     0.138 A 
ATOM      2  C   UNL     1     -10.350 -67.753 -30.789  1.00  0.00     0.100 A 
ATOM      3  C   UNL     1     -10.234 -66.865 -31.860  1.00  0.00     0.197 A 
ATOM      4  O   UNL     1     -11.218 -66.737 -32.634  1.00  0.00    -0.289 OA
ATOM      5  C   UNL     1      -9.018 -66.172 -32.071  1.00  0.00     0.107 A 
ATOM      6  C   UNL     1      -8.798 -65.214 -33.105  1.00  0.00     0.134 A 
ATOM      7  C   UNL     1      -7.518 -64.677 -33.288  1.00  0.00     0.093 A 
ATOM      8  C   UNL     1      -6.466 -65.016 -32.438  1.00  0.00     0.123 A 
ATOM      9  C   UNL     1      -6.684 -65.911 -31.390  1.00  0.00     0.094 A 
ATOM     10  C   UNL     1      -7.941 -66.490 -31.202  1.00  0.00     0.146 A 
ATOM     11  O   UNL     1      -8.103 -67.348 -30.201  1.00  0.00    -0.456 OA
ENDROOT
BRANCH   1  12
ATOM     12  C   UNL     1      -9.318 -68.902 -28.794  1.00  0.00     0.021 A 
ATOM     13  C   UNL     1      -8.554 -70.082 -28.750  1.00  0.00     0.016 A 
ATOM     14  C   UNL     1      -8.646 -70.944 -27.656  1.00  0.00     0.051 A 
ATOM     15  C   UNL     1      -9.501 -70.657 -26.588  1.00  0.00     0.157 A 
ATOM     16  C   UNL     1     -10.187 -68.621 -27.726  1.00  0.00     0.062 A 
ATOM     17  C   UNL     1     -10.284 -69.480 -26.624  1.00  0.00     0.158 A 
BRANCH  15  18
ATOM     18  O   UNL     1      -9.544 -71.559 -25.523  1.00  0.00    -0.504 OA
ATOM     19  H   UNL     1     -10.314 -72.187 -25.346  1.00  0.00     0.293 HD
ENDBRANCH  15  18
BRANCH  17  20
ATOM     20  O   UNL     1     -11.164 -69.128 -25.599  1.00  0.00    -0.504 OA
ATOM     21  H   UNL     1     -11.034 -68.333 -24.991  1.00  0.00     0.293 HD
ENDBRANCH  17  20
ENDBRANCH   1  12
BRANCH   6  22
ATOM     22  O   UNL     1      -9.800 -64.741 -33.959  1.00  0.00    -0.507 OA
ATOM     23  H   UNL     1     -10.161 -65.241 -34.756  1.00  0.00     0.293 HD
ENDBRANCH   6  22
BRANCH   8  24
ATOM     24  O   UNL     1      -5.209 -64.451 -32.641  1.00  0.00    -0.508 OA
ATOM     25  H   UNL     1      -4.570 -64.816 -33.337  1.00  0.00     0.293 HD
ENDBRANCH   8  24
TORSDOF 5
ENDMDL
MODEL 7
REMARK VINA RESULT:    -7.272      6.638      8.479
REMARK INTER + INTRA:          -8.819
REMARK INTER:                  -8.555
REMARK INTRA:                  -0.264
REMARK UNBOUND:                -0.272
REMARK SMILES O=c1cc(-c2ccc(O)c(O)c2)oc2cc(O)cc(O)c12
REMARK SMILES IDX 4 1 3 2 2 3 1 4 21 5 19 6 18 7 16 8 15 9 14 10 13 11 5 12
REMARK SMILES IDX 6 13 7 14 8 15 12 16 10 17 9 18 11 20 20 22 17 24
REMARK H PARENT 9 19 11 21 20 23 17 25
REMARK Flexibility Score: inf
ROOT
ATOM      1  C   UNL     1     -10.542 -66.717 -25.285  1.00  0.00     0.138 A 
ATOM      2  C   UNL     1     -10.747 -67.804 -26.146  1.00  0.00     0.100 A 
ATOM      3  C   UNL     1      -9.872 -68.013 -27.212  1.00  0.00     0.197 A 
ATOM      4  O   UNL     1     -10.044 -69.031 -27.931  1.00  0.00    -0.289 OA
ATOM      5  C   UNL     1      -8.804 -67.111 -27.434  1.00  0.00     0.107 A 
ATOM      6  C   UNL     1      -7.874 -67.201 -28.513  1.00  0.00     0.134 A 
ATOM      7  C   UNL     1      -6.789 -66.318 -28.564  1.00  0.00     0.093 A 
ATOM      8  C   UNL     1      -6.633 -65.311 -27.612  1.00  0.00     0.123 A 
ATOM      9  C   UNL     1      -7.567 -65.180 -26.584  1.00  0.00     0.094 A 
ATOM     10  C   UNL     1      -8.642 -66.066 -26.485  1.00  0.00     0.146 A 
ATOM     11  O   UNL     1      -9.500 -65.916 -25.483  1.00  0.00    -0.456 OA
ENDROOT
BRANCH   1  12
ATOM     12  C   UNL     1     -11.443 -66.446 -24.136  1.00  0.00     0.021 A 
ATOM     13  C   UNL     1     -10.985 -66.510 -22.807  1.00  0.00     0.016 A 
ATOM     14  C   UNL     1     -11.857 -66.261 -21.746  1.00  0.00     0.051 A 
ATOM     15  C   UNL     1     -13.200 -65.951 -21.981  1.00  0.00     0.157 A 
ATOM     16  C   UNL     1     -12.796 -66.149 -24.370  1.00  0.00     0.062 A 
ATOM     17  C   UNL     1     -13.677 -65.896 -23.311  1.00  0.00     0.158 A 
BRANCH  15  18
ATOM     18  O   UNL     1     -14.019 -65.710 -20.875  1.00  0.00    -0.504 OA
ATOM     19  H   UNL     1     -13.922 -64.911 -20.266  1.00  0.00     0.293 HD
ENDBRANCH  15  18
BRANCH  17  20
ATOM     20  O   UNL     1     -15.005 -65.599 -23.625  1.00  0.00    -0.504 OA
ATOM     21  H   UNL     1     -15.473 -64.748 -23.350  1.00  0.00     0.293 HD
ENDBRANCH  17  20
ENDBRANCH   1  12
BRANCH   6  22
ATOM     22  O   UNL     1      -7.984 -68.117 -29.564  1.00  0.00    -0.507 OA
ATOM     23  H   UNL     1      -8.630 -68.036 -30.333  1.00  0.00     0.293 HD
ENDBRANCH   6  22
BRANCH   8  24
ATOM     24  O   UNL     1      -5.549 -64.441 -27.704  1.00  0.00    -0.508 OA
ATOM     25  H   UNL     1      -4.892 -64.492 -28.474  1.00  0.00     0.293 HD
ENDBRANCH   8  24
TORSDOF 5
ENDMDL
MODEL 8
REMARK VINA RESULT:    -7.245      4.383      5.828
REMARK INTER + INTRA:          -8.788
REMARK INTER:                  -8.490
REMARK INTRA:                  -0.297
REMARK UNBOUND:                -0.272
REMARK SMILES O=c1cc(-c2ccc(O)c(O)c2)oc2cc(O)cc(O)c12
REMARK SMILES IDX 4 1 3 2 2 3 1 4 21 5 19 6 18 7 16 8 15 9 14 10 13 11 5 12
REMARK SMILES IDX 6 13 7 14 8 15 12 16 10 17 9 18 11 20 20 22 17 24
REMARK H PARENT 9 19 11 21 20 23 17 25
REMARK Flexibility Score: inf
ROOT
ATOM      1  C   UNL     1      -7.520 -66.087 -31.237  1.00  0.00     0.138 A 
ATOM      2  C   UNL     1      -6.138 -65.888 -31.364  1.00  0.00     0.100 A 
ATOM      3  C   UNL     1      -5.638 -65.219 -32.481  1.00  0.00     0.197 A 
ATOM      4  O   UNL     1      -4.400 -65.000 -32.538  1.00  0.00    -0.289 OA
ATOM      5  C   UNL     1      -6.524 -64.773 -33.491  1.00  0.00     0.107 A 
ATOM      6  C   UNL     1      -6.123 -64.116 -34.692  1.00  0.00     0.134 A 
ATOM      7  C   UNL     1      -7.099 -63.617 -35.564  1.00  0.00     0.093 A 
ATOM      8  C   UNL     1      -8.457 -63.804 -35.310  1.00  0.00     0.123 A 
ATOM      9  C   UNL     1      -8.859 -64.493 -34.164  1.00  0.00     0.094 A 
ATOM     10  C   UNL     1      -7.911 -64.973 -33.257  1.00  0.00     0.146 A 
ATOM     11  O   UNL     1      -8.335 -65.611 -32.172  1.00  0.00    -0.456 OA
ENDROOT
BRANCH   1  12
ATOM     12  C   UNL     1      -8.106 -66.793 -30.070  1.00  0.00     0.021 A 
ATOM     13  C   UNL     1      -7.606 -66.612 -28.768  1.00  0.00     0.016 A 
ATOM     14  C   UNL     1      -8.170 -67.298 -27.691  1.00  0.00     0.051 A 
ATOM     15  C   UNL     1      -9.236 -68.181 -27.885  1.00  0.00     0.157 A 
ATOM     16  C   UNL     1      -9.169 -67.692 -30.266  1.00  0.00     0.062 A 
ATOM     17  C   UNL     1      -9.742 -68.382 -29.190  1.00  0.00     0.158 A 
BRANCH  15  18
ATOM     18  O   UNL     1      -9.757 -68.833 -26.765  1.00  0.00    -0.504 OA
ATOM     19  H   UNL     1     -10.589 -69.404 -26.780  1.00  0.00     0.293 HD
ENDBRANCH  15  18
BRANCH  17  20
ATOM     20  O   UNL     1     -10.800 -69.251 -29.463  1.00  0.00    -0.504 OA
ATOM     21  H   UNL     1     -11.140 -69.948 -28.817  1.00  0.00     0.293 HD
ENDBRANCH  17  20
ENDBRANCH   1  12
BRANCH   6  22
ATOM     22  O   UNL     1      -4.792 -63.950 -35.086  1.00  0.00    -0.507 OA
ATOM     23  H   UNL     1      -4.494 -63.483 -35.928  1.00  0.00     0.293 HD
ENDBRANCH   6  22
BRANCH   8  24
ATOM     24  O   UNL     1      -9.399 -63.307 -36.207  1.00  0.00    -0.508 OA
ATOM     25  H   UNL     1      -9.152 -62.617 -36.907  1.00  0.00     0.293 HD
ENDBRANCH   8  24
TORSDOF 5
ENDMDL
MODEL 9
REMARK VINA RESULT:    -7.071      4.481      7.136
REMARK INTER + INTRA:          -8.583
REMARK INTER:                  -8.311
REMARK INTRA:                  -0.271
REMARK UNBOUND:                -0.272
REMARK SMILES O=c1cc(-c2ccc(O)c(O)c2)oc2cc(O)cc(O)c12
REMARK SMILES IDX 4 1 3 2 2 3 1 4 21 5 19 6 18 7 16 8 15 9 14 10 13 11 5 12
REMARK SMILES IDX 6 13 7 14 8 15 12 16 10 17 9 18 11 20 20 22 17 24
REMARK H PARENT 9 19 11 21 20 23 17 25
REMARK Flexibility Score: inf
ROOT
ATOM      1  C   UNL     1      -8.000 -66.623 -30.385  1.00  0.00     0.138 A 
ATOM      2  C   UNL     1      -9.012 -67.589 -30.475  1.00  0.00     0.100 A 
ATOM      3  C   UNL     1      -9.471 -68.216 -29.316  1.00  0.00     0.197 A 
ATOM      4  O   UNL     1     -10.423 -69.033 -29.420  1.00  0.00    -0.289 OA
ATOM      5  C   UNL     1      -8.892 -67.895 -28.065  1.00  0.00     0.107 A 
ATOM      6  C   UNL     1      -9.252 -68.500 -26.824  1.00  0.00     0.134 A 
ATOM      7  C   UNL     1      -8.692 -68.019 -25.634  1.00  0.00     0.093 A 
ATOM      8  C   UNL     1      -7.741 -66.999 -25.645  1.00  0.00     0.123 A 
ATOM      9  C   UNL     1      -7.342 -66.437 -26.859  1.00  0.00     0.094 A 
ATOM     10  C   UNL     1      -7.907 -66.872 -28.060  1.00  0.00     0.146 A 
ATOM     11  O   UNL     1      -7.511 -66.301 -29.192  1.00  0.00    -0.456 OA
ENDROOT
BRANCH   1  12
ATOM     12  C   UNL     1      -7.473 -65.926 -31.586  1.00  0.00     0.021 A 
ATOM     13  C   UNL     1      -6.093 -65.833 -31.839  1.00  0.00     0.016 A 
ATOM     14  C   UNL     1      -5.625 -65.162 -32.971  1.00  0.00     0.051 A 
ATOM     15  C   UNL     1      -6.515 -64.566 -33.868  1.00  0.00     0.157 A 
ATOM     16  C   UNL     1      -8.367 -65.315 -32.481  1.00  0.00     0.062 A 
ATOM     17  C   UNL     1      -7.906 -64.642 -33.619  1.00  0.00     0.158 A 
BRANCH  15  18
ATOM     18  O   UNL     1      -5.982 -63.914 -34.982  1.00  0.00    -0.504 OA
ATOM     19  H   UNL     1      -6.246 -64.117 -35.935  1.00  0.00     0.293 HD
ENDBRANCH  15  18
BRANCH  17  20
ATOM     20  O   UNL     1      -8.856 -64.067 -34.466  1.00  0.00    -0.504 OA
ATOM     21  H   UNL     1      -9.828 -64.335 -34.488  1.00  0.00     0.293 HD
ENDBRANCH  17  20
ENDBRANCH   1  12
BRANCH   6  22
ATOM     22  O   UNL     1     -10.129 -69.583 -26.707  1.00  0.00    -0.507 OA
ATOM     23  H   UNL     1     -11.078 -69.522 -26.374  1.00  0.00     0.293 HD
ENDBRANCH   6  22
BRANCH   8  24
ATOM     24  O   UNL     1      -7.194 -66.556 -24.443  1.00  0.00    -0.508 OA
ATOM     25  H   UNL     1      -7.664 -65.866 -23.869  1.00  0.00     0.293 HD
ENDBRANCH   8  24
TORSDOF 5
ENDMDL
