MODEL 1
REMARK VINA RESULT:    -4.826      0.000      0.000
REMARK INTER + INTRA:         -10.406
REMARK INTER:                  -8.776
REMARK INTRA:                  -1.630
REMARK UNBOUND:                -1.630
REMARK SMILES CCCCCCCCCCCCCCCC(=O)[O-]
REMARK SMILES IDX 9 1 10 2 11 3 12 4 13 5 14 6 15 7 16 8 17 9 18 10 8 11 7 12
REMARK SMILES IDX 6 13 5 14 4 15 3 16 2 17 1 18
REMARK H PARENT
REMARK Flexibility Score: inf
ROOT
ATOM      1  C   UNL     1     -13.599 -12.918  16.506  1.00  0.00     0.000 C 
ENDROOT
BRANCH   1   2
ATOM      2  C   UNL     1     -13.103 -13.920  15.450  1.00  0.00     0.000 C 
BRANCH   2   3
ATOM      3  C   UNL     1     -11.589 -13.835  15.211  1.00  0.00     0.000 C 
BRANCH   3   4
ATOM      4  C   UNL     1     -10.949 -12.771  16.113  1.00  0.00     0.000 C 
BRANCH   4   5
ATOM      5  C   UNL     1      -9.506 -12.476  15.677  1.00  0.00     0.000 C 
BRANCH   5   6
ATOM      6  C   UNL     1      -9.436 -11.678  14.364  1.00  0.00     0.006 C 
BRANCH   6   7
ATOM      7  C   UNL     1      -8.108 -10.928  14.199  1.00  0.00     0.053 C 
BRANCH   7   8
ATOM      8  C   UNL     1      -7.128 -11.761  13.435  1.00  0.00     0.041 C 
ATOM      9  O   UNL     1      -7.535 -12.611  12.599  1.00  0.00    -0.550 OA
ATOM     10  O   UNL     1      -5.765 -11.565  13.609  1.00  0.00    -0.550 OA
ENDBRANCH   7   8
ENDBRANCH   6   7
ENDBRANCH   5   6
ENDBRANCH   4   5
ENDBRANCH   3   4
ENDBRANCH   2   3
ENDBRANCH   1   2
BRANCH   1  11
ATOM     11  C   UNL     1     -15.076 -12.500  16.365  1.00  0.00     0.000 C 
BRANCH  11  12
ATOM     12  C   UNL     1     -16.100 -13.637  16.555  1.00  0.00    -0.000 C 
BRANCH  12  13
ATOM     13  C   UNL     1     -16.786 -14.117  15.263  1.00  0.00    -0.000 C 
BRANCH  13  14
ATOM     14  C   UNL     1     -17.039 -12.978  14.264  1.00  0.00    -0.000 C 
BRANCH  14  15
ATOM     15  C   UNL     1     -16.674 -13.407  12.838  1.00  0.00    -0.000 C 
BRANCH  15  16
ATOM     16  C   UNL     1     -15.155 -13.360  12.621  1.00  0.00    -0.000 C 
BRANCH  16  17
ATOM     17  C   UNL     1     -14.666 -11.976  12.163  1.00  0.00    -0.003 C 
ATOM     18  C   UNL     1     -13.540 -11.427  13.040  1.00  0.00     0.004 C 
ENDBRANCH  16  17
ENDBRANCH  15  16
ENDBRANCH  14  15
ENDBRANCH  13  14
ENDBRANCH  12  13
ENDBRANCH  11  12
ENDBRANCH   1  11
TORSDOF 14
ENDMDL
MODEL 2
REMARK VINA RESULT:    -4.812      1.117      3.110
REMARK INTER + INTRA:         -10.380
REMARK INTER:                  -8.706
REMARK INTRA:                  -1.675
REMARK UNBOUND:                -1.630
REMARK SMILES CCCCCCCCCCCCCCCC(=O)[O-]
REMARK SMILES IDX 9 1 10 2 11 3 12 4 13 5 14 6 15 7 16 8 17 9 18 10 8 11 7 12
REMARK SMILES IDX 6 13 5 14 4 15 3 16 2 17 1 18
REMARK H PARENT
REMARK Flexibility Score: inf
ROOT
ATOM      1  C   UNL     1     -13.087 -12.183  13.920  1.00  0.00     0.000 C 
ENDROOT
BRANCH   1   2
ATOM      2  C   UNL     1     -12.591 -13.639  13.942  1.00  0.00     0.000 C 
BRANCH   2   3
ATOM      3  C   UNL     1     -11.773 -13.971  15.199  1.00  0.00     0.000 C 
BRANCH   3   4
ATOM      4  C   UNL     1     -11.518 -12.712  16.037  1.00  0.00     0.000 C 
BRANCH   4   5
ATOM      5  C   UNL     1     -10.017 -12.519  16.300  1.00  0.00     0.000 C 
BRANCH   5   6
ATOM      6  C   UNL     1      -9.142 -13.065  15.159  1.00  0.00     0.006 C 
BRANCH   6   7
ATOM      7  C   UNL     1      -8.902 -12.031  14.052  1.00  0.00     0.053 C 
BRANCH   7   8
ATOM      8  C   UNL     1      -7.717 -12.417  13.225  1.00  0.00     0.041 C 
ATOM      9  O   UNL     1      -6.552 -12.296  13.690  1.00  0.00    -0.550 OA
ATOM     10  O   UNL     1      -7.900 -12.959  11.959  1.00  0.00    -0.550 OA
ENDBRANCH   7   8
ENDBRANCH   6   7
ENDBRANCH   5   6
ENDBRANCH   4   5
ENDBRANCH   3   4
ENDBRANCH   2   3
ENDBRANCH   1   2
BRANCH   1  11
ATOM     11  C   UNL     1     -14.022 -11.832  12.746  1.00  0.00     0.000 C 
BRANCH  11  12
ATOM     12  C   UNL     1     -15.395 -12.534  12.769  1.00  0.00    -0.000 C 
BRANCH  12  13
ATOM     13  C   UNL     1     -16.121 -12.497  14.126  1.00  0.00    -0.000 C 
BRANCH  13  14
ATOM     14  C   UNL     1     -16.346 -13.894  14.720  1.00  0.00    -0.000 C 
BRANCH  14  15
ATOM     15  C   UNL     1     -16.437 -13.833  16.250  1.00  0.00    -0.000 C 
BRANCH  15  16
ATOM     16  C   UNL     1     -15.108 -13.369  16.862  1.00  0.00    -0.000 C 
BRANCH  16  17
ATOM     17  C   UNL     1     -15.307 -12.400  18.039  1.00  0.00    -0.003 C 
ATOM     18  C   UNL     1     -16.567 -12.704  18.848  1.00  0.00     0.004 C 
ENDBRANCH  16  17
ENDBRANCH  15  16
ENDBRANCH  14  15
ENDBRANCH  13  14
ENDBRANCH  12  13
ENDBRANCH  11  12
ENDBRANCH   1  11
TORSDOF 14
ENDMDL
MODEL 3
REMARK VINA RESULT:    -4.732      1.236      2.807
REMARK INTER + INTRA:         -10.235
REMARK INTER:                  -8.754
REMARK INTRA:                  -1.482
REMARK UNBOUND:                -1.630
REMARK SMILES CCCCCCCCCCCCCCCC(=O)[O-]
REMARK SMILES IDX 9 1 10 2 11 3 12 4 13 5 14 6 15 7 16 8 17 9 18 10 8 11 7 12
REMARK SMILES IDX 6 13 5 14 4 15 3 16 2 17 1 18
REMARK H PARENT
REMARK Flexibility Score: inf
ROOT
ATOM      1  C   UNL     1     -11.990 -11.990  13.912  1.00  0.00     0.000 C 
ENDROOT
BRANCH   1   2
ATOM      2  C   UNL     1     -11.862 -13.502  14.166  1.00  0.00     0.000 C 
BRANCH   2   3
ATOM      3  C   UNL     1     -10.685 -13.854  15.086  1.00  0.00     0.000 C 
BRANCH   3   4
ATOM      4  C   UNL     1     -10.278 -12.650  15.944  1.00  0.00     0.000 C 
BRANCH   4   5
ATOM      5  C   UNL     1      -8.784 -12.706  16.298  1.00  0.00     0.000 C 
BRANCH   5   6
ATOM      6  C   UNL     1      -7.879 -12.379  15.099  1.00  0.00     0.006 C 
BRANCH   6   7
ATOM      7  C   UNL     1      -7.200 -11.010  15.227  1.00  0.00     0.053 C 
BRANCH   7   8
ATOM      8  C   UNL     1      -6.184 -10.827  14.144  1.00  0.00     0.041 C 
ATOM      9  O   UNL     1      -5.505 -11.809  13.740  1.00  0.00    -0.550 OA
ATOM     10  O   UNL     1      -6.022  -9.585  13.544  1.00  0.00    -0.550 OA
ENDBRANCH   7   8
ENDBRANCH   6   7
ENDBRANCH   5   6
ENDBRANCH   4   5
ENDBRANCH   3   4
ENDBRANCH   2   3
ENDBRANCH   1   2
BRANCH   1  11
ATOM     11  C   UNL     1     -13.436 -11.470  13.788  1.00  0.00     0.000 C 
BRANCH  11  12
ATOM     12  C   UNL     1     -14.036 -11.534  12.368  1.00  0.00    -0.000 C 
BRANCH  12  13
ATOM     13  C   UNL     1     -15.312 -12.385  12.240  1.00  0.00    -0.000 C 
BRANCH  13  14
ATOM     14  C   UNL     1     -15.490 -13.373  13.403  1.00  0.00    -0.000 C 
BRANCH  14  15
ATOM     15  C   UNL     1     -16.662 -12.959  14.302  1.00  0.00    -0.000 C 
BRANCH  15  16
ATOM     16  C   UNL     1     -16.475 -13.492  15.730  1.00  0.00    -0.000 C 
BRANCH  16  17
ATOM     17  C   UNL     1     -15.001 -13.764  16.070  1.00  0.00    -0.003 C 
ATOM     18  C   UNL     1     -14.532 -13.010  17.314  1.00  0.00     0.004 C 
ENDBRANCH  16  17
ENDBRANCH  15  16
ENDBRANCH  14  15
ENDBRANCH  13  14
ENDBRANCH  12  13
ENDBRANCH  11  12
ENDBRANCH   1  11
TORSDOF 14
ENDMDL
MODEL 4
REMARK VINA RESULT:    -4.597      3.209      7.237
REMARK INTER + INTRA:          -9.990
REMARK INTER:                  -8.453
REMARK INTRA:                  -1.537
REMARK UNBOUND:                -1.630
REMARK SMILES CCCCCCCCCCCCCCCC(=O)[O-]
REMARK SMILES IDX 9 1 10 2 11 3 12 4 13 5 14 6 15 7 16 8 17 9 18 10 8 11 7 12
REMARK SMILES IDX 6 13 5 14 4 15 3 16 2 17 1 18
REMARK H PARENT
REMARK Flexibility Score: inf
ROOT
ATOM      1  C   UNL     1     -12.776 -13.345  14.255  1.00  0.00     0.000 C 
ENDROOT
BRANCH   1   2
ATOM      2  C   UNL     1     -13.073 -11.939  13.705  1.00  0.00     0.000 C 
BRANCH   2   3
ATOM      3  C   UNL     1     -14.305 -11.906  12.789  1.00  0.00     0.000 C 
BRANCH   3   4
ATOM      4  C   UNL     1     -14.905 -13.308  12.623  1.00  0.00     0.000 C 
BRANCH   4   5
ATOM      5  C   UNL     1     -16.434 -13.273  12.764  1.00  0.00     0.000 C 
BRANCH   5   6
ATOM      6  C   UNL     1     -16.889 -12.798  14.153  1.00  0.00     0.006 C 
BRANCH   6   7
ATOM      7  C   UNL     1     -16.746 -13.886  15.225  1.00  0.00     0.053 C 
BRANCH   7   8
ATOM      8  C   UNL     1     -16.030 -13.347  16.424  1.00  0.00     0.041 C 
ATOM      9  O   UNL     1     -16.076 -13.966  17.520  1.00  0.00    -0.550 OA
ATOM     10  O   UNL     1     -15.271 -12.189  16.318  1.00  0.00    -0.550 OA
ENDBRANCH   7   8
ENDBRANCH   6   7
ENDBRANCH   5   6
ENDBRANCH   4   5
ENDBRANCH   3   4
ENDBRANCH   2   3
ENDBRANCH   1   2
BRANCH   1  11
ATOM     11  C   UNL     1     -11.760 -13.389  15.414  1.00  0.00     0.000 C 
BRANCH  11  12
ATOM     12  C   UNL     1     -10.408 -14.049  15.076  1.00  0.00    -0.000 C 
BRANCH  12  13
ATOM     13  C   UNL     1      -9.174 -13.336  15.659  1.00  0.00    -0.000 C 
BRANCH  13  14
ATOM     14  C   UNL     1      -9.300 -11.806  15.632  1.00  0.00    -0.000 C 
BRANCH  14  15
ATOM     15  C   UNL     1      -9.006 -11.255  14.232  1.00  0.00    -0.000 C 
BRANCH  15  16
ATOM     16  C   UNL     1      -7.505 -10.994  14.047  1.00  0.00    -0.000 C 
BRANCH  16  17
ATOM     17  C   UNL     1      -6.823 -12.059  13.173  1.00  0.00    -0.003 C 
ATOM     18  C   UNL     1      -7.813 -12.823  12.293  1.00  0.00     0.004 C 
ENDBRANCH  16  17
ENDBRANCH  15  16
ENDBRANCH  14  15
ENDBRANCH  13  14
ENDBRANCH  12  13
ENDBRANCH  11  12
ENDBRANCH   1  11
TORSDOF 14
ENDMDL
MODEL 5
REMARK VINA RESULT:    -4.592      3.582      6.829
REMARK INTER + INTRA:          -9.981
REMARK INTER:                  -8.198
REMARK INTRA:                  -1.783
REMARK UNBOUND:                -1.630
REMARK SMILES CCCCCCCCCCCCCCCC(=O)[O-]
REMARK SMILES IDX 9 1 10 2 11 3 12 4 13 5 14 6 15 7 16 8 17 9 18 10 8 11 7 12
REMARK SMILES IDX 6 13 5 14 4 15 3 16 2 17 1 18
REMARK H PARENT
REMARK Flexibility Score: inf
ROOT
ATOM      1  C   UNL     1     -14.108 -11.865  13.219  1.00  0.00     0.000 C 
ENDROOT
BRANCH   1   2
ATOM      2  C   UNL     1     -15.026 -13.066  12.932  1.00  0.00     0.000 C 
BRANCH   2   3
ATOM      3  C   UNL     1     -16.417 -12.917  13.565  1.00  0.00     0.000 C 
BRANCH   3   4
ATOM      4  C   UNL     1     -16.752 -14.128  14.445  1.00  0.00     0.000 C 
BRANCH   4   5
ATOM      5  C   UNL     1     -16.703 -13.757  15.935  1.00  0.00     0.000 C 
BRANCH   5   6
ATOM      6  C   UNL     1     -15.266 -13.642  16.469  1.00  0.00     0.006 C 
BRANCH   6   7
ATOM      7  C   UNL     1     -14.992 -12.290  17.139  1.00  0.00     0.053 C 
BRANCH   7   8
ATOM      8  C   UNL     1     -15.299 -12.360  18.602  1.00  0.00     0.041 C 
ATOM      9  O   UNL     1     -16.495 -12.362  18.999  1.00  0.00    -0.550 OA
ATOM     10  O   UNL     1     -14.267 -12.476  19.524  1.00  0.00    -0.550 OA
ENDBRANCH   7   8
ENDBRANCH   6   7
ENDBRANCH   5   6
ENDBRANCH   4   5
ENDBRANCH   3   4
ENDBRANCH   2   3
ENDBRANCH   1   2
BRANCH   1  11
ATOM     11  C   UNL     1     -12.702 -12.229  13.737  1.00  0.00     0.000 C 
BRANCH  11  12
ATOM     12  C   UNL     1     -12.481 -13.727  14.033  1.00  0.00    -0.000 C 
BRANCH  12  13
ATOM     13  C   UNL     1     -11.587 -14.022  15.251  1.00  0.00    -0.000 C 
BRANCH  13  14
ATOM     14  C   UNL     1     -11.015 -12.751  15.895  1.00  0.00    -0.000 C 
BRANCH  14  15
ATOM     15  C   UNL     1      -9.482 -12.785  15.913  1.00  0.00    -0.000 C 
BRANCH  15  16
ATOM     16  C   UNL     1      -8.913 -12.742  14.488  1.00  0.00    -0.000 C 
BRANCH  16  17
ATOM     17  C   UNL     1      -8.065 -11.486  14.229  1.00  0.00    -0.003 C 
ATOM     18  C   UNL     1      -8.912 -10.223  14.068  1.00  0.00     0.004 C 
ENDBRANCH  16  17
ENDBRANCH  15  16
ENDBRANCH  14  15
ENDBRANCH  13  14
ENDBRANCH  12  13
ENDBRANCH  11  12
ENDBRANCH   1  11
TORSDOF 14
ENDMDL
MODEL 6
REMARK VINA RESULT:    -4.525      2.206      4.259
REMARK INTER + INTRA:          -9.859
REMARK INTER:                  -8.441
REMARK INTRA:                  -1.418
REMARK UNBOUND:                -1.630
REMARK SMILES CCCCCCCCCCCCCCCC(=O)[O-]
REMARK SMILES IDX 9 1 10 2 11 3 12 4 13 5 14 6 15 7 16 8 17 9 18 10 8 11 7 12
REMARK SMILES IDX 6 13 5 14 4 15 3 16 2 17 1 18
REMARK H PARENT
REMARK Flexibility Score: inf
ROOT
ATOM      1  C   UNL     1     -15.876 -13.165  12.981  1.00  0.00     0.000 C 
ENDROOT
BRANCH   1   2
ATOM      2  C   UNL     1     -14.601 -14.022  13.059  1.00  0.00     0.000 C 
BRANCH   2   3
ATOM      3  C   UNL     1     -13.427 -13.285  13.720  1.00  0.00     0.000 C 
BRANCH   3   4
ATOM      4  C   UNL     1     -12.726 -14.179  14.750  1.00  0.00     0.000 C 
BRANCH   4   5
ATOM      5  C   UNL     1     -11.777 -13.358  15.637  1.00  0.00     0.000 C 
BRANCH   5   6
ATOM      6  C   UNL     1     -10.905 -12.384  14.828  1.00  0.00     0.006 C 
BRANCH   6   7
ATOM      7  C   UNL     1      -9.710 -13.076  14.161  1.00  0.00     0.053 C 
BRANCH   7   8
ATOM      8  C   UNL     1      -8.436 -12.692  14.845  1.00  0.00     0.041 C 
ATOM      9  O   UNL     1      -8.411 -12.527  16.094  1.00  0.00    -0.550 OA
ATOM     10  O   UNL     1      -7.263 -12.566  14.111  1.00  0.00    -0.550 OA
ENDBRANCH   7   8
ENDBRANCH   6   7
ENDBRANCH   5   6
ENDBRANCH   4   5
ENDBRANCH   3   4
ENDBRANCH   2   3
ENDBRANCH   1   2
BRANCH   1  11
ATOM     11  C   UNL     1     -16.460 -12.741  14.343  1.00  0.00     0.000 C 
BRANCH  11  12
ATOM     12  C   UNL     1     -16.844 -13.903  15.282  1.00  0.00    -0.000 C 
BRANCH  12  13
ATOM     13  C   UNL     1     -16.065 -13.951  16.608  1.00  0.00    -0.000 C 
BRANCH  13  14
ATOM     14  C   UNL     1     -15.376 -12.621  16.944  1.00  0.00    -0.000 C 
BRANCH  14  15
ATOM     15  C   UNL     1     -15.290 -12.413  18.461  1.00  0.00    -0.000 C 
BRANCH  15  16
ATOM     16  C   UNL     1     -16.672 -12.554  19.115  1.00  0.00    -0.000 C 
BRANCH  16  17
ATOM     17  C   UNL     1     -16.683 -12.089  20.580  1.00  0.00    -0.003 C 
ATOM     18  C   UNL     1     -17.447 -10.780  20.780  1.00  0.00     0.004 C 
ENDBRANCH  16  17
ENDBRANCH  15  16
ENDBRANCH  14  15
ENDBRANCH  13  14
ENDBRANCH  12  13
ENDBRANCH  11  12
ENDBRANCH   1  11
TORSDOF 14
ENDMDL
MODEL 7
REMARK VINA RESULT:    -4.517      4.290      7.494
REMARK INTER + INTRA:          -9.845
REMARK INTER:                  -8.633
REMARK INTRA:                  -1.212
REMARK UNBOUND:                -1.630
REMARK SMILES CCCCCCCCCCCCCCCC(=O)[O-]
REMARK SMILES IDX 9 1 10 2 11 3 12 4 13 5 14 6 15 7 16 8 17 9 18 10 8 11 7 12
REMARK SMILES IDX 6 13 5 14 4 15 3 16 2 17 1 18
REMARK H PARENT
REMARK Flexibility Score: inf
ROOT
ATOM      1  C   UNL     1     -14.144 -12.463  13.410  1.00  0.00     0.000 C 
ENDROOT
BRANCH   1   2
ATOM      2  C   UNL     1     -14.608 -13.778  14.062  1.00  0.00     0.000 C 
BRANCH   2   3
ATOM      3  C   UNL     1     -16.117 -13.804  14.341  1.00  0.00     0.000 C 
BRANCH   3   4
ATOM      4  C   UNL     1     -16.409 -13.499  15.815  1.00  0.00     0.000 C 
BRANCH   4   5
ATOM      5  C   UNL     1     -15.130 -13.594  16.661  1.00  0.00     0.000 C 
BRANCH   5   6
ATOM      6  C   UNL     1     -15.207 -12.755  17.946  1.00  0.00     0.006 C 
BRANCH   6   7
ATOM      7  C   UNL     1     -16.591 -12.808  18.605  1.00  0.00     0.053 C 
BRANCH   7   8
ATOM      8  C   UNL     1     -16.655 -11.866  19.765  1.00  0.00     0.041 C 
ATOM      9  O   UNL     1     -15.890 -10.866  19.812  1.00  0.00    -0.550 OA
ATOM     10  O   UNL     1     -17.594 -12.062  20.769  1.00  0.00    -0.550 OA
ENDBRANCH   7   8
ENDBRANCH   6   7
ENDBRANCH   5   6
ENDBRANCH   4   5
ENDBRANCH   3   4
ENDBRANCH   2   3
ENDBRANCH   1   2
BRANCH   1  11
ATOM     11  C   UNL     1     -12.731 -11.998  13.817  1.00  0.00     0.000 C 
BRANCH  11  12
ATOM     12  C   UNL     1     -11.734 -13.131  14.134  1.00  0.00    -0.000 C 
BRANCH  12  13
ATOM     13  C   UNL     1     -11.400 -13.303  15.627  1.00  0.00    -0.000 C 
BRANCH  13  14
ATOM     14  C   UNL     1     -10.200 -12.457  16.072  1.00  0.00    -0.000 C 
BRANCH  14  15
ATOM     15  C   UNL     1      -8.880 -13.196  15.818  1.00  0.00    -0.000 C 
BRANCH  15  16
ATOM     16  C   UNL     1      -8.044 -12.479  14.748  1.00  0.00    -0.000 C 
BRANCH  16  17
ATOM     17  C   UNL     1      -8.029 -10.953  14.936  1.00  0.00    -0.003 C 
ATOM     18  C   UNL     1      -8.652 -10.206  13.757  1.00  0.00     0.004 C 
ENDBRANCH  16  17
ENDBRANCH  15  16
ENDBRANCH  14  15
ENDBRANCH  13  14
ENDBRANCH  12  13
ENDBRANCH  11  12
ENDBRANCH   1  11
TORSDOF 14
ENDMDL
MODEL 8
REMARK VINA RESULT:    -4.434      6.339      8.650
REMARK INTER + INTRA:          -9.694
REMARK INTER:                  -8.486
REMARK INTRA:                  -1.208
REMARK UNBOUND:                -1.630
REMARK SMILES CCCCCCCCCCCCCCCC(=O)[O-]
REMARK SMILES IDX 9 1 10 2 11 3 12 4 13 5 14 6 15 7 16 8 17 9 18 10 8 11 7 12
REMARK SMILES IDX 6 13 5 14 4 15 3 16 2 17 1 18
REMARK H PARENT
REMARK Flexibility Score: inf
ROOT
ATOM      1  C   UNL     1     -15.034 -13.423  16.886  1.00  0.00     0.000 C 
ENDROOT
BRANCH   1   2
ATOM      2  C   UNL     1     -15.263 -12.664  18.204  1.00  0.00     0.000 C 
BRANCH   2   3
ATOM      3  C   UNL     1     -16.705 -12.786  18.719  1.00  0.00     0.000 C 
BRANCH   3   4
ATOM      4  C   UNL     1     -16.805 -12.345  20.184  1.00  0.00     0.000 C 
BRANCH   4   5
ATOM      5  C   UNL     1     -16.713 -10.816  20.307  1.00  0.00     0.000 C 
BRANCH   5   6
ATOM      6  C   UNL     1     -17.859 -10.219  21.138  1.00  0.00     0.006 C 
BRANCH   6   7
ATOM      7  C   UNL     1     -19.176 -10.985  20.964  1.00  0.00     0.053 C 
BRANCH   7   8
ATOM      8  C   UNL     1     -19.925 -11.038  22.258  1.00  0.00     0.041 C 
ATOM      9  O   UNL     1     -19.304 -10.977  23.353  1.00  0.00    -0.550 OA
ATOM     10  O   UNL     1     -21.313 -11.101  22.256  1.00  0.00    -0.550 OA
ENDBRANCH   7   8
ENDBRANCH   6   7
ENDBRANCH   5   6
ENDBRANCH   4   5
ENDBRANCH   3   4
ENDBRANCH   2   3
ENDBRANCH   1   2
BRANCH   1  11
ATOM     11  C   UNL     1     -16.318 -13.797  16.118  1.00  0.00     0.000 C 
BRANCH  11  12
ATOM     12  C   UNL     1     -16.458 -13.153  14.723  1.00  0.00    -0.000 C 
BRANCH  12  13
ATOM     13  C   UNL     1     -15.967 -14.024  13.554  1.00  0.00    -0.000 C 
BRANCH  13  14
ATOM     14  C   UNL     1     -14.470 -13.843  13.261  1.00  0.00    -0.000 C 
BRANCH  14  15
ATOM     15  C   UNL     1     -14.132 -12.366  13.021  1.00  0.00    -0.000 C 
BRANCH  15  16
ATOM     16  C   UNL     1     -13.198 -11.831  14.117  1.00  0.00    -0.000 C 
BRANCH  16  17
ATOM     17  C   UNL     1     -11.917 -12.668  14.262  1.00  0.00    -0.003 C 
ATOM     18  C   UNL     1     -11.521 -12.895  15.721  1.00  0.00     0.004 C 
ENDBRANCH  16  17
ENDBRANCH  15  16
ENDBRANCH  14  15
ENDBRANCH  13  14
ENDBRANCH  12  13
ENDBRANCH  11  12
ENDBRANCH   1  11
TORSDOF 14
ENDMDL
MODEL 9
REMARK VINA RESULT:    -4.335      2.907      4.821
REMARK INTER + INTRA:          -9.513
REMARK INTER:                  -8.551
REMARK INTRA:                  -0.962
REMARK UNBOUND:                -1.630
REMARK SMILES CCCCCCCCCCCCCCCC(=O)[O-]
REMARK SMILES IDX 9 1 10 2 11 3 12 4 13 5 14 6 15 7 16 8 17 9 18 10 8 11 7 12
REMARK SMILES IDX 6 13 5 14 4 15 3 16 2 17 1 18
REMARK H PARENT
REMARK Flexibility Score: inf
ROOT
ATOM      1  C   UNL     1     -14.626 -12.060  15.506  1.00  0.00     0.000 C 
ENDROOT
BRANCH   1   2
ATOM      2  C   UNL     1     -13.260 -12.388  14.878  1.00  0.00     0.000 C 
BRANCH   2   3
ATOM      3  C   UNL     1     -13.018 -13.898  14.735  1.00  0.00     0.000 C 
BRANCH   3   4
ATOM      4  C   UNL     1     -11.533 -14.236  14.917  1.00  0.00     0.000 C 
BRANCH   4   5
ATOM      5  C   UNL     1     -10.790 -13.091  15.621  1.00  0.00     0.000 C 
BRANCH   5   6
ATOM      6  C   UNL     1      -9.264 -13.277  15.603  1.00  0.00     0.006 C 
BRANCH   6   7
ATOM      7  C   UNL     1      -8.508 -11.947  15.494  1.00  0.00     0.053 C 
BRANCH   7   8
ATOM      8  C   UNL     1      -8.424 -11.510  14.065  1.00  0.00     0.041 C 
ATOM      9  O   UNL     1      -8.067 -12.324  13.173  1.00  0.00    -0.550 OA
ATOM     10  O   UNL     1      -8.789 -10.217  13.711  1.00  0.00    -0.550 OA
ENDBRANCH   7   8
ENDBRANCH   6   7
ENDBRANCH   5   6
ENDBRANCH   4   5
ENDBRANCH   3   4
ENDBRANCH   2   3
ENDBRANCH   1   2
BRANCH   1  11
ATOM     11  C   UNL     1     -15.514 -13.283  15.810  1.00  0.00     0.000 C 
BRANCH  11  12
ATOM     12  C   UNL     1     -15.793 -13.534  17.306  1.00  0.00    -0.000 C 
BRANCH  12  13
ATOM     13  C   UNL     1     -14.922 -12.715  18.276  1.00  0.00    -0.000 C 
BRANCH  13  14
ATOM     14  C   UNL     1     -15.741 -11.747  19.142  1.00  0.00    -0.000 C 
BRANCH  14  15
ATOM     15  C   UNL     1     -16.820 -12.496  19.934  1.00  0.00    -0.000 C 
BRANCH  15  16
ATOM     16  C   UNL     1     -18.036 -11.596  20.194  1.00  0.00    -0.000 C 
BRANCH  16  17
ATOM     17  C   UNL     1     -18.041 -11.007  21.614  1.00  0.00    -0.003 C 
ATOM     18  C   UNL     1     -19.451 -10.865  22.190  1.00  0.00     0.004 C 
ENDBRANCH  16  17
ENDBRANCH  15  16
ENDBRANCH  14  15
ENDBRANCH  13  14
ENDBRANCH  12  13
ENDBRANCH  11  12
ENDBRANCH   1  11
TORSDOF 14
ENDMDL
