MODEL 1
REMARK VINA RESULT:    -3.901      0.000      0.000
REMARK INTER + INTRA:         -14.982
REMARK INTER:                  -9.831
REMARK INTRA:                  -5.151
REMARK UNBOUND:                -5.151
REMARK SMILES CCCCCCCCCCCCCCCCCCCCCCCCCCCC(=O)[O-]
REMARK SMILES IDX 15 1 16 2 17 3 18 4 19 5 20 6 21 7 22 8 23 9 24 10 25 11
REMARK SMILES IDX 26 12 27 13 28 14 29 15 30 16 14 17 13 18 12 19 11 20 10 21
REMARK SMILES IDX 9 22 8 23 7 24 6 25 5 26 4 27 3 28 2 29 1 30
REMARK H PARENT
REMARK Flexibility Score: inf
ROOT
ATOM      1  C   UNL     1     -25.494  95.016 -29.163  1.00  0.00     0.000 C 
ENDROOT
BRANCH   1   2
ATOM      2  C   UNL     1     -24.387  96.056 -29.404  1.00  0.00     0.000 C 
BRANCH   2   3
ATOM      3  C   UNL     1     -23.695  95.973 -30.778  1.00  0.00     0.000 C 
BRANCH   3   4
ATOM      4  C   UNL     1     -24.647  95.601 -31.937  1.00  0.00     0.000 C 
BRANCH   4   5
ATOM      5  C   UNL     1     -24.061  94.508 -32.847  1.00  0.00     0.000 C 
BRANCH   5   6
ATOM      6  C   UNL     1     -23.037  93.614 -32.125  1.00  0.00     0.000 C 
BRANCH   6   7
ATOM      7  C   UNL     1     -23.470  92.146 -31.953  1.00  0.00     0.000 C 
BRANCH   7   8
ATOM      8  C   UNL     1     -24.917  91.892 -32.410  1.00  0.00     0.000 C 
BRANCH   8   9
ATOM      9  C   UNL     1     -25.862  91.570 -31.235  1.00  0.00     0.000 C 
BRANCH   9  10
ATOM     10  C   UNL     1     -27.021  92.574 -31.063  1.00  0.00     0.000 C 
BRANCH  10  11
ATOM     11  C   UNL     1     -28.078  92.146 -30.024  1.00  0.00     0.000 C 
BRANCH  11  12
ATOM     12  C   UNL     1     -27.582  91.043 -29.069  1.00  0.00     0.006 C 
BRANCH  12  13
ATOM     13  C   UNL     1     -27.709  91.459 -27.597  1.00  0.00     0.053 C 
BRANCH  13  14
ATOM     14  C   UNL     1     -28.840  92.426 -27.415  1.00  0.00     0.041 C 
ATOM     15  O   UNL     1     -28.604  93.658 -27.296  1.00  0.00    -0.550 OA
ATOM     16  O   UNL     1     -30.152  91.971 -27.395  1.00  0.00    -0.550 OA
ENDBRANCH  13  14
ENDBRANCH  12  13
ENDBRANCH  11  12
ENDBRANCH  10  11
ENDBRANCH   9  10
ENDBRANCH   8   9
ENDBRANCH   7   8
ENDBRANCH   6   7
ENDBRANCH   5   6
ENDBRANCH   4   5
ENDBRANCH   3   4
ENDBRANCH   2   3
ENDBRANCH   1   2
BRANCH   1  17
ATOM     17  C   UNL     1     -25.126  93.994 -28.073  1.00  0.00     0.000 C 
BRANCH  17  18
ATOM     18  C   UNL     1     -23.990  93.048 -28.504  1.00  0.00     0.000 C 
BRANCH  18  19
ATOM     19  C   UNL     1     -24.067  91.624 -27.920  1.00  0.00     0.000 C 
BRANCH  19  20
ATOM     20  C   UNL     1     -23.004  90.678 -28.507  1.00  0.00     0.000 C 
BRANCH  20  21
ATOM     21  C   UNL     1     -23.617  89.457 -29.220  1.00  0.00     0.000 C 
BRANCH  21  22
ATOM     22  C   UNL     1     -23.620  88.155 -28.396  1.00  0.00    -0.000 C 
BRANCH  22  23
ATOM     23  C   UNL     1     -25.038  87.624 -28.127  1.00  0.00    -0.000 C 
BRANCH  23  24
ATOM     24  C   UNL     1     -25.747  88.368 -26.980  1.00  0.00    -0.000 C 
BRANCH  24  25
ATOM     25  C   UNL     1     -25.892  87.566 -25.675  1.00  0.00    -0.000 C 
BRANCH  25  26
ATOM     26  C   UNL     1     -25.427  86.105 -25.811  1.00  0.00    -0.000 C 
BRANCH  26  27
ATOM     27  C   UNL     1     -23.939  85.934 -25.439  1.00  0.00    -0.000 C 
BRANCH  27  28
ATOM     28  C   UNL     1     -23.487  86.845 -24.284  1.00  0.00    -0.000 C 
BRANCH  28  29
ATOM     29  C   UNL     1     -22.286  87.726 -24.653  1.00  0.00    -0.003 C 
ATOM     30  C   UNL     1     -22.704  89.185 -24.811  1.00  0.00     0.004 C 
ENDBRANCH  28  29
ENDBRANCH  27  28
ENDBRANCH  26  27
ENDBRANCH  25  26
ENDBRANCH  24  25
ENDBRANCH  23  24
ENDBRANCH  22  23
ENDBRANCH  21  22
ENDBRANCH  20  21
ENDBRANCH  19  20
ENDBRANCH  18  19
ENDBRANCH  17  18
ENDBRANCH   1  17
TORSDOF 26
ENDMDL
MODEL 2
REMARK VINA RESULT:    -3.806      2.824      7.103
REMARK INTER + INTRA:         -14.741
REMARK INTER:                 -10.277
REMARK INTRA:                  -4.463
REMARK UNBOUND:                -5.151
REMARK SMILES CCCCCCCCCCCCCCCCCCCCCCCCCCCC(=O)[O-]
REMARK SMILES IDX 15 1 16 2 17 3 18 4 19 5 20 6 21 7 22 8 23 9 24 10 25 11
REMARK SMILES IDX 26 12 27 13 28 14 29 15 30 16 14 17 13 18 12 19 11 20 10 21
REMARK SMILES IDX 9 22 8 23 7 24 6 25 5 26 4 27 3 28 2 29 1 30
REMARK H PARENT
REMARK Flexibility Score: inf
ROOT
ATOM      1  C   UNL     1     -25.657  93.715 -27.586  1.00  0.00     0.000 C 
ENDROOT
BRANCH   1   2
ATOM      2  C   UNL     1     -25.056  92.852 -28.709  1.00  0.00     0.000 C 
BRANCH   2   3
ATOM      3  C   UNL     1     -23.604  92.392 -28.478  1.00  0.00     0.000 C 
BRANCH   3   4
ATOM      4  C   UNL     1     -23.479  90.935 -27.981  1.00  0.00     0.000 C 
BRANCH   4   5
ATOM      5  C   UNL     1     -23.154  89.953 -29.120  1.00  0.00     0.000 C 
BRANCH   5   6
ATOM      6  C   UNL     1     -24.375  89.128 -29.564  1.00  0.00     0.000 C 
BRANCH   6   7
ATOM      7  C   UNL     1     -25.328  88.720 -28.425  1.00  0.00     0.000 C 
BRANCH   7   8
ATOM      8  C   UNL     1     -26.630  89.540 -28.413  1.00  0.00     0.000 C 
BRANCH   8   9
ATOM      9  C   UNL     1     -27.291  89.580 -27.020  1.00  0.00     0.000 C 
BRANCH   9  10
ATOM     10  C   UNL     1     -26.450  90.295 -25.942  1.00  0.00     0.000 C 
BRANCH  10  11
ATOM     11  C   UNL     1     -26.382  89.545 -24.595  1.00  0.00     0.000 C 
BRANCH  11  12
ATOM     12  C   UNL     1     -25.376  88.379 -24.597  1.00  0.00     0.006 C 
BRANCH  12  13
ATOM     13  C   UNL     1     -23.979  88.827 -25.047  1.00  0.00     0.053 C 
BRANCH  13  14
ATOM     14  C   UNL     1     -22.946  87.813 -24.659  1.00  0.00     0.041 C 
ATOM     15  O   UNL     1     -21.822  88.189 -24.232  1.00  0.00    -0.550 OA
ATOM     16  O   UNL     1     -23.229  86.456 -24.749  1.00  0.00    -0.550 OA
ENDBRANCH  13  14
ENDBRANCH  12  13
ENDBRANCH  11  12
ENDBRANCH  10  11
ENDBRANCH   9  10
ENDBRANCH   8   9
ENDBRANCH   7   8
ENDBRANCH   6   7
ENDBRANCH   5   6
ENDBRANCH   4   5
ENDBRANCH   3   4
ENDBRANCH   2   3
ENDBRANCH   1   2
BRANCH   1  17
ATOM     17  C   UNL     1     -25.843  95.185 -27.997  1.00  0.00     0.000 C 
BRANCH  17  18
ATOM     18  C   UNL     1     -24.531  95.842 -28.466  1.00  0.00     0.000 C 
BRANCH  18  19
ATOM     19  C   UNL     1     -24.601  96.533 -29.841  1.00  0.00     0.000 C 
BRANCH  19  20
ATOM     20  C   UNL     1     -23.586  95.966 -30.849  1.00  0.00     0.000 C 
BRANCH  20  21
ATOM     21  C   UNL     1     -23.505  96.791 -32.148  1.00  0.00     0.000 C 
BRANCH  21  22
ATOM     22  C   UNL     1     -24.014  96.070 -33.412  1.00  0.00    -0.000 C 
BRANCH  22  23
ATOM     23  C   UNL     1     -25.517  96.283 -33.654  1.00  0.00    -0.000 C 
BRANCH  23  24
ATOM     24  C   UNL     1     -26.326  94.975 -33.583  1.00  0.00    -0.000 C 
BRANCH  24  25
ATOM     25  C   UNL     1     -26.432  94.352 -32.180  1.00  0.00    -0.000 C 
BRANCH  25  26
ATOM     26  C   UNL     1     -26.160  92.837 -32.171  1.00  0.00    -0.000 C 
BRANCH  26  27
ATOM     27  C   UNL     1     -24.953  92.461 -33.057  1.00  0.00    -0.000 C 
BRANCH  27  28
ATOM     28  C   UNL     1     -23.599  92.592 -32.337  1.00  0.00    -0.000 C 
BRANCH  28  29
ATOM     29  C   UNL     1     -22.815  91.273 -32.295  1.00  0.00    -0.003 C 
ATOM     30  C   UNL     1     -23.248  90.341 -33.423  1.00  0.00     0.004 C 
ENDBRANCH  28  29
ENDBRANCH  27  28
ENDBRANCH  26  27
ENDBRANCH  25  26
ENDBRANCH  24  25
ENDBRANCH  23  24
ENDBRANCH  22  23
ENDBRANCH  21  22
ENDBRANCH  20  21
ENDBRANCH  19  20
ENDBRANCH  18  19
ENDBRANCH  17  18
ENDBRANCH   1  17
TORSDOF 26
ENDMDL
MODEL 3
REMARK VINA RESULT:    -3.754      3.607      7.581
REMARK INTER + INTRA:         -14.610
REMARK INTER:                 -10.773
REMARK INTRA:                  -3.837
REMARK UNBOUND:                -5.151
REMARK SMILES CCCCCCCCCCCCCCCCCCCCCCCCCCCC(=O)[O-]
REMARK SMILES IDX 15 1 16 2 17 3 18 4 19 5 20 6 21 7 22 8 23 9 24 10 25 11
REMARK SMILES IDX 26 12 27 13 28 14 29 15 30 16 14 17 13 18 12 19 11 20 10 21
REMARK SMILES IDX 9 22 8 23 7 24 6 25 5 26 4 27 3 28 2 29 1 30
REMARK H PARENT
REMARK Flexibility Score: inf
ROOT
ATOM      1  C   UNL     1     -23.979  92.502 -31.953  1.00  0.00     0.000 C 
ENDROOT
BRANCH   1   2
ATOM      2  C   UNL     1     -23.061  91.267 -31.969  1.00  0.00     0.000 C 
BRANCH   2   3
ATOM      3  C   UNL     1     -22.589  90.783 -30.585  1.00  0.00     0.000 C 
BRANCH   3   4
ATOM      4  C   UNL     1     -23.733  90.575 -29.569  1.00  0.00     0.000 C 
BRANCH   4   5
ATOM      5  C   UNL     1     -23.478  91.309 -28.241  1.00  0.00     0.000 C 
BRANCH   5   6
ATOM      6  C   UNL     1     -23.295  90.348 -27.053  1.00  0.00     0.000 C 
BRANCH   6   7
ATOM      7  C   UNL     1     -24.011  88.993 -27.202  1.00  0.00     0.000 C 
BRANCH   7   8
ATOM      8  C   UNL     1     -24.121  88.225 -25.873  1.00  0.00     0.000 C 
BRANCH   8   9
ATOM      9  C   UNL     1     -23.306  88.883 -24.740  1.00  0.00     0.000 C 
BRANCH   9  10
ATOM     10  C   UNL     1     -22.008  88.132 -24.378  1.00  0.00     0.000 C 
BRANCH  10  11
ATOM     11  C   UNL     1     -22.197  86.619 -24.145  1.00  0.00     0.000 C 
BRANCH  11  12
ATOM     12  C   UNL     1     -21.427  86.091 -22.920  1.00  0.00     0.006 C 
BRANCH  12  13
ATOM     13  C   UNL     1     -21.395  84.557 -22.881  1.00  0.00     0.053 C 
BRANCH  13  14
ATOM     14  C   UNL     1     -22.522  84.023 -22.050  1.00  0.00     0.041 C 
ATOM     15  O   UNL     1     -23.605  83.686 -22.597  1.00  0.00    -0.550 OA
ATOM     16  O   UNL     1     -22.371  83.882 -20.676  1.00  0.00    -0.550 OA
ENDBRANCH  13  14
ENDBRANCH  12  13
ENDBRANCH  11  12
ENDBRANCH  10  11
ENDBRANCH   9  10
ENDBRANCH   8   9
ENDBRANCH   7   8
ENDBRANCH   6   7
ENDBRANCH   5   6
ENDBRANCH   4   5
ENDBRANCH   3   4
ENDBRANCH   2   3
ENDBRANCH   1   2
BRANCH   1  17
ATOM     17  C   UNL     1     -23.201  93.823 -31.833  1.00  0.00     0.000 C 
BRANCH  17  18
ATOM     18  C   UNL     1     -24.033  94.946 -31.185  1.00  0.00     0.000 C 
BRANCH  18  19
ATOM     19  C   UNL     1     -25.058  94.477 -30.134  1.00  0.00     0.000 C 
BRANCH  19  20
ATOM     20  C   UNL     1     -24.583  94.710 -28.689  1.00  0.00     0.000 C 
BRANCH  20  21
ATOM     21  C   UNL     1     -25.558  95.577 -27.869  1.00  0.00     0.000 C 
BRANCH  21  22
ATOM     22  C   UNL     1     -26.242  94.854 -26.693  1.00  0.00    -0.000 C 
BRANCH  22  23
ATOM     23  C   UNL     1     -27.295  93.832 -27.152  1.00  0.00    -0.000 C 
BRANCH  23  24
ATOM     24  C   UNL     1     -26.811  92.376 -27.024  1.00  0.00    -0.000 C 
BRANCH  24  25
ATOM     25  C   UNL     1     -27.214  91.451 -28.186  1.00  0.00    -0.000 C 
BRANCH  25  26
ATOM     26  C   UNL     1     -27.844  92.209 -29.368  1.00  0.00    -0.000 C 
BRANCH  26  27
ATOM     27  C   UNL     1     -28.074  91.291 -30.588  1.00  0.00    -0.000 C 
BRANCH  27  28
ATOM     28  C   UNL     1     -26.858  90.412 -30.931  1.00  0.00    -0.000 C 
BRANCH  28  29
ATOM     29  C   UNL     1     -27.195  88.916 -30.969  1.00  0.00    -0.003 C 
ATOM     30  C   UNL     1     -26.529  88.173 -29.815  1.00  0.00     0.004 C 
ENDBRANCH  28  29
ENDBRANCH  27  28
ENDBRANCH  26  27
ENDBRANCH  25  26
ENDBRANCH  24  25
ENDBRANCH  23  24
ENDBRANCH  22  23
ENDBRANCH  21  22
ENDBRANCH  20  21
ENDBRANCH  19  20
ENDBRANCH  18  19
ENDBRANCH  17  18
ENDBRANCH   1  17
TORSDOF 26
ENDMDL
MODEL 4
REMARK VINA RESULT:    -3.750      3.506      7.510
REMARK INTER + INTRA:         -14.601
REMARK INTER:                 -10.760
REMARK INTRA:                  -3.841
REMARK UNBOUND:                -5.151
REMARK SMILES CCCCCCCCCCCCCCCCCCCCCCCCCCCC(=O)[O-]
REMARK SMILES IDX 15 1 16 2 17 3 18 4 19 5 20 6 21 7 22 8 23 9 24 10 25 11
REMARK SMILES IDX 26 12 27 13 28 14 29 15 30 16 14 17 13 18 12 19 11 20 10 21
REMARK SMILES IDX 9 22 8 23 7 24 6 25 5 26 4 27 3 28 2 29 1 30
REMARK H PARENT
REMARK Flexibility Score: inf
ROOT
ATOM      1  C   UNL     1     -23.630  94.968 -31.675  1.00  0.00     0.000 C 
ENDROOT
BRANCH   1   2
ATOM      2  C   UNL     1     -23.203  93.506 -31.893  1.00  0.00     0.000 C 
BRANCH   2   3
ATOM      3  C   UNL     1     -23.466  92.562 -30.705  1.00  0.00     0.000 C 
BRANCH   3   4
ATOM      4  C   UNL     1     -22.955  91.120 -30.926  1.00  0.00     0.000 C 
BRANCH   4   5
ATOM      5  C   UNL     1     -22.838  90.333 -29.609  1.00  0.00     0.000 C 
BRANCH   5   6
ATOM      6  C   UNL     1     -23.319  91.136 -28.388  1.00  0.00     0.000 C 
BRANCH   6   7
ATOM      7  C   UNL     1     -23.847  90.282 -27.220  1.00  0.00     0.000 C 
BRANCH   7   8
ATOM      8  C   UNL     1     -24.394  88.918 -27.677  1.00  0.00     0.000 C 
BRANCH   8   9
ATOM      9  C   UNL     1     -23.522  87.740 -27.197  1.00  0.00     0.000 C 
BRANCH   9  10
ATOM     10  C   UNL     1     -23.028  87.872 -25.741  1.00  0.00     0.000 C 
BRANCH  10  11
ATOM     11  C   UNL     1     -24.071  87.464 -24.680  1.00  0.00     0.000 C 
BRANCH  11  12
ATOM     12  C   UNL     1     -23.888  86.023 -24.168  1.00  0.00     0.006 C 
BRANCH  12  13
ATOM     13  C   UNL     1     -22.428  85.726 -23.801  1.00  0.00     0.053 C 
BRANCH  13  14
ATOM     14  C   UNL     1     -22.333  84.491 -22.957  1.00  0.00     0.041 C 
ATOM     15  O   UNL     1     -23.371  83.832 -22.685  1.00  0.00    -0.550 OA
ATOM     16  O   UNL     1     -21.100  84.058 -22.488  1.00  0.00    -0.550 OA
ENDBRANCH  13  14
ENDBRANCH  12  13
ENDBRANCH  11  12
ENDBRANCH  10  11
ENDBRANCH   9  10
ENDBRANCH   8   9
ENDBRANCH   7   8
ENDBRANCH   6   7
ENDBRANCH   5   6
ENDBRANCH   4   5
ENDBRANCH   3   4
ENDBRANCH   2   3
ENDBRANCH   1   2
BRANCH   1  17
ATOM     17  C   UNL     1     -24.659  95.128 -30.543  1.00  0.00     0.000 C 
BRANCH  17  18
ATOM     18  C   UNL     1     -24.395  96.369 -29.669  1.00  0.00     0.000 C 
BRANCH  18  19
ATOM     19  C   UNL     1     -25.064  96.346 -28.281  1.00  0.00     0.000 C 
BRANCH  19  20
ATOM     20  C   UNL     1     -25.369  94.920 -27.788  1.00  0.00     0.000 C 
BRANCH  20  21
ATOM     21  C   UNL     1     -26.549  94.869 -26.798  1.00  0.00     0.000 C 
BRANCH  21  22
ATOM     22  C   UNL     1     -27.516  93.686 -26.996  1.00  0.00    -0.000 C 
BRANCH  22  23
ATOM     23  C   UNL     1     -26.825  92.442 -27.580  1.00  0.00    -0.000 C 
BRANCH  23  24
ATOM     24  C   UNL     1     -27.530  91.901 -28.837  1.00  0.00    -0.000 C 
BRANCH  24  25
ATOM     25  C   UNL     1     -26.623  91.128 -29.811  1.00  0.00    -0.000 C 
BRANCH  25  26
ATOM     26  C   UNL     1     -27.183  91.076 -31.243  1.00  0.00    -0.000 C 
BRANCH  26  27
ATOM     27  C   UNL     1     -26.709  92.273 -32.094  1.00  0.00    -0.000 C 
BRANCH  27  28
ATOM     28  C   UNL     1     -27.759  93.391 -32.219  1.00  0.00    -0.000 C 
BRANCH  28  29
ATOM     29  C   UNL     1     -27.550  94.271 -33.459  1.00  0.00    -0.003 C 
ATOM     30  C   UNL     1     -26.210  93.972 -34.125  1.00  0.00     0.004 C 
ENDBRANCH  28  29
ENDBRANCH  27  28
ENDBRANCH  26  27
ENDBRANCH  25  26
ENDBRANCH  24  25
ENDBRANCH  23  24
ENDBRANCH  22  23
ENDBRANCH  21  22
ENDBRANCH  20  21
ENDBRANCH  19  20
ENDBRANCH  18  19
ENDBRANCH  17  18
ENDBRANCH   1  17
TORSDOF 26
ENDMDL
MODEL 5
REMARK VINA RESULT:    -3.749      2.464      6.090
REMARK INTER + INTRA:         -14.597
REMARK INTER:                  -9.074
REMARK INTRA:                  -5.523
REMARK UNBOUND:                -5.151
REMARK SMILES CCCCCCCCCCCCCCCCCCCCCCCCCCCC(=O)[O-]
REMARK SMILES IDX 15 1 16 2 17 3 18 4 19 5 20 6 21 7 22 8 23 9 24 10 25 11
REMARK SMILES IDX 26 12 27 13 28 14 29 15 30 16 14 17 13 18 12 19 11 20 10 21
REMARK SMILES IDX 9 22 8 23 7 24 6 25 5 26 4 27 3 28 2 29 1 30
REMARK H PARENT
REMARK Flexibility Score: inf
ROOT
ATOM      1  C   UNL     1     -25.512  95.292 -27.834  1.00  0.00     0.000 C 
ENDROOT
BRANCH   1   2
ATOM      2  C   UNL     1     -24.478  94.232 -28.248  1.00  0.00     0.000 C 
BRANCH   2   3
ATOM      3  C   UNL     1     -24.324  94.023 -29.767  1.00  0.00     0.000 C 
BRANCH   3   4
ATOM      4  C   UNL     1     -24.659  95.275 -30.609  1.00  0.00     0.000 C 
BRANCH   4   5
ATOM      5  C   UNL     1     -23.573  95.585 -31.653  1.00  0.00     0.000 C 
BRANCH   5   6
ATOM      6  C   UNL     1     -23.166  94.350 -32.477  1.00  0.00     0.000 C 
BRANCH   6   7
ATOM      7  C   UNL     1     -24.232  93.861 -33.476  1.00  0.00     0.000 C 
BRANCH   7   8
ATOM      8  C   UNL     1     -24.512  92.353 -33.359  1.00  0.00     0.000 C 
BRANCH   8   9
ATOM      9  C   UNL     1     -23.325  91.574 -32.760  1.00  0.00     0.000 C 
BRANCH   9  10
ATOM     10  C   UNL     1     -23.660  90.812 -31.460  1.00  0.00     0.000 C 
BRANCH  10  11
ATOM     11  C   UNL     1     -22.526  90.819 -30.414  1.00  0.00     0.000 C 
BRANCH  11  12
ATOM     12  C   UNL     1     -22.803  89.901 -29.209  1.00  0.00     0.006 C 
BRANCH  12  13
ATOM     13  C   UNL     1     -24.293  89.554 -29.084  1.00  0.00     0.053 C 
BRANCH  13  14
ATOM     14  C   UNL     1     -24.778  89.794 -27.687  1.00  0.00     0.041 C 
ATOM     15  O   UNL     1     -23.953  89.898 -26.741  1.00  0.00    -0.550 OA
ATOM     16  O   UNL     1     -26.138  89.922 -27.431  1.00  0.00    -0.550 OA
ENDBRANCH  13  14
ENDBRANCH  12  13
ENDBRANCH  11  12
ENDBRANCH  10  11
ENDBRANCH   9  10
ENDBRANCH   8   9
ENDBRANCH   7   8
ENDBRANCH   6   7
ENDBRANCH   5   6
ENDBRANCH   4   5
ENDBRANCH   3   4
ENDBRANCH   2   3
ENDBRANCH   1   2
BRANCH   1  17
ATOM     17  C   UNL     1     -26.387  94.844 -26.651  1.00  0.00     0.000 C 
BRANCH  17  18
ATOM     18  C   UNL     1     -26.936  93.415 -26.825  1.00  0.00     0.000 C 
BRANCH  18  19
ATOM     19  C   UNL     1     -28.360  93.329 -27.408  1.00  0.00     0.000 C 
BRANCH  19  20
ATOM     20  C   UNL     1     -28.464  92.349 -28.590  1.00  0.00     0.000 C 
BRANCH  20  21
ATOM     21  C   UNL     1     -27.557  92.738 -29.774  1.00  0.00     0.000 C 
BRANCH  21  22
ATOM     22  C   UNL     1     -27.005  91.554 -30.591  1.00  0.00    -0.000 C 
BRANCH  22  23
ATOM     23  C   UNL     1     -27.870  90.288 -30.463  1.00  0.00    -0.000 C 
BRANCH  23  24
ATOM     24  C   UNL     1     -28.341  89.746 -31.825  1.00  0.00    -0.000 C 
BRANCH  24  25
ATOM     25  C   UNL     1     -27.568  90.284 -33.042  1.00  0.00    -0.000 C 
BRANCH  25  26
ATOM     26  C   UNL     1     -28.430  91.169 -33.960  1.00  0.00    -0.000 C 
BRANCH  26  27
ATOM     27  C   UNL     1     -28.174  92.672 -33.723  1.00  0.00    -0.000 C 
BRANCH  27  28
ATOM     28  C   UNL     1     -29.369  93.406 -33.090  1.00  0.00    -0.000 C 
BRANCH  28  29
ATOM     29  C   UNL     1     -30.587  92.495 -32.881  1.00  0.00    -0.003 C 
ATOM     30  C   UNL     1     -30.941  92.384 -31.400  1.00  0.00     0.004 C 
ENDBRANCH  28  29
ENDBRANCH  27  28
ENDBRANCH  26  27
ENDBRANCH  25  26
ENDBRANCH  24  25
ENDBRANCH  23  24
ENDBRANCH  22  23
ENDBRANCH  21  22
ENDBRANCH  20  21
ENDBRANCH  19  20
ENDBRANCH  18  19
ENDBRANCH  17  18
ENDBRANCH   1  17
TORSDOF 26
ENDMDL
MODEL 6
REMARK VINA RESULT:    -3.738      2.454      6.604
REMARK INTER + INTRA:         -14.569
REMARK INTER:                  -8.751
REMARK INTRA:                  -5.818
REMARK UNBOUND:                -5.151
REMARK SMILES CCCCCCCCCCCCCCCCCCCCCCCCCCCC(=O)[O-]
REMARK SMILES IDX 15 1 16 2 17 3 18 4 19 5 20 6 21 7 22 8 23 9 24 10 25 11
REMARK SMILES IDX 26 12 27 13 28 14 29 15 30 16 14 17 13 18 12 19 11 20 10 21
REMARK SMILES IDX 9 22 8 23 7 24 6 25 5 26 4 27 3 28 2 29 1 30
REMARK H PARENT
REMARK Flexibility Score: inf
ROOT
ATOM      1  C   UNL     1     -24.268  90.926 -29.288  1.00  0.00     0.000 C 
ENDROOT
BRANCH   1   2
ATOM      2  C   UNL     1     -23.637  92.314 -29.087  1.00  0.00     0.000 C 
BRANCH   2   3
ATOM      3  C   UNL     1     -24.322  93.200 -28.030  1.00  0.00     0.000 C 
BRANCH   3   4
ATOM      4  C   UNL     1     -24.662  94.622 -28.528  1.00  0.00     0.000 C 
BRANCH   4   5
ATOM      5  C   UNL     1     -25.813  95.262 -27.732  1.00  0.00     0.000 C 
BRANCH   5   6
ATOM      6  C   UNL     1     -26.499  94.272 -26.774  1.00  0.00     0.000 C 
BRANCH   6   7
ATOM      7  C   UNL     1     -27.903  93.816 -27.212  1.00  0.00     0.000 C 
BRANCH   7   8
ATOM      8  C   UNL     1     -27.967  92.316 -27.548  1.00  0.00     0.000 C 
BRANCH   8   9
ATOM      9  C   UNL     1     -26.961  91.482 -26.729  1.00  0.00     0.000 C 
BRANCH   9  10
ATOM     10  C   UNL     1     -27.407  90.028 -26.472  1.00  0.00     0.000 C 
BRANCH  10  11
ATOM     11  C   UNL     1     -27.548  89.175 -27.750  1.00  0.00     0.000 C 
BRANCH  11  12
ATOM     12  C   UNL     1     -26.291  88.345 -28.070  1.00  0.00     0.006 C 
BRANCH  12  13
ATOM     13  C   UNL     1     -25.547  87.918 -26.798  1.00  0.00     0.053 C 
BRANCH  13  14
ATOM     14  C   UNL     1     -24.115  88.355 -26.849  1.00  0.00     0.041 C 
ATOM     15  O   UNL     1     -23.714  89.294 -26.111  1.00  0.00    -0.550 OA
ATOM     16  O   UNL     1     -23.218  87.716 -27.696  1.00  0.00    -0.550 OA
ENDBRANCH  13  14
ENDBRANCH  12  13
ENDBRANCH  11  12
ENDBRANCH  10  11
ENDBRANCH   9  10
ENDBRANCH   8   9
ENDBRANCH   7   8
ENDBRANCH   6   7
ENDBRANCH   5   6
ENDBRANCH   4   5
ENDBRANCH   3   4
ENDBRANCH   2   3
ENDBRANCH   1   2
BRANCH   1  17
ATOM     17  C   UNL     1     -23.680  90.171 -30.492  1.00  0.00     0.000 C 
BRANCH  17  18
ATOM     18  C   UNL     1     -22.746  91.048 -31.346  1.00  0.00     0.000 C 
BRANCH  18  19
ATOM     19  C   UNL     1     -23.052  91.053 -32.856  1.00  0.00     0.000 C 
BRANCH  19  20
ATOM     20  C   UNL     1     -23.318  92.465 -33.408  1.00  0.00     0.000 C 
BRANCH  20  21
ATOM     21  C   UNL     1     -22.980  93.578 -32.397  1.00  0.00     0.000 C 
BRANCH  21  22
ATOM     22  C   UNL     1     -24.101  94.609 -32.162  1.00  0.00    -0.000 C 
BRANCH  22  23
ATOM     23  C   UNL     1     -25.434  94.198 -32.810  1.00  0.00    -0.000 C 
BRANCH  23  24
ATOM     24  C   UNL     1     -26.619  94.259 -31.830  1.00  0.00    -0.000 C 
BRANCH  24  25
ATOM     25  C   UNL     1     -26.772  93.030 -30.916  1.00  0.00    -0.000 C 
BRANCH  25  26
ATOM     26  C   UNL     1     -26.800  91.702 -31.693  1.00  0.00    -0.000 C 
BRANCH  26  27
ATOM     27  C   UNL     1     -27.850  90.723 -31.128  1.00  0.00    -0.000 C 
BRANCH  27  28
ATOM     28  C   UNL     1     -29.257  91.334 -31.006  1.00  0.00    -0.000 C 
BRANCH  28  29
ATOM     29  C   UNL     1     -29.965  91.477 -32.360  1.00  0.00    -0.003 C 
ATOM     30  C   UNL     1     -30.199  92.945 -32.704  1.00  0.00     0.004 C 
ENDBRANCH  28  29
ENDBRANCH  27  28
ENDBRANCH  26  27
ENDBRANCH  25  26
ENDBRANCH  24  25
ENDBRANCH  23  24
ENDBRANCH  22  23
ENDBRANCH  21  22
ENDBRANCH  20  21
ENDBRANCH  19  20
ENDBRANCH  18  19
ENDBRANCH  17  18
ENDBRANCH   1  17
TORSDOF 26
ENDMDL
MODEL 7
REMARK VINA RESULT:    -3.720     12.721     16.856
REMARK INTER + INTRA:         -14.525
REMARK INTER:                  -9.754
REMARK INTRA:                  -4.771
REMARK UNBOUND:                -5.151
REMARK SMILES CCCCCCCCCCCCCCCCCCCCCCCCCCCC(=O)[O-]
REMARK SMILES IDX 15 1 16 2 17 3 18 4 19 5 20 6 21 7 22 8 23 9 24 10 25 11
REMARK SMILES IDX 26 12 27 13 28 14 29 15 30 16 14 17 13 18 12 19 11 20 10 21
REMARK SMILES IDX 9 22 8 23 7 24 6 25 5 26 4 27 3 28 2 29 1 30
REMARK H PARENT
REMARK Flexibility Score: inf
ROOT
ATOM      1  C   UNL     1     -36.382  81.707 -18.450  1.00  0.00     0.000 C 
ENDROOT
BRANCH   1   2
ATOM      2  C   UNL     1     -36.356  82.721 -17.294  1.00  0.00     0.000 C 
BRANCH   2   3
ATOM      3  C   UNL     1     -36.592  84.188 -17.702  1.00  0.00     0.000 C 
BRANCH   3   4
ATOM      4  C   UNL     1     -35.294  85.011 -17.859  1.00  0.00     0.000 C 
BRANCH   4   5
ATOM      5  C   UNL     1     -34.485  84.596 -19.100  1.00  0.00     0.000 C 
BRANCH   5   6
ATOM      6  C   UNL     1     -35.293  84.707 -20.405  1.00  0.00     0.000 C 
BRANCH   6   7
ATOM      7  C   UNL     1     -34.719  83.908 -21.590  1.00  0.00     0.000 C 
BRANCH   7   8
ATOM      8  C   UNL     1     -34.115  82.558 -21.164  1.00  0.00     0.000 C 
BRANCH   8   9
ATOM      9  C   UNL     1     -32.951  82.116 -22.074  1.00  0.00     0.000 C 
BRANCH   9  10
ATOM     10  C   UNL     1     -31.602  82.789 -21.745  1.00  0.00     0.000 C 
BRANCH  10  11
ATOM     11  C   UNL     1     -31.321  82.936 -20.235  1.00  0.00     0.000 C 
BRANCH  11  12
ATOM     12  C   UNL     1     -30.557  81.739 -19.638  1.00  0.00     0.006 C 
BRANCH  12  13
ATOM     13  C   UNL     1     -31.506  80.701 -19.024  1.00  0.00     0.053 C 
BRANCH  13  14
ATOM     14  C   UNL     1     -31.298  79.356 -19.651  1.00  0.00     0.041 C 
ATOM     15  O   UNL     1     -31.176  78.333 -18.925  1.00  0.00    -0.550 OA
ATOM     16  O   UNL     1     -31.257  79.227 -21.033  1.00  0.00    -0.550 OA
ENDBRANCH  13  14
ENDBRANCH  12  13
ENDBRANCH  11  12
ENDBRANCH  10  11
ENDBRANCH   9  10
ENDBRANCH   8   9
ENDBRANCH   7   8
ENDBRANCH   6   7
ENDBRANCH   5   6
ENDBRANCH   4   5
ENDBRANCH   3   4
ENDBRANCH   2   3
ENDBRANCH   1   2
BRANCH   1  17
ATOM     17  C   UNL     1     -37.534  81.956 -19.438  1.00  0.00     0.000 C 
BRANCH  17  18
ATOM     18  C   UNL     1     -38.290  80.666 -19.808  1.00  0.00     0.000 C 
BRANCH  18  19
ATOM     19  C   UNL     1     -37.423  79.557 -20.433  1.00  0.00     0.000 C 
BRANCH  19  20
ATOM     20  C   UNL     1     -37.522  79.513 -21.968  1.00  0.00     0.000 C 
BRANCH  20  21
ATOM     21  C   UNL     1     -36.361  80.248 -22.666  1.00  0.00     0.000 C 
BRANCH  21  22
ATOM     22  C   UNL     1     -36.788  81.319 -23.688  1.00  0.00    -0.000 C 
BRANCH  22  23
ATOM     23  C   UNL     1     -37.708  82.390 -23.079  1.00  0.00    -0.000 C 
BRANCH  23  24
ATOM     24  C   UNL     1     -38.695  82.983 -24.103  1.00  0.00    -0.000 C 
BRANCH  24  25
ATOM     25  C   UNL     1     -39.113  84.439 -23.835  1.00  0.00    -0.000 C 
BRANCH  25  26
ATOM     26  C   UNL     1     -38.305  85.100 -22.705  1.00  0.00    -0.000 C 
BRANCH  26  27
ATOM     27  C   UNL     1     -37.230  86.065 -23.250  1.00  0.00    -0.000 C 
BRANCH  27  28
ATOM     28  C   UNL     1     -37.480  86.504 -24.704  1.00  0.00    -0.000 C 
BRANCH  28  29
ATOM     29  C   UNL     1     -36.333  86.120 -25.649  1.00  0.00    -0.003 C 
ATOM     30  C   UNL     1     -35.082  85.733 -24.865  1.00  0.00     0.004 C 
ENDBRANCH  28  29
ENDBRANCH  27  28
ENDBRANCH  26  27
ENDBRANCH  25  26
ENDBRANCH  24  25
ENDBRANCH  23  24
ENDBRANCH  22  23
ENDBRANCH  21  22
ENDBRANCH  20  21
ENDBRANCH  19  20
ENDBRANCH  18  19
ENDBRANCH  17  18
ENDBRANCH   1  17
TORSDOF 26
ENDMDL
MODEL 8
REMARK VINA RESULT:    -3.713     10.805     15.586
REMARK INTER + INTRA:         -14.508
REMARK INTER:                  -9.747
REMARK INTRA:                  -4.760
REMARK UNBOUND:                -5.151
REMARK SMILES CCCCCCCCCCCCCCCCCCCCCCCCCCCC(=O)[O-]
REMARK SMILES IDX 15 1 16 2 17 3 18 4 19 5 20 6 21 7 22 8 23 9 24 10 25 11
REMARK SMILES IDX 26 12 27 13 28 14 29 15 30 16 14 17 13 18 12 19 11 20 10 21
REMARK SMILES IDX 9 22 8 23 7 24 6 25 5 26 4 27 3 28 2 29 1 30
REMARK H PARENT
REMARK Flexibility Score: inf
ROOT
ATOM      1  C   UNL     1     -31.336  83.258 -19.854  1.00  0.00     0.000 C 
ENDROOT
BRANCH   1   2
ATOM      2  C   UNL     1     -30.583  82.033 -19.306  1.00  0.00     0.000 C 
BRANCH   2   3
ATOM      3  C   UNL     1     -30.769  80.734 -20.111  1.00  0.00     0.000 C 
BRANCH   3   4
ATOM      4  C   UNL     1     -31.986  79.891 -19.671  1.00  0.00     0.000 C 
BRANCH   4   5
ATOM      5  C   UNL     1     -33.238  80.186 -20.515  1.00  0.00     0.000 C 
BRANCH   5   6
ATOM      6  C   UNL     1     -33.229  79.457 -21.871  1.00  0.00     0.000 C 
BRANCH   6   7
ATOM      7  C   UNL     1     -32.908  80.353 -23.082  1.00  0.00     0.000 C 
BRANCH   7   8
ATOM      8  C   UNL     1     -33.722  81.658 -23.093  1.00  0.00     0.000 C 
BRANCH   8   9
ATOM      9  C   UNL     1     -32.840  82.905 -23.304  1.00  0.00     0.000 C 
BRANCH   9  10
ATOM     10  C   UNL     1     -31.325  82.610 -23.330  1.00  0.00     0.000 C 
BRANCH  10  11
ATOM     11  C   UNL     1     -30.441  83.862 -23.505  1.00  0.00     0.000 C 
BRANCH  11  12
ATOM     12  C   UNL     1     -29.247  83.905 -22.532  1.00  0.00     0.006 C 
BRANCH  12  13
ATOM     13  C   UNL     1     -27.910  83.697 -23.256  1.00  0.00     0.053 C 
BRANCH  13  14
ATOM     14  C   UNL     1     -27.461  82.272 -23.144  1.00  0.00     0.041 C 
ATOM     15  O   UNL     1     -27.955  81.523 -22.259  1.00  0.00    -0.550 OA
ATOM     16  O   UNL     1     -26.514  81.766 -24.025  1.00  0.00    -0.550 OA
ENDBRANCH  13  14
ENDBRANCH  12  13
ENDBRANCH  11  12
ENDBRANCH  10  11
ENDBRANCH   9  10
ENDBRANCH   8   9
ENDBRANCH   7   8
ENDBRANCH   6   7
ENDBRANCH   5   6
ENDBRANCH   4   5
ENDBRANCH   3   4
ENDBRANCH   2   3
ENDBRANCH   1   2
BRANCH   1  17
ATOM     17  C   UNL     1     -32.628  83.562 -19.077  1.00  0.00     0.000 C 
BRANCH  17  18
ATOM     18  C   UNL     1     -33.855  83.704 -19.997  1.00  0.00     0.000 C 
BRANCH  18  19
ATOM     19  C   UNL     1     -34.860  84.796 -19.583  1.00  0.00     0.000 C 
BRANCH  19  20
ATOM     20  C   UNL     1     -34.728  85.201 -18.103  1.00  0.00     0.000 C 
BRANCH  20  21
ATOM     21  C   UNL     1     -35.967  84.829 -17.267  1.00  0.00     0.000 C 
BRANCH  21  22
ATOM     22  C   UNL     1     -36.868  83.740 -17.882  1.00  0.00    -0.000 C 
BRANCH  22  23
ATOM     23  C   UNL     1     -36.346  82.318 -17.619  1.00  0.00    -0.000 C 
BRANCH  23  24
ATOM     24  C   UNL     1     -36.405  81.419 -18.868  1.00  0.00    -0.000 C 
BRANCH  24  25
ATOM     25  C   UNL     1     -37.561  81.727 -19.837  1.00  0.00    -0.000 C 
BRANCH  25  26
ATOM     26  C   UNL     1     -37.078  82.212 -21.215  1.00  0.00    -0.000 C 
BRANCH  26  27
ATOM     27  C   UNL     1     -37.521  83.662 -21.506  1.00  0.00    -0.000 C 
BRANCH  27  28
ATOM     28  C   UNL     1     -37.297  84.090 -22.967  1.00  0.00    -0.000 C 
BRANCH  28  29
ATOM     29  C   UNL     1     -37.411  85.607 -23.169  1.00  0.00    -0.003 C 
ATOM     30  C   UNL     1     -36.098  86.306 -22.828  1.00  0.00     0.004 C 
ENDBRANCH  28  29
ENDBRANCH  27  28
ENDBRANCH  26  27
ENDBRANCH  25  26
ENDBRANCH  24  25
ENDBRANCH  23  24
ENDBRANCH  22  23
ENDBRANCH  21  22
ENDBRANCH  20  21
ENDBRANCH  19  20
ENDBRANCH  18  19
ENDBRANCH  17  18
ENDBRANCH   1  17
TORSDOF 26
ENDMDL
MODEL 9
REMARK VINA RESULT:    -3.681      2.444      5.412
REMARK INTER + INTRA:         -14.427
REMARK INTER:                  -9.704
REMARK INTRA:                  -4.723
REMARK UNBOUND:                -5.151
REMARK SMILES CCCCCCCCCCCCCCCCCCCCCCCCCCCC(=O)[O-]
REMARK SMILES IDX 15 1 16 2 17 3 18 4 19 5 20 6 21 7 22 8 23 9 24 10 25 11
REMARK SMILES IDX 26 12 27 13 28 14 29 15 30 16 14 17 13 18 12 19 11 20 10 21
REMARK SMILES IDX 9 22 8 23 7 24 6 25 5 26 4 27 3 28 2 29 1 30
REMARK H PARENT
REMARK Flexibility Score: inf
ROOT
ATOM      1  C   UNL     1     -24.623  95.489 -30.890  1.00  0.00     0.000 C 
ENDROOT
BRANCH   1   2
ATOM      2  C   UNL     1     -24.382  96.362 -29.646  1.00  0.00     0.000 C 
BRANCH   2   3
ATOM      3  C   UNL     1     -25.102  95.895 -28.367  1.00  0.00     0.000 C 
BRANCH   3   4
ATOM      4  C   UNL     1     -25.849  94.551 -28.523  1.00  0.00     0.000 C 
BRANCH   4   5
ATOM      5  C   UNL     1     -25.160  93.407 -27.759  1.00  0.00     0.000 C 
BRANCH   5   6
ATOM      6  C   UNL     1     -24.130  92.651 -28.617  1.00  0.00     0.000 C 
BRANCH   6   7
ATOM      7  C   UNL     1     -23.575  91.366 -27.976  1.00  0.00     0.000 C 
BRANCH   7   8
ATOM      8  C   UNL     1     -22.885  90.440 -28.994  1.00  0.00     0.000 C 
BRANCH   8   9
ATOM      9  C   UNL     1     -23.862  89.440 -29.642  1.00  0.00     0.000 C 
BRANCH   9  10
ATOM     10  C   UNL     1     -24.604  88.537 -28.634  1.00  0.00     0.000 C 
BRANCH  10  11
ATOM     11  C   UNL     1     -23.673  87.697 -27.736  1.00  0.00     0.000 C 
BRANCH  11  12
ATOM     12  C   UNL     1     -24.286  87.369 -26.361  1.00  0.00     0.006 C 
BRANCH  12  13
ATOM     13  C   UNL     1     -24.220  88.567 -25.403  1.00  0.00     0.053 C 
BRANCH  13  14
ATOM     14  C   UNL     1     -22.818  88.781 -24.919  1.00  0.00     0.041 C 
ATOM     15  O   UNL     1     -22.150  87.812 -24.471  1.00  0.00    -0.550 OA
ATOM     16  O   UNL     1     -22.244  90.045 -24.978  1.00  0.00    -0.550 OA
ENDBRANCH  13  14
ENDBRANCH  12  13
ENDBRANCH  11  12
ENDBRANCH  10  11
ENDBRANCH   9  10
ENDBRANCH   8   9
ENDBRANCH   7   8
ENDBRANCH   6   7
ENDBRANCH   5   6
ENDBRANCH   4   5
ENDBRANCH   3   4
ENDBRANCH   2   3
ENDBRANCH   1   2
BRANCH   1  17
ATOM     17  C   UNL     1     -23.566  95.707 -31.986  1.00  0.00     0.000 C 
BRANCH  17  18
ATOM     18  C   UNL     1     -23.238  94.417 -32.761  1.00  0.00     0.000 C 
BRANCH  18  19
ATOM     19  C   UNL     1     -22.951  93.183 -31.884  1.00  0.00     0.000 C 
BRANCH  19  20
ATOM     20  C   UNL     1     -23.594  91.897 -32.432  1.00  0.00     0.000 C 
BRANCH  20  21
ATOM     21  C   UNL     1     -25.092  92.066 -32.754  1.00  0.00     0.000 C 
BRANCH  21  22
ATOM     22  C   UNL     1     -26.046  91.822 -31.569  1.00  0.00    -0.000 C 
BRANCH  22  23
ATOM     23  C   UNL     1     -27.433  92.452 -31.781  1.00  0.00    -0.000 C 
BRANCH  23  24
ATOM     24  C   UNL     1     -28.366  92.267 -30.570  1.00  0.00    -0.000 C 
BRANCH  24  25
ATOM     25  C   UNL     1     -28.266  90.897 -29.875  1.00  0.00    -0.000 C 
BRANCH  25  26
ATOM     26  C   UNL     1     -27.285  90.894 -28.689  1.00  0.00    -0.000 C 
BRANCH  26  27
ATOM     27  C   UNL     1     -28.015  91.010 -27.335  1.00  0.00    -0.000 C 
BRANCH  27  28
ATOM     28  C   UNL     1     -27.418  90.114 -26.236  1.00  0.00    -0.000 C 
BRANCH  28  29
ATOM     29  C   UNL     1     -28.467  89.228 -25.551  1.00  0.00    -0.003 C 
ATOM     30  C   UNL     1     -28.023  87.768 -25.530  1.00  0.00     0.004 C 
ENDBRANCH  28  29
ENDBRANCH  27  28
ENDBRANCH  26  27
ENDBRANCH  25  26
ENDBRANCH  24  25
ENDBRANCH  23  24
ENDBRANCH  22  23
ENDBRANCH  21  22
ENDBRANCH  20  21
ENDBRANCH  19  20
ENDBRANCH  18  19
ENDBRANCH  17  18
ENDBRANCH   1  17
TORSDOF 26
ENDMDL
