MODEL 1
REMARK VINA RESULT:    -6.444      0.000      0.000
REMARK INTER + INTRA:         -10.530
REMARK INTER:                  -8.516
REMARK INTRA:                  -2.014
REMARK UNBOUND:                -2.014
REMARK SMILES CC[C@H](C=C[C@@H](C)[C@@H]1CC[C@H]2[C@@H]3CC=C4C[C@@H](O)CC[C@@]4(C)[C@@H]3CC[C@]21C)C(C)C
REMARK SMILES IDX 6 1 7 2 5 3 4 4 3 5 2 6 1 7 28 8 29 9 30 10 8 11 9 12 26 13
REMARK SMILES IDX 10 14 11 15 25 16 27 17 12 18 24 19 23 20 13 21 21 22 14 23
REMARK SMILES IDX 15 24 20 25 22 26 16 27 19 28 17 29 18 30
REMARK H PARENT 18 31
REMARK Flexibility Score: inf
ROOT
ATOM      1  C   UNL     1     175.477 174.718 182.333  1.00  0.00     0.012 C 
ATOM      2  C   UNL     1     176.269 175.566 183.351  1.00  0.00     0.012 C 
ENDROOT
BRANCH   1   3
ATOM      3  C   UNL     1     176.410 174.366 181.187  1.00  0.00    -0.028 C 
ATOM      4  C   UNL     1     176.636 175.132 180.099  1.00  0.00    -0.027 C 
BRANCH   4   5
ATOM      5  C   UNL     1     176.021 176.501 179.828  1.00  0.00     0.014 C 
BRANCH   5   6
ATOM      6  C   UNL     1     177.146 177.565 179.860  1.00  0.00     0.004 C 
ATOM      7  C   UNL     1     177.423 178.125 181.258  1.00  0.00     0.004 C 
ENDBRANCH   5   6
BRANCH   5   8
ATOM      8  C   UNL     1     175.182 176.502 178.510  1.00  0.00    -0.011 C 
ATOM      9  C   UNL     1     173.972 177.446 178.601  1.00  0.00     0.008 C 
ATOM     10  C   UNL     1     174.729 175.103 178.047  1.00  0.00     0.008 C 
ENDBRANCH   5   8
ENDBRANCH   4   5
ENDBRANCH   1   3
BRANCH   1  11
ATOM     11  C   UNL     1     174.207 175.499 181.840  1.00  0.00     0.002 C 
ATOM     12  C   UNL     1     174.025 176.813 182.602  1.00  0.00     0.005 C 
ATOM     13  C   UNL     1     172.818 174.784 181.942  1.00  0.00    -0.026 C 
ATOM     14  C   UNL     1     172.547 177.168 182.556  1.00  0.00     0.005 C 
ATOM     15  C   UNL     1     171.791 175.970 181.952  1.00  0.00    -0.001 C 
ATOM     16  C   UNL     1     172.598 173.813 180.730  1.00  0.00     0.007 C 
ATOM     17  C   UNL     1     172.678 173.995 183.270  1.00  0.00     0.012 C 
ATOM     18  C   UNL     1     171.210 176.193 180.526  1.00  0.00     0.000 C 
ATOM     19  C   UNL     1     171.116 173.615 180.395  1.00  0.00     0.005 C 
ATOM     20  C   UNL     1     170.361 174.957 180.097  1.00  0.00     0.003 C 
ATOM     21  C   UNL     1     170.431 177.483 180.254  1.00  0.00     0.031 C 
ATOM     22  C   UNL     1     168.821 174.987 180.565  1.00  0.00    -0.008 C 
ATOM     23  C   UNL     1     169.091 177.489 180.893  1.00  0.00    -0.027 C 
ATOM     24  C   UNL     1     168.306 176.402 180.902  1.00  0.00    -0.065 C 
ATOM     25  C   UNL     1     167.943 174.464 179.383  1.00  0.00     0.014 C 
ATOM     26  C   UNL     1     168.561 174.086 181.812  1.00  0.00     0.016 C 
ATOM     27  C   UNL     1     166.818 176.590 181.153  1.00  0.00     0.063 C 
ATOM     28  C   UNL     1     166.424 174.595 179.629  1.00  0.00     0.033 C 
ATOM     29  C   UNL     1     166.014 176.042 179.961  1.00  0.00     0.118 C 
BRANCH  29  30
ATOM     30  O   UNL     1     166.208 176.862 178.831  1.00  0.00    -0.393 OA
ATOM     31  H   UNL     1     165.858 176.361 178.048  1.00  0.00     0.210 HD
ENDBRANCH  29  30
ENDBRANCH   1  11
TORSDOF 6
ENDMDL
MODEL 2
REMARK VINA RESULT:    -6.187      9.102     12.572
REMARK INTER + INTRA:         -10.191
REMARK INTER:                  -8.190
REMARK INTRA:                  -2.001
REMARK UNBOUND:                -2.014
REMARK SMILES CC[C@H](C=C[C@@H](C)[C@@H]1CC[C@H]2[C@@H]3CC=C4C[C@@H](O)CC[C@@]4(C)[C@@H]3CC[C@]21C)C(C)C
REMARK SMILES IDX 6 1 7 2 5 3 4 4 3 5 2 6 1 7 28 8 29 9 30 10 8 11 9 12 26 13
REMARK SMILES IDX 10 14 11 15 25 16 27 17 12 18 24 19 23 20 13 21 21 22 14 23
REMARK SMILES IDX 15 24 20 25 22 26 16 27 19 28 17 29 18 30
REMARK H PARENT 18 31
REMARK Flexibility Score: inf
ROOT
ATOM      1  C   UNL     1     161.427 173.374 181.106  1.00  0.00     0.012 C 
ATOM      2  C   UNL     1     161.463 172.087 181.958  1.00  0.00     0.012 C 
ENDROOT
BRANCH   1   3
ATOM      3  C   UNL     1     160.485 174.358 181.779  1.00  0.00    -0.028 C 
ATOM      4  C   UNL     1     160.764 175.652 182.043  1.00  0.00    -0.027 C 
BRANCH   4   5
ATOM      5  C   UNL     1     162.059 176.375 181.691  1.00  0.00     0.014 C 
BRANCH   5   6
ATOM      6  C   UNL     1     161.716 177.815 181.234  1.00  0.00     0.004 C 
ATOM      7  C   UNL     1     162.148 178.124 179.798  1.00  0.00     0.004 C 
ENDBRANCH   5   6
BRANCH   5   8
ATOM      8  C   UNL     1     163.090 176.309 182.864  1.00  0.00    -0.011 C 
ATOM      9  C   UNL     1     163.601 177.705 183.258  1.00  0.00     0.008 C 
ATOM     10  C   UNL     1     164.279 175.362 182.608  1.00  0.00     0.008 C 
ENDBRANCH   5   8
ENDBRANCH   4   5
ENDBRANCH   1   3
BRANCH   1  11
ATOM     11  C   UNL     1     160.983 173.046 179.637  1.00  0.00     0.002 C 
ATOM     12  C   UNL     1     161.529 171.694 179.174  1.00  0.00     0.005 C 
ATOM     13  C   UNL     1     161.392 174.048 178.504  1.00  0.00    -0.026 C 
ATOM     14  C   UNL     1     161.621 171.733 177.656  1.00  0.00     0.005 C 
ATOM     15  C   UNL     1     161.337 173.176 177.201  1.00  0.00    -0.001 C 
ATOM     16  C   UNL     1     160.403 175.265 178.450  1.00  0.00     0.007 C 
ATOM     17  C   UNL     1     162.841 174.566 178.695  1.00  0.00     0.012 C 
ATOM     18  C   UNL     1     159.985 173.393 176.462  1.00  0.00     0.000 C 
ATOM     19  C   UNL     1     160.309 175.886 177.053  1.00  0.00     0.005 C 
ATOM     20  C   UNL     1     159.892 174.861 175.943  1.00  0.00     0.003 C 
ATOM     21  C   UNL     1     159.606 172.417 175.345  1.00  0.00     0.031 C 
ATOM     22  C   UNL     1     160.550 175.120 174.497  1.00  0.00    -0.008 C 
ATOM     23  C   UNL     1     160.408 172.615 174.113  1.00  0.00    -0.027 C 
ATOM     24  C   UNL     1     160.708 173.838 173.651  1.00  0.00    -0.065 C 
ATOM     25  C   UNL     1     159.603 176.069 173.694  1.00  0.00     0.014 C 
ATOM     26  C   UNL     1     161.956 175.790 174.596  1.00  0.00     0.016 C 
ATOM     27  C   UNL     1     161.120 173.978 172.195  1.00  0.00     0.063 C 
ATOM     28  C   UNL     1     160.025 176.272 172.222  1.00  0.00     0.033 C 
ATOM     29  C   UNL     1     160.158 174.935 171.469  1.00  0.00     0.118 C 
BRANCH  29  30
ATOM     30  O   UNL     1     158.890 174.334 171.338  1.00  0.00    -0.393 OA
ATOM     31  H   UNL     1     158.452 174.391 172.229  1.00  0.00     0.210 HD
ENDBRANCH  29  30
ENDBRANCH   1  11
TORSDOF 6
ENDMDL
MODEL 3
REMARK VINA RESULT:    -6.063      2.964      8.843
REMARK INTER + INTRA:         -10.027
REMARK INTER:                  -8.921
REMARK INTRA:                  -1.106
REMARK UNBOUND:                -2.014
REMARK SMILES CC[C@H](C=C[C@@H](C)[C@@H]1CC[C@H]2[C@@H]3CC=C4C[C@@H](O)CC[C@@]4(C)[C@@H]3CC[C@]21C)C(C)C
REMARK SMILES IDX 6 1 7 2 5 3 4 4 3 5 2 6 1 7 28 8 29 9 30 10 8 11 9 12 26 13
REMARK SMILES IDX 10 14 11 15 25 16 27 17 12 18 24 19 23 20 13 21 21 22 14 23
REMARK SMILES IDX 15 24 20 25 22 26 16 27 19 28 17 29 18 30
REMARK H PARENT 18 31
REMARK Flexibility Score: inf
ROOT
ATOM      1  C   UNL     1     166.104 176.328 180.562  1.00  0.00     0.012 C 
ATOM      2  C   UNL     1     165.155 176.666 179.393  1.00  0.00     0.012 C 
ENDROOT
BRANCH   1   3
ATOM      3  C   UNL     1     165.727 177.207 181.743  1.00  0.00    -0.028 C 
ATOM      4  C   UNL     1     164.619 177.068 182.500  1.00  0.00    -0.027 C 
BRANCH   4   5
ATOM      5  C   UNL     1     163.553 175.990 182.331  1.00  0.00     0.014 C 
BRANCH   5   6
ATOM      6  C   UNL     1     163.875 174.820 183.294  1.00  0.00     0.004 C 
ATOM      7  C   UNL     1     164.317 173.541 182.579  1.00  0.00     0.004 C 
ENDBRANCH   5   6
BRANCH   5   8
ATOM      8  C   UNL     1     162.114 176.575 182.501  1.00  0.00    -0.011 C 
ATOM      9  C   UNL     1     161.239 176.314 181.264  1.00  0.00     0.008 C 
ATOM     10  C   UNL     1     162.078 178.072 182.869  1.00  0.00     0.008 C 
ENDBRANCH   5   8
ENDBRANCH   4   5
ENDBRANCH   1   3
BRANCH   1  11
ATOM     11  C   UNL     1     167.599 176.531 180.131  1.00  0.00     0.002 C 
ATOM     12  C   UNL     1     167.887 175.875 178.779  1.00  0.00     0.005 C 
ATOM     13  C   UNL     1     168.719 175.989 181.082  1.00  0.00    -0.026 C 
ATOM     14  C   UNL     1     169.373 175.553 178.734  1.00  0.00     0.005 C 
ATOM     15  C   UNL     1     169.957 175.814 180.134  1.00  0.00    -0.001 C 
ATOM     16  C   UNL     1     168.999 177.000 182.249  1.00  0.00     0.007 C 
ATOM     17  C   UNL     1     168.346 174.605 181.673  1.00  0.00     0.012 C 
ATOM     18  C   UNL     1     170.903 177.044 180.248  1.00  0.00     0.000 C 
ATOM     19  C   UNL     1     170.431 176.901 182.784  1.00  0.00     0.005 C 
ATOM     20  C   UNL     1     171.523 177.108 181.678  1.00  0.00     0.003 C 
ATOM     21  C   UNL     1     172.000 177.215 179.194  1.00  0.00     0.031 C 
ATOM     22  C   UNL     1     172.868 176.246 181.881  1.00  0.00    -0.008 C 
ATOM     23  C   UNL     1     173.108 176.241 179.354  1.00  0.00    -0.027 C 
ATOM     24  C   UNL     1     173.596 175.917 180.561  1.00  0.00    -0.065 C 
ATOM     25  C   UNL     1     173.863 177.092 182.739  1.00  0.00     0.014 C 
ATOM     26  C   UNL     1     172.601 174.896 182.617  1.00  0.00     0.016 C 
ATOM     27  C   UNL     1     174.980 175.292 180.634  1.00  0.00     0.063 C 
ATOM     28  C   UNL     1     175.264 176.457 182.875  1.00  0.00     0.033 C 
ATOM     29  C   UNL     1     175.902 176.164 181.504  1.00  0.00     0.118 C 
BRANCH  29  30
ATOM     30  O   UNL     1     176.183 177.377 180.842  1.00  0.00    -0.393 OA
ATOM     31  H   UNL     1     176.058 178.104 181.508  1.00  0.00     0.210 HD
ENDBRANCH  29  30
ENDBRANCH   1  11
TORSDOF 6
ENDMDL
MODEL 4
REMARK VINA RESULT:    -6.062      3.619      6.036
REMARK INTER + INTRA:         -10.025
REMARK INTER:                  -8.020
REMARK INTRA:                  -2.005
REMARK UNBOUND:                -2.014
REMARK SMILES CC[C@H](C=C[C@@H](C)[C@@H]1CC[C@H]2[C@@H]3CC=C4C[C@@H](O)CC[C@@]4(C)[C@@H]3CC[C@]21C)C(C)C
REMARK SMILES IDX 6 1 7 2 5 3 4 4 3 5 2 6 1 7 28 8 29 9 30 10 8 11 9 12 26 13
REMARK SMILES IDX 10 14 11 15 25 16 27 17 12 18 24 19 23 20 13 21 21 22 14 23
REMARK SMILES IDX 15 24 20 25 22 26 16 27 19 28 17 29 18 30
REMARK H PARENT 18 31
REMARK Flexibility Score: inf
ROOT
ATOM      1  C   UNL     1     171.533 176.263 181.592  1.00  0.00     0.012 C 
ATOM      2  C   UNL     1     170.333 176.027 182.534  1.00  0.00     0.012 C 
ENDROOT
BRANCH   1   3
ATOM      3  C   UNL     1     172.353 177.413 182.152  1.00  0.00    -0.028 C 
ATOM      4  C   UNL     1     173.698 177.439 182.253  1.00  0.00    -0.027 C 
BRANCH   4   5
ATOM      5  C   UNL     1     174.647 176.334 181.801  1.00  0.00     0.014 C 
BRANCH   5   6
ATOM      6  C   UNL     1     175.992 176.977 181.378  1.00  0.00     0.004 C 
ATOM      7  C   UNL     1     176.430 176.606 179.959  1.00  0.00     0.004 C 
ENDBRANCH   5   6
BRANCH   5   8
ATOM      8  C   UNL     1     174.791 175.221 182.889  1.00  0.00    -0.011 C 
ATOM      9  C   UNL     1     176.257 174.996 183.291  1.00  0.00     0.008 C 
ATOM     10  C   UNL     1     174.134 173.879 182.510  1.00  0.00     0.008 C 
ENDBRANCH   5   8
ENDBRANCH   4   5
ENDBRANCH   1   3
BRANCH   1  11
ATOM     11  C   UNL     1     171.035 176.552 180.132  1.00  0.00     0.002 C 
ATOM     12  C   UNL     1     169.722 175.824 179.833  1.00  0.00     0.005 C 
ATOM     13  C   UNL     1     171.980 176.171 178.943  1.00  0.00    -0.026 C 
ATOM     14  C   UNL     1     169.646 175.619 178.327  1.00  0.00     0.005 C 
ATOM     15  C   UNL     1     171.002 176.026 177.724  1.00  0.00    -0.001 C 
ATOM     16  C   UNL     1     173.063 177.283 178.711  1.00  0.00     0.007 C 
ATOM     17  C   UNL     1     172.680 174.808 179.184  1.00  0.00     0.012 C 
ATOM     18  C   UNL     1     170.996 177.333 176.879  1.00  0.00     0.000 C 
ATOM     19  C   UNL     1     173.551 177.337 177.259  1.00  0.00     0.005 C 
ATOM     20  C   UNL     1     172.394 177.549 176.222  1.00  0.00     0.003 C 
ATOM     21  C   UNL     1     169.893 177.513 175.832  1.00  0.00     0.031 C 
ATOM     22  C   UNL     1     172.609 176.813 174.807  1.00  0.00    -0.008 C 
ATOM     23  C   UNL     1     170.082 176.644 174.644  1.00  0.00    -0.027 C 
ATOM     24  C   UNL     1     171.290 176.448 174.094  1.00  0.00    -0.065 C 
ATOM     25  C   UNL     1     173.369 177.795 173.858  1.00  0.00     0.014 C 
ATOM     26  C   UNL     1     173.447 175.503 174.939  1.00  0.00     0.016 C 
ATOM     27  C   UNL     1     171.356 175.942 172.663  1.00  0.00     0.063 C 
ATOM     28  C   UNL     1     173.498 177.285 172.406  1.00  0.00     0.033 C 
ATOM     29  C   UNL     1     172.129 176.945 171.788  1.00  0.00     0.118 C 
BRANCH  29  30
ATOM     30  O   UNL     1     171.374 178.125 171.628  1.00  0.00    -0.393 OA
ATOM     31  H   UNL     1     171.632 178.515 170.751  1.00  0.00     0.210 HD
ENDBRANCH  29  30
ENDBRANCH   1  11
TORSDOF 6
ENDMDL
MODEL 5
REMARK VINA RESULT:    -5.989      1.499      3.048
REMARK INTER + INTRA:          -9.929
REMARK INTER:                  -8.136
REMARK INTRA:                  -1.793
REMARK UNBOUND:                -2.014
REMARK SMILES CC[C@H](C=C[C@@H](C)[C@@H]1CC[C@H]2[C@@H]3CC=C4C[C@@H](O)CC[C@@]4(C)[C@@H]3CC[C@]21C)C(C)C
REMARK SMILES IDX 6 1 7 2 5 3 4 4 3 5 2 6 1 7 28 8 29 9 30 10 8 11 9 12 26 13
REMARK SMILES IDX 10 14 11 15 25 16 27 17 12 18 24 19 23 20 13 21 21 22 14 23
REMARK SMILES IDX 15 24 20 25 22 26 16 27 19 28 17 29 18 30
REMARK H PARENT 18 31
REMARK Flexibility Score: inf
ROOT
ATOM      1  C   UNL     1     175.031 176.757 182.263  1.00  0.00     0.012 C 
ATOM      2  C   UNL     1     176.252 177.126 181.394  1.00  0.00     0.012 C 
ENDROOT
BRANCH   1   3
ATOM      3  C   UNL     1     175.443 175.635 183.202  1.00  0.00    -0.028 C 
ATOM      4  C   UNL     1     175.528 174.329 182.870  1.00  0.00    -0.027 C 
BRANCH   4   5
ATOM      5  C   UNL     1     175.255 173.740 181.491  1.00  0.00     0.014 C 
BRANCH   5   6
ATOM      6  C   UNL     1     176.596 173.256 180.883  1.00  0.00     0.004 C 
ATOM      7  C   UNL     1     177.799 173.466 181.805  1.00  0.00     0.004 C 
ENDBRANCH   5   6
BRANCH   5   8
ATOM      8  C   UNL     1     174.148 172.638 181.546  1.00  0.00    -0.011 C 
ATOM      9  C   UNL     1     174.748 171.224 181.598  1.00  0.00     0.008 C 
ATOM     10  C   UNL     1     173.106 172.731 180.414  1.00  0.00     0.008 C 
ENDBRANCH   5   8
ENDBRANCH   4   5
ENDBRANCH   1   3
BRANCH   1  11
ATOM     11  C   UNL     1     173.816 176.349 181.357  1.00  0.00     0.002 C 
ATOM     12  C   UNL     1     173.895 177.015 179.981  1.00  0.00     0.005 C 
ATOM     13  C   UNL     1     172.373 176.670 181.872  1.00  0.00    -0.026 C 
ATOM     14  C   UNL     1     172.477 177.109 179.438  1.00  0.00     0.005 C 
ATOM     15  C   UNL     1     171.510 176.699 180.563  1.00  0.00    -0.001 C 
ATOM     16  C   UNL     1     171.885 175.577 182.886  1.00  0.00     0.007 C 
ATOM     17  C   UNL     1     172.304 178.067 182.544  1.00  0.00     0.012 C 
ATOM     18  C   UNL     1     170.787 175.335 180.363  1.00  0.00     0.000 C 
ATOM     19  C   UNL     1     170.359 175.433 182.908  1.00  0.00     0.005 C 
ATOM     20  C   UNL     1     169.745 175.113 181.502  1.00  0.00     0.003 C 
ATOM     21  C   UNL     1     170.145 175.048 179.003  1.00  0.00     0.031 C 
ATOM     22  C   UNL     1     168.291 175.750 181.235  1.00  0.00    -0.008 C 
ATOM     23  C   UNL     1     168.907 175.834 178.774  1.00  0.00    -0.027 C 
ATOM     24  C   UNL     1     168.001 176.025 179.745  1.00  0.00    -0.065 C 
ATOM     25  C   UNL     1     167.214 174.725 181.716  1.00  0.00     0.014 C 
ATOM     26  C   UNL     1     168.080 177.090 182.007  1.00  0.00     0.016 C 
ATOM     27  C   UNL     1     166.591 176.428 179.344  1.00  0.00     0.063 C 
ATOM     28  C   UNL     1     165.766 175.132 181.369  1.00  0.00     0.033 C 
ATOM     29  C   UNL     1     165.582 175.387 179.861  1.00  0.00     0.118 C 
BRANCH  29  30
ATOM     30  O   UNL     1     165.734 174.178 179.153  1.00  0.00    -0.393 OA
ATOM     31  H   UNL     1     166.389 174.350 178.425  1.00  0.00     0.210 HD
ENDBRANCH  29  30
ENDBRANCH   1  11
TORSDOF 6
ENDMDL
MODEL 6
REMARK VINA RESULT:    -5.984      7.651     10.381
REMARK INTER + INTRA:          -9.922
REMARK INTER:                  -9.156
REMARK INTRA:                  -0.767
REMARK UNBOUND:                -2.014
REMARK SMILES CC[C@H](C=C[C@@H](C)[C@@H]1CC[C@H]2[C@@H]3CC=C4C[C@@H](O)CC[C@@]4(C)[C@@H]3CC[C@]21C)C(C)C
REMARK SMILES IDX 6 1 7 2 5 3 4 4 3 5 2 6 1 7 28 8 29 9 30 10 8 11 9 12 26 13
REMARK SMILES IDX 10 14 11 15 25 16 27 17 12 18 24 19 23 20 13 21 21 22 14 23
REMARK SMILES IDX 15 24 20 25 22 26 16 27 19 28 17 29 18 30
REMARK H PARENT 18 31
REMARK Flexibility Score: inf
ROOT
ATOM      1  C   UNL     1     176.092 171.787 180.762  1.00  0.00     0.012 C 
ATOM      2  C   UNL     1     175.928 172.722 179.545  1.00  0.00     0.012 C 
ENDROOT
BRANCH   1   3
ATOM      3  C   UNL     1     177.220 172.329 181.624  1.00  0.00    -0.028 C 
ATOM      4  C   UNL     1     177.299 173.585 182.111  1.00  0.00    -0.027 C 
BRANCH   4   5
ATOM      5  C   UNL     1     176.261 174.685 181.912  1.00  0.00     0.014 C 
BRANCH   5   6
ATOM      6  C   UNL     1     175.275 174.658 183.108  1.00  0.00     0.004 C 
ATOM      7  C   UNL     1     173.804 174.609 182.689  1.00  0.00     0.004 C 
ENDBRANCH   5   6
BRANCH   5   8
ATOM      8  C   UNL     1     176.935 176.075 181.675  1.00  0.00    -0.011 C 
ATOM      9  C   UNL     1     176.477 177.118 182.707  1.00  0.00     0.008 C 
ATOM     10  C   UNL     1     176.758 176.628 180.247  1.00  0.00     0.008 C 
ENDBRANCH   5   8
ENDBRANCH   4   5
ENDBRANCH   1   3
BRANCH   1  11
ATOM     11  C   UNL     1     176.367 170.315 180.290  1.00  0.00     0.002 C 
ATOM     12  C   UNL     1     175.542 169.960 179.052  1.00  0.00     0.005 C 
ATOM     13  C   UNL     1     176.087 169.154 181.302  1.00  0.00    -0.026 C 
ATOM     14  C   UNL     1     175.360 168.450 179.042  1.00  0.00     0.005 C 
ATOM     15  C   UNL     1     175.887 167.900 180.380  1.00  0.00    -0.001 C 
ATOM     16  C   UNL     1     177.287 168.977 182.297  1.00  0.00     0.007 C 
ATOM     17  C   UNL     1     174.781 169.396 182.102  1.00  0.00     0.012 C 
ATOM     18  C   UNL     1     177.204 167.076 180.294  1.00  0.00     0.000 C 
ATOM     19  C   UNL     1     177.407 167.544 182.827  1.00  0.00     0.005 C 
ATOM     20  C   UNL     1     177.545 166.471 181.691  1.00  0.00     0.003 C 
ATOM     21  C   UNL     1     177.314 165.996 179.215  1.00  0.00     0.031 C 
ATOM     22  C   UNL     1     176.856 165.052 182.011  1.00  0.00    -0.008 C 
ATOM     23  C   UNL     1     176.486 164.801 179.513  1.00  0.00    -0.027 C 
ATOM     24  C   UNL     1     176.399 164.289 180.750  1.00  0.00    -0.065 C 
ATOM     25  C   UNL     1     177.914 164.146 182.719  1.00  0.00     0.014 C 
ATOM     26  C   UNL     1     175.616 165.192 182.948  1.00  0.00     0.016 C 
ATOM     27  C   UNL     1     175.927 162.853 180.904  1.00  0.00     0.063 C 
ATOM     28  C   UNL     1     177.444 162.692 182.937  1.00  0.00     0.033 C 
ATOM     29  C   UNL     1     177.006 162.022 181.621  1.00  0.00     0.118 C 
BRANCH  29  30
ATOM     30  O   UNL     1     178.124 161.855 180.778  1.00  0.00    -0.393 OA
ATOM     31  H   UNL     1     178.896 162.284 181.235  1.00  0.00     0.210 HD
ENDBRANCH  29  30
ENDBRANCH   1  11
TORSDOF 6
ENDMDL
MODEL 7
REMARK VINA RESULT:    -5.902      4.336      6.304
REMARK INTER + INTRA:          -9.814
REMARK INTER:                  -8.065
REMARK INTRA:                  -1.749
REMARK UNBOUND:                -2.014
REMARK SMILES CC[C@H](C=C[C@@H](C)[C@@H]1CC[C@H]2[C@@H]3CC=C4C[C@@H](O)CC[C@@]4(C)[C@@H]3CC[C@]21C)C(C)C
REMARK SMILES IDX 6 1 7 2 5 3 4 4 3 5 2 6 1 7 28 8 29 9 30 10 8 11 9 12 26 13
REMARK SMILES IDX 10 14 11 15 25 16 27 17 12 18 24 19 23 20 13 21 21 22 14 23
REMARK SMILES IDX 15 24 20 25 22 26 16 27 19 28 17 29 18 30
REMARK H PARENT 18 31
REMARK Flexibility Score: inf
ROOT
ATOM      1  C   UNL     1     172.611 175.456 180.297  1.00  0.00     0.012 C 
ATOM      2  C   UNL     1     171.869 174.461 181.215  1.00  0.00     0.012 C 
ENDROOT
BRANCH   1   3
ATOM      3  C   UNL     1     172.959 176.686 181.119  1.00  0.00    -0.028 C 
ATOM      4  C   UNL     1     174.208 177.139 181.358  1.00  0.00    -0.027 C 
BRANCH   4   5
ATOM      5  C   UNL     1     175.497 176.522 180.827  1.00  0.00     0.014 C 
BRANCH   5   6
ATOM      6  C   UNL     1     175.974 177.344 179.603  1.00  0.00     0.004 C 
ATOM      7  C   UNL     1     176.632 176.495 178.512  1.00  0.00     0.004 C 
ENDBRANCH   5   6
BRANCH   5   8
ATOM      8  C   UNL     1     176.571 176.378 181.953  1.00  0.00    -0.011 C 
ATOM      9  C   UNL     1     176.031 175.605 183.166  1.00  0.00     0.008 C 
ATOM     10  C   UNL     1     177.191 177.714 182.409  1.00  0.00     0.008 C 
ENDBRANCH   5   8
ENDBRANCH   4   5
ENDBRANCH   1   3
BRANCH   1  11
ATOM     11  C   UNL     1     171.727 175.814 179.050  1.00  0.00     0.002 C 
ATOM     12  C   UNL     1     170.443 174.983 179.015  1.00  0.00     0.005 C 
ATOM     13  C   UNL     1     172.355 175.635 177.627  1.00  0.00    -0.026 C 
ATOM     14  C   UNL     1     169.992 174.898 177.565  1.00  0.00     0.005 C 
ATOM     15  C   UNL     1     171.107 175.493 176.687  1.00  0.00    -0.001 C 
ATOM     16  C   UNL     1     173.250 176.868 177.251  1.00  0.00     0.007 C 
ATOM     17  C   UNL     1     173.198 174.336 177.534  1.00  0.00     0.012 C 
ATOM     18  C   UNL     1     170.778 176.858 176.016  1.00  0.00     0.000 C 
ATOM     19  C   UNL     1     173.335 177.094 175.737  1.00  0.00     0.005 C 
ATOM     20  C   UNL     1     171.935 177.272 175.055  1.00  0.00     0.003 C 
ATOM     21  C   UNL     1     169.429 177.011 175.308  1.00  0.00     0.031 C 
ATOM     22  C   UNL     1     171.828 176.685 173.560  1.00  0.00    -0.008 C 
ATOM     23  C   UNL     1     169.367 176.270 174.024  1.00  0.00    -0.027 C 
ATOM     24  C   UNL     1     170.401 176.246 173.169  1.00  0.00    -0.065 C 
ATOM     25  C   UNL     1     172.235 177.816 172.562  1.00  0.00     0.014 C 
ATOM     26  C   UNL     1     172.771 175.461 173.335  1.00  0.00     0.016 C 
ATOM     27  C   UNL     1     170.130 175.872 171.721  1.00  0.00     0.063 C 
ATOM     28  C   UNL     1     172.019 177.446 171.079  1.00  0.00     0.033 C 
ATOM     29  C   UNL     1     170.567 177.020 170.794  1.00  0.00     0.118 C 
BRANCH  29  30
ATOM     30  O   UNL     1     169.706 178.124 170.958  1.00  0.00    -0.393 OA
ATOM     31  H   UNL     1     169.783 178.675 170.133  1.00  0.00     0.210 HD
ENDBRANCH  29  30
ENDBRANCH   1  11
TORSDOF 6
ENDMDL
MODEL 8
REMARK VINA RESULT:    -5.811      2.399      3.881
REMARK INTER + INTRA:          -9.693
REMARK INTER:                  -7.968
REMARK INTRA:                  -1.725
REMARK UNBOUND:                -2.014
REMARK SMILES CC[C@H](C=C[C@@H](C)[C@@H]1CC[C@H]2[C@@H]3CC=C4C[C@@H](O)CC[C@@]4(C)[C@@H]3CC[C@]21C)C(C)C
REMARK SMILES IDX 6 1 7 2 5 3 4 4 3 5 2 6 1 7 28 8 29 9 30 10 8 11 9 12 26 13
REMARK SMILES IDX 10 14 11 15 25 16 27 17 12 18 24 19 23 20 13 21 21 22 14 23
REMARK SMILES IDX 15 24 20 25 22 26 16 27 19 28 17 29 18 30
REMARK H PARENT 18 31
REMARK Flexibility Score: inf
ROOT
ATOM      1  C   UNL     1     176.008 173.799 181.691  1.00  0.00     0.012 C 
ATOM      2  C   UNL     1     177.254 174.630 182.066  1.00  0.00     0.012 C 
ENDROOT
BRANCH   1   3
ATOM      3  C   UNL     1     176.403 172.833 180.586  1.00  0.00    -0.028 C 
ATOM      4  C   UNL     1     176.421 171.487 180.693  1.00  0.00    -0.027 C 
BRANCH   4   5
ATOM      5  C   UNL     1     176.025 170.686 181.928  1.00  0.00     0.014 C 
BRANCH   5   6
ATOM      6  C   UNL     1     174.561 170.207 181.760  1.00  0.00     0.004 C 
ATOM      7  C   UNL     1     174.165 169.939 180.306  1.00  0.00     0.004 C 
ENDBRANCH   5   6
BRANCH   5   8
ATOM      8  C   UNL     1     177.042 169.533 182.214  1.00  0.00    -0.011 C 
ATOM      9  C   UNL     1     177.553 168.884 180.918  1.00  0.00     0.008 C 
ATOM     10  C   UNL     1     176.515 168.451 183.178  1.00  0.00     0.008 C 
ENDBRANCH   5   8
ENDBRANCH   4   5
ENDBRANCH   1   3
BRANCH   1  11
ATOM     11  C   UNL     1     174.831 174.741 181.256  1.00  0.00     0.002 C 
ATOM     12  C   UNL     1     175.050 176.174 181.744  1.00  0.00     0.005 C 
ATOM     13  C   UNL     1     173.384 174.376 181.729  1.00  0.00    -0.026 C 
ATOM     14  C   UNL     1     173.682 176.830 181.863  1.00  0.00     0.005 C 
ATOM     15  C   UNL     1     172.615 175.742 181.655  1.00  0.00    -0.001 C 
ATOM     16  C   UNL     1     172.750 173.282 180.800  1.00  0.00     0.007 C 
ATOM     17  C   UNL     1     173.371 173.878 183.198  1.00  0.00     0.012 C 
ATOM     18  C   UNL     1     171.810 175.836 180.326  1.00  0.00     0.000 C 
ATOM     19  C   UNL     1     171.220 173.359 180.758  1.00  0.00     0.005 C 
ATOM     20  C   UNL     1     170.680 174.761 180.311  1.00  0.00     0.003 C 
ATOM     21  C   UNL     1     171.241 177.198 179.919  1.00  0.00     0.031 C 
ATOM     22  C   UNL     1     169.297 175.208 181.003  1.00  0.00    -0.008 C 
ATOM     23  C   UNL     1     170.082 177.609 180.750  1.00  0.00    -0.027 C 
ATOM     24  C   UNL     1     169.129 176.738 181.114  1.00  0.00    -0.065 C 
ATOM     25  C   UNL     1     168.119 174.694 180.115  1.00  0.00     0.014 C 
ATOM     26  C   UNL     1     169.133 174.615 182.438  1.00  0.00     0.016 C 
ATOM     27  C   UNL     1     167.782 177.288 181.557  1.00  0.00     0.063 C 
ATOM     28  C   UNL     1     166.731 175.194 180.570  1.00  0.00     0.033 C 
ATOM     29  C   UNL     1     166.668 176.731 180.652  1.00  0.00     0.118 C 
BRANCH  29  30
ATOM     30  O   UNL     1     166.778 177.281 179.359  1.00  0.00    -0.393 OA
ATOM     31  H   UNL     1     167.734 177.523 179.230  1.00  0.00     0.210 HD
ENDBRANCH  29  30
ENDBRANCH   1  11
TORSDOF 6
ENDMDL
MODEL 9
REMARK VINA RESULT:    -5.763      9.553     12.364
REMARK INTER + INTRA:          -9.630
REMARK INTER:                  -7.889
REMARK INTRA:                  -1.741
REMARK UNBOUND:                -2.014
REMARK SMILES CC[C@H](C=C[C@@H](C)[C@@H]1CC[C@H]2[C@@H]3CC=C4C[C@@H](O)CC[C@@]4(C)[C@@H]3CC[C@]21C)C(C)C
REMARK SMILES IDX 6 1 7 2 5 3 4 4 3 5 2 6 1 7 28 8 29 9 30 10 8 11 9 12 26 13
REMARK SMILES IDX 10 14 11 15 25 16 27 17 12 18 24 19 23 20 13 21 21 22 14 23
REMARK SMILES IDX 15 24 20 25 22 26 16 27 19 28 17 29 18 30
REMARK H PARENT 18 31
REMARK Flexibility Score: inf
ROOT
ATOM      1  C   UNL     1     175.975 162.276 181.767  1.00  0.00     0.012 C 
ATOM      2  C   UNL     1     177.137 161.347 182.178  1.00  0.00     0.012 C 
ENDROOT
BRANCH   1   3
ATOM      3  C   UNL     1     175.207 161.601 180.643  1.00  0.00    -0.028 C 
ATOM      4  C   UNL     1     173.934 161.162 180.719  1.00  0.00    -0.027 C 
BRANCH   4   5
ATOM      5  C   UNL     1     173.020 161.283 181.934  1.00  0.00     0.014 C 
BRANCH   5   6
ATOM      6  C   UNL     1     172.145 162.551 181.772  1.00  0.00     0.004 C 
ATOM      7  C   UNL     1     171.729 162.830 180.325  1.00  0.00     0.004 C 
ENDBRANCH   5   6
BRANCH   5   8
ATOM      8  C   UNL     1     172.202 159.972 182.170  1.00  0.00    -0.011 C 
ATOM      9  C   UNL     1     171.834 159.280 180.848  1.00  0.00     0.008 C 
ATOM     10  C   UNL     1     170.942 160.161 183.038  1.00  0.00     0.008 C 
ENDBRANCH   5   8
ENDBRANCH   4   5
ENDBRANCH   1   3
BRANCH   1  11
ATOM     11  C   UNL     1     176.524 163.684 181.342  1.00  0.00     0.002 C 
ATOM     12  C   UNL     1     177.924 163.934 181.906  1.00  0.00     0.005 C 
ATOM     13  C   UNL     1     175.698 164.950 181.753  1.00  0.00    -0.026 C 
ATOM     14  C   UNL     1     178.111 165.440 182.015  1.00  0.00     0.005 C 
ATOM     15  C   UNL     1     176.756 166.108 181.721  1.00  0.00    -0.001 C 
ATOM     16  C   UNL     1     174.515 165.194 180.752  1.00  0.00     0.007 C 
ATOM     17  C   UNL     1     175.140 164.825 183.195  1.00  0.00     0.012 C 
ATOM     18  C   UNL     1     176.668 166.883 180.375  1.00  0.00     0.000 C 
ATOM     19  C   UNL     1     174.110 166.670 180.667  1.00  0.00     0.005 C 
ATOM     20  C   UNL     1     175.295 167.618 180.272  1.00  0.00     0.003 C 
ATOM     21  C   UNL     1     177.804 167.846 180.017  1.00  0.00     0.031 C 
ATOM     22  C   UNL     1     175.248 169.080 180.943  1.00  0.00    -0.008 C 
ATOM     23  C   UNL     1     177.783 169.087 180.831  1.00  0.00    -0.027 C 
ATOM     24  C   UNL     1     176.639 169.723 181.123  1.00  0.00    -0.065 C 
ATOM     25  C   UNL     1     174.441 170.024 179.995  1.00  0.00     0.014 C 
ATOM     26  C   UNL     1     174.553 169.069 182.341  1.00  0.00     0.016 C 
ATOM     27  C   UNL     1     176.714 171.180 181.550  1.00  0.00     0.063 C 
ATOM     28  C   UNL     1     174.455 171.506 180.431  1.00  0.00     0.033 C 
ATOM     29  C   UNL     1     175.887 172.050 180.586  1.00  0.00     0.118 C 
BRANCH  29  30
ATOM     30  O   UNL     1     176.516 172.100 179.325  1.00  0.00    -0.393 OA
ATOM     31  H   UNL     1     177.028 171.254 179.225  1.00  0.00     0.210 HD
ENDBRANCH  29  30
ENDBRANCH   1  11
TORSDOF 6
ENDMDL
