MODEL 1
REMARK VINA RESULT:    -7.224      0.000      0.000
REMARK INTER + INTRA:          -8.793
REMARK INTER:                  -8.491
REMARK INTRA:                  -0.302
REMARK UNBOUND:                -0.302
REMARK SMILES O=c1cc(-c2ccc(O)c(O)c2)oc2cc(O)cc(O)c12
REMARK SMILES IDX 4 1 3 2 2 3 1 4 21 5 19 6 18 7 16 8 15 9 14 10 13 11 5 12
REMARK SMILES IDX 6 13 7 14 8 15 12 16 10 17 9 18 11 20 20 22 17 24
REMARK H PARENT 9 19 11 21 20 23 17 25
REMARK Flexibility Score: inf
ROOT
ATOM      1  C   UNL     1      47.876  44.131  77.987  1.00  0.00     0.138 A 
ATOM      2  C   UNL     1      47.556  43.824  76.657  1.00  0.00     0.100 A 
ATOM      3  C   UNL     1      48.560  43.822  75.688  1.00  0.00     0.197 A 
ATOM      4  O   UNL     1      48.232  43.604  74.493  1.00  0.00    -0.289 OA
ATOM      5  C   UNL     1      49.897  44.098  76.061  1.00  0.00     0.107 A 
ATOM      6  C   UNL     1      51.010  44.084  75.168  1.00  0.00     0.134 A 
ATOM      7  C   UNL     1      52.270  44.488  75.627  1.00  0.00     0.093 A 
ATOM      8  C   UNL     1      52.470  44.847  76.960  1.00  0.00     0.123 A 
ATOM      9  C   UNL     1      51.400  44.812  77.855  1.00  0.00     0.094 A 
ATOM     10  C   UNL     1      50.124  44.447  77.420  1.00  0.00     0.146 A 
ATOM     11  O   UNL     1      49.129  44.440  78.300  1.00  0.00    -0.456 OA
ENDROOT
BRANCH   1  12
ATOM     12  C   UNL     1      46.846  44.147  79.057  1.00  0.00     0.021 A 
ATOM     13  C   UNL     1      45.519  44.534  78.800  1.00  0.00     0.016 A 
ATOM     14  C   UNL     1      44.570  44.529  79.824  1.00  0.00     0.051 A 
ATOM     15  C   UNL     1      44.917  44.133  81.119  1.00  0.00     0.157 A 
ATOM     16  C   UNL     1      47.191  43.737  80.356  1.00  0.00     0.062 A 
ATOM     17  C   UNL     1      46.245  43.730  81.389  1.00  0.00     0.158 A 
BRANCH  15  18
ATOM     18  O   UNL     1      43.920  44.155  82.098  1.00  0.00    -0.504 OA
ATOM     19  H   UNL     1      43.931  44.766  82.902  1.00  0.00     0.293 HD
ENDBRANCH  15  18
BRANCH  17  20
ATOM     20  O   UNL     1      46.667  43.317  82.655  1.00  0.00    -0.504 OA
ATOM     21  H   UNL     1      47.629  43.126  82.894  1.00  0.00     0.293 HD
ENDBRANCH  17  20
ENDBRANCH   1  12
BRANCH   6  22
ATOM     22  O   UNL     1      50.938  43.662  73.836  1.00  0.00    -0.507 OA
ATOM     23  H   UNL     1      51.688  43.739  73.166  1.00  0.00     0.293 HD
ENDBRANCH   6  22
BRANCH   8  24
ATOM     24  O   UNL     1      53.740  45.228  77.385  1.00  0.00    -0.508 OA
ATOM     25  H   UNL     1      54.415  45.630  76.746  1.00  0.00     0.293 HD
ENDBRANCH   8  24
TORSDOF 5
ENDMDL
MODEL 2
REMARK VINA RESULT:    -7.000     16.638     18.721
REMARK INTER + INTRA:          -8.530
REMARK INTER:                  -8.238
REMARK INTRA:                  -0.291
REMARK UNBOUND:                -0.302
REMARK SMILES O=c1cc(-c2ccc(O)c(O)c2)oc2cc(O)cc(O)c12
REMARK SMILES IDX 4 1 3 2 2 3 1 4 21 5 19 6 18 7 16 8 15 9 14 10 13 11 5 12
REMARK SMILES IDX 6 13 7 14 8 15 12 16 10 17 9 18 11 20 20 22 17 24
REMARK H PARENT 9 19 11 21 20 23 17 25
REMARK Flexibility Score: inf
ROOT
ATOM      1  C   UNL     1      44.955  31.187  65.103  1.00  0.00     0.138 A 
ATOM      2  C   UNL     1      45.593  30.058  65.635  1.00  0.00     0.100 A 
ATOM      3  C   UNL     1      46.911  30.157  66.083  1.00  0.00     0.197 A 
ATOM      4  O   UNL     1      47.478  29.113  66.498  1.00  0.00    -0.289 OA
ATOM      5  C   UNL     1      47.581  31.402  66.028  1.00  0.00     0.107 A 
ATOM      6  C   UNL     1      48.910  31.633  66.493  1.00  0.00     0.134 A 
ATOM      7  C   UNL     1      49.511  32.879  66.279  1.00  0.00     0.093 A 
ATOM      8  C   UNL     1      48.811  33.922  65.672  1.00  0.00     0.123 A 
ATOM      9  C   UNL     1      47.492  33.724  65.261  1.00  0.00     0.094 A 
ATOM     10  C   UNL     1      46.877  32.482  65.429  1.00  0.00     0.146 A 
ATOM     11  O   UNL     1      45.624  32.330  65.011  1.00  0.00    -0.456 OA
ENDROOT
BRANCH   1  12
ATOM     12  C   UNL     1      43.554  31.137  64.612  1.00  0.00     0.021 A 
ATOM     13  C   UNL     1      43.047  32.105  63.727  1.00  0.00     0.016 A 
ATOM     14  C   UNL     1      41.728  32.027  63.274  1.00  0.00     0.051 A 
ATOM     15  C   UNL     1      40.891  30.984  63.685  1.00  0.00     0.157 A 
ATOM     16  C   UNL     1      42.717  30.083  65.013  1.00  0.00     0.062 A 
ATOM     17  C   UNL     1      41.393  29.998  64.564  1.00  0.00     0.158 A 
BRANCH  15  18
ATOM     18  O   UNL     1      39.583  30.967  63.196  1.00  0.00    -0.504 OA
ATOM     19  H   UNL     1      38.830  31.520  63.581  1.00  0.00     0.293 HD
ENDBRANCH  15  18
BRANCH  17  20
ATOM     20  O   UNL     1      40.620  28.924  65.014  1.00  0.00    -0.504 OA
ATOM     21  H   UNL     1      39.657  28.773  64.750  1.00  0.00     0.293 HD
ENDBRANCH  17  20
ENDBRANCH   1  12
BRANCH   6  22
ATOM     22  O   UNL     1      49.669  30.686  67.189  1.00  0.00    -0.507 OA
ATOM     23  H   UNL     1      49.319  29.802  67.526  1.00  0.00     0.293 HD
ENDBRANCH   6  22
BRANCH   8  24
ATOM     24  O   UNL     1      49.435  35.154  65.489  1.00  0.00    -0.508 OA
ATOM     25  H   UNL     1      50.350  35.226  65.060  1.00  0.00     0.293 HD
ENDBRANCH   8  24
TORSDOF 5
ENDMDL
MODEL 3
REMARK VINA RESULT:    -6.786     14.903     17.849
REMARK INTER + INTRA:          -8.278
REMARK INTER:                  -8.011
REMARK INTRA:                  -0.267
REMARK UNBOUND:                -0.302
REMARK SMILES O=c1cc(-c2ccc(O)c(O)c2)oc2cc(O)cc(O)c12
REMARK SMILES IDX 4 1 3 2 2 3 1 4 21 5 19 6 18 7 16 8 15 9 14 10 13 11 5 12
REMARK SMILES IDX 6 13 7 14 8 15 12 16 10 17 9 18 11 20 20 22 17 24
REMARK H PARENT 9 19 11 21 20 23 17 25
REMARK Flexibility Score: inf
ROOT
ATOM      1  C   UNL     1      49.664  33.732  65.211  1.00  0.00     0.138 A 
ATOM      2  C   UNL     1      50.371  32.748  65.917  1.00  0.00     0.100 A 
ATOM      3  C   UNL     1      49.718  31.579  66.313  1.00  0.00     0.197 A 
ATOM      4  O   UNL     1      50.361  30.743  66.999  1.00  0.00    -0.289 OA
ATOM      5  C   UNL     1      48.359  31.383  65.971  1.00  0.00     0.107 A 
ATOM      6  C   UNL     1      47.602  30.215  66.285  1.00  0.00     0.134 A 
ATOM      7  C   UNL     1      46.232  30.181  65.998  1.00  0.00     0.093 A 
ATOM      8  C   UNL     1      45.604  31.248  65.354  1.00  0.00     0.123 A 
ATOM      9  C   UNL     1      46.346  32.374  64.994  1.00  0.00     0.094 A 
ATOM     10  C   UNL     1      47.707  32.451  65.298  1.00  0.00     0.146 A 
ATOM     11  O   UNL     1      48.375  33.547  64.951  1.00  0.00    -0.456 OA
ENDROOT
BRANCH   1  12
ATOM     12  C   UNL     1      50.310  34.992  64.766  1.00  0.00     0.021 A 
ATOM     13  C   UNL     1      51.127  35.040  63.621  1.00  0.00     0.016 A 
ATOM     14  C   UNL     1      51.713  36.242  63.220  1.00  0.00     0.051 A 
ATOM     15  C   UNL     1      51.494  37.420  63.942  1.00  0.00     0.157 A 
ATOM     16  C   UNL     1      50.081  36.179  65.481  1.00  0.00     0.062 A 
ATOM     17  C   UNL     1      50.666  37.389  65.087  1.00  0.00     0.158 A 
BRANCH  15  18
ATOM     18  O   UNL     1      52.113  38.587  63.488  1.00  0.00    -0.504 OA
ATOM     19  H   UNL     1      52.169  39.441  64.023  1.00  0.00     0.293 HD
ENDBRANCH  15  18
BRANCH  17  20
ATOM     20  O   UNL     1      50.397  38.524  65.855  1.00  0.00    -0.504 OA
ATOM     21  H   UNL     1      49.476  38.924  65.967  1.00  0.00     0.293 HD
ENDBRANCH  17  20
ENDBRANCH   1  12
BRANCH   6  22
ATOM     22  O   UNL     1      48.148  29.059  66.852  1.00  0.00    -0.507 OA
ATOM     23  H   UNL     1      48.258  28.178  66.372  1.00  0.00     0.293 HD
ENDBRANCH   6  22
BRANCH   8  24
ATOM     24  O   UNL     1      44.242  31.174  65.070  1.00  0.00    -0.508 OA
ATOM     25  H   UNL     1      43.625  31.963  65.221  1.00  0.00     0.293 HD
ENDBRANCH   8  24
TORSDOF 5
ENDMDL
MODEL 4
REMARK VINA RESULT:    -6.544      1.154      2.668
REMARK INTER + INTRA:          -7.994
REMARK INTER:                  -7.708
REMARK INTRA:                  -0.286
REMARK UNBOUND:                -0.302
REMARK SMILES O=c1cc(-c2ccc(O)c(O)c2)oc2cc(O)cc(O)c12
REMARK SMILES IDX 4 1 3 2 2 3 1 4 21 5 19 6 18 7 16 8 15 9 14 10 13 11 5 12
REMARK SMILES IDX 6 13 7 14 8 15 12 16 10 17 9 18 11 20 20 22 17 24
REMARK H PARENT 9 19 11 21 20 23 17 25
REMARK Flexibility Score: inf
ROOT
ATOM      1  C   UNL     1      48.310  44.401  78.322  1.00  0.00     0.138 A 
ATOM      2  C   UNL     1      49.612  44.649  78.778  1.00  0.00     0.100 A 
ATOM      3  C   UNL     1      50.660  44.735  77.861  1.00  0.00     0.197 A 
ATOM      4  O   UNL     1      51.826  44.896  78.304  1.00  0.00    -0.289 OA
ATOM      5  C   UNL     1      50.395  44.605  76.476  1.00  0.00     0.107 A 
ATOM      6  C   UNL     1      51.376  44.716  75.447  1.00  0.00     0.134 A 
ATOM      7  C   UNL     1      51.018  44.452  74.119  1.00  0.00     0.093 A 
ATOM      8  C   UNL     1      49.702  44.141  73.777  1.00  0.00     0.123 A 
ATOM      9  C   UNL     1      48.723  44.083  74.768  1.00  0.00     0.094 A 
ATOM     10  C   UNL     1      49.056  44.307  76.106  1.00  0.00     0.146 A 
ATOM     11  O   UNL     1      48.097  44.228  77.023  1.00  0.00    -0.456 OA
ENDROOT
BRANCH   1  12
ATOM     12  C   UNL     1      47.159  44.300  79.255  1.00  0.00     0.021 A 
ATOM     13  C   UNL     1      45.848  44.606  78.847  1.00  0.00     0.016 A 
ATOM     14  C   UNL     1      44.783  44.493  79.743  1.00  0.00     0.051 A 
ATOM     15  C   UNL     1      44.998  44.067  81.058  1.00  0.00     0.157 A 
ATOM     16  C   UNL     1      47.370  43.860  80.572  1.00  0.00     0.062 A 
ATOM     17  C   UNL     1      46.308  43.744  81.478  1.00  0.00     0.158 A 
BRANCH  15  18
ATOM     18  O   UNL     1      43.889  43.978  81.904  1.00  0.00    -0.504 OA
ATOM     19  H   UNL     1      43.804  43.306  82.653  1.00  0.00     0.293 HD
ENDBRANCH  15  18
BRANCH  17  20
ATOM     20  O   UNL     1      46.601  43.308  82.772  1.00  0.00    -0.504 OA
ATOM     21  H   UNL     1      45.917  43.244  83.514  1.00  0.00     0.293 HD
ENDBRANCH  17  20
ENDBRANCH   1  12
BRANCH   6  22
ATOM     22  O   UNL     1      52.702  45.103  75.669  1.00  0.00    -0.507 OA
ATOM     23  H   UNL     1      52.995  46.036  75.917  1.00  0.00     0.293 HD
ENDBRANCH   6  22
BRANCH   8  24
ATOM     24  O   UNL     1      49.378  43.900  72.443  1.00  0.00    -0.508 OA
ATOM     25  H   UNL     1      48.417  43.789  72.143  1.00  0.00     0.293 HD
ENDBRANCH   8  24
TORSDOF 5
ENDMDL
MODEL 5
REMARK VINA RESULT:    -6.515     14.142     17.186
REMARK INTER + INTRA:          -7.960
REMARK INTER:                  -7.645
REMARK INTRA:                  -0.315
REMARK UNBOUND:                -0.302
REMARK SMILES O=c1cc(-c2ccc(O)c(O)c2)oc2cc(O)cc(O)c12
REMARK SMILES IDX 4 1 3 2 2 3 1 4 21 5 19 6 18 7 16 8 15 9 14 10 13 11 5 12
REMARK SMILES IDX 6 13 7 14 8 15 12 16 10 17 9 18 11 20 20 22 17 24
REMARK H PARENT 9 19 11 21 20 23 17 25
REMARK Flexibility Score: inf
ROOT
ATOM      1  C   UNL     1      50.386  35.036  64.634  1.00  0.00     0.138 A 
ATOM      2  C   UNL     1      50.701  34.058  63.680  1.00  0.00     0.100 A 
ATOM      3  C   UNL     1      50.036  32.831  63.705  1.00  0.00     0.197 A 
ATOM      4  O   UNL     1      50.384  31.951  62.876  1.00  0.00    -0.289 OA
ATOM      5  C   UNL     1      49.029  32.596  64.671  1.00  0.00     0.107 A 
ATOM      6  C   UNL     1      48.256  31.400  64.766  1.00  0.00     0.134 A 
ATOM      7  C   UNL     1      47.368  31.235  65.836  1.00  0.00     0.093 A 
ATOM      8  C   UNL     1      47.179  32.246  66.779  1.00  0.00     0.123 A 
ATOM      9  C   UNL     1      47.889  33.441  66.665  1.00  0.00     0.094 A 
ATOM     10  C   UNL     1      48.808  33.623  65.628  1.00  0.00     0.146 A 
ATOM     11  O   UNL     1      49.475  34.770  65.563  1.00  0.00    -0.456 OA
ENDROOT
BRANCH   1  12
ATOM     12  C   UNL     1      51.061  36.359  64.652  1.00  0.00     0.021 A 
ATOM     13  C   UNL     1      52.220  36.607  63.895  1.00  0.00     0.016 A 
ATOM     14  C   UNL     1      52.828  37.864  63.924  1.00  0.00     0.051 A 
ATOM     15  C   UNL     1      52.295  38.898  64.699  1.00  0.00     0.157 A 
ATOM     16  C   UNL     1      50.520  37.403  65.420  1.00  0.00     0.062 A 
ATOM     17  C   UNL     1      51.124  38.666  65.456  1.00  0.00     0.158 A 
BRANCH  15  18
ATOM     18  O   UNL     1      52.955  40.130  64.685  1.00  0.00    -0.504 OA
ATOM     19  H   UNL     1      52.529  41.001  64.968  1.00  0.00     0.293 HD
ENDBRANCH  15  18
BRANCH  17  20
ATOM     20  O   UNL     1      50.530  39.650  66.249  1.00  0.00    -0.504 OA
ATOM     21  H   UNL     1      49.554  39.652  66.508  1.00  0.00     0.293 HD
ENDBRANCH  17  20
ENDBRANCH   1  12
BRANCH   6  22
ATOM     22  O   UNL     1      48.305  30.362  63.830  1.00  0.00    -0.507 OA
ATOM     23  H   UNL     1      47.498  29.911  63.427  1.00  0.00     0.293 HD
ENDBRANCH   6  22
BRANCH   8  24
ATOM     24  O   UNL     1      46.275  32.053  67.821  1.00  0.00    -0.508 OA
ATOM     25  H   UNL     1      46.574  32.054  68.789  1.00  0.00     0.293 HD
ENDBRANCH   8  24
TORSDOF 5
ENDMDL
MODEL 6
REMARK VINA RESULT:    -6.405     16.279     18.354
REMARK INTER + INTRA:          -7.831
REMARK INTER:                  -7.567
REMARK INTRA:                  -0.263
REMARK UNBOUND:                -0.302
REMARK SMILES O=c1cc(-c2ccc(O)c(O)c2)oc2cc(O)cc(O)c12
REMARK SMILES IDX 4 1 3 2 2 3 1 4 21 5 19 6 18 7 16 8 15 9 14 10 13 11 5 12
REMARK SMILES IDX 6 13 7 14 8 15 12 16 10 17 9 18 11 20 20 22 17 24
REMARK H PARENT 9 19 11 21 20 23 17 25
REMARK Flexibility Score: inf
ROOT
ATOM      1  C   UNL     1      45.952  31.366  64.863  1.00  0.00     0.138 A 
ATOM      2  C   UNL     1      46.779  30.738  63.921  1.00  0.00     0.100 A 
ATOM      3  C   UNL     1      48.100  31.163  63.770  1.00  0.00     0.197 A 
ATOM      4  O   UNL     1      48.799  30.622  62.875  1.00  0.00    -0.289 OA
ATOM      5  C   UNL     1      48.603  32.202  64.590  1.00  0.00     0.107 A 
ATOM      6  C   UNL     1      49.943  32.690  64.554  1.00  0.00     0.134 A 
ATOM      7  C   UNL     1      50.295  33.800  65.331  1.00  0.00     0.093 A 
ATOM      8  C   UNL     1      49.373  34.403  66.186  1.00  0.00     0.123 A 
ATOM      9  C   UNL     1      48.074  33.900  66.270  1.00  0.00     0.094 A 
ATOM     10  C   UNL     1      47.682  32.815  65.483  1.00  0.00     0.146 A 
ATOM     11  O   UNL     1      46.432  32.375  65.581  1.00  0.00    -0.456 OA
ENDROOT
BRANCH   1  12
ATOM     12  C   UNL     1      44.540  30.953  65.065  1.00  0.00     0.021 A 
ATOM     13  C   UNL     1      44.181  29.997  66.032  1.00  0.00     0.016 A 
ATOM     14  C   UNL     1      42.844  29.635  66.206  1.00  0.00     0.051 A 
ATOM     15  C   UNL     1      41.838  30.220  65.431  1.00  0.00     0.157 A 
ATOM     16  C   UNL     1      43.527  31.549  64.296  1.00  0.00     0.062 A 
ATOM     17  C   UNL     1      42.183  31.191  64.464  1.00  0.00     0.158 A 
BRANCH  15  18
ATOM     18  O   UNL     1      40.521  29.811  65.655  1.00  0.00    -0.504 OA
ATOM     19  H   UNL     1      40.188  28.870  65.500  1.00  0.00     0.293 HD
ENDBRANCH  15  18
BRANCH  17  20
ATOM     20  O   UNL     1      41.235  31.823  63.655  1.00  0.00    -0.504 OA
ATOM     21  H   UNL     1      41.414  32.667  63.131  1.00  0.00     0.293 HD
ENDBRANCH  17  20
ENDBRANCH   1  12
BRANCH   6  22
ATOM     22  O   UNL     1      50.965  32.109  63.797  1.00  0.00    -0.507 OA
ATOM     23  H   UNL     1      51.580  32.613  63.176  1.00  0.00     0.293 HD
ENDBRANCH   6  22
BRANCH   8  24
ATOM     24  O   UNL     1      49.762  35.496  66.956  1.00  0.00    -0.508 OA
ATOM     25  H   UNL     1      50.371  35.389  67.759  1.00  0.00     0.293 HD
ENDBRANCH   8  24
TORSDOF 5
ENDMDL
MODEL 7
REMARK VINA RESULT:    -6.278      2.125      3.785
REMARK INTER + INTRA:          -7.681
REMARK INTER:                  -7.388
REMARK INTRA:                  -0.292
REMARK UNBOUND:                -0.302
REMARK SMILES O=c1cc(-c2ccc(O)c(O)c2)oc2cc(O)cc(O)c12
REMARK SMILES IDX 4 1 3 2 2 3 1 4 21 5 19 6 18 7 16 8 15 9 14 10 13 11 5 12
REMARK SMILES IDX 6 13 7 14 8 15 12 16 10 17 9 18 11 20 20 22 17 24
REMARK H PARENT 9 19 11 21 20 23 17 25
REMARK Flexibility Score: inf
ROOT
ATOM      1  C   UNL     1      50.208  45.040  77.206  1.00  0.00     0.138 A 
ATOM      2  C   UNL     1      50.728  46.312  77.482  1.00  0.00     0.100 A 
ATOM      3  C   UNL     1      51.847  46.767  76.782  1.00  0.00     0.197 A 
ATOM      4  O   UNL     1      52.328  47.886  77.095  1.00  0.00    -0.289 OA
ATOM      5  C   UNL     1      52.426  45.954  75.778  1.00  0.00     0.107 A 
ATOM      6  C   UNL     1      53.542  46.329  74.972  1.00  0.00     0.134 A 
ATOM      7  C   UNL     1      54.102  45.397  74.090  1.00  0.00     0.093 A 
ATOM      8  C   UNL     1      53.550  44.124  73.941  1.00  0.00     0.123 A 
ATOM      9  C   UNL     1      52.426  43.765  74.685  1.00  0.00     0.094 A 
ATOM     10  C   UNL     1      51.865  44.661  75.598  1.00  0.00     0.146 A 
ATOM     11  O   UNL     1      50.803  44.275  76.298  1.00  0.00    -0.456 OA
ENDROOT
BRANCH   1  12
ATOM     12  C   UNL     1      49.020  44.507  77.921  1.00  0.00     0.021 A 
ATOM     13  C   UNL     1      48.876  44.636  79.314  1.00  0.00     0.016 A 
ATOM     14  C   UNL     1      47.743  44.135  79.958  1.00  0.00     0.051 A 
ATOM     15  C   UNL     1      46.729  43.503  79.232  1.00  0.00     0.157 A 
ATOM     16  C   UNL     1      47.994  43.884  77.191  1.00  0.00     0.062 A 
ATOM     17  C   UNL     1      46.854  43.377  77.829  1.00  0.00     0.158 A 
BRANCH  15  18
ATOM     18  O   UNL     1      45.624  43.022  79.938  1.00  0.00    -0.504 OA
ATOM     19  H   UNL     1      45.685  42.366  80.703  1.00  0.00     0.293 HD
ENDBRANCH  15  18
BRANCH  17  20
ATOM     20  O   UNL     1      45.882  42.764  77.036  1.00  0.00    -0.504 OA
ATOM     21  H   UNL     1      45.145  42.177  77.400  1.00  0.00     0.293 HD
ENDBRANCH  17  20
ENDBRANCH   1  12
BRANCH   6  22
ATOM     22  O   UNL     1      54.118  47.604  74.980  1.00  0.00    -0.507 OA
ATOM     23  H   UNL     1      54.970  47.854  74.500  1.00  0.00     0.293 HD
ENDBRANCH   6  22
BRANCH   8  24
ATOM     24  O   UNL     1      54.124  43.228  73.043  1.00  0.00    -0.508 OA
ATOM     25  H   UNL     1      53.799  43.155  72.086  1.00  0.00     0.293 HD
ENDBRANCH   8  24
TORSDOF 5
ENDMDL
MODEL 8
REMARK VINA RESULT:    -6.271     17.091     19.146
REMARK INTER + INTRA:          -7.673
REMARK INTER:                  -7.407
REMARK INTRA:                  -0.266
REMARK UNBOUND:                -0.302
REMARK SMILES O=c1cc(-c2ccc(O)c(O)c2)oc2cc(O)cc(O)c12
REMARK SMILES IDX 4 1 3 2 2 3 1 4 21 5 19 6 18 7 16 8 15 9 14 10 13 11 5 12
REMARK SMILES IDX 6 13 7 14 8 15 12 16 10 17 9 18 11 20 20 22 17 24
REMARK H PARENT 9 19 11 21 20 23 17 25
REMARK Flexibility Score: inf
ROOT
ATOM      1  C   UNL     1      45.030  31.020  64.874  1.00  0.00     0.138 A 
ATOM      2  C   UNL     1      45.308  32.393  64.820  1.00  0.00     0.100 A 
ATOM      3  C   UNL     1      46.562  32.859  65.217  1.00  0.00     0.197 A 
ATOM      4  O   UNL     1      46.761  34.101  65.217  1.00  0.00    -0.289 OA
ATOM      5  C   UNL     1      47.553  31.940  65.639  1.00  0.00     0.107 A 
ATOM      6  C   UNL     1      48.879  32.296  66.027  1.00  0.00     0.134 A 
ATOM      7  C   UNL     1      49.736  31.313  66.537  1.00  0.00     0.093 A 
ATOM      8  C   UNL     1      49.336  29.980  66.617  1.00  0.00     0.123 A 
ATOM      9  C   UNL     1      48.060  29.611  66.191  1.00  0.00     0.094 A 
ATOM     10  C   UNL     1      47.170  30.574  65.709  1.00  0.00     0.146 A 
ATOM     11  O   UNL     1      45.958  30.185  65.326  1.00  0.00    -0.456 OA
ENDROOT
BRANCH   1  12
ATOM     12  C   UNL     1      43.712  30.470  64.463  1.00  0.00     0.021 A 
ATOM     13  C   UNL     1      43.551  29.760  63.259  1.00  0.00     0.016 A 
ATOM     14  C   UNL     1      42.303  29.246  62.904  1.00  0.00     0.051 A 
ATOM     15  C   UNL     1      41.194  29.420  63.738  1.00  0.00     0.157 A 
ATOM     16  C   UNL     1      42.600  30.632  65.306  1.00  0.00     0.062 A 
ATOM     17  C   UNL     1      41.344  30.121  64.956  1.00  0.00     0.158 A 
BRANCH  15  18
ATOM     18  O   UNL     1      39.973  28.883  63.321  1.00  0.00    -0.504 OA
ATOM     19  H   UNL     1      39.843  27.918  63.053  1.00  0.00     0.293 HD
ENDBRANCH  15  18
BRANCH  17  20
ATOM     20  O   UNL     1      40.286  30.331  65.843  1.00  0.00    -0.504 OA
ATOM     21  H   UNL     1      40.357  30.214  66.844  1.00  0.00     0.293 HD
ENDBRANCH  17  20
ENDBRANCH   1  12
BRANCH   6  22
ATOM     22  O   UNL     1      49.408  33.585  65.908  1.00  0.00    -0.507 OA
ATOM     23  H   UNL     1      50.222  33.921  66.401  1.00  0.00     0.293 HD
ENDBRANCH   6  22
BRANCH   8  24
ATOM     24  O   UNL     1      50.222  29.026  67.116  1.00  0.00    -0.508 OA
ATOM     25  H   UNL     1      50.417  28.169  66.612  1.00  0.00     0.293 HD
ENDBRANCH   8  24
TORSDOF 5
ENDMDL
MODEL 9
REMARK VINA RESULT:    -6.106     15.471     16.837
REMARK INTER + INTRA:          -7.479
REMARK INTER:                  -7.188
REMARK INTRA:                  -0.291
REMARK UNBOUND:                -0.302
REMARK SMILES O=c1cc(-c2ccc(O)c(O)c2)oc2cc(O)cc(O)c12
REMARK SMILES IDX 4 1 3 2 2 3 1 4 21 5 19 6 18 7 16 8 15 9 14 10 13 11 5 12
REMARK SMILES IDX 6 13 7 14 8 15 12 16 10 17 9 18 11 20 20 22 17 24
REMARK H PARENT 9 19 11 21 20 23 17 25
REMARK Flexibility Score: inf
ROOT
ATOM      1  C   UNL     1      49.717  33.637  65.051  1.00  0.00     0.138 A 
ATOM      2  C   UNL     1      50.868  33.044  64.512  1.00  0.00     0.100 A 
ATOM      3  C   UNL     1      51.906  33.851  64.045  1.00  0.00     0.197 A 
ATOM      4  O   UNL     1      52.898  33.293  63.510  1.00  0.00    -0.289 OA
ATOM      5  C   UNL     1      51.804  35.259  64.149  1.00  0.00     0.107 A 
ATOM      6  C   UNL     1      52.815  36.180  63.746  1.00  0.00     0.134 A 
ATOM      7  C   UNL     1      52.555  37.556  63.789  1.00  0.00     0.093 A 
ATOM      8  C   UNL     1      51.344  38.044  64.277  1.00  0.00     0.123 A 
ATOM      9  C   UNL     1      50.367  37.154  64.725  1.00  0.00     0.094 A 
ATOM     10  C   UNL     1      50.583  35.776  64.663  1.00  0.00     0.146 A 
ATOM     11  O   UNL     1      49.623  34.961  65.086  1.00  0.00    -0.456 OA
ENDROOT
BRANCH   1  12
ATOM     12  C   UNL     1      48.583  32.825  65.562  1.00  0.00     0.021 A 
ATOM     13  C   UNL     1      47.295  33.369  65.714  1.00  0.00     0.016 A 
ATOM     14  C   UNL     1      46.246  32.578  66.187  1.00  0.00     0.051 A 
ATOM     15  C   UNL     1      46.453  31.234  66.512  1.00  0.00     0.157 A 
ATOM     16  C   UNL     1      48.787  31.471  65.876  1.00  0.00     0.062 A 
ATOM     17  C   UNL     1      47.740  30.672  66.353  1.00  0.00     0.158 A 
BRANCH  15  18
ATOM     18  O   UNL     1      45.361  30.501  66.983  1.00  0.00    -0.504 OA
ATOM     19  H   UNL     1      44.445  30.516  66.557  1.00  0.00     0.293 HD
ENDBRANCH  15  18
BRANCH  17  20
ATOM     20  O   UNL     1      48.023  29.337  66.651  1.00  0.00    -0.504 OA
ATOM     21  H   UNL     1      47.410  28.567  66.426  1.00  0.00     0.293 HD
ENDBRANCH  17  20
ENDBRANCH   1  12
BRANCH   6  22
ATOM     22  O   UNL     1      54.093  35.801  63.321  1.00  0.00    -0.507 OA
ATOM     23  H   UNL     1      54.538  34.924  63.546  1.00  0.00     0.293 HD
ENDBRANCH   6  22
BRANCH   8  24
ATOM     24  O   UNL     1      51.125  39.420  64.320  1.00  0.00    -0.508 OA
ATOM     25  H   UNL     1      50.984  39.961  63.475  1.00  0.00     0.293 HD
ENDBRANCH   8  24
TORSDOF 5
ENDMDL
