MODEL 1
REMARK VINA RESULT:    -5.065      0.000      0.000
REMARK INTER + INTRA:         -14.755
REMARK INTER:                 -10.987
REMARK INTRA:                  -3.768
REMARK UNBOUND:                -3.768
REMARK SMILES CCCCCCCCCCCCCCCCCCCCCC(=O)[O-]
REMARK SMILES IDX 12 1 11 2 10 3 9 4 8 5 7 6 6 7 5 8 4 9 3 10 2 11 1 12 13 13
REMARK SMILES IDX 14 14 15 15 16 16 17 17 18 18 19 19 20 20 21 21 22 22 23 23
REMARK SMILES IDX 24 24
REMARK H PARENT
REMARK Flexibility Score: inf
ROOT
ATOM      1  C   UNL     1      24.909  41.981 149.869  1.00  0.00     0.000 C 
ENDROOT
BRANCH   1   2
ATOM      2  C   UNL     1      25.873  41.299 150.852  1.00  0.00     0.000 C 
BRANCH   2   3
ATOM      3  C   UNL     1      25.615  39.785 150.910  1.00  0.00     0.000 C 
BRANCH   3   4
ATOM      4  C   UNL     1      26.876  38.955 150.618  1.00  0.00    -0.000 C 
BRANCH   4   5
ATOM      5  C   UNL     1      27.568  39.374 149.309  1.00  0.00    -0.000 C 
BRANCH   5   6
ATOM      6  C   UNL     1      26.968  38.679 148.076  1.00  0.00    -0.000 C 
BRANCH   6   7
ATOM      7  C   UNL     1      27.889  38.745 146.849  1.00  0.00    -0.000 C 
BRANCH   7   8
ATOM      8  C   UNL     1      28.551  37.382 146.587  1.00  0.00    -0.000 C 
BRANCH   8   9
ATOM      9  C   UNL     1      27.778  36.215 147.220  1.00  0.00    -0.000 C 
BRANCH   9  10
ATOM     10  C   UNL     1      28.677  35.293 148.058  1.00  0.00    -0.000 C 
BRANCH  10  11
ATOM     11  C   UNL     1      27.841  34.422 149.003  1.00  0.00    -0.003 C 
ATOM     12  C   UNL     1      27.221  35.260 150.119  1.00  0.00     0.004 C 
ENDBRANCH  10  11
ENDBRANCH   9  10
ENDBRANCH   8   9
ENDBRANCH   7   8
ENDBRANCH   6   7
ENDBRANCH   5   6
ENDBRANCH   4   5
ENDBRANCH   3   4
ENDBRANCH   2   3
ENDBRANCH   1   2
BRANCH   1  13
ATOM     13  C   UNL     1      25.558  42.278 148.509  1.00  0.00     0.000 C 
BRANCH  13  14
ATOM     14  C   UNL     1      24.840  41.570 147.346  1.00  0.00     0.000 C 
BRANCH  14  15
ATOM     15  C   UNL     1      23.597  40.787 147.803  1.00  0.00     0.000 C 
BRANCH  15  16
ATOM     16  C   UNL     1      23.613  39.285 147.458  1.00  0.00     0.000 C 
BRANCH  16  17
ATOM     17  C   UNL     1      22.911  38.398 148.511  1.00  0.00     0.000 C 
BRANCH  17  18
ATOM     18  C   UNL     1      23.757  37.189 148.951  1.00  0.00     0.000 C 
BRANCH  18  19
ATOM     19  C   UNL     1      24.384  36.453 147.755  1.00  0.00     0.000 C 
BRANCH  19  20
ATOM     20  C   UNL     1      23.537  35.255 147.285  1.00  0.00     0.006 C 
BRANCH  20  21
ATOM     21  C   UNL     1      24.331  33.949 147.118  1.00  0.00     0.053 C 
BRANCH  21  22
ATOM     22  C   UNL     1      24.237  33.078 148.333  1.00  0.00     0.041 C 
ATOM     23  O   UNL     1      24.282  31.825 148.220  1.00  0.00    -0.550 OA
ATOM     24  O   UNL     1      24.073  33.650 149.588  1.00  0.00    -0.550 OA
ENDBRANCH  21  22
ENDBRANCH  20  21
ENDBRANCH  19  20
ENDBRANCH  18  19
ENDBRANCH  17  18
ENDBRANCH  16  17
ENDBRANCH  15  16
ENDBRANCH  14  15
ENDBRANCH  13  14
ENDBRANCH   1  13
TORSDOF 20
ENDMDL
MODEL 2
REMARK VINA RESULT:    -4.971      3.781      6.668
REMARK INTER + INTRA:         -14.550
REMARK INTER:                 -11.011
REMARK INTRA:                  -3.539
REMARK UNBOUND:                -3.768
REMARK SMILES CCCCCCCCCCCCCCCCCCCCCC(=O)[O-]
REMARK SMILES IDX 12 1 11 2 10 3 9 4 8 5 7 6 6 7 5 8 4 9 3 10 2 11 1 12 13 13
REMARK SMILES IDX 14 14 15 15 16 16 17 17 18 18 19 19 20 20 21 21 22 22 23 23
REMARK SMILES IDX 24 24
REMARK H PARENT
REMARK Flexibility Score: inf
ROOT
ATOM      1  C   UNL     1      23.747  36.921 148.847  1.00  0.00     0.000 C 
ENDROOT
BRANCH   1   2
ATOM      2  C   UNL     1      23.621  36.405 147.406  1.00  0.00     0.000 C 
BRANCH   2   3
ATOM      3  C   UNL     1      23.671  34.870 147.368  1.00  0.00     0.000 C 
BRANCH   3   4
ATOM      4  C   UNL     1      24.057  34.253 148.722  1.00  0.00    -0.000 C 
BRANCH   4   5
ATOM      5  C   UNL     1      25.388  33.482 148.661  1.00  0.00    -0.000 C 
BRANCH   5   6
ATOM      6  C   UNL     1      26.562  34.286 149.241  1.00  0.00    -0.000 C 
BRANCH   6   7
ATOM      7  C   UNL     1      27.691  34.507 148.223  1.00  0.00    -0.000 C 
BRANCH   7   8
ATOM      8  C   UNL     1      27.196  35.339 147.029  1.00  0.00    -0.000 C 
BRANCH   8   9
ATOM      9  C   UNL     1      27.916  36.691 146.908  1.00  0.00    -0.000 C 
BRANCH   9  10
ATOM     10  C   UNL     1      27.048  37.869 147.377  1.00  0.00    -0.000 C 
BRANCH  10  11
ATOM     11  C   UNL     1      27.683  38.573 148.583  1.00  0.00    -0.003 C 
ATOM     12  C   UNL     1      27.241  37.927 149.893  1.00  0.00     0.004 C 
ENDBRANCH  10  11
ENDBRANCH   9  10
ENDBRANCH   8   9
ENDBRANCH   7   8
ENDBRANCH   6   7
ENDBRANCH   5   6
ENDBRANCH   4   5
ENDBRANCH   3   4
ENDBRANCH   2   3
ENDBRANCH   1   2
BRANCH   1  13
ATOM     13  C   UNL     1      23.652  38.452 148.941  1.00  0.00     0.000 C 
BRANCH  13  14
ATOM     14  C   UNL     1      23.356  39.108 147.580  1.00  0.00     0.000 C 
BRANCH  14  15
ATOM     15  C   UNL     1      23.697  40.609 147.557  1.00  0.00     0.000 C 
BRANCH  15  16
ATOM     16  C   UNL     1      25.157  40.936 147.190  1.00  0.00     0.000 C 
BRANCH  16  17
ATOM     17  C   UNL     1      25.803  42.003 148.102  1.00  0.00     0.000 C 
BRANCH  17  18
ATOM     18  C   UNL     1      25.810  41.610 149.591  1.00  0.00     0.000 C 
BRANCH  18  19
ATOM     19  C   UNL     1      25.305  42.748 150.494  1.00  0.00     0.000 C 
BRANCH  19  20
ATOM     20  C   UNL     1      23.838  43.122 150.213  1.00  0.00     0.006 C 
BRANCH  20  21
ATOM     21  C   UNL     1      23.552  44.632 150.257  1.00  0.00     0.053 C 
BRANCH  21  22
ATOM     22  C   UNL     1      23.493  45.231 148.885  1.00  0.00     0.041 C 
ATOM     23  O   UNL     1      22.406  45.680 148.436  1.00  0.00    -0.550 OA
ATOM     24  O   UNL     1      24.633  45.268 148.093  1.00  0.00    -0.550 OA
ENDBRANCH  21  22
ENDBRANCH  20  21
ENDBRANCH  19  20
ENDBRANCH  18  19
ENDBRANCH  17  18
ENDBRANCH  16  17
ENDBRANCH  15  16
ENDBRANCH  14  15
ENDBRANCH  13  14
ENDBRANCH   1  13
TORSDOF 20
ENDMDL
MODEL 3
REMARK VINA RESULT:    -4.945      2.560      4.934
REMARK INTER + INTRA:         -14.495
REMARK INTER:                 -11.107
REMARK INTRA:                  -3.388
REMARK UNBOUND:                -3.768
REMARK SMILES CCCCCCCCCCCCCCCCCCCCCC(=O)[O-]
REMARK SMILES IDX 12 1 11 2 10 3 9 4 8 5 7 6 6 7 5 8 4 9 3 10 2 11 1 12 13 13
REMARK SMILES IDX 14 14 15 15 16 16 17 17 18 18 19 19 20 20 21 21 22 22 23 23
REMARK SMILES IDX 24 24
REMARK H PARENT
REMARK Flexibility Score: inf
ROOT
ATOM      1  C   UNL     1      24.444  40.538 147.376  1.00  0.00     0.000 C 
ENDROOT
BRANCH   1   2
ATOM      2  C   UNL     1      23.326  39.538 147.707  1.00  0.00     0.000 C 
BRANCH   2   3
ATOM      3  C   UNL     1      23.676  38.720 148.959  1.00  0.00     0.000 C 
BRANCH   3   4
ATOM      4  C   UNL     1      23.396  37.218 148.788  1.00  0.00    -0.000 C 
BRANCH   4   5
ATOM      5  C   UNL     1      24.013  36.646 147.499  1.00  0.00    -0.000 C 
BRANCH   5   6
ATOM      6  C   UNL     1      23.249  35.420 146.973  1.00  0.00    -0.000 C 
BRANCH   6   7
ATOM      7  C   UNL     1      24.136  34.172 146.855  1.00  0.00    -0.000 C 
BRANCH   7   8
ATOM      8  C   UNL     1      23.853  33.190 148.003  1.00  0.00    -0.000 C 
BRANCH   8   9
ATOM      9  C   UNL     1      25.067  32.985 148.922  1.00  0.00    -0.000 C 
BRANCH   9  10
ATOM     10  C   UNL     1      25.327  34.191 149.838  1.00  0.00    -0.000 C 
BRANCH  10  11
ATOM     11  C   UNL     1      26.639  34.891 149.465  1.00  0.00    -0.003 C 
ATOM     12  C   UNL     1      27.588  34.955 150.659  1.00  0.00     0.004 C 
ENDBRANCH  10  11
ENDBRANCH   9  10
ENDBRANCH   8   9
ENDBRANCH   7   8
ENDBRANCH   6   7
ENDBRANCH   5   6
ENDBRANCH   4   5
ENDBRANCH   3   4
ENDBRANCH   2   3
ENDBRANCH   1   2
BRANCH   1  13
ATOM     13  C   UNL     1      24.086  41.981 147.765  1.00  0.00     0.000 C 
BRANCH  13  14
ATOM     14  C   UNL     1      24.374  42.280 149.247  1.00  0.00     0.000 C 
BRANCH  14  15
ATOM     15  C   UNL     1      25.781  41.836 149.681  1.00  0.00     0.000 C 
BRANCH  15  16
ATOM     16  C   UNL     1      25.825  40.975 150.958  1.00  0.00     0.000 C 
BRANCH  16  17
ATOM     17  C   UNL     1      26.785  39.768 150.863  1.00  0.00     0.000 C 
BRANCH  17  18
ATOM     18  C   UNL     1      27.500  39.664 149.503  1.00  0.00     0.000 C 
BRANCH  18  19
ATOM     19  C   UNL     1      27.481  38.230 148.947  1.00  0.00     0.000 C 
BRANCH  19  20
ATOM     20  C   UNL     1      27.177  38.183 147.438  1.00  0.00     0.006 C 
BRANCH  20  21
ATOM     21  C   UNL     1      27.903  39.259 146.614  1.00  0.00     0.053 C 
BRANCH  21  22
ATOM     22  C   UNL     1      28.828  38.657 145.601  1.00  0.00     0.041 C 
ATOM     23  O   UNL     1      28.995  39.216 144.485  1.00  0.00    -0.550 OA
ATOM     24  O   UNL     1      29.484  37.465 145.879  1.00  0.00    -0.550 OA
ENDBRANCH  21  22
ENDBRANCH  20  21
ENDBRANCH  19  20
ENDBRANCH  18  19
ENDBRANCH  17  18
ENDBRANCH  16  17
ENDBRANCH  15  16
ENDBRANCH  14  15
ENDBRANCH  13  14
ENDBRANCH   1  13
TORSDOF 20
ENDMDL
MODEL 4
REMARK VINA RESULT:    -4.931      1.531      3.636
REMARK INTER + INTRA:         -14.464
REMARK INTER:                 -11.153
REMARK INTRA:                  -3.312
REMARK UNBOUND:                -3.768
REMARK SMILES CCCCCCCCCCCCCCCCCCCCCC(=O)[O-]
REMARK SMILES IDX 12 1 11 2 10 3 9 4 8 5 7 6 6 7 5 8 4 9 3 10 2 11 1 12 13 13
REMARK SMILES IDX 14 14 15 15 16 16 17 17 18 18 19 19 20 20 21 21 22 22 23 23
REMARK SMILES IDX 24 24
REMARK H PARENT
REMARK Flexibility Score: inf
ROOT
ATOM      1  C   UNL     1      25.374  41.116 147.293  1.00  0.00     0.000 C 
ENDROOT
BRANCH   1   2
ATOM      2  C   UNL     1      24.254  42.001 147.861  1.00  0.00     0.000 C 
BRANCH   2   3
ATOM      3  C   UNL     1      24.794  42.936 148.953  1.00  0.00     0.000 C 
BRANCH   3   4
ATOM      4  C   UNL     1      24.337  42.531 150.364  1.00  0.00    -0.000 C 
BRANCH   4   5
ATOM      5  C   UNL     1      25.312  41.552 151.042  1.00  0.00    -0.000 C 
BRANCH   5   6
ATOM      6  C   UNL     1      26.783  41.883 150.742  1.00  0.00    -0.000 C 
BRANCH   6   7
ATOM      7  C   UNL     1      27.627  40.632 150.453  1.00  0.00    -0.000 C 
BRANCH   7   8
ATOM      8  C   UNL     1      26.815  39.353 150.710  1.00  0.00    -0.000 C 
BRANCH   8   9
ATOM      9  C   UNL     1      27.356  38.141 149.937  1.00  0.00    -0.000 C 
BRANCH   9  10
ATOM     10  C   UNL     1      28.162  38.543 148.692  1.00  0.00    -0.000 C 
BRANCH  10  11
ATOM     11  C   UNL     1      28.109  37.443 147.625  1.00  0.00    -0.003 C 
ATOM     12  C   UNL     1      28.478  37.992 146.249  1.00  0.00     0.004 C 
ENDBRANCH  10  11
ENDBRANCH   9  10
ENDBRANCH   8   9
ENDBRANCH   7   8
ENDBRANCH   6   7
ENDBRANCH   5   6
ENDBRANCH   4   5
ENDBRANCH   3   4
ENDBRANCH   2   3
ENDBRANCH   1   2
BRANCH   1  13
ATOM     13  C   UNL     1      25.049  39.617 147.379  1.00  0.00     0.000 C 
BRANCH  13  14
ATOM     14  C   UNL     1      23.934  39.313 148.396  1.00  0.00     0.000 C 
BRANCH  14  15
ATOM     15  C   UNL     1      23.205  37.990 148.102  1.00  0.00     0.000 C 
BRANCH  15  16
ATOM     16  C   UNL     1      24.060  36.924 147.389  1.00  0.00     0.000 C 
BRANCH  16  17
ATOM     17  C   UNL     1      23.393  35.531 147.330  1.00  0.00     0.000 C 
BRANCH  17  18
ATOM     18  C   UNL     1      24.390  34.388 147.069  1.00  0.00     0.000 C 
BRANCH  18  19
ATOM     19  C   UNL     1      24.381  33.341 148.196  1.00  0.00     0.000 C 
BRANCH  19  20
ATOM     20  C   UNL     1      24.986  33.875 149.507  1.00  0.00     0.006 C 
BRANCH  20  21
ATOM     21  C   UNL     1      26.127  34.885 149.310  1.00  0.00     0.053 C 
BRANCH  21  22
ATOM     22  C   UNL     1      27.473  34.241 149.440  1.00  0.00     0.041 C 
ATOM     23  O   UNL     1      28.207  34.498 150.431  1.00  0.00    -0.550 OA
ATOM     24  O   UNL     1      27.929  33.377 148.452  1.00  0.00    -0.550 OA
ENDBRANCH  21  22
ENDBRANCH  20  21
ENDBRANCH  19  20
ENDBRANCH  18  19
ENDBRANCH  17  18
ENDBRANCH  16  17
ENDBRANCH  15  16
ENDBRANCH  14  15
ENDBRANCH  13  14
ENDBRANCH   1  13
TORSDOF 20
ENDMDL
MODEL 5
REMARK VINA RESULT:    -4.903      3.240      5.268
REMARK INTER + INTRA:         -14.404
REMARK INTER:                 -10.460
REMARK INTRA:                  -3.944
REMARK UNBOUND:                -3.768
REMARK SMILES CCCCCCCCCCCCCCCCCCCCCC(=O)[O-]
REMARK SMILES IDX 12 1 11 2 10 3 9 4 8 5 7 6 6 7 5 8 4 9 3 10 2 11 1 12 13 13
REMARK SMILES IDX 14 14 15 15 16 16 17 17 18 18 19 19 20 20 21 21 22 22 23 23
REMARK SMILES IDX 24 24
REMARK H PARENT
REMARK Flexibility Score: inf
ROOT
ATOM      1  C   UNL     1      26.339  41.978 148.060  1.00  0.00     0.000 C 
ENDROOT
BRANCH   1   2
ATOM      2  C   UNL     1      25.444  41.118 147.154  1.00  0.00     0.000 C 
BRANCH   2   3
ATOM      3  C   UNL     1      23.976  41.200 147.598  1.00  0.00     0.000 C 
BRANCH   3   4
ATOM      4  C   UNL     1      23.249  39.848 147.509  1.00  0.00    -0.000 C 
BRANCH   4   5
ATOM      5  C   UNL     1      24.181  38.658 147.800  1.00  0.00    -0.000 C 
BRANCH   5   6
ATOM      6  C   UNL     1      23.647  37.751 148.921  1.00  0.00    -0.000 C 
BRANCH   6   7
ATOM      7  C   UNL     1      24.189  36.317 148.835  1.00  0.00    -0.000 C 
BRANCH   7   8
ATOM      8  C   UNL     1      24.678  36.001 147.412  1.00  0.00    -0.000 C 
BRANCH   8   9
ATOM      9  C   UNL     1      25.719  34.872 147.379  1.00  0.00    -0.000 C 
BRANCH   9  10
ATOM     10  C   UNL     1      25.956  34.242 148.760  1.00  0.00    -0.000 C 
BRANCH  10  11
ATOM     11  C   UNL     1      27.412  34.424 149.204  1.00  0.00    -0.003 C 
ATOM     12  C   UNL     1      27.489  34.994 150.619  1.00  0.00     0.004 C 
ENDBRANCH  10  11
ENDBRANCH   9  10
ENDBRANCH   8   9
ENDBRANCH   7   8
ENDBRANCH   6   7
ENDBRANCH   5   6
ENDBRANCH   4   5
ENDBRANCH   3   4
ENDBRANCH   2   3
ENDBRANCH   1   2
BRANCH   1  13
ATOM     13  C   UNL     1      25.884  41.968 149.527  1.00  0.00     0.000 C 
BRANCH  13  14
ATOM     14  C   UNL     1      26.840  41.174 150.436  1.00  0.00     0.000 C 
BRANCH  14  15
ATOM     15  C   UNL     1      26.240  39.838 150.907  1.00  0.00     0.000 C 
BRANCH  15  16
ATOM     16  C   UNL     1      26.957  38.582 150.377  1.00  0.00     0.000 C 
BRANCH  16  17
ATOM     17  C   UNL     1      28.029  38.883 149.305  1.00  0.00     0.000 C 
BRANCH  17  18
ATOM     18  C   UNL     1      28.267  37.711 148.335  1.00  0.00     0.000 C 
BRANCH  18  19
ATOM     19  C   UNL     1      27.782  38.030 146.910  1.00  0.00     0.000 C 
BRANCH  19  20
ATOM     20  C   UNL     1      28.528  39.220 146.281  1.00  0.00     0.006 C 
BRANCH  20  21
ATOM     21  C   UNL     1      29.511  38.831 145.165  1.00  0.00     0.053 C 
BRANCH  21  22
ATOM     22  C   UNL     1      29.373  39.716 143.965  1.00  0.00     0.041 C 
ATOM     23  O   UNL     1      30.221  39.660 143.035  1.00  0.00    -0.550 OA
ATOM     24  O   UNL     1      28.323  40.622 143.885  1.00  0.00    -0.550 OA
ENDBRANCH  21  22
ENDBRANCH  20  21
ENDBRANCH  19  20
ENDBRANCH  18  19
ENDBRANCH  17  18
ENDBRANCH  16  17
ENDBRANCH  15  16
ENDBRANCH  14  15
ENDBRANCH  13  14
ENDBRANCH   1  13
TORSDOF 20
ENDMDL
MODEL 6
REMARK VINA RESULT:    -4.828      2.518      5.577
REMARK INTER + INTRA:         -14.241
REMARK INTER:                 -10.552
REMARK INTRA:                  -3.689
REMARK UNBOUND:                -3.768
REMARK SMILES CCCCCCCCCCCCCCCCCCCCCC(=O)[O-]
REMARK SMILES IDX 12 1 11 2 10 3 9 4 8 5 7 6 6 7 5 8 4 9 3 10 2 11 1 12 13 13
REMARK SMILES IDX 14 14 15 15 16 16 17 17 18 18 19 19 20 20 21 21 22 22 23 23
REMARK SMILES IDX 24 24
REMARK H PARENT
REMARK Flexibility Score: inf
ROOT
ATOM      1  C   UNL     1      23.732  38.227 147.510  1.00  0.00     0.000 C 
ENDROOT
BRANCH   1   2
ATOM      2  C   UNL     1      25.061  38.656 148.149  1.00  0.00     0.000 C 
BRANCH   2   3
ATOM      3  C   UNL     1      25.664  39.857 147.404  1.00  0.00     0.000 C 
BRANCH   3   4
ATOM      4  C   UNL     1      24.692  41.043 147.300  1.00  0.00    -0.000 C 
BRANCH   4   5
ATOM      5  C   UNL     1      25.279  42.340 147.887  1.00  0.00    -0.000 C 
BRANCH   5   6
ATOM      6  C   UNL     1      24.369  42.968 148.955  1.00  0.00    -0.000 C 
BRANCH   6   7
ATOM      7  C   UNL     1      24.335  42.158 150.259  1.00  0.00    -0.000 C 
BRANCH   7   8
ATOM      8  C   UNL     1      25.759  41.827 150.735  1.00  0.00    -0.000 C 
BRANCH   8   9
ATOM      9  C   UNL     1      25.927  40.351 151.125  1.00  0.00    -0.000 C 
BRANCH   9  10
ATOM     10  C   UNL     1      27.333  39.813 150.816  1.00  0.00    -0.000 C 
BRANCH  10  11
ATOM     11  C   UNL     1      28.136  40.821 149.985  1.00  0.00    -0.003 C 
ATOM     12  C   UNL     1      29.048  40.110 148.988  1.00  0.00     0.004 C 
ENDBRANCH  10  11
ENDBRANCH   9  10
ENDBRANCH   8   9
ENDBRANCH   7   8
ENDBRANCH   6   7
ENDBRANCH   5   6
ENDBRANCH   4   5
ENDBRANCH   3   4
ENDBRANCH   2   3
ENDBRANCH   1   2
BRANCH   1  13
ATOM     13  C   UNL     1      23.310  36.806 147.913  1.00  0.00     0.000 C 
BRANCH  13  14
ATOM     14  C   UNL     1      24.276  35.731 147.381  1.00  0.00     0.000 C 
BRANCH  14  15
ATOM     15  C   UNL     1      24.008  34.341 147.982  1.00  0.00     0.000 C 
BRANCH  15  16
ATOM     16  C   UNL     1      24.766  34.043 149.290  1.00  0.00     0.000 C 
BRANCH  16  17
ATOM     17  C   UNL     1      26.303  34.043 149.133  1.00  0.00     0.000 C 
BRANCH  17  18
ATOM     18  C   UNL     1      27.005  35.103 150.000  1.00  0.00     0.000 C 
BRANCH  18  19
ATOM     19  C   UNL     1      27.518  36.289 149.166  1.00  0.00     0.000 C 
BRANCH  19  20
ATOM     20  C   UNL     1      28.189  35.845 147.853  1.00  0.00     0.006 C 
BRANCH  20  21
ATOM     21  C   UNL     1      27.773  36.667 146.622  1.00  0.00     0.053 C 
BRANCH  21  22
ATOM     22  C   UNL     1      28.873  37.572 146.157  1.00  0.00     0.041 C 
ATOM     23  O   UNL     1      30.074  37.201 146.231  1.00  0.00    -0.550 OA
ATOM     24  O   UNL     1      28.572  38.837 145.667  1.00  0.00    -0.550 OA
ENDBRANCH  21  22
ENDBRANCH  20  21
ENDBRANCH  19  20
ENDBRANCH  18  19
ENDBRANCH  17  18
ENDBRANCH  16  17
ENDBRANCH  15  16
ENDBRANCH  14  15
ENDBRANCH  13  14
ENDBRANCH   1  13
TORSDOF 20
ENDMDL
MODEL 7
REMARK VINA RESULT:    -4.785      2.902      6.405
REMARK INTER + INTRA:         -14.146
REMARK INTER:                 -10.479
REMARK INTRA:                  -3.668
REMARK UNBOUND:                -3.768
REMARK SMILES CCCCCCCCCCCCCCCCCCCCCC(=O)[O-]
REMARK SMILES IDX 12 1 11 2 10 3 9 4 8 5 7 6 6 7 5 8 4 9 3 10 2 11 1 12 13 13
REMARK SMILES IDX 14 14 15 15 16 16 17 17 18 18 19 19 20 20 21 21 22 22 23 23
REMARK SMILES IDX 24 24
REMARK H PARENT
REMARK Flexibility Score: inf
ROOT
ATOM      1  C   UNL     1      24.245  34.932 147.414  1.00  0.00     0.000 C 
ENDROOT
BRANCH   1   2
ATOM      2  C   UNL     1      23.630  36.339 147.378  1.00  0.00     0.000 C 
BRANCH   2   3
ATOM      3  C   UNL     1      23.656  36.985 148.771  1.00  0.00     0.000 C 
BRANCH   3   4
ATOM      4  C   UNL     1      23.771  38.517 148.717  1.00  0.00    -0.000 C 
BRANCH   4   5
ATOM      5  C   UNL     1      24.452  39.012 147.428  1.00  0.00    -0.000 C 
BRANCH   5   6
ATOM      6  C   UNL     1      25.141  40.373 147.610  1.00  0.00    -0.000 C 
BRANCH   6   7
ATOM      7  C   UNL     1      24.142  41.528 147.775  1.00  0.00    -0.000 C 
BRANCH   7   8
ATOM      8  C   UNL     1      24.311  42.207 149.144  1.00  0.00    -0.000 C 
BRANCH   8   9
ATOM      9  C   UNL     1      25.635  41.839 149.830  1.00  0.00    -0.000 C 
BRANCH   9  10
ATOM     10  C   UNL     1      25.431  41.014 151.110  1.00  0.00    -0.000 C 
BRANCH  10  11
ATOM     11  C   UNL     1      26.352  39.788 151.125  1.00  0.00    -0.003 C 
ATOM     12  C   UNL     1      27.702  40.106 150.485  1.00  0.00     0.004 C 
ENDBRANCH  10  11
ENDBRANCH   9  10
ENDBRANCH   8   9
ENDBRANCH   7   8
ENDBRANCH   6   7
ENDBRANCH   5   6
ENDBRANCH   4   5
ENDBRANCH   3   4
ENDBRANCH   2   3
ENDBRANCH   1   2
BRANCH   1  13
ATOM     13  C   UNL     1      23.906  34.168 148.703  1.00  0.00     0.000 C 
BRANCH  13  14
ATOM     14  C   UNL     1      25.163  33.683 149.448  1.00  0.00     0.000 C 
BRANCH  14  15
ATOM     15  C   UNL     1      26.336  33.380 148.501  1.00  0.00     0.000 C 
BRANCH  15  16
ATOM     16  C   UNL     1      27.583  34.260 148.711  1.00  0.00     0.000 C 
BRANCH  16  17
ATOM     17  C   UNL     1      27.394  35.362 149.778  1.00  0.00     0.000 C 
BRANCH  17  18
ATOM     18  C   UNL     1      27.294  36.778 149.182  1.00  0.00     0.000 C 
BRANCH  18  19
ATOM     19  C   UNL     1      27.381  36.768 147.646  1.00  0.00     0.000 C 
BRANCH  19  20
ATOM     20  C   UNL     1      28.145  37.983 147.087  1.00  0.00     0.006 C 
BRANCH  20  21
ATOM     21  C   UNL     1      29.307  37.621 146.149  1.00  0.00     0.053 C 
BRANCH  21  22
ATOM     22  C   UNL     1      29.532  38.671 145.105  1.00  0.00     0.041 C 
ATOM     23  O   UNL     1      28.892  38.637 144.022  1.00  0.00    -0.550 OA
ATOM     24  O   UNL     1      30.470  39.674 145.319  1.00  0.00    -0.550 OA
ENDBRANCH  21  22
ENDBRANCH  20  21
ENDBRANCH  19  20
ENDBRANCH  18  19
ENDBRANCH  17  18
ENDBRANCH  16  17
ENDBRANCH  15  16
ENDBRANCH  14  15
ENDBRANCH  13  14
ENDBRANCH   1  13
TORSDOF 20
ENDMDL
MODEL 8
REMARK VINA RESULT:    -4.780      3.079      6.247
REMARK INTER + INTRA:         -14.138
REMARK INTER:                 -10.112
REMARK INTRA:                  -4.026
REMARK UNBOUND:                -3.768
REMARK SMILES CCCCCCCCCCCCCCCCCCCCCC(=O)[O-]
REMARK SMILES IDX 12 1 11 2 10 3 9 4 8 5 7 6 6 7 5 8 4 9 3 10 2 11 1 12 13 13
REMARK SMILES IDX 14 14 15 15 16 16 17 17 18 18 19 19 20 20 21 21 22 22 23 23
REMARK SMILES IDX 24 24
REMARK H PARENT
REMARK Flexibility Score: inf
ROOT
ATOM      1  C   UNL     1      23.694  36.864 148.145  1.00  0.00     0.000 C 
ENDROOT
BRANCH   1   2
ATOM      2  C   UNL     1      23.303  35.695 147.229  1.00  0.00     0.000 C 
BRANCH   2   3
ATOM      3  C   UNL     1      24.282  34.522 147.390  1.00  0.00     0.000 C 
BRANCH   3   4
ATOM      4  C   UNL     1      24.026  33.703 148.666  1.00  0.00    -0.000 C 
BRANCH   4   5
ATOM      5  C   UNL     1      25.172  33.827 149.686  1.00  0.00    -0.000 C 
BRANCH   5   6
ATOM      6  C   UNL     1      26.461  34.382 149.059  1.00  0.00    -0.000 C 
BRANCH   6   7
ATOM      7  C   UNL     1      27.061  35.544 149.865  1.00  0.00    -0.000 C 
BRANCH   7   8
ATOM      8  C   UNL     1      27.625  36.625 148.928  1.00  0.00    -0.000 C 
BRANCH   8   9
ATOM      9  C   UNL     1      27.627  36.191 147.454  1.00  0.00    -0.000 C 
BRANCH   9  10
ATOM     10  C   UNL     1      28.257  37.243 146.528  1.00  0.00    -0.000 C 
BRANCH  10  11
ATOM     11  C   UNL     1      28.488  38.563 147.273  1.00  0.00    -0.003 C 
ATOM     12  C   UNL     1      27.966  39.749 146.467  1.00  0.00     0.004 C 
ENDBRANCH  10  11
ENDBRANCH   9  10
ENDBRANCH   8   9
ENDBRANCH   7   8
ENDBRANCH   6   7
ENDBRANCH   5   6
ENDBRANCH   4   5
ENDBRANCH   3   4
ENDBRANCH   2   3
ENDBRANCH   1   2
BRANCH   1  13
ATOM     13  C   UNL     1      24.376  38.012 147.386  1.00  0.00     0.000 C 
BRANCH  13  14
ATOM     14  C   UNL     1      24.968  39.074 148.331  1.00  0.00     0.000 C 
BRANCH  14  15
ATOM     15  C   UNL     1      24.342  39.034 149.736  1.00  0.00     0.000 C 
BRANCH  15  16
ATOM     16  C   UNL     1      25.293  39.434 150.881  1.00  0.00     0.000 C 
BRANCH  16  17
ATOM     17  C   UNL     1      26.714  39.812 150.406  1.00  0.00     0.000 C 
BRANCH  17  18
ATOM     18  C   UNL     1      27.084  41.278 150.697  1.00  0.00     0.000 C 
BRANCH  18  19
ATOM     19  C   UNL     1      27.801  41.942 149.509  1.00  0.00     0.000 C 
BRANCH  19  20
ATOM     20  C   UNL     1      26.968  43.065 148.865  1.00  0.00     0.006 C 
BRANCH  20  21
ATOM     21  C   UNL     1      25.729  42.572 148.099  1.00  0.00     0.053 C 
BRANCH  21  22
ATOM     22  C   UNL     1      24.458  43.096 148.694  1.00  0.00     0.041 C 
ATOM     23  O   UNL     1      23.954  42.539 149.704  1.00  0.00    -0.550 OA
ATOM     24  O   UNL     1      23.817  44.184 148.116  1.00  0.00    -0.550 OA
ENDBRANCH  21  22
ENDBRANCH  20  21
ENDBRANCH  19  20
ENDBRANCH  18  19
ENDBRANCH  17  18
ENDBRANCH  16  17
ENDBRANCH  15  16
ENDBRANCH  14  15
ENDBRANCH  13  14
ENDBRANCH   1  13
TORSDOF 20
ENDMDL
MODEL 9
REMARK VINA RESULT:    -4.762      3.118      5.350
REMARK INTER + INTRA:         -14.098
REMARK INTER:                 -10.042
REMARK INTRA:                  -4.056
REMARK UNBOUND:                -3.768
REMARK SMILES CCCCCCCCCCCCCCCCCCCCCC(=O)[O-]
REMARK SMILES IDX 12 1 11 2 10 3 9 4 8 5 7 6 6 7 5 8 4 9 3 10 2 11 1 12 13 13
REMARK SMILES IDX 14 14 15 15 16 16 17 17 18 18 19 19 20 20 21 21 22 22 23 23
REMARK SMILES IDX 24 24
REMARK H PARENT
REMARK Flexibility Score: inf
ROOT
ATOM      1  C   UNL     1      24.120  40.711 147.509  1.00  0.00     0.000 C 
ENDROOT
BRANCH   1   2
ATOM      2  C   UNL     1      23.553  39.371 148.004  1.00  0.00     0.000 C 
BRANCH   2   3
ATOM      3  C   UNL     1      24.333  38.192 147.404  1.00  0.00     0.000 C 
BRANCH   3   4
ATOM      4  C   UNL     1      25.569  37.811 148.236  1.00  0.00    -0.000 C 
BRANCH   4   5
ATOM      5  C   UNL     1      26.704  37.230 147.374  1.00  0.00    -0.000 C 
BRANCH   5   6
ATOM      6  C   UNL     1      27.740  36.457 148.206  1.00  0.00    -0.000 C 
BRANCH   6   7
ATOM      7  C   UNL     1      27.335  36.321 149.682  1.00  0.00    -0.000 C 
BRANCH   7   8
ATOM      8  C   UNL     1      27.063  34.852 150.042  1.00  0.00    -0.000 C 
BRANCH   8   9
ATOM      9  C   UNL     1      26.875  33.962 148.803  1.00  0.00    -0.000 C 
BRANCH   9  10
ATOM     10  C   UNL     1      25.489  33.300 148.754  1.00  0.00    -0.000 C 
BRANCH  10  11
ATOM     11  C   UNL     1      24.379  34.355 148.672  1.00  0.00    -0.003 C 
ATOM     12  C   UNL     1      23.919  34.559 147.231  1.00  0.00     0.004 C 
ENDBRANCH  10  11
ENDBRANCH   9  10
ENDBRANCH   8   9
ENDBRANCH   7   8
ENDBRANCH   6   7
ENDBRANCH   5   6
ENDBRANCH   4   5
ENDBRANCH   3   4
ENDBRANCH   2   3
ENDBRANCH   1   2
BRANCH   1  13
ATOM     13  C   UNL     1      24.599  41.614 148.656  1.00  0.00     0.000 C 
BRANCH  13  14
ATOM     14  C   UNL     1      24.457  40.941 150.034  1.00  0.00     0.000 C 
BRANCH  14  15
ATOM     15  C   UNL     1      25.812  40.700 150.721  1.00  0.00     0.000 C 
BRANCH  15  16
ATOM     16  C   UNL     1      27.040  41.159 149.911  1.00  0.00     0.000 C 
BRANCH  16  17
ATOM     17  C   UNL     1      28.104  40.056 149.715  1.00  0.00     0.000 C 
BRANCH  17  18
ATOM     18  C   UNL     1      28.761  40.082 148.323  1.00  0.00     0.000 C 
BRANCH  18  19
ATOM     19  C   UNL     1      28.110  41.121 147.394  1.00  0.00     0.000 C 
BRANCH  19  20
ATOM     20  C   UNL     1      27.542  40.493 146.107  1.00  0.00     0.006 C 
BRANCH  20  21
ATOM     21  C   UNL     1      28.305  40.875 144.829  1.00  0.00     0.053 C 
BRANCH  21  22
ATOM     22  C   UNL     1      29.095  39.725 144.284  1.00  0.00     0.041 C 
ATOM     23  O   UNL     1      29.845  39.887 143.286  1.00  0.00    -0.550 OA
ATOM     24  O   UNL     1      28.983  38.468 144.864  1.00  0.00    -0.550 OA
ENDBRANCH  21  22
ENDBRANCH  20  21
ENDBRANCH  19  20
ENDBRANCH  18  19
ENDBRANCH  17  18
ENDBRANCH  16  17
ENDBRANCH  15  16
ENDBRANCH  14  15
ENDBRANCH  13  14
ENDBRANCH   1  13
TORSDOF 20
ENDMDL
