MODEL 1
REMARK VINA RESULT:     0.019      0.000      0.000
REMARK INTER + INTRA:          -0.519
REMARK INTER:                   0.032
REMARK INTRA:                  -0.550
REMARK UNBOUND:                -0.550
REMARK SMILES CCCCCCCCCCCCCC(=O)[O-]
REMARK SMILES IDX 8 1 9 2 10 3 11 4 12 5 13 6 14 7 15 8 16 9 7 10 6 11 5 12
REMARK SMILES IDX 4 13 3 14 2 15 1 16
REMARK H PARENT
REMARK Flexibility Score: inf
ROOT
ATOM      1  C   UNL     1     -13.193  -4.368 -12.260  1.00  0.00     0.000 C 
ENDROOT
BRANCH   1   2
ATOM      2  C   UNL     1     -13.731  -3.924 -13.630  1.00  0.00     0.000 C 
BRANCH   2   3
ATOM      3  C   UNL     1     -15.126  -3.303 -13.496  1.00  0.00     0.000 C 
BRANCH   3   4
ATOM      4  C   UNL     1     -15.083  -1.791 -13.745  1.00  0.00     0.000 C 
BRANCH   4   5
ATOM      5  C   UNL     1     -13.688  -1.349 -14.211  1.00  0.00     0.006 C 
BRANCH   5   6
ATOM      6  C   UNL     1     -13.715  -0.713 -15.606  1.00  0.00     0.053 C 
BRANCH   6   7
ATOM      7  C   UNL     1     -13.577  -1.741 -16.688  1.00  0.00     0.041 C 
ATOM      8  O   UNL     1     -14.371  -2.716 -16.743  1.00  0.00    -0.550 OA
ATOM      9  O   UNL     1     -12.588  -1.602 -17.654  1.00  0.00    -0.550 OA
ENDBRANCH   6   7
ENDBRANCH   5   6
ENDBRANCH   4   5
ENDBRANCH   3   4
ENDBRANCH   2   3
ENDBRANCH   1   2
BRANCH   1  10
ATOM     10  C   UNL     1     -11.880  -3.663 -11.885  1.00  0.00     0.000 C 
BRANCH  10  11
ATOM     11  C   UNL     1     -12.113  -2.286 -11.241  1.00  0.00    -0.000 C 
BRANCH  11  12
ATOM     12  C   UNL     1     -11.982  -2.317  -9.707  1.00  0.00    -0.000 C 
BRANCH  12  13
ATOM     13  C   UNL     1     -12.564  -3.575  -9.029  1.00  0.00    -0.000 C 
BRANCH  13  14
ATOM     14  C   UNL     1     -14.060  -3.824  -9.290  1.00  0.00    -0.000 C 
BRANCH  14  15
ATOM     15  C   UNL     1     -14.512  -5.231  -8.875  1.00  0.00    -0.003 C 
ATOM     16  C   UNL     1     -13.399  -6.252  -9.092  1.00  0.00     0.004 C 
ENDBRANCH  14  15
ENDBRANCH  13  14
ENDBRANCH  12  13
ENDBRANCH  11  12
ENDBRANCH  10  11
ENDBRANCH   1  10
TORSDOF 12
ENDMDL
MODEL 2
REMARK VINA RESULT:     0.130      3.663      6.534
REMARK INTER + INTRA:          -0.329
REMARK INTER:                   0.491
REMARK INTRA:                  -0.820
REMARK UNBOUND:                -0.550
REMARK SMILES CCCCCCCCCCCCCC(=O)[O-]
REMARK SMILES IDX 8 1 9 2 10 3 11 4 12 5 13 6 14 7 15 8 16 9 7 10 6 11 5 12
REMARK SMILES IDX 4 13 3 14 2 15 1 16
REMARK H PARENT
REMARK Flexibility Score: inf
ROOT
ATOM      1  C   UNL     1     -13.938  -3.634 -12.728  1.00  0.00     0.000 C 
ENDROOT
BRANCH   1   2
ATOM      2  C   UNL     1     -12.500  -3.092 -12.694  1.00  0.00     0.000 C 
BRANCH   2   3
ATOM      3  C   UNL     1     -11.875  -3.279 -11.307  1.00  0.00     0.000 C 
BRANCH   3   4
ATOM      4  C   UNL     1     -12.567  -2.391 -10.266  1.00  0.00     0.000 C 
BRANCH   4   5
ATOM      5  C   UNL     1     -12.769  -3.147  -8.945  1.00  0.00     0.006 C 
BRANCH   5   6
ATOM      6  C   UNL     1     -12.173  -4.560  -8.987  1.00  0.00     0.053 C 
BRANCH   6   7
ATOM      7  C   UNL     1     -13.237  -5.613  -8.950  1.00  0.00     0.041 C 
ATOM      8  O   UNL     1     -12.924  -6.832  -8.919  1.00  0.00    -0.550 OA
ATOM      9  O   UNL     1     -14.576  -5.245  -8.916  1.00  0.00    -0.550 OA
ENDBRANCH   6   7
ENDBRANCH   5   6
ENDBRANCH   4   5
ENDBRANCH   3   4
ENDBRANCH   2   3
ENDBRANCH   1   2
BRANCH   1  10
ATOM     10  C   UNL     1     -14.814  -2.918 -13.767  1.00  0.00     0.000 C 
BRANCH  10  11
ATOM     11  C   UNL     1     -13.997  -2.356 -14.943  1.00  0.00    -0.000 C 
BRANCH  11  12
ATOM     12  C   UNL     1     -14.099  -3.228 -16.208  1.00  0.00    -0.000 C 
BRANCH  12  13
ATOM     13  C   UNL     1     -14.259  -4.739 -15.946  1.00  0.00    -0.000 C 
BRANCH  13  14
ATOM     14  C   UNL     1     -14.125  -5.636 -17.190  1.00  0.00    -0.000 C 
BRANCH  14  15
ATOM     15  C   UNL     1     -13.825  -7.100 -16.840  1.00  0.00    -0.003 C 
ATOM     16  C   UNL     1     -13.790  -7.309 -15.330  1.00  0.00     0.004 C 
ENDBRANCH  14  15
ENDBRANCH  13  14
ENDBRANCH  12  13
ENDBRANCH  11  12
ENDBRANCH  10  11
ENDBRANCH   1  10
TORSDOF 12
ENDMDL
MODEL 3
REMARK VINA RESULT:     0.646      2.559      3.512
REMARK INTER + INTRA:           0.548
REMARK INTER:                   1.375
REMARK INTRA:                  -0.827
REMARK UNBOUND:                -0.550
REMARK SMILES CCCCCCCCCCCCCC(=O)[O-]
REMARK SMILES IDX 8 1 9 2 10 3 11 4 12 5 13 6 14 7 15 8 16 9 7 10 6 11 5 12
REMARK SMILES IDX 4 13 3 14 2 15 1 16
REMARK H PARENT
REMARK Flexibility Score: inf
ROOT
ATOM      1  C   UNL     1     -14.552  -2.510 -13.750  1.00  0.00     0.000 C 
ENDROOT
BRANCH   1   2
ATOM      2  C   UNL     1     -13.488  -2.425 -14.856  1.00  0.00     0.000 C 
BRANCH   2   3
ATOM      3  C   UNL     1     -14.132  -2.132 -16.216  1.00  0.00     0.000 C 
BRANCH   3   4
ATOM      4  C   UNL     1     -14.265  -3.412 -17.050  1.00  0.00     0.000 C 
BRANCH   4   5
ATOM      5  C   UNL     1     -14.211  -4.659 -16.157  1.00  0.00     0.006 C 
BRANCH   5   6
ATOM      6  C   UNL     1     -14.031  -5.948 -16.968  1.00  0.00     0.053 C 
BRANCH   6   7
ATOM      7  C   UNL     1     -13.772  -7.130 -16.084  1.00  0.00     0.041 C 
ATOM      8  O   UNL     1     -13.168  -8.139 -16.532  1.00  0.00    -0.550 OA
ATOM      9  O   UNL     1     -14.172  -7.101 -14.754  1.00  0.00    -0.550 OA
ENDBRANCH   6   7
ENDBRANCH   5   6
ENDBRANCH   4   5
ENDBRANCH   3   4
ENDBRANCH   2   3
ENDBRANCH   1   2
BRANCH   1  10
ATOM     10  C   UNL     1     -14.083  -3.338 -12.544  1.00  0.00     0.000 C 
BRANCH  10  11
ATOM     11  C   UNL     1     -12.569  -3.612 -12.568  1.00  0.00    -0.000 C 
BRANCH  11  12
ATOM     12  C   UNL     1     -11.922  -3.503 -11.175  1.00  0.00    -0.000 C 
BRANCH  12  13
ATOM     13  C   UNL     1     -12.823  -2.885 -10.086  1.00  0.00    -0.000 C 
BRANCH  13  14
ATOM     14  C   UNL     1     -13.100  -3.793  -8.875  1.00  0.00    -0.000 C 
BRANCH  14  15
ATOM     15  C   UNL     1     -14.333  -4.688  -9.070  1.00  0.00    -0.003 C 
ATOM     16  C   UNL     1     -13.931  -6.151  -9.226  1.00  0.00     0.004 C 
ENDBRANCH  14  15
ENDBRANCH  13  14
ENDBRANCH  12  13
ENDBRANCH  11  12
ENDBRANCH  10  11
ENDBRANCH   1  10
TORSDOF 12
ENDMDL
MODEL 4
REMARK VINA RESULT:     0.825      3.530      6.715
REMARK INTER + INTRA:           0.853
REMARK INTER:                   0.739
REMARK INTRA:                   0.114
REMARK UNBOUND:                -0.550
REMARK SMILES CCCCCCCCCCCCCC(=O)[O-]
REMARK SMILES IDX 8 1 9 2 10 3 11 4 12 5 13 6 14 7 15 8 16 9 7 10 6 11 5 12
REMARK SMILES IDX 4 13 3 14 2 15 1 16
REMARK H PARENT
REMARK Flexibility Score: inf
ROOT
ATOM      1  C   UNL     1     -13.738  -3.999 -13.093  1.00  0.00     0.000 C 
ENDROOT
BRANCH   1   2
ATOM      2  C   UNL     1     -12.455  -3.243 -12.716  1.00  0.00     0.000 C 
BRANCH   2   3
ATOM      3  C   UNL     1     -12.160  -3.375 -11.217  1.00  0.00     0.000 C 
BRANCH   3   4
ATOM      4  C   UNL     1     -13.280  -2.749 -10.378  1.00  0.00     0.000 C 
BRANCH   4   5
ATOM      5  C   UNL     1     -13.857  -3.767  -9.383  1.00  0.00     0.006 C 
BRANCH   5   6
ATOM      6  C   UNL     1     -12.828  -4.830  -8.976  1.00  0.00     0.053 C 
BRANCH   6   7
ATOM      7  C   UNL     1     -13.442  -6.194  -8.895  1.00  0.00     0.041 C 
ATOM      8  O   UNL     1     -14.693  -6.328  -8.875  1.00  0.00    -0.550 OA
ATOM      9  O   UNL     1     -12.628  -7.320  -8.875  1.00  0.00    -0.550 OA
ENDBRANCH   6   7
ENDBRANCH   5   6
ENDBRANCH   4   5
ENDBRANCH   3   4
ENDBRANCH   2   3
ENDBRANCH   1   2
BRANCH   1  10
ATOM     10  C   UNL     1     -14.921  -3.057 -13.363  1.00  0.00     0.000 C 
BRANCH  10  11
ATOM     11  C   UNL     1     -14.478  -1.712 -13.966  1.00  0.00    -0.000 C 
BRANCH  11  12
ATOM     12  C   UNL     1     -13.322  -1.863 -14.972  1.00  0.00    -0.000 C 
BRANCH  12  13
ATOM     13  C   UNL     1     -13.755  -2.189 -16.416  1.00  0.00    -0.000 C 
BRANCH  13  14
ATOM     14  C   UNL     1     -14.458  -3.546 -16.597  1.00  0.00    -0.000 C 
BRANCH  14  15
ATOM     15  C   UNL     1     -14.037  -4.269 -17.885  1.00  0.00    -0.003 C 
ATOM     16  C   UNL     1     -14.814  -5.570 -18.064  1.00  0.00     0.004 C 
ENDBRANCH  14  15
ENDBRANCH  13  14
ENDBRANCH  12  13
ENDBRANCH  11  12
ENDBRANCH  10  11
ENDBRANCH   1  10
TORSDOF 12
ENDMDL
MODEL 5
REMARK VINA RESULT:     1.005     19.769     22.730
REMARK INTER + INTRA:           1.160
REMARK INTER:                   2.103
REMARK INTRA:                  -0.943
REMARK UNBOUND:                -0.550
REMARK SMILES CCCCCCCCCCCCCC(=O)[O-]
REMARK SMILES IDX 8 1 9 2 10 3 11 4 12 5 13 6 14 7 15 8 16 9 7 10 6 11 5 12
REMARK SMILES IDX 4 13 3 14 2 15 1 16
REMARK H PARENT
REMARK Flexibility Score: inf
ROOT
ATOM      1  C   UNL     1     -30.361   2.912 -25.741  1.00  0.00     0.000 C 
ENDROOT
BRANCH   1   2
ATOM      2  C   UNL     1     -31.677   2.834 -24.952  1.00  0.00     0.000 C 
BRANCH   2   3
ATOM      3  C   UNL     1     -31.903   1.422 -24.399  1.00  0.00     0.000 C 
BRANCH   3   4
ATOM      4  C   UNL     1     -30.665   0.543 -24.609  1.00  0.00     0.000 C 
BRANCH   4   5
ATOM      5  C   UNL     1     -30.890  -0.868 -24.048  1.00  0.00     0.006 C 
BRANCH   5   6
ATOM      6  C   UNL     1     -31.213  -0.853 -22.549  1.00  0.00     0.053 C 
BRANCH   6   7
ATOM      7  C   UNL     1     -29.990  -1.086 -21.714  1.00  0.00     0.041 C 
ATOM      8  O   UNL     1     -28.879  -1.304 -22.263  1.00  0.00    -0.550 OA
ATOM      9  O   UNL     1     -30.075  -1.031 -20.329  1.00  0.00    -0.550 OA
ENDBRANCH   6   7
ENDBRANCH   5   6
ENDBRANCH   4   5
ENDBRANCH   3   4
ENDBRANCH   2   3
ENDBRANCH   1   2
BRANCH   1  10
ATOM     10  C   UNL     1     -30.567   3.403 -27.182  1.00  0.00     0.000 C 
BRANCH  10  11
ATOM     11  C   UNL     1     -31.997   3.155 -27.693  1.00  0.00    -0.000 C 
BRANCH  11  12
ATOM     12  C   UNL     1     -32.125   1.846 -28.493  1.00  0.00    -0.000 C 
BRANCH  12  13
ATOM     13  C   UNL     1     -32.125   0.560 -27.642  1.00  0.00    -0.000 C 
BRANCH  13  14
ATOM     14  C   UNL     1     -31.814  -0.734 -28.414  1.00  0.00    -0.000 C 
BRANCH  14  15
ATOM     15  C   UNL     1     -31.367  -1.883 -27.498  1.00  0.00    -0.003 C 
ATOM     16  C   UNL     1     -30.481  -2.872 -28.248  1.00  0.00     0.004 C 
ENDBRANCH  14  15
ENDBRANCH  13  14
ENDBRANCH  12  13
ENDBRANCH  11  12
ENDBRANCH  10  11
ENDBRANCH   1  10
TORSDOF 12
ENDMDL
MODEL 6
REMARK VINA RESULT:     1.230     22.179     23.940
REMARK INTER + INTRA:           1.543
REMARK INTER:                   1.659
REMARK INTRA:                  -0.116
REMARK UNBOUND:                -0.550
REMARK SMILES CCCCCCCCCCCCCC(=O)[O-]
REMARK SMILES IDX 8 1 9 2 10 3 11 4 12 5 13 6 14 7 15 8 16 9 7 10 6 11 5 12
REMARK SMILES IDX 4 13 3 14 2 15 1 16
REMARK H PARENT
REMARK Flexibility Score: inf
ROOT
ATOM      1  C   UNL     1     -30.955   0.062 -25.657  1.00  0.00     0.000 C 
ENDROOT
BRANCH   1   2
ATOM      2  C   UNL     1     -32.125   0.004 -26.651  1.00  0.00     0.000 C 
BRANCH   2   3
ATOM      3  C   UNL     1     -31.759  -0.834 -27.882  1.00  0.00     0.000 C 
BRANCH   3   4
ATOM      4  C   UNL     1     -30.248  -1.085 -27.948  1.00  0.00     0.000 C 
BRANCH   4   5
ATOM      5  C   UNL     1     -29.945  -2.581 -28.120  1.00  0.00     0.006 C 
BRANCH   5   6
ATOM      6  C   UNL     1     -30.924  -3.265 -29.082  1.00  0.00     0.053 C 
BRANCH   6   7
ATOM      7  C   UNL     1     -31.749  -4.306 -28.387  1.00  0.00     0.041 C 
ATOM      8  O   UNL     1     -32.106  -5.346 -29.000  1.00  0.00    -0.550 OA
ATOM      9  O   UNL     1     -32.095  -4.140 -27.052  1.00  0.00    -0.550 OA
ENDBRANCH   6   7
ENDBRANCH   5   6
ENDBRANCH   4   5
ENDBRANCH   3   4
ENDBRANCH   2   3
ENDBRANCH   1   2
BRANCH   1  10
ATOM     10  C   UNL     1     -31.069   1.243 -24.681  1.00  0.00     0.000 C 
BRANCH  10  11
ATOM     11  C   UNL     1     -30.590   2.569 -25.300  1.00  0.00    -0.000 C 
BRANCH  11  12
ATOM     12  C   UNL     1     -30.816   2.631 -26.821  1.00  0.00    -0.000 C 
BRANCH  12  13
ATOM     13  C   UNL     1     -32.071   3.413 -27.261  1.00  0.00    -0.000 C 
BRANCH  13  14
ATOM     14  C   UNL     1     -31.883   4.935 -27.382  1.00  0.00    -0.000 C 
BRANCH  14  15
ATOM     15  C   UNL     1     -31.279   5.357 -28.729  1.00  0.00    -0.003 C 
ATOM     16  C   UNL     1     -29.761   5.209 -28.722  1.00  0.00     0.004 C 
ENDBRANCH  14  15
ENDBRANCH  13  14
ENDBRANCH  12  13
ENDBRANCH  11  12
ENDBRANCH  10  11
ENDBRANCH   1  10
TORSDOF 12
ENDMDL
