MODEL 1
REMARK VINA RESULT:    -4.508      0.000      0.000
REMARK INTER + INTRA:         -10.138
REMARK INTER:                  -8.197
REMARK INTRA:                  -1.941
REMARK UNBOUND:                -1.941
REMARK SMILES CCCCCCCCCCCCCCCC(=O)[O-]
REMARK SMILES IDX 9 1 10 2 11 3 12 4 13 5 14 6 15 7 16 8 17 9 18 10 8 11 7 12
REMARK SMILES IDX 6 13 5 14 4 15 3 16 2 17 1 18
REMARK H PARENT
REMARK Flexibility Score: inf
ROOT
ATOM      1  C   UNL     1      25.869 -32.535  22.986  1.00  0.00     0.000 C 
ENDROOT
BRANCH   1   2
ATOM      2  C   UNL     1      25.651 -31.013  23.037  1.00  0.00     0.000 C 
BRANCH   2   3
ATOM      3  C   UNL     1      24.459 -30.607  23.920  1.00  0.00     0.000 C 
BRANCH   3   4
ATOM      4  C   UNL     1      23.560 -31.802  24.280  1.00  0.00     0.000 C 
BRANCH   4   5
ATOM      5  C   UNL     1      22.712 -31.541  25.538  1.00  0.00     0.000 C 
BRANCH   5   6
ATOM      6  C   UNL     1      23.562 -31.121  26.752  1.00  0.00     0.006 C 
BRANCH   6   7
ATOM      7  C   UNL     1      22.974 -29.955  27.565  1.00  0.00     0.053 C 
BRANCH   7   8
ATOM      8  C   UNL     1      22.614 -28.791  26.694  1.00  0.00     0.041 C 
ATOM      9  O   UNL     1      21.405 -28.521  26.466  1.00  0.00    -0.550 OA
ATOM     10  O   UNL     1      23.613 -28.024  26.110  1.00  0.00    -0.550 OA
ENDBRANCH   7   8
ENDBRANCH   6   7
ENDBRANCH   5   6
ENDBRANCH   4   5
ENDBRANCH   3   4
ENDBRANCH   2   3
ENDBRANCH   1   2
BRANCH   1  11
ATOM     11  C   UNL     1      26.395 -33.074  21.643  1.00  0.00     0.000 C 
BRANCH  11  12
ATOM     12  C   UNL     1      25.369 -32.959  20.507  1.00  0.00    -0.000 C 
BRANCH  12  13
ATOM     13  C   UNL     1      24.043 -33.629  20.893  1.00  0.00    -0.000 C 
BRANCH  13  14
ATOM     14  C   UNL     1      24.049 -35.151  20.660  1.00  0.00    -0.000 C 
BRANCH  14  15
ATOM     15  C   UNL     1      23.779 -36.002  21.914  1.00  0.00    -0.000 C 
BRANCH  15  16
ATOM     16  C   UNL     1      25.048 -36.660  22.477  1.00  0.00    -0.000 C 
BRANCH  16  17
ATOM     17  C   UNL     1      25.458 -36.013  23.804  1.00  0.00    -0.003 C 
ATOM     18  C   UNL     1      24.248 -35.441  24.537  1.00  0.00     0.004 C 
ENDBRANCH  16  17
ENDBRANCH  15  16
ENDBRANCH  14  15
ENDBRANCH  13  14
ENDBRANCH  12  13
ENDBRANCH  11  12
ENDBRANCH   1  11
TORSDOF 14
ENDMDL
MODEL 2
REMARK VINA RESULT:    -4.391      1.095      1.524
REMARK INTER + INTRA:          -9.926
REMARK INTER:                  -7.970
REMARK INTRA:                  -1.955
REMARK UNBOUND:                -1.941
REMARK SMILES CCCCCCCCCCCCCCCC(=O)[O-]
REMARK SMILES IDX 9 1 10 2 11 3 12 4 13 5 14 6 15 7 16 8 17 9 18 10 8 11 7 12
REMARK SMILES IDX 6 13 5 14 4 15 3 16 2 17 1 18
REMARK H PARENT
REMARK Flexibility Score: inf
ROOT
ATOM      1  C   UNL     1      26.129 -33.001  21.650  1.00  0.00     0.000 C 
ENDROOT
BRANCH   1   2
ATOM      2  C   UNL     1      25.858 -31.707  22.438  1.00  0.00     0.000 C 
BRANCH   2   3
ATOM      3  C   UNL     1      25.434 -31.969  23.893  1.00  0.00     0.000 C 
BRANCH   3   4
ATOM      4  C   UNL     1      23.917 -32.183  24.035  1.00  0.00     0.000 C 
BRANCH   4   5
ATOM      5  C   UNL     1      23.498 -32.478  25.486  1.00  0.00     0.000 C 
BRANCH   5   6
ATOM      6  C   UNL     1      23.855 -31.332  26.453  1.00  0.00     0.006 C 
BRANCH   6   7
ATOM      7  C   UNL     1      22.960 -30.089  26.321  1.00  0.00     0.053 C 
BRANCH   7   8
ATOM      8  C   UNL     1      23.745 -28.872  25.939  1.00  0.00     0.041 C 
ATOM      9  O   UNL     1      23.930 -27.949  26.777  1.00  0.00    -0.550 OA
ATOM     10  O   UNL     1      24.245 -28.743  24.650  1.00  0.00    -0.550 OA
ENDBRANCH   7   8
ENDBRANCH   6   7
ENDBRANCH   5   6
ENDBRANCH   4   5
ENDBRANCH   3   4
ENDBRANCH   2   3
ENDBRANCH   1   2
BRANCH   1  11
ATOM     11  C   UNL     1      25.217 -33.223  20.429  1.00  0.00     0.000 C 
BRANCH  11  12
ATOM     12  C   UNL     1      23.916 -33.960  20.779  1.00  0.00    -0.000 C 
BRANCH  12  13
ATOM     13  C   UNL     1      23.999 -35.441  20.381  1.00  0.00    -0.000 C 
BRANCH  13  14
ATOM     14  C   UNL     1      24.237 -36.374  21.582  1.00  0.00    -0.000 C 
BRANCH  14  15
ATOM     15  C   UNL     1      23.982 -35.737  22.961  1.00  0.00    -0.000 C 
BRANCH  15  16
ATOM     16  C   UNL     1      25.229 -35.725  23.856  1.00  0.00    -0.000 C 
BRANCH  16  17
ATOM     17  C   UNL     1      24.999 -36.549  25.128  1.00  0.00    -0.003 C 
ATOM     18  C   UNL     1      23.676 -36.180  25.793  1.00  0.00     0.004 C 
ENDBRANCH  16  17
ENDBRANCH  15  16
ENDBRANCH  14  15
ENDBRANCH  13  14
ENDBRANCH  12  13
ENDBRANCH  11  12
ENDBRANCH   1  11
TORSDOF 14
ENDMDL
MODEL 3
REMARK VINA RESULT:    -4.376      1.235      2.488
REMARK INTER + INTRA:          -9.899
REMARK INTER:                  -7.820
REMARK INTRA:                  -2.079
REMARK UNBOUND:                -1.941
REMARK SMILES CCCCCCCCCCCCCCCC(=O)[O-]
REMARK SMILES IDX 9 1 10 2 11 3 12 4 13 5 14 6 15 7 16 8 17 9 18 10 8 11 7 12
REMARK SMILES IDX 6 13 5 14 4 15 3 16 2 17 1 18
REMARK H PARENT
REMARK Flexibility Score: inf
ROOT
ATOM      1  C   UNL     1      25.353 -33.202  20.516  1.00  0.00     0.000 C 
ENDROOT
BRANCH   1   2
ATOM      2  C   UNL     1      26.419 -32.963  21.600  1.00  0.00     0.000 C 
BRANCH   2   3
ATOM      3  C   UNL     1      25.813 -32.619  22.971  1.00  0.00     0.000 C 
BRANCH   3   4
ATOM      4  C   UNL     1      25.615 -31.106  23.164  1.00  0.00     0.000 C 
BRANCH   4   5
ATOM      5  C   UNL     1      24.545 -30.784  24.223  1.00  0.00     0.000 C 
BRANCH   5   6
ATOM      6  C   UNL     1      23.517 -31.919  24.394  1.00  0.00     0.006 C 
BRANCH   6   7
ATOM      7  C   UNL     1      23.205 -32.277  25.856  1.00  0.00     0.053 C 
BRANCH   7   8
ATOM      8  C   UNL     1      22.822 -31.071  26.658  1.00  0.00     0.041 C 
ATOM      9  O   UNL     1      23.535 -30.704  27.630  1.00  0.00    -0.550 OA
ATOM     10  O   UNL     1      21.662 -30.372  26.352  1.00  0.00    -0.550 OA
ENDBRANCH   7   8
ENDBRANCH   6   7
ENDBRANCH   5   6
ENDBRANCH   4   5
ENDBRANCH   3   4
ENDBRANCH   2   3
ENDBRANCH   1   2
BRANCH   1  11
ATOM     11  C   UNL     1      23.965 -33.607  21.045  1.00  0.00     0.000 C 
BRANCH  11  12
ATOM     12  C   UNL     1      23.363 -34.805  20.297  1.00  0.00    -0.000 C 
BRANCH  12  13
ATOM     13  C   UNL     1      23.964 -36.126  20.799  1.00  0.00    -0.000 C 
BRANCH  13  14
ATOM     14  C   UNL     1      23.063 -36.848  21.816  1.00  0.00    -0.000 C 
BRANCH  14  15
ATOM     15  C   UNL     1      23.716 -37.129  23.181  1.00  0.00    -0.000 C 
BRANCH  15  16
ATOM     16  C   UNL     1      24.193 -35.854  23.892  1.00  0.00    -0.000 C 
BRANCH  16  17
ATOM     17  C   UNL     1      25.605 -36.038  24.459  1.00  0.00    -0.003 C 
ATOM     18  C   UNL     1      26.618 -36.292  23.346  1.00  0.00     0.004 C 
ENDBRANCH  16  17
ENDBRANCH  15  16
ENDBRANCH  14  15
ENDBRANCH  13  14
ENDBRANCH  12  13
ENDBRANCH  11  12
ENDBRANCH   1  11
TORSDOF 14
ENDMDL
MODEL 4
REMARK VINA RESULT:    -4.366      3.404      6.762
REMARK INTER + INTRA:          -9.880
REMARK INTER:                  -8.210
REMARK INTRA:                  -1.671
REMARK UNBOUND:                -1.941
REMARK SMILES CCCCCCCCCCCCCCCC(=O)[O-]
REMARK SMILES IDX 9 1 10 2 11 3 12 4 13 5 14 6 15 7 16 8 17 9 18 10 8 11 7 12
REMARK SMILES IDX 6 13 5 14 4 15 3 16 2 17 1 18
REMARK H PARENT
REMARK Flexibility Score: inf
ROOT
ATOM      1  C   UNL     1      25.953 -32.670  23.004  1.00  0.00     0.000 C 
ENDROOT
BRANCH   1   2
ATOM      2  C   UNL     1      26.391 -33.219  21.634  1.00  0.00     0.000 C 
BRANCH   2   3
ATOM      3  C   UNL     1      25.369 -32.932  20.520  1.00  0.00     0.000 C 
BRANCH   3   4
ATOM      4  C   UNL     1      24.028 -33.648  20.752  1.00  0.00     0.000 C 
BRANCH   4   5
ATOM      5  C   UNL     1      24.134 -35.171  20.559  1.00  0.00     0.000 C 
BRANCH   5   6
ATOM      6  C   UNL     1      23.479 -35.964  21.707  1.00  0.00     0.006 C 
BRANCH   6   7
ATOM      7  C   UNL     1      24.264 -35.930  23.029  1.00  0.00     0.053 C 
BRANCH   7   8
ATOM      8  C   UNL     1      25.522 -36.739  22.954  1.00  0.00     0.041 C 
ATOM      9  O   UNL     1      26.585 -36.308  23.475  1.00  0.00    -0.550 OA
ATOM     10  O   UNL     1      25.528 -37.954  22.282  1.00  0.00    -0.550 OA
ENDBRANCH   7   8
ENDBRANCH   6   7
ENDBRANCH   5   6
ENDBRANCH   4   5
ENDBRANCH   3   4
ENDBRANCH   2   3
ENDBRANCH   1   2
BRANCH   1  11
ATOM     11  C   UNL     1      25.621 -31.167  23.028  1.00  0.00     0.000 C 
BRANCH  11  12
ATOM     12  C   UNL     1      24.492 -30.817  24.008  1.00  0.00    -0.000 C 
BRANCH  12  13
ATOM     13  C   UNL     1      23.715 -32.075  24.423  1.00  0.00    -0.000 C 
BRANCH  13  14
ATOM     14  C   UNL     1      23.408 -32.121  25.931  1.00  0.00    -0.000 C 
BRANCH  14  15
ATOM     15  C   UNL     1      24.036 -30.984  26.758  1.00  0.00    -0.000 C 
BRANCH  15  16
ATOM     16  C   UNL     1      22.993 -30.016  27.336  1.00  0.00    -0.000 C 
BRANCH  16  17
ATOM     17  C   UNL     1      23.083 -28.644  26.658  1.00  0.00    -0.003 C 
ATOM     18  C   UNL     1      23.694 -27.605  27.594  1.00  0.00     0.004 C 
ENDBRANCH  16  17
ENDBRANCH  15  16
ENDBRANCH  14  15
ENDBRANCH  13  14
ENDBRANCH  12  13
ENDBRANCH  11  12
ENDBRANCH   1  11
TORSDOF 14
ENDMDL
MODEL 5
REMARK VINA RESULT:    -4.331      3.338      7.147
REMARK INTER + INTRA:          -9.817
REMARK INTER:                  -8.215
REMARK INTRA:                  -1.602
REMARK UNBOUND:                -1.941
REMARK SMILES CCCCCCCCCCCCCCCC(=O)[O-]
REMARK SMILES IDX 9 1 10 2 11 3 12 4 13 5 14 6 15 7 16 8 17 9 18 10 8 11 7 12
REMARK SMILES IDX 6 13 5 14 4 15 3 16 2 17 1 18
REMARK H PARENT
REMARK Flexibility Score: inf
ROOT
ATOM      1  C   UNL     1      23.865 -32.068  24.749  1.00  0.00     0.000 C 
ENDROOT
BRANCH   1   2
ATOM      2  C   UNL     1      24.528 -30.763  24.273  1.00  0.00     0.000 C 
BRANCH   2   3
ATOM      3  C   UNL     1      25.620 -30.997  23.215  1.00  0.00     0.000 C 
BRANCH   3   4
ATOM      4  C   UNL     1      25.837 -32.489  22.913  1.00  0.00     0.000 C 
BRANCH   4   5
ATOM      5  C   UNL     1      26.359 -32.730  21.485  1.00  0.00     0.000 C 
BRANCH   5   6
ATOM      6  C   UNL     1      25.257 -33.212  20.522  1.00  0.00     0.006 C 
BRANCH   6   7
ATOM      7  C   UNL     1      23.940 -33.605  21.211  1.00  0.00     0.053 C 
BRANCH   7   8
ATOM      8  C   UNL     1      23.769 -35.091  21.285  1.00  0.00     0.041 C 
ATOM      9  O   UNL     1      24.652 -35.804  21.833  1.00  0.00    -0.550 OA
ATOM     10  O   UNL     1      22.651 -35.692  20.722  1.00  0.00    -0.550 OA
ENDBRANCH   7   8
ENDBRANCH   6   7
ENDBRANCH   5   6
ENDBRANCH   4   5
ENDBRANCH   3   4
ENDBRANCH   2   3
ENDBRANCH   1   2
BRANCH   1  11
ATOM     11  C   UNL     1      22.957 -31.925  25.984  1.00  0.00     0.000 C 
BRANCH  11  12
ATOM     12  C   UNL     1      21.595 -31.296  25.658  1.00  0.00    -0.000 C 
BRANCH  12  13
ATOM     13  C   UNL     1      21.093 -30.436  26.827  1.00  0.00    -0.000 C 
BRANCH  13  14
ATOM     14  C   UNL     1      21.113 -28.928  26.515  1.00  0.00    -0.000 C 
BRANCH  14  15
ATOM     15  C   UNL     1      22.089 -28.100  27.370  1.00  0.00    -0.000 C 
BRANCH  15  16
ATOM     16  C   UNL     1      23.554 -28.268  26.941  1.00  0.00    -0.000 C 
BRANCH  16  17
ATOM     17  C   UNL     1      24.464 -28.464  28.158  1.00  0.00    -0.003 C 
ATOM     18  C   UNL     1      24.378 -29.893  28.687  1.00  0.00     0.004 C 
ENDBRANCH  16  17
ENDBRANCH  15  16
ENDBRANCH  14  15
ENDBRANCH  13  14
ENDBRANCH  12  13
ENDBRANCH  11  12
ENDBRANCH   1  11
TORSDOF 14
ENDMDL
MODEL 6
REMARK VINA RESULT:    -4.199      3.542      6.617
REMARK INTER + INTRA:          -9.577
REMARK INTER:                  -8.011
REMARK INTRA:                  -1.565
REMARK UNBOUND:                -1.941
REMARK SMILES CCCCCCCCCCCCCCCC(=O)[O-]
REMARK SMILES IDX 9 1 10 2 11 3 12 4 13 5 14 6 15 7 16 8 17 9 18 10 8 11 7 12
REMARK SMILES IDX 6 13 5 14 4 15 3 16 2 17 1 18
REMARK H PARENT
REMARK Flexibility Score: inf
ROOT
ATOM      1  C   UNL     1      25.470 -33.266  20.492  1.00  0.00     0.000 C 
ENDROOT
BRANCH   1   2
ATOM      2  C   UNL     1      24.035 -33.740  20.787  1.00  0.00     0.000 C 
BRANCH   2   3
ATOM      3  C   UNL     1      23.807 -35.220  20.432  1.00  0.00     0.000 C 
BRANCH   3   4
ATOM      4  C   UNL     1      23.364 -36.055  21.645  1.00  0.00     0.000 C 
BRANCH   4   5
ATOM      5  C   UNL     1      24.259 -35.824  22.876  1.00  0.00     0.000 C 
BRANCH   5   6
ATOM      6  C   UNL     1      25.653 -36.463  22.726  1.00  0.00     0.006 C 
BRANCH   6   7
ATOM      7  C   UNL     1      26.589 -36.228  23.923  1.00  0.00     0.053 C 
BRANCH   7   8
ATOM      8  C   UNL     1      26.491 -37.328  24.934  1.00  0.00     0.041 C 
ATOM      9  O   UNL     1      27.087 -38.421  24.742  1.00  0.00    -0.550 OA
ATOM     10  O   UNL     1      25.717 -37.158  26.074  1.00  0.00    -0.550 OA
ENDBRANCH   7   8
ENDBRANCH   6   7
ENDBRANCH   5   6
ENDBRANCH   4   5
ENDBRANCH   3   4
ENDBRANCH   2   3
ENDBRANCH   1   2
BRANCH   1  11
ATOM     11  C   UNL     1      26.279 -32.830  21.727  1.00  0.00     0.000 C 
BRANCH  11  12
ATOM     12  C   UNL     1      25.627 -31.670  22.492  1.00  0.00    -0.000 C 
BRANCH  12  13
ATOM     13  C   UNL     1      25.527 -31.987  23.991  1.00  0.00    -0.000 C 
BRANCH  13  14
ATOM     14  C   UNL     1      24.094 -32.324  24.441  1.00  0.00    -0.000 C 
BRANCH  14  15
ATOM     15  C   UNL     1      23.237 -31.111  24.845  1.00  0.00    -0.000 C 
BRANCH  15  16
ATOM     16  C   UNL     1      23.895 -30.246  25.930  1.00  0.00    -0.000 C 
BRANCH  16  17
ATOM     17  C   UNL     1      23.263 -28.850  25.977  1.00  0.00    -0.003 C 
ATOM     18  C   UNL     1      23.776 -28.052  27.172  1.00  0.00     0.004 C 
ENDBRANCH  16  17
ENDBRANCH  15  16
ENDBRANCH  14  15
ENDBRANCH  13  14
ENDBRANCH  12  13
ENDBRANCH  11  12
ENDBRANCH   1  11
TORSDOF 14
ENDMDL
MODEL 7
REMARK VINA RESULT:    -4.087      3.501      7.928
REMARK INTER + INTRA:          -9.373
REMARK INTER:                  -8.372
REMARK INTRA:                  -1.001
REMARK UNBOUND:                -1.941
REMARK SMILES CCCCCCCCCCCCCCCC(=O)[O-]
REMARK SMILES IDX 9 1 10 2 11 3 12 4 13 5 14 6 15 7 16 8 17 9 18 10 8 11 7 12
REMARK SMILES IDX 6 13 5 14 4 15 3 16 2 17 1 18
REMARK H PARENT
REMARK Flexibility Score: inf
ROOT
ATOM      1  C   UNL     1      24.524 -30.197  23.876  1.00  0.00     0.000 C 
ENDROOT
BRANCH   1   2
ATOM      2  C   UNL     1      25.682 -30.897  23.141  1.00  0.00     0.000 C 
BRANCH   2   3
ATOM      3  C   UNL     1      25.545 -32.429  23.129  1.00  0.00     0.000 C 
BRANCH   3   4
ATOM      4  C   UNL     1      26.380 -33.085  22.017  1.00  0.00     0.000 C 
BRANCH   4   5
ATOM      5  C   UNL     1      25.637 -33.124  20.669  1.00  0.00     0.000 C 
BRANCH   5   6
ATOM      6  C   UNL     1      24.143 -33.465  20.823  1.00  0.00     0.006 C 
BRANCH   6   7
ATOM      7  C   UNL     1      23.764 -34.879  20.354  1.00  0.00     0.053 C 
BRANCH   7   8
ATOM      8  C   UNL     1      24.064 -35.914  21.394  1.00  0.00     0.041 C 
ATOM      9  O   UNL     1      24.398 -37.079  21.051  1.00  0.00    -0.550 OA
ATOM     10  O   UNL     1      23.943 -35.601  22.742  1.00  0.00    -0.550 OA
ENDBRANCH   7   8
ENDBRANCH   6   7
ENDBRANCH   5   6
ENDBRANCH   4   5
ENDBRANCH   3   4
ENDBRANCH   2   3
ENDBRANCH   1   2
BRANCH   1  11
ATOM     11  C   UNL     1      23.882 -31.017  25.011  1.00  0.00     0.000 C 
BRANCH  11  12
ATOM     12  C   UNL     1      23.631 -30.191  26.280  1.00  0.00    -0.000 C 
BRANCH  12  13
ATOM     13  C   UNL     1      23.547 -28.693  25.954  1.00  0.00    -0.000 C 
BRANCH  13  14
ATOM     14  C   UNL     1      23.722 -27.797  27.193  1.00  0.00    -0.000 C 
BRANCH  14  15
ATOM     15  C   UNL     1      22.823 -28.159  28.389  1.00  0.00    -0.000 C 
BRANCH  15  16
ATOM     16  C   UNL     1      21.730 -27.113  28.656  1.00  0.00    -0.000 C 
BRANCH  16  17
ATOM     17  C   UNL     1      20.399 -27.535  28.025  1.00  0.00    -0.003 C 
ATOM     18  C   UNL     1      19.482 -26.334  27.815  1.00  0.00     0.004 C 
ENDBRANCH  16  17
ENDBRANCH  15  16
ENDBRANCH  14  15
ENDBRANCH  13  14
ENDBRANCH  12  13
ENDBRANCH  11  12
ENDBRANCH   1  11
TORSDOF 14
ENDMDL
MODEL 8
REMARK VINA RESULT:    -4.059      1.588      3.178
REMARK INTER + INTRA:          -9.322
REMARK INTER:                  -7.865
REMARK INTRA:                  -1.457
REMARK UNBOUND:                -1.941
REMARK SMILES CCCCCCCCCCCCCCCC(=O)[O-]
REMARK SMILES IDX 9 1 10 2 11 3 12 4 13 5 14 6 15 7 16 8 17 9 18 10 8 11 7 12
REMARK SMILES IDX 6 13 5 14 4 15 3 16 2 17 1 18
REMARK H PARENT
REMARK Flexibility Score: inf
ROOT
ATOM      1  C   UNL     1      23.953 -33.375  21.149  1.00  0.00     0.000 C 
ENDROOT
BRANCH   1   2
ATOM      2  C   UNL     1      25.303 -32.928  20.561  1.00  0.00     0.000 C 
BRANCH   2   3
ATOM      3  C   UNL     1      26.318 -32.511  21.639  1.00  0.00     0.000 C 
BRANCH   3   4
ATOM      4  C   UNL     1      25.643 -32.135  22.969  1.00  0.00     0.000 C 
BRANCH   4   5
ATOM      5  C   UNL     1      25.527 -30.612  23.159  1.00  0.00     0.000 C 
BRANCH   5   6
ATOM      6  C   UNL     1      24.495 -30.223  24.234  1.00  0.00     0.006 C 
BRANCH   6   7
ATOM      7  C   UNL     1      23.493 -31.336  24.583  1.00  0.00     0.053 C 
BRANCH   7   8
ATOM      8  C   UNL     1      22.486 -30.885  25.596  1.00  0.00     0.041 C 
ATOM      9  O   UNL     1      22.780 -29.984  26.425  1.00  0.00    -0.550 OA
ATOM     10  O   UNL     1      21.233 -31.482  25.644  1.00  0.00    -0.550 OA
ENDBRANCH   7   8
ENDBRANCH   6   7
ENDBRANCH   5   6
ENDBRANCH   4   5
ENDBRANCH   3   4
ENDBRANCH   2   3
ENDBRANCH   1   2
BRANCH   1  11
ATOM     11  C   UNL     1      23.527 -34.810  20.786  1.00  0.00     0.000 C 
BRANCH  11  12
ATOM     12  C   UNL     1      24.491 -35.877  21.325  1.00  0.00    -0.000 C 
BRANCH  12  13
ATOM     13  C   UNL     1      24.640 -35.763  22.849  1.00  0.00    -0.000 C 
BRANCH  13  14
ATOM     14  C   UNL     1      26.106 -35.624  23.300  1.00  0.00    -0.000 C 
BRANCH  14  15
ATOM     15  C   UNL     1      26.766 -36.929  23.779  1.00  0.00    -0.000 C 
BRANCH  15  16
ATOM     16  C   UNL     1      25.747 -37.992  24.217  1.00  0.00    -0.000 C 
BRANCH  16  17
ATOM     17  C   UNL     1      25.577 -37.994  25.740  1.00  0.00    -0.003 C 
ATOM     18  C   UNL     1      26.917 -37.809  26.446  1.00  0.00     0.004 C 
ENDBRANCH  16  17
ENDBRANCH  15  16
ENDBRANCH  14  15
ENDBRANCH  13  14
ENDBRANCH  12  13
ENDBRANCH  11  12
ENDBRANCH   1  11
TORSDOF 14
ENDMDL
MODEL 9
REMARK VINA RESULT:    -4.025      2.942      5.735
REMARK INTER + INTRA:          -9.260
REMARK INTER:                  -7.300
REMARK INTRA:                  -1.960
REMARK UNBOUND:                -1.941
REMARK SMILES CCCCCCCCCCCCCCCC(=O)[O-]
REMARK SMILES IDX 9 1 10 2 11 3 12 4 13 5 14 6 15 7 16 8 17 9 18 10 8 11 7 12
REMARK SMILES IDX 6 13 5 14 4 15 3 16 2 17 1 18
REMARK H PARENT
REMARK Flexibility Score: inf
ROOT
ATOM      1  C   UNL     1      23.425 -34.345  20.840  1.00  0.00     0.000 C 
ENDROOT
BRANCH   1   2
ATOM      2  C   UNL     1      22.907 -35.793  20.909  1.00  0.00     0.000 C 
BRANCH   2   3
ATOM      3  C   UNL     1      24.037 -36.837  20.863  1.00  0.00     0.000 C 
BRANCH   3   4
ATOM      4  C   UNL     1      24.363 -37.413  22.251  1.00  0.00     0.000 C 
BRANCH   4   5
ATOM      5  C   UNL     1      25.742 -36.963  22.764  1.00  0.00     0.000 C 
BRANCH   5   6
ATOM      6  C   UNL     1      25.646 -35.937  23.909  1.00  0.00     0.006 C 
BRANCH   6   7
ATOM      7  C   UNL     1      24.213 -35.658  24.391  1.00  0.00     0.053 C 
BRANCH   7   8
ATOM      8  C   UNL     1      23.951 -36.251  25.742  1.00  0.00     0.041 C 
ATOM      9  O   UNL     1      23.014 -35.807  26.458  1.00  0.00    -0.550 OA
ATOM     10  O   UNL     1      24.762 -37.271  26.222  1.00  0.00    -0.550 OA
ENDBRANCH   7   8
ENDBRANCH   6   7
ENDBRANCH   5   6
ENDBRANCH   4   5
ENDBRANCH   3   4
ENDBRANCH   2   3
ENDBRANCH   1   2
BRANCH   1  11
ATOM     11  C   UNL     1      24.925 -34.205  20.518  1.00  0.00     0.000 C 
BRANCH  11  12
ATOM     12  C   UNL     1      25.412 -32.749  20.552  1.00  0.00    -0.000 C 
BRANCH  12  13
ATOM     13  C   UNL     1      26.362 -32.515  21.735  1.00  0.00    -0.000 C 
BRANCH  13  14
ATOM     14  C   UNL     1      25.628 -32.404  23.084  1.00  0.00    -0.000 C 
BRANCH  14  15
ATOM     15  C   UNL     1      25.282 -30.969  23.521  1.00  0.00    -0.000 C 
BRANCH  15  16
ATOM     16  C   UNL     1      24.454 -30.919  24.813  1.00  0.00    -0.000 C 
BRANCH  16  17
ATOM     17  C   UNL     1      23.621 -32.194  24.982  1.00  0.00    -0.003 C 
ATOM     18  C   UNL     1      22.905 -32.211  26.329  1.00  0.00     0.004 C 
ENDBRANCH  16  17
ENDBRANCH  15  16
ENDBRANCH  14  15
ENDBRANCH  13  14
ENDBRANCH  12  13
ENDBRANCH  11  12
ENDBRANCH   1  11
TORSDOF 14
ENDMDL
