MODEL 1
REMARK VINA RESULT:    -5.356      0.000      0.000
REMARK INTER + INTRA:         -13.126
REMARK INTER:                 -12.245
REMARK INTRA:                  -0.882
REMARK UNBOUND:                -0.882
REMARK SMILES CCCCCCCCCCCCCCCCCCCCCCCC(=O)[O-]
REMARK SMILES IDX 13 1 14 2 15 3 16 4 17 5 18 6 19 7 20 8 21 9 22 10 23 11
REMARK SMILES IDX 24 12 25 13 26 14 12 15 11 16 10 17 9 18 8 19 7 20 6 21 5 22
REMARK SMILES IDX 4 23 3 24 2 25 1 26
REMARK H PARENT
REMARK Flexibility Score: inf
ROOT
ATOM      1  C   UNL     1       2.926 -36.650 -22.202  1.00  0.00     0.000 C 
ENDROOT
BRANCH   1   2
ATOM      2  C   UNL     1       4.391 -36.508 -22.644  1.00  0.00     0.000 C 
BRANCH   2   3
ATOM      3  C   UNL     1       5.322 -36.062 -21.501  1.00  0.00     0.000 C 
BRANCH   3   4
ATOM      4  C   UNL     1       6.067 -34.731 -21.737  1.00  0.00     0.000 C 
BRANCH   4   5
ATOM      5  C   UNL     1       6.899 -34.226 -20.545  1.00  0.00     0.000 C 
BRANCH   5   6
ATOM      6  C   UNL     1       6.715 -32.724 -20.283  1.00  0.00     0.000 C 
BRANCH   6   7
ATOM      7  C   UNL     1       7.142 -32.360 -18.853  1.00  0.00     0.000 C 
BRANCH   7   8
ATOM      8  C   UNL     1       6.423 -31.108 -18.323  1.00  0.00     0.000 C 
BRANCH   8   9
ATOM      9  C   UNL     1       7.401 -29.994 -17.912  1.00  0.00     0.000 C 
BRANCH   9  10
ATOM     10  C   UNL     1       6.684 -28.687 -17.528  1.00  0.00     0.006 C 
BRANCH  10  11
ATOM     11  C   UNL     1       5.150 -28.778 -17.556  1.00  0.00     0.053 C 
BRANCH  11  12
ATOM     12  C   UNL     1       4.558 -28.709 -16.181  1.00  0.00     0.041 C 
ATOM     13  O   UNL     1       4.826 -29.598 -15.331  1.00  0.00    -0.550 OA
ATOM     14  O   UNL     1       3.682 -27.682 -15.850  1.00  0.00    -0.550 OA
ENDBRANCH  11  12
ENDBRANCH  10  11
ENDBRANCH   9  10
ENDBRANCH   8   9
ENDBRANCH   7   8
ENDBRANCH   6   7
ENDBRANCH   5   6
ENDBRANCH   4   5
ENDBRANCH   3   4
ENDBRANCH   2   3
ENDBRANCH   1   2
BRANCH   1  15
ATOM     15  C   UNL     1       2.123 -37.613 -23.096  1.00  0.00     0.000 C 
BRANCH  15  16
ATOM     16  C   UNL     1       0.601 -37.378 -23.108  1.00  0.00     0.000 C 
BRANCH  16  17
ATOM     17  C   UNL     1      -0.021 -37.406 -21.701  1.00  0.00     0.000 C 
BRANCH  17  18
ATOM     18  C   UNL     1      -1.183 -38.416 -21.596  1.00  0.00    -0.000 C 
BRANCH  18  19
ATOM     19  C   UNL     1      -0.740 -39.822 -21.158  1.00  0.00    -0.000 C 
BRANCH  19  20
ATOM     20  C   UNL     1      -1.509 -40.336 -19.931  1.00  0.00    -0.000 C 
BRANCH  20  21
ATOM     21  C   UNL     1      -1.117 -41.770 -19.537  1.00  0.00    -0.000 C 
BRANCH  21  22
ATOM     22  C   UNL     1      -0.314 -41.850 -18.221  1.00  0.00    -0.000 C 
BRANCH  22  23
ATOM     23  C   UNL     1      -0.877 -42.912 -17.261  1.00  0.00    -0.000 C 
BRANCH  23  24
ATOM     24  C   UNL     1      -0.180 -44.277 -17.402  1.00  0.00    -0.000 C 
BRANCH  24  25
ATOM     25  C   UNL     1      -1.117 -45.494 -17.295  1.00  0.00    -0.003 C 
ATOM     26  C   UNL     1      -2.566 -45.166 -17.651  1.00  0.00     0.004 C 
ENDBRANCH  24  25
ENDBRANCH  23  24
ENDBRANCH  22  23
ENDBRANCH  21  22
ENDBRANCH  20  21
ENDBRANCH  19  20
ENDBRANCH  18  19
ENDBRANCH  17  18
ENDBRANCH  16  17
ENDBRANCH  15  16
ENDBRANCH   1  15
TORSDOF 22
ENDMDL
MODEL 2
REMARK VINA RESULT:    -5.314      5.144      7.649
REMARK INTER + INTRA:         -13.030
REMARK INTER:                 -10.851
REMARK INTRA:                  -2.179
REMARK UNBOUND:                -0.882
REMARK SMILES CCCCCCCCCCCCCCCCCCCCCCCC(=O)[O-]
REMARK SMILES IDX 13 1 14 2 15 3 16 4 17 5 18 6 19 7 20 8 21 9 22 10 23 11
REMARK SMILES IDX 24 12 25 13 26 14 12 15 11 16 10 17 9 18 8 19 7 20 6 21 5 22
REMARK SMILES IDX 4 23 3 24 2 25 1 26
REMARK H PARENT
REMARK Flexibility Score: inf
ROOT
ATOM      1  C   UNL     1       2.507 -39.832 -15.477  1.00  0.00     0.000 C 
ENDROOT
BRANCH   1   2
ATOM      2  C   UNL     1       3.837 -39.326 -14.896  1.00  0.00     0.000 C 
BRANCH   2   3
ATOM      3  C   UNL     1       4.848 -38.915 -15.982  1.00  0.00     0.000 C 
BRANCH   3   4
ATOM      4  C   UNL     1       5.988 -39.923 -16.239  1.00  0.00     0.000 C 
BRANCH   4   5
ATOM      5  C   UNL     1       7.277 -39.319 -16.824  1.00  0.00     0.000 C 
BRANCH   5   6
ATOM      6  C   UNL     1       7.796 -40.090 -18.047  1.00  0.00     0.000 C 
BRANCH   6   7
ATOM      7  C   UNL     1       7.133 -39.583 -19.336  1.00  0.00     0.000 C 
BRANCH   7   8
ATOM      8  C   UNL     1       7.042 -38.049 -19.389  1.00  0.00     0.000 C 
BRANCH   8   9
ATOM      9  C   UNL     1       5.999 -37.554 -20.406  1.00  0.00     0.000 C 
BRANCH   9  10
ATOM     10  C   UNL     1       6.640 -37.023 -21.702  1.00  0.00     0.006 C 
BRANCH  10  11
ATOM     11  C   UNL     1       5.923 -35.804 -22.306  1.00  0.00     0.053 C 
BRANCH  11  12
ATOM     12  C   UNL     1       4.675 -36.193 -23.039  1.00  0.00     0.041 C 
ATOM     13  O   UNL     1       4.711 -36.411 -24.278  1.00  0.00    -0.550 OA
ATOM     14  O   UNL     1       3.466 -36.279 -22.359  1.00  0.00    -0.550 OA
ENDBRANCH  11  12
ENDBRANCH  10  11
ENDBRANCH   9  10
ENDBRANCH   8   9
ENDBRANCH   7   8
ENDBRANCH   6   7
ENDBRANCH   5   6
ENDBRANCH   4   5
ENDBRANCH   3   4
ENDBRANCH   2   3
ENDBRANCH   1   2
BRANCH   1  15
ATOM     15  C   UNL     1       2.094 -41.206 -14.915  1.00  0.00     0.000 C 
BRANCH  15  16
ATOM     16  C   UNL     1       3.103 -42.342 -15.162  1.00  0.00     0.000 C 
BRANCH  16  17
ATOM     17  C   UNL     1       2.435 -43.725 -15.271  1.00  0.00     0.000 C 
BRANCH  17  18
ATOM     18  C   UNL     1       2.963 -44.535 -16.474  1.00  0.00    -0.000 C 
BRANCH  18  19
ATOM     19  C   UNL     1       2.237 -45.875 -16.680  1.00  0.00    -0.000 C 
BRANCH  19  20
ATOM     20  C   UNL     1       1.123 -45.796 -17.735  1.00  0.00    -0.000 C 
BRANCH  20  21
ATOM     21  C   UNL     1      -0.279 -46.012 -17.142  1.00  0.00    -0.000 C 
BRANCH  21  22
ATOM     22  C   UNL     1      -1.305 -44.946 -17.582  1.00  0.00    -0.000 C 
BRANCH  22  23
ATOM     23  C   UNL     1      -1.042 -43.580 -16.925  1.00  0.00    -0.000 C 
BRANCH  23  24
ATOM     24  C   UNL     1      -1.465 -42.396 -17.813  1.00  0.00    -0.000 C 
BRANCH  24  25
ATOM     25  C   UNL     1      -0.386 -41.911 -18.798  1.00  0.00    -0.003 C 
ATOM     26  C   UNL     1       1.035 -42.217 -18.327  1.00  0.00     0.004 C 
ENDBRANCH  24  25
ENDBRANCH  23  24
ENDBRANCH  22  23
ENDBRANCH  21  22
ENDBRANCH  20  21
ENDBRANCH  19  20
ENDBRANCH  18  19
ENDBRANCH  17  18
ENDBRANCH  16  17
ENDBRANCH  15  16
ENDBRANCH   1  15
TORSDOF 22
ENDMDL
MODEL 3
REMARK VINA RESULT:    -5.299      4.185     12.002
REMARK INTER + INTRA:         -12.995
REMARK INTER:                 -11.821
REMARK INTRA:                  -1.174
REMARK UNBOUND:                -0.882
REMARK SMILES CCCCCCCCCCCCCCCCCCCCCCCC(=O)[O-]
REMARK SMILES IDX 13 1 14 2 15 3 16 4 17 5 18 6 19 7 20 8 21 9 22 10 23 11
REMARK SMILES IDX 24 12 25 13 26 14 12 15 11 16 10 17 9 18 8 19 7 20 6 21 5 22
REMARK SMILES IDX 4 23 3 24 2 25 1 26
REMARK H PARENT
REMARK Flexibility Score: inf
ROOT
ATOM      1  C   UNL     1      -1.131 -37.726 -21.787  1.00  0.00     0.000 C 
ENDROOT
BRANCH   1   2
ATOM      2  C   UNL     1      -0.855 -39.235 -21.686  1.00  0.00     0.000 C 
BRANCH   2   3
ATOM      3  C   UNL     1      -1.601 -39.905 -20.518  1.00  0.00     0.000 C 
BRANCH   3   4
ATOM      4  C   UNL     1      -0.878 -41.108 -19.876  1.00  0.00     0.000 C 
BRANCH   4   5
ATOM      5  C   UNL     1      -1.495 -41.617 -18.560  1.00  0.00     0.000 C 
BRANCH   5   6
ATOM      6  C   UNL     1      -0.708 -42.782 -17.944  1.00  0.00     0.000 C 
BRANCH   6   7
ATOM      7  C   UNL     1      -1.638 -43.961 -17.617  1.00  0.00     0.000 C 
BRANCH   7   8
ATOM      8  C   UNL     1      -0.889 -45.301 -17.545  1.00  0.00     0.000 C 
BRANCH   8   9
ATOM      9  C   UNL     1       0.636 -45.133 -17.661  1.00  0.00     0.000 C 
BRANCH   9  10
ATOM     10  C   UNL     1       1.391 -45.718 -16.454  1.00  0.00     0.006 C 
BRANCH  10  11
ATOM     11  C   UNL     1       1.272 -44.879 -15.170  1.00  0.00     0.053 C 
BRANCH  11  12
ATOM     12  C   UNL     1       2.214 -43.714 -15.173  1.00  0.00     0.041 C 
ATOM     13  O   UNL     1       1.797 -42.563 -15.467  1.00  0.00    -0.550 OA
ATOM     14  O   UNL     1       3.560 -43.905 -14.884  1.00  0.00    -0.550 OA
ENDBRANCH  11  12
ENDBRANCH  10  11
ENDBRANCH   9  10
ENDBRANCH   8   9
ENDBRANCH   7   8
ENDBRANCH   6   7
ENDBRANCH   5   6
ENDBRANCH   4   5
ENDBRANCH   3   4
ENDBRANCH   2   3
ENDBRANCH   1   2
BRANCH   1  15
ATOM     15  C   UNL     1       0.146 -36.875 -21.661  1.00  0.00     0.000 C 
BRANCH  15  16
ATOM     16  C   UNL     1       1.387 -37.451 -22.367  1.00  0.00     0.000 C 
BRANCH  16  17
ATOM     17  C   UNL     1       2.629 -36.552 -22.226  1.00  0.00     0.000 C 
BRANCH  17  18
ATOM     18  C   UNL     1       3.102 -35.993 -23.585  1.00  0.00    -0.000 C 
BRANCH  18  19
ATOM     19  C   UNL     1       4.628 -36.039 -23.773  1.00  0.00    -0.000 C 
BRANCH  19  20
ATOM     20  C   UNL     1       5.387 -36.226 -22.450  1.00  0.00    -0.000 C 
BRANCH  20  21
ATOM     21  C   UNL     1       5.969 -34.912 -21.904  1.00  0.00    -0.000 C 
BRANCH  21  22
ATOM     22  C   UNL     1       7.152 -35.117 -20.934  1.00  0.00    -0.000 C 
BRANCH  22  23
ATOM     23  C   UNL     1       7.595 -33.801 -20.272  1.00  0.00    -0.000 C 
BRANCH  23  24
ATOM     24  C   UNL     1       6.428 -32.826 -20.036  1.00  0.00    -0.000 C 
BRANCH  24  25
ATOM     25  C   UNL     1       6.734 -31.679 -19.055  1.00  0.00    -0.003 C 
ATOM     26  C   UNL     1       5.913 -31.757 -17.768  1.00  0.00     0.004 C 
ENDBRANCH  24  25
ENDBRANCH  23  24
ENDBRANCH  22  23
ENDBRANCH  21  22
ENDBRANCH  20  21
ENDBRANCH  19  20
ENDBRANCH  18  19
ENDBRANCH  17  18
ENDBRANCH  16  17
ENDBRANCH  15  16
ENDBRANCH   1  15
TORSDOF 22
ENDMDL
MODEL 4
REMARK VINA RESULT:    -5.234      2.723      5.790
REMARK INTER + INTRA:         -12.847
REMARK INTER:                 -11.284
REMARK INTRA:                  -1.564
REMARK UNBOUND:                -0.882
REMARK SMILES CCCCCCCCCCCCCCCCCCCCCCCC(=O)[O-]
REMARK SMILES IDX 13 1 14 2 15 3 16 4 17 5 18 6 19 7 20 8 21 9 22 10 23 11
REMARK SMILES IDX 24 12 25 13 26 14 12 15 11 16 10 17 9 18 8 19 7 20 6 21 5 22
REMARK SMILES IDX 4 23 3 24 2 25 1 26
REMARK H PARENT
REMARK Flexibility Score: inf
ROOT
ATOM      1  C   UNL     1       7.303 -33.153 -20.069  1.00  0.00     0.000 C 
ENDROOT
BRANCH   1   2
ATOM      2  C   UNL     1       6.283 -32.491 -19.129  1.00  0.00     0.000 C 
BRANCH   2   3
ATOM      3  C   UNL     1       6.460 -30.964 -19.031  1.00  0.00     0.000 C 
BRANCH   3   4
ATOM      4  C   UNL     1       7.065 -30.453 -17.707  1.00  0.00     0.000 C 
BRANCH   4   5
ATOM      5  C   UNL     1       7.775 -29.090 -17.794  1.00  0.00     0.000 C 
BRANCH   5   6
ATOM      6  C   UNL     1       7.050 -27.989 -17.006  1.00  0.00     0.000 C 
BRANCH   6   7
ATOM      7  C   UNL     1       5.627 -27.775 -17.543  1.00  0.00     0.000 C 
BRANCH   7   8
ATOM      8  C   UNL     1       4.578 -27.705 -16.422  1.00  0.00     0.000 C 
BRANCH   8   9
ATOM      9  C   UNL     1       4.842 -28.723 -15.300  1.00  0.00     0.000 C 
BRANCH   9  10
ATOM     10  C   UNL     1       3.690 -29.730 -15.128  1.00  0.00     0.006 C 
BRANCH  10  11
ATOM     11  C   UNL     1       3.789 -30.964 -16.040  1.00  0.00     0.053 C 
BRANCH  11  12
ATOM     12  C   UNL     1       2.743 -31.986 -15.717  1.00  0.00     0.041 C 
ATOM     13  O   UNL     1       3.065 -33.067 -15.159  1.00  0.00    -0.550 OA
ATOM     14  O   UNL     1       1.417 -31.760 -16.064  1.00  0.00    -0.550 OA
ENDBRANCH  11  12
ENDBRANCH  10  11
ENDBRANCH   9  10
ENDBRANCH   8   9
ENDBRANCH   7   8
ENDBRANCH   6   7
ENDBRANCH   5   6
ENDBRANCH   4   5
ENDBRANCH   3   4
ENDBRANCH   2   3
ENDBRANCH   1   2
BRANCH   1  15
ATOM     15  C   UNL     1       6.900 -34.583 -20.475  1.00  0.00     0.000 C 
BRANCH  15  16
ATOM     16  C   UNL     1       6.044 -34.683 -21.751  1.00  0.00     0.000 C 
BRANCH  16  17
ATOM     17  C   UNL     1       6.268 -35.995 -22.523  1.00  0.00     0.000 C 
BRANCH  17  18
ATOM     18  C   UNL     1       5.113 -36.303 -23.500  1.00  0.00    -0.000 C 
BRANCH  18  19
ATOM     19  C   UNL     1       3.873 -36.906 -22.818  1.00  0.00    -0.000 C 
BRANCH  19  20
ATOM     20  C   UNL     1       2.842 -37.444 -23.822  1.00  0.00    -0.000 C 
BRANCH  20  21
ATOM     21  C   UNL     1       1.395 -37.087 -23.442  1.00  0.00    -0.000 C 
BRANCH  21  22
ATOM     22  C   UNL     1       1.192 -36.867 -21.928  1.00  0.00    -0.000 C 
BRANCH  22  23
ATOM     23  C   UNL     1      -0.293 -36.919 -21.528  1.00  0.00    -0.000 C 
BRANCH  23  24
ATOM     24  C   UNL     1      -1.034 -38.127 -22.130  1.00  0.00    -0.000 C 
BRANCH  24  25
ATOM     25  C   UNL     1      -0.703 -39.480 -21.474  1.00  0.00    -0.003 C 
ATOM     26  C   UNL     1      -1.748 -39.919 -20.449  1.00  0.00     0.004 C 
ENDBRANCH  24  25
ENDBRANCH  23  24
ENDBRANCH  22  23
ENDBRANCH  21  22
ENDBRANCH  20  21
ENDBRANCH  19  20
ENDBRANCH  18  19
ENDBRANCH  17  18
ENDBRANCH  16  17
ENDBRANCH  15  16
ENDBRANCH   1  15
TORSDOF 22
ENDMDL
MODEL 5
REMARK VINA RESULT:    -5.231     12.343     15.467
REMARK INTER + INTRA:         -12.840
REMARK INTER:                  -8.017
REMARK INTRA:                  -4.823
REMARK UNBOUND:                -0.882
REMARK SMILES CCCCCCCCCCCCCCCCCCCCCCCC(=O)[O-]
REMARK SMILES IDX 13 1 14 2 15 3 16 4 17 5 18 6 19 7 20 8 21 9 22 10 23 11
REMARK SMILES IDX 24 12 25 13 26 14 12 15 11 16 10 17 9 18 8 19 7 20 6 21 5 22
REMARK SMILES IDX 4 23 3 24 2 25 1 26
REMARK H PARENT
REMARK Flexibility Score: inf
ROOT
ATOM      1  C   UNL     1      -2.916 -29.776 -27.746  1.00  0.00     0.000 C 
ENDROOT
BRANCH   1   2
ATOM      2  C   UNL     1      -4.339 -29.273 -28.038  1.00  0.00     0.000 C 
BRANCH   2   3
ATOM      3  C   UNL     1      -5.401 -29.913 -27.126  1.00  0.00     0.000 C 
BRANCH   3   4
ATOM      4  C   UNL     1      -6.439 -30.802 -27.842  1.00  0.00     0.000 C 
BRANCH   4   5
ATOM      5  C   UNL     1      -6.284 -30.888 -29.371  1.00  0.00     0.000 C 
BRANCH   5   6
ATOM      6  C   UNL     1      -6.090 -32.327 -29.871  1.00  0.00     0.000 C 
BRANCH   6   7
ATOM      7  C   UNL     1      -5.072 -32.376 -31.020  1.00  0.00     0.000 C 
BRANCH   7   8
ATOM      8  C   UNL     1      -4.204 -31.110 -31.094  1.00  0.00     0.000 C 
BRANCH   8   9
ATOM      9  C   UNL     1      -2.700 -31.417 -30.980  1.00  0.00     0.000 C 
BRANCH   9  10
ATOM     10  C   UNL     1      -1.820 -30.183 -31.250  1.00  0.00     0.006 C 
BRANCH  10  11
ATOM     11  C   UNL     1      -2.606 -28.927 -31.662  1.00  0.00     0.053 C 
BRANCH  11  12
ATOM     12  C   UNL     1      -1.904 -28.153 -32.736  1.00  0.00     0.041 C 
ATOM     13  O   UNL     1      -0.655 -28.240 -32.867  1.00  0.00    -0.550 OA
ATOM     14  O   UNL     1      -2.626 -27.309 -33.571  1.00  0.00    -0.550 OA
ENDBRANCH  11  12
ENDBRANCH  10  11
ENDBRANCH   9  10
ENDBRANCH   8   9
ENDBRANCH   7   8
ENDBRANCH   6   7
ENDBRANCH   5   6
ENDBRANCH   4   5
ENDBRANCH   3   4
ENDBRANCH   2   3
ENDBRANCH   1   2
BRANCH   1  15
ATOM     15  C   UNL     1      -2.898 -31.039 -26.865  1.00  0.00     0.000 C 
BRANCH  15  16
ATOM     16  C   UNL     1      -2.842 -32.372 -27.635  1.00  0.00     0.000 C 
BRANCH  16  17
ATOM     17  C   UNL     1      -3.845 -33.413 -27.106  1.00  0.00     0.000 C 
BRANCH  17  18
ATOM     18  C   UNL     1      -3.899 -34.675 -27.992  1.00  0.00    -0.000 C 
BRANCH  18  19
ATOM     19  C   UNL     1      -2.866 -34.671 -29.132  1.00  0.00    -0.000 C 
BRANCH  19  20
ATOM     20  C   UNL     1      -3.346 -35.437 -30.375  1.00  0.00    -0.000 C 
BRANCH  20  21
ATOM     21  C   UNL     1      -2.573 -35.056 -31.648  1.00  0.00    -0.000 C 
BRANCH  21  22
ATOM     22  C   UNL     1      -3.033 -35.828 -32.903  1.00  0.00    -0.000 C 
BRANCH  22  23
ATOM     23  C   UNL     1      -3.608 -34.893 -33.981  1.00  0.00    -0.000 C 
BRANCH  23  24
ATOM     24  C   UNL     1      -2.628 -33.779 -34.394  1.00  0.00    -0.000 C 
BRANCH  24  25
ATOM     25  C   UNL     1      -3.222 -32.359 -34.377  1.00  0.00    -0.003 C 
ATOM     26  C   UNL     1      -2.219 -31.287 -34.804  1.00  0.00     0.004 C 
ENDBRANCH  24  25
ENDBRANCH  23  24
ENDBRANCH  22  23
ENDBRANCH  21  22
ENDBRANCH  20  21
ENDBRANCH  19  20
ENDBRANCH  18  19
ENDBRANCH  17  18
ENDBRANCH  16  17
ENDBRANCH  15  16
ENDBRANCH   1  15
TORSDOF 22
ENDMDL
MODEL 6
REMARK VINA RESULT:    -5.188     11.893     14.757
REMARK INTER + INTRA:         -12.742
REMARK INTER:                  -7.729
REMARK INTRA:                  -5.013
REMARK UNBOUND:                -0.882
REMARK SMILES CCCCCCCCCCCCCCCCCCCCCCCC(=O)[O-]
REMARK SMILES IDX 13 1 14 2 15 3 16 4 17 5 18 6 19 7 20 8 21 9 22 10 23 11
REMARK SMILES IDX 24 12 25 13 26 14 12 15 11 16 10 17 9 18 8 19 7 20 6 21 5 22
REMARK SMILES IDX 4 23 3 24 2 25 1 26
REMARK H PARENT
REMARK Flexibility Score: inf
ROOT
ATOM      1  C   UNL     1      -2.519 -30.599 -31.094  1.00  0.00     0.000 C 
ENDROOT
BRANCH   1   2
ATOM      2  C   UNL     1      -2.047 -29.151 -30.883  1.00  0.00     0.000 C 
BRANCH   2   3
ATOM      3  C   UNL     1      -1.162 -28.635 -32.033  1.00  0.00     0.000 C 
BRANCH   3   4
ATOM      4  C   UNL     1      -1.924 -28.057 -33.244  1.00  0.00     0.000 C 
BRANCH   4   5
ATOM      5  C   UNL     1      -2.052 -29.005 -34.450  1.00  0.00     0.000 C 
BRANCH   5   6
ATOM      6  C   UNL     1      -0.872 -29.981 -34.569  1.00  0.00     0.000 C 
BRANCH   6   7
ATOM      7  C   UNL     1      -1.351 -31.437 -34.463  1.00  0.00     0.000 C 
BRANCH   7   8
ATOM      8  C   UNL     1      -0.406 -32.309 -33.622  1.00  0.00     0.000 C 
BRANCH   8   9
ATOM      9  C   UNL     1       0.876 -31.565 -33.210  1.00  0.00     0.000 C 
BRANCH   9  10
ATOM     10  C   UNL     1       1.073 -31.524 -31.683  1.00  0.00     0.006 C 
BRANCH  10  11
ATOM     11  C   UNL     1       0.491 -32.737 -30.940  1.00  0.00     0.053 C 
BRANCH  11  12
ATOM     12  C   UNL     1       1.525 -33.435 -30.109  1.00  0.00     0.041 C 
ATOM     13  O   UNL     1       2.571 -33.884 -30.646  1.00  0.00    -0.550 OA
ATOM     14  O   UNL     1       1.315 -33.622 -28.748  1.00  0.00    -0.550 OA
ENDBRANCH  11  12
ENDBRANCH  10  11
ENDBRANCH   9  10
ENDBRANCH   8   9
ENDBRANCH   7   8
ENDBRANCH   6   7
ENDBRANCH   5   6
ENDBRANCH   4   5
ENDBRANCH   3   4
ENDBRANCH   2   3
ENDBRANCH   1   2
BRANCH   1  15
ATOM     15  C   UNL     1      -3.952 -30.684 -31.653  1.00  0.00     0.000 C 
BRANCH  15  16
ATOM     16  C   UNL     1      -4.508 -32.111 -31.811  1.00  0.00     0.000 C 
BRANCH  16  17
ATOM     17  C   UNL     1      -5.539 -32.478 -30.729  1.00  0.00     0.000 C 
BRANCH  17  18
ATOM     18  C   UNL     1      -5.961 -31.256 -29.886  1.00  0.00    -0.000 C 
BRANCH  18  19
ATOM     19  C   UNL     1      -6.396 -31.614 -28.455  1.00  0.00    -0.000 C 
BRANCH  19  20
ATOM     20  C   UNL     1      -5.616 -30.840 -27.382  1.00  0.00    -0.000 C 
BRANCH  20  21
ATOM     21  C   UNL     1      -4.525 -29.932 -27.974  1.00  0.00    -0.000 C 
BRANCH  21  22
ATOM     22  C   UNL     1      -3.112 -30.228 -27.427  1.00  0.00    -0.000 C 
BRANCH  22  23
ATOM     23  C   UNL     1      -2.955 -31.695 -26.991  1.00  0.00    -0.000 C 
BRANCH  23  24
ATOM     24  C   UNL     1      -2.020 -32.498 -27.914  1.00  0.00    -0.000 C 
BRANCH  24  25
ATOM     25  C   UNL     1      -2.710 -33.616 -28.716  1.00  0.00    -0.003 C 
ATOM     26  C   UNL     1      -3.836 -34.300 -27.942  1.00  0.00     0.004 C 
ENDBRANCH  24  25
ENDBRANCH  23  24
ENDBRANCH  22  23
ENDBRANCH  21  22
ENDBRANCH  20  21
ENDBRANCH  19  20
ENDBRANCH  18  19
ENDBRANCH  17  18
ENDBRANCH  16  17
ENDBRANCH  15  16
ENDBRANCH   1  15
TORSDOF 22
ENDMDL
MODEL 7
REMARK VINA RESULT:    -5.185     12.884     16.328
REMARK INTER + INTRA:         -12.736
REMARK INTER:                  -7.871
REMARK INTRA:                  -4.865
REMARK UNBOUND:                -0.882
REMARK SMILES CCCCCCCCCCCCCCCCCCCCCCCC(=O)[O-]
REMARK SMILES IDX 13 1 14 2 15 3 16 4 17 5 18 6 19 7 20 8 21 9 22 10 23 11
REMARK SMILES IDX 24 12 25 13 26 14 12 15 11 16 10 17 9 18 8 19 7 20 6 21 5 22
REMARK SMILES IDX 4 23 3 24 2 25 1 26
REMARK H PARENT
REMARK Flexibility Score: inf
ROOT
ATOM      1  C   UNL     1      -0.368 -30.427 -31.834  1.00  0.00     0.000 C 
ENDROOT
BRANCH   1   2
ATOM      2  C   UNL     1      -0.762 -28.944 -31.738  1.00  0.00     0.000 C 
BRANCH   2   3
ATOM      3  C   UNL     1      -1.277 -28.371 -33.071  1.00  0.00     0.000 C 
BRANCH   3   4
ATOM      4  C   UNL     1      -1.242 -29.346 -34.266  1.00  0.00     0.000 C 
BRANCH   4   5
ATOM      5  C   UNL     1      -2.619 -29.753 -34.820  1.00  0.00     0.000 C 
BRANCH   5   6
ATOM      6  C   UNL     1      -2.997 -31.201 -34.472  1.00  0.00     0.000 C 
BRANCH   6   7
ATOM      7  C   UNL     1      -1.852 -32.165 -34.817  1.00  0.00     0.000 C 
BRANCH   7   8
ATOM      8  C   UNL     1      -1.749 -33.337 -33.827  1.00  0.00     0.000 C 
BRANCH   8   9
ATOM      9  C   UNL     1      -3.036 -33.532 -33.007  1.00  0.00     0.000 C 
BRANCH   9  10
ATOM     10  C   UNL     1      -3.224 -34.985 -32.534  1.00  0.00     0.006 C 
BRANCH  10  11
ATOM     11  C   UNL     1      -1.928 -35.668 -32.067  1.00  0.00     0.053 C 
BRANCH  11  12
ATOM     12  C   UNL     1      -1.630 -36.906 -32.856  1.00  0.00     0.041 C 
ATOM     13  O   UNL     1      -0.524 -37.032 -33.444  1.00  0.00    -0.550 OA
ATOM     14  O   UNL     1      -2.588 -37.907 -32.971  1.00  0.00    -0.550 OA
ENDBRANCH  11  12
ENDBRANCH  10  11
ENDBRANCH   9  10
ENDBRANCH   8   9
ENDBRANCH   7   8
ENDBRANCH   6   7
ENDBRANCH   5   6
ENDBRANCH   4   5
ENDBRANCH   3   4
ENDBRANCH   2   3
ENDBRANCH   1   2
BRANCH   1  15
ATOM     15  C   UNL     1      -1.060 -31.299 -30.771  1.00  0.00     0.000 C 
BRANCH  15  16
ATOM     16  C   UNL     1      -0.230 -32.492 -30.263  1.00  0.00     0.000 C 
BRANCH  16  17
ATOM     17  C   UNL     1      -0.948 -33.301 -29.168  1.00  0.00     0.000 C 
BRANCH  17  18
ATOM     18  C   UNL     1      -2.483 -33.243 -29.310  1.00  0.00    -0.000 C 
BRANCH  18  19
ATOM     19  C   UNL     1      -3.220 -33.047 -27.974  1.00  0.00    -0.000 C 
BRANCH  19  20
ATOM     20  C   UNL     1      -2.623 -31.916 -27.123  1.00  0.00    -0.000 C 
BRANCH  20  21
ATOM     21  C   UNL     1      -3.468 -30.631 -27.159  1.00  0.00    -0.000 C 
BRANCH  21  22
ATOM     22  C   UNL     1      -2.739 -29.432 -27.803  1.00  0.00    -0.000 C 
BRANCH  22  23
ATOM     23  C   UNL     1      -3.422 -28.967 -29.101  1.00  0.00    -0.000 C 
BRANCH  23  24
ATOM     24  C   UNL     1      -4.439 -29.989 -29.643  1.00  0.00    -0.000 C 
BRANCH  24  25
ATOM     25  C   UNL     1      -4.427 -30.161 -31.172  1.00  0.00    -0.003 C 
ATOM     26  C   UNL     1      -4.791 -28.879 -31.921  1.00  0.00     0.004 C 
ENDBRANCH  24  25
ENDBRANCH  23  24
ENDBRANCH  22  23
ENDBRANCH  21  22
ENDBRANCH  20  21
ENDBRANCH  19  20
ENDBRANCH  18  19
ENDBRANCH  17  18
ENDBRANCH  16  17
ENDBRANCH  15  16
ENDBRANCH   1  15
TORSDOF 22
ENDMDL
MODEL 8
REMARK VINA RESULT:    -5.123     12.013     16.128
REMARK INTER + INTRA:         -12.595
REMARK INTER:                  -8.085
REMARK INTRA:                  -4.510
REMARK UNBOUND:                -0.882
REMARK SMILES CCCCCCCCCCCCCCCCCCCCCCCC(=O)[O-]
REMARK SMILES IDX 13 1 14 2 15 3 16 4 17 5 18 6 19 7 20 8 21 9 22 10 23 11
REMARK SMILES IDX 24 12 25 13 26 14 12 15 11 16 10 17 9 18 8 19 7 20 6 21 5 22
REMARK SMILES IDX 4 23 3 24 2 25 1 26
REMARK H PARENT
REMARK Flexibility Score: inf
ROOT
ATOM      1  C   UNL     1      -2.294 -30.408 -29.734  1.00  0.00     0.000 C 
ENDROOT
BRANCH   1   2
ATOM      2  C   UNL     1      -2.694 -29.667 -28.448  1.00  0.00     0.000 C 
BRANCH   2   3
ATOM      3  C   UNL     1      -3.109 -30.619 -27.311  1.00  0.00     0.000 C 
BRANCH   3   4
ATOM      4  C   UNL     1      -4.628 -30.841 -27.156  1.00  0.00     0.000 C 
BRANCH   4   5
ATOM      5  C   UNL     1      -5.515 -29.906 -27.997  1.00  0.00     0.000 C 
BRANCH   5   6
ATOM      6  C   UNL     1      -6.160 -30.616 -29.197  1.00  0.00     0.000 C 
BRANCH   6   7
ATOM      7  C   UNL     1      -5.853 -32.121 -29.174  1.00  0.00     0.000 C 
BRANCH   7   8
ATOM      8  C   UNL     1      -5.281 -32.628 -30.507  1.00  0.00     0.000 C 
BRANCH   8   9
ATOM      9  C   UNL     1      -4.274 -33.776 -30.320  1.00  0.00     0.000 C 
BRANCH   9  10
ATOM     10  C   UNL     1      -3.961 -34.056 -28.839  1.00  0.00     0.006 C 
BRANCH  10  11
ATOM     11  C   UNL     1      -2.460 -34.127 -28.514  1.00  0.00     0.053 C 
BRANCH  11  12
ATOM     12  C   UNL     1      -1.918 -35.516 -28.668  1.00  0.00     0.041 C 
ATOM     13  O   UNL     1      -2.687 -36.509 -28.580  1.00  0.00    -0.550 OA
ATOM     14  O   UNL     1      -0.558 -35.715 -28.872  1.00  0.00    -0.550 OA
ENDBRANCH  11  12
ENDBRANCH  10  11
ENDBRANCH   9  10
ENDBRANCH   8   9
ENDBRANCH   7   8
ENDBRANCH   6   7
ENDBRANCH   5   6
ENDBRANCH   4   5
ENDBRANCH   3   4
ENDBRANCH   2   3
ENDBRANCH   1   2
BRANCH   1  15
ATOM     15  C   UNL     1      -2.865 -29.750 -31.004  1.00  0.00     0.000 C 
BRANCH  15  16
ATOM     16  C   UNL     1      -2.787 -28.213 -31.036  1.00  0.00     0.000 C 
BRANCH  16  17
ATOM     17  C   UNL     1      -1.901 -27.680 -32.176  1.00  0.00     0.000 C 
BRANCH  17  18
ATOM     18  C   UNL     1      -0.500 -28.327 -32.179  1.00  0.00    -0.000 C 
BRANCH  18  19
ATOM     19  C   UNL     1      -0.184 -29.108 -33.466  1.00  0.00    -0.000 C 
BRANCH  19  20
ATOM     20  C   UNL     1      -1.360 -29.130 -34.455  1.00  0.00    -0.000 C 
BRANCH  20  21
ATOM     21  C   UNL     1      -1.881 -30.550 -34.732  1.00  0.00    -0.000 C 
BRANCH  21  22
ATOM     22  C   UNL     1      -1.235 -31.629 -33.839  1.00  0.00    -0.000 C 
BRANCH  22  23
ATOM     23  C   UNL     1      -2.277 -32.592 -33.244  1.00  0.00    -0.000 C 
BRANCH  23  24
ATOM     24  C   UNL     1      -3.624 -32.551 -33.989  1.00  0.00    -0.000 C 
BRANCH  24  25
ATOM     25  C   UNL     1      -4.354 -33.904 -34.076  1.00  0.00    -0.003 C 
ATOM     26  C   UNL     1      -3.439 -35.096 -33.801  1.00  0.00     0.004 C 
ENDBRANCH  24  25
ENDBRANCH  23  24
ENDBRANCH  22  23
ENDBRANCH  21  22
ENDBRANCH  20  21
ENDBRANCH  19  20
ENDBRANCH  18  19
ENDBRANCH  17  18
ENDBRANCH  16  17
ENDBRANCH  15  16
ENDBRANCH   1  15
TORSDOF 22
ENDMDL
