MODEL 1
REMARK VINA RESULT:    -3.789      0.000      0.000
REMARK INTER + INTRA:          -4.011
REMARK INTER:                  -4.011
REMARK INTRA:                   0.000
REMARK UNBOUND:                 0.000
REMARK SMILES O=c1ccc2cc(O)c(O)cc2o1
REMARK SMILES IDX 4 1 3 2 2 3 1 4 13 5 12 6 11 7 9 8 7 9 6 10 5 11 8 12 10 14
REMARK H PARENT 8 13 10 15
REMARK Flexibility Score: inf
ROOT
ATOM      1  C   UNL     1      36.567 -35.566   4.246  1.00  0.00     0.019 A 
ATOM      2  C   UNL     1      36.982 -36.896   4.288  1.00  0.00     0.094 A 
ATOM      3  C   UNL     1      36.019 -37.908   4.235  1.00  0.00     0.336 A 
ATOM      4  O   UNL     1      36.374 -39.116   4.272  1.00  0.00    -0.246 OA
ATOM      5  O   UNL     1      34.726 -37.605   4.147  1.00  0.00    -0.423 OA
ATOM      6  C   UNL     1      34.287 -36.349   4.105  1.00  0.00     0.142 A 
ATOM      7  C   UNL     1      32.916 -36.090   4.012  1.00  0.00     0.098 A 
ATOM      8  C   UNL     1      32.449 -34.768   3.967  1.00  0.00     0.161 A 
ATOM      9  C   UNL     1      33.358 -33.701   4.015  1.00  0.00     0.158 A 
ATOM     10  C   UNL     1      34.735 -33.955   4.109  1.00  0.00     0.062 A 
ATOM     11  C   UNL     1      35.203 -35.275   4.154  1.00  0.00     0.022 A 
ENDROOT
BRANCH   9  12
ATOM     12  O   UNL     1      32.885 -32.390   3.970  1.00  0.00    -0.504 OA
ATOM     13  H   UNL     1      32.866 -31.863   3.106  1.00  0.00     0.293 HD
ENDBRANCH   9  12
BRANCH   8  14
ATOM     14  O   UNL     1      31.083 -34.507   3.875  1.00  0.00    -0.504 OA
ATOM     15  H   UNL     1      30.672 -34.127   3.031  1.00  0.00     0.293 HD
ENDBRANCH   8  14
TORSDOF 2
ENDMDL
MODEL 2
REMARK VINA RESULT:    -3.602      1.618      4.520
REMARK INTER + INTRA:          -3.813
REMARK INTER:                  -3.813
REMARK INTRA:                   0.000
REMARK UNBOUND:                 0.000
REMARK SMILES O=c1ccc2cc(O)c(O)cc2o1
REMARK SMILES IDX 4 1 3 2 2 3 1 4 13 5 12 6 11 7 9 8 7 9 6 10 5 11 8 12 10 14
REMARK H PARENT 8 13 10 15
REMARK Flexibility Score: inf
ROOT
ATOM      1  C   UNL     1      35.640 -34.239   4.246  1.00  0.00     0.019 A 
ATOM      2  C   UNL     1      34.834 -33.210   4.732  1.00  0.00     0.094 A 
ATOM      3  C   UNL     1      33.696 -33.534   5.478  1.00  0.00     0.336 A 
ATOM      4  O   UNL     1      32.956 -32.618   5.925  1.00  0.00    -0.246 OA
ATOM      5  O   UNL     1      33.388 -34.806   5.719  1.00  0.00    -0.423 OA
ATOM      6  C   UNL     1      34.129 -35.818   5.274  1.00  0.00     0.142 A 
ATOM      7  C   UNL     1      33.755 -37.135   5.558  1.00  0.00     0.098 A 
ATOM      8  C   UNL     1      34.533 -38.206   5.092  1.00  0.00     0.161 A 
ATOM      9  C   UNL     1      35.689 -37.957   4.338  1.00  0.00     0.158 A 
ATOM     10  C   UNL     1      36.069 -36.637   4.049  1.00  0.00     0.062 A 
ATOM     11  C   UNL     1      35.292 -35.567   4.515  1.00  0.00     0.022 A 
ENDROOT
BRANCH   9  12
ATOM     12  O   UNL     1      36.456 -39.026   3.878  1.00  0.00    -0.504 OA
ATOM     13  H   UNL     1      36.957 -39.633   4.516  1.00  0.00     0.293 HD
ENDBRANCH   9  12
BRANCH   8  14
ATOM     14  O   UNL     1      34.163 -39.520   5.374  1.00  0.00    -0.504 OA
ATOM     15  H   UNL     1      33.194 -39.778   5.520  1.00  0.00     0.293 HD
ENDBRANCH   8  14
TORSDOF 2
ENDMDL
MODEL 3
REMARK VINA RESULT:    -3.536      1.828      3.051
REMARK INTER + INTRA:          -3.742
REMARK INTER:                  -3.742
REMARK INTRA:                   0.000
REMARK UNBOUND:                 0.000
REMARK SMILES O=c1ccc2cc(O)c(O)cc2o1
REMARK SMILES IDX 4 1 3 2 2 3 1 4 13 5 12 6 11 7 9 8 7 9 6 10 5 11 8 12 10 14
REMARK H PARENT 8 13 10 15
REMARK Flexibility Score: inf
ROOT
ATOM      1  C   UNL     1      33.636 -35.676   3.875  1.00  0.00     0.019 A 
ATOM      2  C   UNL     1      34.837 -36.375   3.978  1.00  0.00     0.094 A 
ATOM      3  C   UNL     1      36.018 -35.663   4.214  1.00  0.00     0.336 A 
ATOM      4  O   UNL     1      37.113 -36.277   4.310  1.00  0.00    -0.246 OA
ATOM      5  O   UNL     1      35.993 -34.338   4.338  1.00  0.00    -0.423 OA
ATOM      6  C   UNL     1      34.869 -33.633   4.247  1.00  0.00     0.142 A 
ATOM      7  C   UNL     1      34.903 -32.242   4.385  1.00  0.00     0.098 A 
ATOM      8  C   UNL     1      33.720 -31.493   4.289  1.00  0.00     0.161 A 
ATOM      9  C   UNL     1      32.498 -32.139   4.054  1.00  0.00     0.158 A 
ATOM     10  C   UNL     1      32.457 -33.535   3.914  1.00  0.00     0.062 A 
ATOM     11  C   UNL     1      33.638 -34.284   4.010  1.00  0.00     0.022 A 
ENDROOT
BRANCH   9  12
ATOM     12  O   UNL     1      31.328 -31.388   3.961  1.00  0.00    -0.504 OA
ATOM     13  H   UNL     1      30.581 -31.481   4.639  1.00  0.00     0.293 HD
ENDBRANCH   9  12
BRANCH   8  14
ATOM     14  O   UNL     1      33.752 -30.106   4.427  1.00  0.00    -0.504 OA
ATOM     15  H   UNL     1      32.925 -29.580   4.681  1.00  0.00     0.293 HD
ENDBRANCH   8  14
TORSDOF 2
ENDMDL
MODEL 4
REMARK VINA RESULT:    -3.504      1.788      2.848
REMARK INTER + INTRA:          -3.709
REMARK INTER:                  -3.709
REMARK INTRA:                   0.000
REMARK UNBOUND:                 0.000
REMARK SMILES O=c1ccc2cc(O)c(O)cc2o1
REMARK SMILES IDX 4 1 3 2 2 3 1 4 13 5 12 6 11 7 9 8 7 9 6 10 5 11 8 12 10 14
REMARK H PARENT 8 13 10 15
REMARK Flexibility Score: inf
ROOT
ATOM      1  C   UNL     1      35.566 -34.207   4.304  1.00  0.00     0.019 A 
ATOM      2  C   UNL     1      35.295 -35.566   4.149  1.00  0.00     0.094 A 
ATOM      3  C   UNL     1      33.966 -35.981   4.017  1.00  0.00     0.336 A 
ATOM      4  O   UNL     1      33.701 -37.204   3.875  1.00  0.00    -0.246 OA
ATOM      5  O   UNL     1      32.976 -35.092   4.040  1.00  0.00    -0.423 OA
ATOM      6  C   UNL     1      33.190 -33.787   4.187  1.00  0.00     0.142 A 
ATOM      7  C   UNL     1      32.110 -32.899   4.205  1.00  0.00     0.098 A 
ATOM      8  C   UNL     1      32.331 -31.521   4.358  1.00  0.00     0.161 A 
ATOM      9  C   UNL     1      33.638 -31.032   4.495  1.00  0.00     0.158 A 
ATOM     10  C   UNL     1      34.726 -31.918   4.479  1.00  0.00     0.062 A 
ATOM     11  C   UNL     1      34.506 -33.294   4.325  1.00  0.00     0.022 A 
ENDROOT
BRANCH   9  12
ATOM     12  O   UNL     1      33.848 -29.662   4.648  1.00  0.00    -0.504 OA
ATOM     13  H   UNL     1      33.140 -28.985   4.393  1.00  0.00     0.293 HD
ENDBRANCH   9  12
BRANCH   8  14
ATOM     14  O   UNL     1      31.256 -30.634   4.376  1.00  0.00    -0.504 OA
ATOM     15  H   UNL     1      30.373 -30.863   3.935  1.00  0.00     0.293 HD
ENDBRANCH   8  14
TORSDOF 2
ENDMDL
MODEL 5
REMARK VINA RESULT:    -3.502     12.483     13.275
REMARK INTER + INTRA:          -3.706
REMARK INTER:                  -3.706
REMARK INTRA:                   0.000
REMARK UNBOUND:                 0.000
REMARK SMILES O=c1ccc2cc(O)c(O)cc2o1
REMARK SMILES IDX 4 1 3 2 2 3 1 4 13 5 12 6 11 7 9 8 7 9 6 10 5 11 8 12 10 14
REMARK H PARENT 8 13 10 15
REMARK Flexibility Score: inf
ROOT
ATOM      1  C   UNL     1      39.668 -30.887  15.319  1.00  0.00     0.019 A 
ATOM      2  C   UNL     1      40.125 -30.593  16.603  1.00  0.00     0.094 A 
ATOM      3  C   UNL     1      39.367 -29.743  17.414  1.00  0.00     0.336 A 
ATOM      4  O   UNL     1      39.763 -29.465  18.577  1.00  0.00    -0.246 OA
ATOM      5  O   UNL     1      38.227 -29.222  16.966  1.00  0.00    -0.423 OA
ATOM      6  C   UNL     1      37.755 -29.476  15.748  1.00  0.00     0.142 A 
ATOM      7  C   UNL     1      36.552 -28.900  15.330  1.00  0.00     0.098 A 
ATOM      8  C   UNL     1      36.050 -29.165  14.047  1.00  0.00     0.161 A 
ATOM      9  C   UNL     1      36.756 -30.009  13.178  1.00  0.00     0.158 A 
ATOM     10  C   UNL     1      37.965 -30.590  13.591  1.00  0.00     0.062 A 
ATOM     11  C   UNL     1      38.467 -30.326  14.873  1.00  0.00     0.022 A 
ENDROOT
BRANCH   9  12
ATOM     12  O   UNL     1      36.251 -30.267  11.905  1.00  0.00    -0.504 OA
ATOM     13  H   UNL     1      35.256 -30.252  11.716  1.00  0.00     0.293 HD
ENDBRANCH   9  12
BRANCH   8  14
ATOM     14  O   UNL     1      34.850 -28.592  13.628  1.00  0.00    -0.504 OA
ATOM     15  H   UNL     1      34.466 -27.773  14.085  1.00  0.00     0.293 HD
ENDBRANCH   8  14
TORSDOF 2
ENDMDL
MODEL 6
REMARK VINA RESULT:    -3.495     11.024     11.600
REMARK INTER + INTRA:          -3.699
REMARK INTER:                  -3.699
REMARK INTRA:                   0.000
REMARK UNBOUND:                 0.000
REMARK SMILES O=c1ccc2cc(O)c(O)cc2o1
REMARK SMILES IDX 4 1 3 2 2 3 1 4 13 5 12 6 11 7 9 8 7 9 6 10 5 11 8 12 10 14
REMARK H PARENT 8 13 10 15
REMARK Flexibility Score: inf
ROOT
ATOM      1  C   UNL     1      39.749 -31.650  14.436  1.00  0.00     0.019 A 
ATOM      2  C   UNL     1      39.884 -32.694  13.521  1.00  0.00     0.094 A 
ATOM      3  C   UNL     1      38.893 -32.877  12.552  1.00  0.00     0.336 A 
ATOM      4  O   UNL     1      38.997 -33.815  11.717  1.00  0.00    -0.246 OA
ATOM      5  O   UNL     1      37.837 -32.068  12.504  1.00  0.00    -0.423 OA
ATOM      6  C   UNL     1      37.670 -31.060  13.357  1.00  0.00     0.142 A 
ATOM      7  C   UNL     1      36.541 -30.242  13.260  1.00  0.00     0.098 A 
ATOM      8  C   UNL     1      36.359 -29.178  14.157  1.00  0.00     0.161 A 
ATOM      9  C   UNL     1      37.313 -28.934  15.155  1.00  0.00     0.158 A 
ATOM     10  C   UNL     1      38.448 -29.752  15.259  1.00  0.00     0.062 A 
ATOM     11  C   UNL     1      38.630 -30.815  14.363  1.00  0.00     0.022 A 
ENDROOT
BRANCH   9  12
ATOM     12  O   UNL     1      37.125 -27.875  16.043  1.00  0.00    -0.504 OA
ATOM     13  H   UNL     1      37.501 -27.898  16.983  1.00  0.00     0.293 HD
ENDBRANCH   9  12
BRANCH   8  14
ATOM     14  O   UNL     1      35.234 -28.362  14.062  1.00  0.00    -0.504 OA
ATOM     15  H   UNL     1      35.308 -27.387  13.793  1.00  0.00     0.293 HD
ENDBRANCH   8  14
TORSDOF 2
ENDMDL
MODEL 7
REMARK VINA RESULT:    -3.489      1.232      4.591
REMARK INTER + INTRA:          -3.693
REMARK INTER:                  -3.693
REMARK INTRA:                   0.000
REMARK UNBOUND:                 0.000
REMARK SMILES O=c1ccc2cc(O)c(O)cc2o1
REMARK SMILES IDX 4 1 3 2 2 3 1 4 13 5 12 6 11 7 9 8 7 9 6 10 5 11 8 12 10 14
REMARK H PARENT 8 13 10 15
REMARK Flexibility Score: inf
ROOT
ATOM      1  C   UNL     1      34.842 -32.816   4.093  1.00  0.00     0.019 A 
ATOM      2  C   UNL     1      33.655 -32.085   4.063  1.00  0.00     0.094 A 
ATOM      3  C   UNL     1      32.437 -32.765   4.161  1.00  0.00     0.336 A 
ATOM      4  O   UNL     1      31.354 -32.123   4.136  1.00  0.00    -0.246 OA
ATOM      5  O   UNL     1      32.413 -34.091   4.281  1.00  0.00    -0.423 OA
ATOM      6  C   UNL     1      33.522 -34.826   4.314  1.00  0.00     0.142 A 
ATOM      7  C   UNL     1      33.435 -36.216   4.441  1.00  0.00     0.098 A 
ATOM      8  C   UNL     1      34.602 -36.996   4.476  1.00  0.00     0.161 A 
ATOM      9  C   UNL     1      35.859 -36.381   4.383  1.00  0.00     0.158 A 
ATOM     10  C   UNL     1      35.952 -34.987   4.254  1.00  0.00     0.062 A 
ATOM     11  C   UNL     1      34.787 -34.207   4.220  1.00  0.00     0.022 A 
ENDROOT
BRANCH   9  12
ATOM     12  O   UNL     1      37.012 -37.164   4.418  1.00  0.00    -0.504 OA
ATOM     13  H   UNL     1      36.989 -38.153   4.202  1.00  0.00     0.293 HD
ENDBRANCH   9  12
BRANCH   8  14
ATOM     14  O   UNL     1      34.518 -38.381   4.603  1.00  0.00    -0.504 OA
ATOM     15  H   UNL     1      35.294 -38.984   4.355  1.00  0.00     0.293 HD
ENDBRANCH   8  14
TORSDOF 2
ENDMDL
MODEL 8
REMARK VINA RESULT:    -3.433     12.487     13.427
REMARK INTER + INTRA:          -3.634
REMARK INTER:                  -3.634
REMARK INTRA:                   0.000
REMARK UNBOUND:                 0.000
REMARK SMILES O=c1ccc2cc(O)c(O)cc2o1
REMARK SMILES IDX 4 1 3 2 2 3 1 4 13 5 12 6 11 7 9 8 7 9 6 10 5 11 8 12 10 14
REMARK H PARENT 8 13 10 15
REMARK Flexibility Score: inf
ROOT
ATOM      1  C   UNL     1      40.071 -30.661  16.690  1.00  0.00     0.019 A 
ATOM      2  C   UNL     1      39.618 -29.777  17.668  1.00  0.00     0.094 A 
ATOM      3  C   UNL     1      38.391 -29.131  17.481  1.00  0.00     0.336 A 
ATOM      4  O   UNL     1      37.964 -28.329  18.353  1.00  0.00    -0.246 OA
ATOM      5  O   UNL     1      37.670 -29.357  16.386  1.00  0.00    -0.423 OA
ATOM      6  C   UNL     1      38.066 -30.192  15.428  1.00  0.00     0.142 A 
ATOM      7  C   UNL     1      37.267 -30.390  14.298  1.00  0.00     0.098 A 
ATOM      8  C   UNL     1      37.680 -31.270  13.286  1.00  0.00     0.161 A 
ATOM      9  C   UNL     1      38.899 -31.953  13.406  1.00  0.00     0.158 A 
ATOM     10  C   UNL     1      39.706 -31.758  14.537  1.00  0.00     0.062 A 
ATOM     11  C   UNL     1      39.294 -30.880  15.549  1.00  0.00     0.022 A 
ENDROOT
BRANCH   9  12
ATOM     12  O   UNL     1      39.302 -32.825  12.395  1.00  0.00    -0.504 OA
ATOM     13  H   UNL     1      38.919 -32.766  11.460  1.00  0.00     0.293 HD
ENDBRANCH   9  12
BRANCH   8  14
ATOM     14  O   UNL     1      36.885 -31.469  12.159  1.00  0.00    -0.504 OA
ATOM     15  H   UNL     1      36.521 -30.689  11.623  1.00  0.00     0.293 HD
ENDBRANCH   8  14
TORSDOF 2
ENDMDL
MODEL 9
REMARK VINA RESULT:    -3.409      1.535      4.891
REMARK INTER + INTRA:          -3.608
REMARK INTER:                  -3.608
REMARK INTRA:                   0.000
REMARK UNBOUND:                 0.000
REMARK SMILES O=c1ccc2cc(O)c(O)cc2o1
REMARK SMILES IDX 4 1 3 2 2 3 1 4 13 5 12 6 11 7 9 8 7 9 6 10 5 11 8 12 10 14
REMARK H PARENT 8 13 10 15
REMARK Flexibility Score: inf
ROOT
ATOM      1  C   UNL     1      34.799 -31.893   4.388  1.00  0.00     0.019 A 
ATOM      2  C   UNL     1      33.755 -30.970   4.349  1.00  0.00     0.094 A 
ATOM      3  C   UNL     1      32.443 -31.436   4.210  1.00  0.00     0.336 A 
ATOM      4  O   UNL     1      31.486 -30.617   4.172  1.00  0.00    -0.246 OA
ATOM      5  O   UNL     1      32.197 -32.740   4.116  1.00  0.00    -0.423 OA
ATOM      6  C   UNL     1      33.164 -33.654   4.149  1.00  0.00     0.142 A 
ATOM      7  C   UNL     1      32.847 -35.012   4.046  1.00  0.00     0.098 A 
ATOM      8  C   UNL     1      33.862 -35.980   4.081  1.00  0.00     0.161 A 
ATOM      9  C   UNL     1      35.201 -35.586   4.219  1.00  0.00     0.158 A 
ATOM     10  C   UNL     1      35.526 -34.225   4.322  1.00  0.00     0.062 A 
ATOM     11  C   UNL     1      34.512 -33.257   4.288  1.00  0.00     0.022 A 
ENDROOT
BRANCH   9  12
ATOM     12  O   UNL     1      36.204 -36.554   4.252  1.00  0.00    -0.504 OA
ATOM     13  H   UNL     1      37.170 -36.324   4.050  1.00  0.00     0.293 HD
ENDBRANCH   9  12
BRANCH   8  14
ATOM     14  O   UNL     1      33.548 -37.334   3.978  1.00  0.00    -0.504 OA
ATOM     15  H   UNL     1      33.901 -38.011   4.644  1.00  0.00     0.293 HD
ENDBRANCH   8  14
TORSDOF 2
ENDMDL
