MODEL 1
REMARK VINA RESULT:    -4.411      0.000      0.000
REMARK INTER + INTRA:          -5.477
REMARK INTER:                  -5.184
REMARK INTRA:                  -0.292
REMARK UNBOUND:                -0.292
REMARK SMILES O=c1c(O)c(-c2ccc(O)cc2)oc2cc(O)cc(O)c12
REMARK SMILES IDX 5 1 3 2 2 3 1 4 21 5 19 6 18 7 16 8 15 9 14 10 13 11 6 12
REMARK SMILES IDX 7 13 8 14 9 15 12 16 11 17 10 18 4 20 20 22 17 24
REMARK H PARENT 10 19 4 21 20 23 17 25
REMARK Flexibility Score: inf
ROOT
ATOM      1  C   UNL     1      36.273  -3.067   6.650  1.00  0.00     0.180 A 
ATOM      2  C   UNL     1      35.786  -4.096   5.825  1.00  0.00     0.208 A 
ATOM      3  C   UNL     1      34.627  -4.788   6.212  1.00  0.00     0.238 A 
ATOM      4  O   UNL     1      34.241  -5.756   5.508  1.00  0.00    -0.285 OA
ATOM      5  C   UNL     1      33.938  -4.406   7.389  1.00  0.00     0.111 A 
ATOM      6  C   UNL     1      32.729  -5.008   7.853  1.00  0.00     0.134 A 
ATOM      7  C   UNL     1      32.194  -4.620   9.087  1.00  0.00     0.093 A 
ATOM      8  C   UNL     1      32.785  -3.608   9.843  1.00  0.00     0.123 A 
ATOM      9  C   UNL     1      33.937  -2.975   9.373  1.00  0.00     0.094 A 
ATOM     10  C   UNL     1      34.515  -3.367   8.164  1.00  0.00     0.146 A 
ATOM     11  O   UNL     1      35.623  -2.753   7.764  1.00  0.00    -0.452 OA
ENDROOT
BRANCH   1  12
ATOM     12  C   UNL     1      37.496  -2.301   6.317  1.00  0.00     0.021 A 
ATOM     13  C   UNL     1      38.757  -2.681   6.813  1.00  0.00     0.016 A 
ATOM     14  C   UNL     1      39.894  -1.927   6.504  1.00  0.00     0.047 A 
ATOM     15  C   UNL     1      39.783  -0.779   5.710  1.00  0.00     0.115 A 
ATOM     16  C   UNL     1      37.391  -1.136   5.539  1.00  0.00     0.016 A 
ATOM     17  C   UNL     1      38.530  -0.384   5.231  1.00  0.00     0.047 A 
BRANCH  15  18
ATOM     18  O   UNL     1      40.909  -0.021   5.396  1.00  0.00    -0.508 OA
ATOM     19  H   UNL     1      41.393   0.525   6.100  1.00  0.00     0.293 HD
ENDBRANCH  15  18
ENDBRANCH   1  12
BRANCH   2  20
ATOM     20  O   UNL     1      36.438  -4.405   4.628  1.00  0.00    -0.502 OA
ATOM     21  H   UNL     1      36.751  -3.692   3.980  1.00  0.00     0.293 HD
ENDBRANCH   2  20
BRANCH   6  22
ATOM     22  O   UNL     1      32.005  -5.966   7.136  1.00  0.00    -0.507 OA
ATOM     23  H   UNL     1      31.875  -6.924   7.421  1.00  0.00     0.293 HD
ENDBRANCH   6  22
BRANCH   8  24
ATOM     24  O   UNL     1      32.215  -3.235  11.058  1.00  0.00    -0.508 OA
ATOM     25  H   UNL     1      32.521  -2.406  11.555  1.00  0.00     0.293 HD
ENDBRANCH   8  24
TORSDOF 5
ENDMDL
MODEL 2
REMARK VINA RESULT:    -4.350      2.438      3.040
REMARK INTER + INTRA:          -5.405
REMARK INTER:                  -5.187
REMARK INTRA:                  -0.218
REMARK UNBOUND:                -0.292
REMARK SMILES O=c1c(O)c(-c2ccc(O)cc2)oc2cc(O)cc(O)c12
REMARK SMILES IDX 5 1 3 2 2 3 1 4 21 5 19 6 18 7 16 8 15 9 14 10 13 11 6 12
REMARK SMILES IDX 7 13 8 14 9 15 12 16 11 17 10 18 4 20 20 22 17 24
REMARK H PARENT 10 19 4 21 20 23 17 25
REMARK Flexibility Score: inf
ROOT
ATOM      1  C   UNL     1      36.669  -3.459   6.723  1.00  0.00     0.180 A 
ATOM      2  C   UNL     1      37.439  -4.496   7.277  1.00  0.00     0.208 A 
ATOM      3  C   UNL     1      37.082  -5.013   8.533  1.00  0.00     0.238 A 
ATOM      4  O   UNL     1      37.819  -5.888   9.056  1.00  0.00    -0.285 OA
ATOM      5  C   UNL     1      35.928  -4.526   9.194  1.00  0.00     0.111 A 
ATOM      6  C   UNL     1      35.448  -5.008  10.450  1.00  0.00     0.134 A 
ATOM      7  C   UNL     1      34.357  -4.377  11.059  1.00  0.00     0.093 A 
ATOM      8  C   UNL     1      33.688  -3.326  10.431  1.00  0.00     0.123 A 
ATOM      9  C   UNL     1      34.116  -2.883   9.179  1.00  0.00     0.094 A 
ATOM     10  C   UNL     1      35.225  -3.467   8.563  1.00  0.00     0.146 A 
ATOM     11  O   UNL     1      35.611  -3.001   7.382  1.00  0.00    -0.452 OA
ENDROOT
BRANCH   1  12
ATOM     12  C   UNL     1      36.990  -2.853   5.411  1.00  0.00     0.021 A 
ATOM     13  C   UNL     1      37.538  -1.560   5.314  1.00  0.00     0.016 A 
ATOM     14  C   UNL     1      37.809  -1.001   4.061  1.00  0.00     0.047 A 
ATOM     15  C   UNL     1      37.524  -1.718   2.893  1.00  0.00     0.115 A 
ATOM     16  C   UNL     1      36.688  -3.556   4.233  1.00  0.00     0.016 A 
ATOM     17  C   UNL     1      36.962  -2.994   2.981  1.00  0.00     0.047 A 
BRANCH  15  18
ATOM     18  O   UNL     1      37.792  -1.170   1.640  1.00  0.00    -0.508 OA
ATOM     19  H   UNL     1      38.522  -0.479   1.510  1.00  0.00     0.293 HD
ENDBRANCH  15  18
ENDBRANCH   1  12
BRANCH   2  20
ATOM     20  O   UNL     1      38.529  -5.017   6.573  1.00  0.00    -0.502 OA
ATOM     21  H   UNL     1      38.480  -5.246   5.588  1.00  0.00     0.293 HD
ENDBRANCH   2  20
BRANCH   6  22
ATOM     22  O   UNL     1      35.984  -6.109  11.124  1.00  0.00    -0.507 OA
ATOM     23  H   UNL     1      36.965  -6.340  11.164  1.00  0.00     0.293 HD
ENDBRANCH   6  22
BRANCH   8  24
ATOM     24  O   UNL     1      32.595  -2.733  11.059  1.00  0.00    -0.508 OA
ATOM     25  H   UNL     1      32.274  -3.043  11.969  1.00  0.00     0.293 HD
ENDBRANCH   8  24
TORSDOF 5
ENDMDL
MODEL 3
REMARK VINA RESULT:    -4.317     10.865     12.453
REMARK INTER + INTRA:          -5.367
REMARK INTER:                  -5.160
REMARK INTRA:                  -0.207
REMARK UNBOUND:                -0.292
REMARK SMILES O=c1c(O)c(-c2ccc(O)cc2)oc2cc(O)cc(O)c12
REMARK SMILES IDX 5 1 3 2 2 3 1 4 21 5 19 6 18 7 16 8 15 9 14 10 13 11 6 12
REMARK SMILES IDX 7 13 8 14 9 15 12 16 11 17 10 18 4 20 20 22 17 24
REMARK H PARENT 10 19 4 21 20 23 17 25
REMARK Flexibility Score: inf
ROOT
ATOM      1  C   UNL     1      30.295   6.464   4.356  1.00  0.00     0.180 A 
ATOM      2  C   UNL     1      29.085   6.347   3.648  1.00  0.00     0.208 A 
ATOM      3  C   UNL     1      29.102   5.791   2.359  1.00  0.00     0.238 A 
ATOM      4  O   UNL     1      28.029   5.759   1.703  1.00  0.00    -0.285 OA
ATOM      5  C   UNL     1      30.317   5.307   1.816  1.00  0.00     0.111 A 
ATOM      6  C   UNL     1      30.443   4.683   0.537  1.00  0.00     0.134 A 
ATOM      7  C   UNL     1      31.713   4.340   0.059  1.00  0.00     0.093 A 
ATOM      8  C   UNL     1      32.854   4.537   0.836  1.00  0.00     0.123 A 
ATOM      9  C   UNL     1      32.736   5.096   2.110  1.00  0.00     0.094 A 
ATOM     10  C   UNL     1      31.487   5.483   2.599  1.00  0.00     0.146 A 
ATOM     11  O   UNL     1      31.423   6.030   3.807  1.00  0.00    -0.452 OA
ENDROOT
BRANCH   1  12
ATOM     12  C   UNL     1      30.361   7.052   5.714  1.00  0.00     0.021 A 
ATOM     13  C   UNL     1      30.939   8.315   5.938  1.00  0.00     0.016 A 
ATOM     14  C   UNL     1      31.011   8.838   7.233  1.00  0.00     0.047 A 
ATOM     15  C   UNL     1      30.521   8.102   8.319  1.00  0.00     0.115 A 
ATOM     16  C   UNL     1      29.891   6.312   6.811  1.00  0.00     0.016 A 
ATOM     17  C   UNL     1      29.964   6.838   8.105  1.00  0.00     0.047 A 
BRANCH  15  18
ATOM     18  O   UNL     1      30.587   8.614   9.613  1.00  0.00    -0.508 OA
ATOM     19  H   UNL     1      30.206   8.106  10.403  1.00  0.00     0.293 HD
ENDBRANCH  15  18
ENDBRANCH   1  12
BRANCH   2  20
ATOM     20  O   UNL     1      27.885   6.760   4.234  1.00  0.00    -0.502 OA
ATOM     21  H   UNL     1      27.312   6.140   4.793  1.00  0.00     0.293 HD
ENDBRANCH   2  20
BRANCH   6  22
ATOM     22  O   UNL     1      29.360   4.358  -0.286  1.00  0.00    -0.507 OA
ATOM     23  H   UNL     1      28.694   3.624  -0.101  1.00  0.00     0.293 HD
ENDBRANCH   6  22
BRANCH   8  24
ATOM     24  O   UNL     1      34.100   4.167   0.335  1.00  0.00    -0.508 OA
ATOM     25  H   UNL     1      34.909   4.077   0.938  1.00  0.00     0.293 HD
ENDBRANCH   8  24
TORSDOF 5
ENDMDL
MODEL 4
REMARK VINA RESULT:    -4.183     11.335     12.805
REMARK INTER + INTRA:          -5.209
REMARK INTER:                  -4.913
REMARK INTRA:                  -0.296
REMARK UNBOUND:                -0.292
REMARK SMILES O=c1c(O)c(-c2ccc(O)cc2)oc2cc(O)cc(O)c12
REMARK SMILES IDX 5 1 3 2 2 3 1 4 21 5 19 6 18 7 16 8 15 9 14 10 13 11 6 12
REMARK SMILES IDX 7 13 8 14 9 15 12 16 11 17 10 18 4 20 20 22 17 24
REMARK H PARENT 10 19 4 21 20 23 17 25
REMARK Flexibility Score: inf
ROOT
ATOM      1  C   UNL     1      27.393  -2.857  -1.902  1.00  0.00     0.180 A 
ATOM      2  C   UNL     1      26.631  -3.168  -3.042  1.00  0.00     0.208 A 
ATOM      3  C   UNL     1      26.593  -4.497  -3.495  1.00  0.00     0.238 A 
ATOM      4  O   UNL     1      25.971  -4.754  -4.557  1.00  0.00    -0.285 OA
ATOM      5  C   UNL     1      27.272  -5.508  -2.771  1.00  0.00     0.111 A 
ATOM      6  C   UNL     1      27.266  -6.894  -3.113  1.00  0.00     0.134 A 
ATOM      7  C   UNL     1      28.061  -7.788  -2.386  1.00  0.00     0.093 A 
ATOM      8  C   UNL     1      28.811  -7.360  -1.291  1.00  0.00     0.123 A 
ATOM      9  C   UNL     1      28.781  -6.016  -0.914  1.00  0.00     0.094 A 
ATOM     10  C   UNL     1      28.028  -5.094  -1.643  1.00  0.00     0.146 A 
ATOM     11  O   UNL     1      28.045  -3.821  -1.264  1.00  0.00    -0.452 OA
ENDROOT
BRANCH   1  12
ATOM     12  C   UNL     1      27.494  -1.478  -1.372  1.00  0.00     0.021 A 
ATOM     13  C   UNL     1      28.523  -0.609  -1.780  1.00  0.00     0.016 A 
ATOM     14  C   UNL     1      28.610   0.681  -1.246  1.00  0.00     0.047 A 
ATOM     15  C   UNL     1      27.681   1.112  -0.291  1.00  0.00     0.115 A 
ATOM     16  C   UNL     1      26.579  -1.044  -0.399  1.00  0.00     0.016 A 
ATOM     17  C   UNL     1      26.669   0.247   0.132  1.00  0.00     0.047 A 
BRANCH  15  18
ATOM     18  O   UNL     1      27.758   2.396   0.246  1.00  0.00    -0.508 OA
ATOM     19  H   UNL     1      28.561   2.992   0.078  1.00  0.00     0.293 HD
ENDBRANCH  15  18
ENDBRANCH   1  12
BRANCH   2  20
ATOM     20  O   UNL     1      25.905  -2.169  -3.697  1.00  0.00    -0.502 OA
ATOM     21  H   UNL     1      25.472  -1.399  -3.201  1.00  0.00     0.293 HD
ENDBRANCH   2  20
BRANCH   6  22
ATOM     22  O   UNL     1      26.484  -7.446  -4.133  1.00  0.00    -0.507 OA
ATOM     23  H   UNL     1      26.835  -7.754  -5.026  1.00  0.00     0.293 HD
ENDBRANCH   6  22
BRANCH   8  24
ATOM     24  O   UNL     1      29.577  -8.280  -0.579  1.00  0.00    -0.508 OA
ATOM     25  H   UNL     1      30.172  -7.993   0.190  1.00  0.00     0.293 HD
ENDBRANCH   8  24
TORSDOF 5
ENDMDL
MODEL 5
REMARK VINA RESULT:    -4.167     11.594     12.835
REMARK INTER + INTRA:          -5.191
REMARK INTER:                  -4.905
REMARK INTRA:                  -0.286
REMARK UNBOUND:                -0.292
REMARK SMILES O=c1c(O)c(-c2ccc(O)cc2)oc2cc(O)cc(O)c12
REMARK SMILES IDX 5 1 3 2 2 3 1 4 21 5 19 6 18 7 16 8 15 9 14 10 13 11 6 12
REMARK SMILES IDX 7 13 8 14 9 15 12 16 11 17 10 18 4 20 20 22 17 24
REMARK H PARENT 10 19 4 21 20 23 17 25
REMARK Flexibility Score: inf
ROOT
ATOM      1  C   UNL     1      27.354  -1.308  -1.164  1.00  0.00     0.180 A 
ATOM      2  C   UNL     1      28.302  -0.342  -1.544  1.00  0.00     0.208 A 
ATOM      3  C   UNL     1      28.396   0.848  -0.804  1.00  0.00     0.238 A 
ATOM      4  O   UNL     1      29.194   1.739  -1.195  1.00  0.00    -0.285 OA
ATOM      5  C   UNL     1      27.581   1.033   0.340  1.00  0.00     0.111 A 
ATOM      6  C   UNL     1      27.624   2.180   1.190  1.00  0.00     0.134 A 
ATOM      7  C   UNL     1      26.696   2.302   2.231  1.00  0.00     0.093 A 
ATOM      8  C   UNL     1      25.771   1.293   2.495  1.00  0.00     0.123 A 
ATOM      9  C   UNL     1      25.756   0.143   1.704  1.00  0.00     0.094 A 
ATOM     10  C   UNL     1      26.644   0.009   0.634  1.00  0.00     0.146 A 
ATOM     11  O   UNL     1      26.582  -1.091  -0.106  1.00  0.00    -0.452 OA
ENDROOT
BRANCH   1  12
ATOM     12  C   UNL     1      27.185  -2.580  -1.902  1.00  0.00     0.021 A 
ATOM     13  C   UNL     1      26.403  -2.652  -3.070  1.00  0.00     0.016 A 
ATOM     14  C   UNL     1      26.239  -3.872  -3.735  1.00  0.00     0.047 A 
ATOM     15  C   UNL     1      26.841  -5.033  -3.236  1.00  0.00     0.115 A 
ATOM     16  C   UNL     1      27.768  -3.754  -1.397  1.00  0.00     0.016 A 
ATOM     17  C   UNL     1      27.603  -4.972  -2.065  1.00  0.00     0.047 A 
BRANCH  15  18
ATOM     18  O   UNL     1      26.685  -6.253  -3.892  1.00  0.00    -0.508 OA
ATOM     19  H   UNL     1      27.020  -6.391  -4.838  1.00  0.00     0.293 HD
ENDBRANCH  15  18
ENDBRANCH   1  12
BRANCH   2  20
ATOM     20  O   UNL     1      29.150  -0.578  -2.629  1.00  0.00    -0.502 OA
ATOM     21  H   UNL     1      29.343   0.127  -3.331  1.00  0.00     0.293 HD
ENDBRANCH   2  20
BRANCH   6  22
ATOM     22  O   UNL     1      28.565   3.208   1.073  1.00  0.00    -0.507 OA
ATOM     23  H   UNL     1      28.984   3.511   0.207  1.00  0.00     0.293 HD
ENDBRANCH   6  22
BRANCH   8  24
ATOM     24  O   UNL     1      24.874   1.441   3.550  1.00  0.00    -0.508 OA
ATOM     25  H   UNL     1      23.951   1.023   3.524  1.00  0.00     0.293 HD
ENDBRANCH   8  24
TORSDOF 5
ENDMDL
MODEL 6
REMARK VINA RESULT:    -4.079      2.012      2.105
REMARK INTER + INTRA:          -5.087
REMARK INTER:                  -4.791
REMARK INTRA:                  -0.296
REMARK UNBOUND:                -0.292
REMARK SMILES O=c1c(O)c(-c2ccc(O)cc2)oc2cc(O)cc(O)c12
REMARK SMILES IDX 5 1 3 2 2 3 1 4 21 5 19 6 18 7 16 8 15 9 14 10 13 11 6 12
REMARK SMILES IDX 7 13 8 14 9 15 12 16 11 17 10 18 4 20 20 22 17 24
REMARK H PARENT 10 19 4 21 20 23 17 25
REMARK Flexibility Score: inf
ROOT
ATOM      1  C   UNL     1      36.361  -3.838   5.032  1.00  0.00     0.180 A 
ATOM      2  C   UNL     1      35.727  -5.051   4.711  1.00  0.00     0.208 A 
ATOM      3  C   UNL     1      34.763  -5.569   5.591  1.00  0.00     0.238 A 
ATOM      4  O   UNL     1      34.255  -6.691   5.335  1.00  0.00    -0.285 OA
ATOM      5  C   UNL     1      34.404  -4.841   6.752  1.00  0.00     0.111 A 
ATOM      6  C   UNL     1      33.408  -5.249   7.690  1.00  0.00     0.134 A 
ATOM      7  C   UNL     1      33.214  -4.503   8.858  1.00  0.00     0.093 A 
ATOM      8  C   UNL     1      33.930  -3.329   9.092  1.00  0.00     0.123 A 
ATOM      9  C   UNL     1      34.867  -2.892   8.155  1.00  0.00     0.094 A 
ATOM     10  C   UNL     1      35.111  -3.635   6.999  1.00  0.00     0.146 A 
ATOM     11  O   UNL     1      36.026  -3.195   6.144  1.00  0.00    -0.452 OA
ENDROOT
BRANCH   1  12
ATOM     12  C   UNL     1      37.397  -3.235   4.162  1.00  0.00     0.021 A 
ATOM     13  C   UNL     1      38.752  -3.597   4.276  1.00  0.00     0.016 A 
ATOM     14  C   UNL     1      39.714  -2.995   3.459  1.00  0.00     0.047 A 
ATOM     15  C   UNL     1      39.338  -2.017   2.531  1.00  0.00     0.115 A 
ATOM     16  C   UNL     1      37.032  -2.237   3.243  1.00  0.00     0.016 A 
ATOM     17  C   UNL     1      37.997  -1.637   2.427  1.00  0.00     0.047 A 
BRANCH  15  18
ATOM     18  O   UNL     1      40.289  -1.411   1.712  1.00  0.00    -0.508 OA
ATOM     19  H   UNL     1      41.282  -1.514   1.889  1.00  0.00     0.293 HD
ENDBRANCH  15  18
ENDBRANCH   1  12
BRANCH   2  20
ATOM     20  O   UNL     1      36.039  -5.714   3.521  1.00  0.00    -0.502 OA
ATOM     21  H   UNL     1      36.925  -5.589   3.046  1.00  0.00     0.293 HD
ENDBRANCH   2  20
BRANCH   6  22
ATOM     22  O   UNL     1      32.572  -6.356   7.515  1.00  0.00    -0.507 OA
ATOM     23  H   UNL     1      32.256  -6.964   8.254  1.00  0.00     0.293 HD
ENDBRANCH   6  22
BRANCH   8  24
ATOM     24  O   UNL     1      33.698  -2.602  10.257  1.00  0.00    -0.508 OA
ATOM     25  H   UNL     1      33.343  -3.045  11.097  1.00  0.00     0.293 HD
ENDBRANCH   8  24
TORSDOF 5
ENDMDL
MODEL 7
REMARK VINA RESULT:    -4.019     11.604     13.551
REMARK INTER + INTRA:          -5.016
REMARK INTER:                  -4.761
REMARK INTRA:                  -0.255
REMARK UNBOUND:                -0.292
REMARK SMILES O=c1c(O)c(-c2ccc(O)cc2)oc2cc(O)cc(O)c12
REMARK SMILES IDX 5 1 3 2 2 3 1 4 21 5 19 6 18 7 16 8 15 9 14 10 13 11 6 12
REMARK SMILES IDX 7 13 8 14 9 15 12 16 11 17 10 18 4 20 20 22 17 24
REMARK H PARENT 10 19 4 21 20 23 17 25
REMARK Flexibility Score: inf
ROOT
ATOM      1  C   UNL     1      27.586  -0.983  -1.838  1.00  0.00     0.180 A 
ATOM      2  C   UNL     1      27.664  -0.552  -3.174  1.00  0.00     0.208 A 
ATOM      3  C   UNL     1      28.132   0.744  -3.445  1.00  0.00     0.238 A 
ATOM      4  O   UNL     1      28.127   1.149  -4.636  1.00  0.00    -0.285 OA
ATOM      5  C   UNL     1      28.568   1.572  -2.382  1.00  0.00     0.111 A 
ATOM      6  C   UNL     1      29.102   2.887  -2.545  1.00  0.00     0.134 A 
ATOM      7  C   UNL     1      29.402   3.655  -1.414  1.00  0.00     0.093 A 
ATOM      8  C   UNL     1      29.249   3.136  -0.128  1.00  0.00     0.123 A 
ATOM      9  C   UNL     1      28.780   1.832   0.040  1.00  0.00     0.094 A 
ATOM     10  C   UNL     1      28.436   1.055  -1.068  1.00  0.00     0.146 A 
ATOM     11  O   UNL     1      27.973  -0.172  -0.861  1.00  0.00    -0.452 OA
ENDROOT
BRANCH   1  12
ATOM     12  C   UNL     1      27.091  -2.330  -1.471  1.00  0.00     0.021 A 
ATOM     13  C   UNL     1      27.908  -3.470  -1.592  1.00  0.00     0.016 A 
ATOM     14  C   UNL     1      27.409  -4.734  -1.262  1.00  0.00     0.047 A 
ATOM     15  C   UNL     1      26.087  -4.877  -0.823  1.00  0.00     0.115 A 
ATOM     16  C   UNL     1      25.760  -2.486  -1.050  1.00  0.00     0.016 A 
ATOM     17  C   UNL     1      25.264  -3.751  -0.720  1.00  0.00     0.047 A 
BRANCH  15  18
ATOM     18  O   UNL     1      25.580  -6.131  -0.491  1.00  0.00    -0.508 OA
ATOM     19  H   UNL     1      24.651  -6.419  -0.776  1.00  0.00     0.293 HD
ENDBRANCH  15  18
ENDBRANCH   1  12
BRANCH   2  20
ATOM     20  O   UNL     1      27.301  -1.414  -4.213  1.00  0.00    -0.502 OA
ATOM     21  H   UNL     1      27.986  -1.895  -4.783  1.00  0.00     0.293 HD
ENDBRANCH   2  20
BRANCH   6  22
ATOM     22  O   UNL     1      29.379   3.473  -3.784  1.00  0.00    -0.507 OA
ATOM     23  H   UNL     1      30.260   3.890  -4.042  1.00  0.00     0.293 HD
ENDBRANCH   6  22
BRANCH   8  24
ATOM     24  O   UNL     1      29.574   3.922   0.974  1.00  0.00    -0.508 OA
ATOM     25  H   UNL     1      29.084   3.828   1.856  1.00  0.00     0.293 HD
ENDBRANCH   8  24
TORSDOF 5
ENDMDL
MODEL 8
REMARK VINA RESULT:    -3.982      1.825      3.895
REMARK INTER + INTRA:          -4.972
REMARK INTER:                  -4.677
REMARK INTRA:                  -0.295
REMARK UNBOUND:                -0.292
REMARK SMILES O=c1c(O)c(-c2ccc(O)cc2)oc2cc(O)cc(O)c12
REMARK SMILES IDX 5 1 3 2 2 3 1 4 21 5 19 6 18 7 16 8 15 9 14 10 13 11 6 12
REMARK SMILES IDX 7 13 8 14 9 15 12 16 11 17 10 18 4 20 20 22 17 24
REMARK H PARENT 10 19 4 21 20 23 17 25
REMARK Flexibility Score: inf
ROOT
ATOM      1  C   UNL     1      36.012  -3.746   6.064  1.00  0.00     0.180 A 
ATOM      2  C   UNL     1      34.923  -3.643   6.946  1.00  0.00     0.208 A 
ATOM      3  C   UNL     1      33.867  -4.561   6.835  1.00  0.00     0.238 A 
ATOM      4  O   UNL     1      32.862  -4.417   7.578  1.00  0.00    -0.285 OA
ATOM      5  C   UNL     1      33.939  -5.606   5.881  1.00  0.00     0.111 A 
ATOM      6  C   UNL     1      32.947  -6.619   5.711  1.00  0.00     0.134 A 
ATOM      7  C   UNL     1      33.074  -7.539   4.663  1.00  0.00     0.093 A 
ATOM      8  C   UNL     1      34.185  -7.524   3.820  1.00  0.00     0.123 A 
ATOM      9  C   UNL     1      35.187  -6.572   4.012  1.00  0.00     0.094 A 
ATOM     10  C   UNL     1      35.070  -5.617   5.024  1.00  0.00     0.146 A 
ATOM     11  O   UNL     1      36.036  -4.716   5.158  1.00  0.00    -0.452 OA
ENDROOT
BRANCH   1  12
ATOM     12  C   UNL     1      37.156  -2.806   6.110  1.00  0.00     0.021 A 
ATOM     13  C   UNL     1      37.176  -1.636   5.327  1.00  0.00     0.016 A 
ATOM     14  C   UNL     1      38.280  -0.778   5.370  1.00  0.00     0.047 A 
ATOM     15  C   UNL     1      39.379  -1.083   6.181  1.00  0.00     0.115 A 
ATOM     16  C   UNL     1      38.273  -3.115   6.904  1.00  0.00     0.016 A 
ATOM     17  C   UNL     1      39.374  -2.254   6.945  1.00  0.00     0.047 A 
BRANCH  15  18
ATOM     18  O   UNL     1      40.483  -0.234   6.232  1.00  0.00    -0.508 OA
ATOM     19  H   UNL     1      41.068  -0.079   5.419  1.00  0.00     0.293 HD
ENDBRANCH  15  18
ENDBRANCH   1  12
BRANCH   2  20
ATOM     20  O   UNL     1      34.908  -2.652   7.932  1.00  0.00    -0.502 OA
ATOM     21  H   UNL     1      35.753  -2.318   8.380  1.00  0.00     0.293 HD
ENDBRANCH   2  20
BRANCH   6  22
ATOM     22  O   UNL     1      31.841  -6.782   6.550  1.00  0.00    -0.507 OA
ATOM     23  H   UNL     1      31.645  -6.219   7.363  1.00  0.00     0.293 HD
ENDBRANCH   6  22
BRANCH   8  24
ATOM     24  O   UNL     1      34.286  -8.466   2.798  1.00  0.00    -0.508 OA
ATOM     25  H   UNL     1      35.091  -9.076   2.717  1.00  0.00     0.293 HD
ENDBRANCH   8  24
TORSDOF 5
ENDMDL
MODEL 9
REMARK VINA RESULT:    -3.972     10.851     12.858
REMARK INTER + INTRA:          -4.961
REMARK INTER:                  -4.706
REMARK INTRA:                  -0.254
REMARK UNBOUND:                -0.292
REMARK SMILES O=c1c(O)c(-c2ccc(O)cc2)oc2cc(O)cc(O)c12
REMARK SMILES IDX 5 1 3 2 2 3 1 4 21 5 19 6 18 7 16 8 15 9 14 10 13 11 6 12
REMARK SMILES IDX 7 13 8 14 9 15 12 16 11 17 10 18 4 20 20 22 17 24
REMARK H PARENT 10 19 4 21 20 23 17 25
REMARK Flexibility Score: inf
ROOT
ATOM      1  C   UNL     1      30.011   3.822  -0.001  1.00  0.00     0.180 A 
ATOM      2  C   UNL     1      29.322   4.597   0.948  1.00  0.00     0.208 A 
ATOM      3  C   UNL     1      30.052   5.446   1.795  1.00  0.00     0.238 A 
ATOM      4  O   UNL     1      29.436   6.079   2.691  1.00  0.00    -0.285 OA
ATOM      5  C   UNL     1      31.457   5.552   1.646  1.00  0.00     0.111 A 
ATOM      6  C   UNL     1      32.292   6.414   2.419  1.00  0.00     0.134 A 
ATOM      7  C   UNL     1      33.682   6.356   2.256  1.00  0.00     0.093 A 
ATOM      8  C   UNL     1      34.263   5.518   1.306  1.00  0.00     0.123 A 
ATOM      9  C   UNL     1      33.451   4.711   0.506  1.00  0.00     0.094 A 
ATOM     10  C   UNL     1      32.065   4.718   0.671  1.00  0.00     0.146 A 
ATOM     11  O   UNL     1      31.332   3.920  -0.095  1.00  0.00    -0.452 OA
ENDROOT
BRANCH   1  12
ATOM     12  C   UNL     1      29.313   2.894  -0.919  1.00  0.00     0.021 A 
ATOM     13  C   UNL     1      28.834   1.647  -0.477  1.00  0.00     0.016 A 
ATOM     14  C   UNL     1      28.199   0.777  -1.370  1.00  0.00     0.047 A 
ATOM     15  C   UNL     1      28.048   1.136  -2.715  1.00  0.00     0.115 A 
ATOM     16  C   UNL     1      29.175   3.236  -2.274  1.00  0.00     0.016 A 
ATOM     17  C   UNL     1      28.539   2.365  -3.165  1.00  0.00     0.047 A 
BRANCH  15  18
ATOM     18  O   UNL     1      27.416   0.278  -3.612  1.00  0.00    -0.508 OA
ATOM     19  H   UNL     1      27.504  -0.729  -3.533  1.00  0.00     0.293 HD
ENDBRANCH  15  18
ENDBRANCH   1  12
BRANCH   2  20
ATOM     20  O   UNL     1      27.928   4.536   1.027  1.00  0.00    -0.502 OA
ATOM     21  H   UNL     1      27.413   3.676   0.881  1.00  0.00     0.293 HD
ENDBRANCH   2  20
BRANCH   6  22
ATOM     22  O   UNL     1      31.813   7.356   3.335  1.00  0.00    -0.507 OA
ATOM     23  H   UNL     1      31.599   7.164   4.302  1.00  0.00     0.293 HD
ENDBRANCH   6  22
BRANCH   8  24
ATOM     24  O   UNL     1      35.648   5.500   1.159  1.00  0.00    -0.508 OA
ATOM     25  H   UNL     1      36.263   5.831   1.893  1.00  0.00     0.293 HD
ENDBRANCH   8  24
TORSDOF 5
ENDMDL
