MODEL 1
REMARK VINA RESULT:    -3.935      0.000      0.000
REMARK INTER + INTRA:         -13.467
REMARK INTER:                  -8.997
REMARK INTRA:                  -4.470
REMARK UNBOUND:                -4.470
REMARK SMILES CCCCCCCCCCCCCCCCCCCCCCCC(=O)[O-]
REMARK SMILES IDX 13 1 14 2 15 3 16 4 17 5 18 6 19 7 20 8 21 9 22 10 23 11
REMARK SMILES IDX 24 12 25 13 26 14 12 15 11 16 10 17 9 18 8 19 7 20 6 21 5 22
REMARK SMILES IDX 4 23 3 24 2 25 1 26
REMARK H PARENT
REMARK Flexibility Score: inf
ROOT
ATOM      1  C   UNL     1      50.008  -4.728  78.344  1.00  0.00     0.000 C 
ENDROOT
BRANCH   1   2
ATOM      2  C   UNL     1      50.247  -3.270  78.780  1.00  0.00     0.000 C 
BRANCH   2   3
ATOM      3  C   UNL     1      51.231  -2.474  77.902  1.00  0.00     0.000 C 
BRANCH   3   4
ATOM      4  C   UNL     1      50.836  -2.458  76.417  1.00  0.00     0.000 C 
BRANCH   4   5
ATOM      5  C   UNL     1      49.603  -1.574  76.186  1.00  0.00     0.000 C 
BRANCH   5   6
ATOM      6  C   UNL     1      48.417  -2.353  75.588  1.00  0.00     0.000 C 
BRANCH   6   7
ATOM      7  C   UNL     1      48.794  -3.665  74.872  1.00  0.00     0.000 C 
BRANCH   7   8
ATOM      8  C   UNL     1      48.173  -3.851  73.473  1.00  0.00     0.000 C 
BRANCH   8   9
ATOM      9  C   UNL     1      48.940  -4.812  72.546  1.00  0.00     0.000 C 
BRANCH   9  10
ATOM     10  C   UNL     1      48.226  -6.162  72.364  1.00  0.00     0.006 C 
BRANCH  10  11
ATOM     11  C   UNL     1      46.768  -6.113  72.842  1.00  0.00     0.053 C 
BRANCH  11  12
ATOM     12  C   UNL     1      46.503  -7.116  73.923  1.00  0.00     0.041 C 
ATOM     13  O   UNL     1      47.406  -7.403  74.755  1.00  0.00    -0.550 OA
ATOM     14  O   UNL     1      45.272  -7.753  73.996  1.00  0.00    -0.550 OA
ENDBRANCH  11  12
ENDBRANCH  10  11
ENDBRANCH   9  10
ENDBRANCH   8   9
ENDBRANCH   7   8
ENDBRANCH   6   7
ENDBRANCH   5   6
ENDBRANCH   4   5
ENDBRANCH   3   4
ENDBRANCH   2   3
ENDBRANCH   1   2
BRANCH   1  15
ATOM     15  C   UNL     1      51.216  -5.639  78.604  1.00  0.00     0.000 C 
BRANCH  15  16
ATOM     16  C   UNL     1      51.873  -6.141  77.306  1.00  0.00     0.000 C 
BRANCH  16  17
ATOM     17  C   UNL     1      50.860  -6.559  76.219  1.00  0.00     0.000 C 
BRANCH  17  18
ATOM     18  C   UNL     1      51.384  -6.276  74.798  1.00  0.00    -0.000 C 
BRANCH  18  19
ATOM     19  C   UNL     1      52.419  -5.132  74.774  1.00  0.00    -0.000 C 
BRANCH  19  20
ATOM     20  C   UNL     1      52.472  -4.363  73.440  1.00  0.00    -0.000 C 
BRANCH  20  21
ATOM     21  C   UNL     1      53.583  -3.302  73.340  1.00  0.00    -0.000 C 
BRANCH  21  22
ATOM     22  C   UNL     1      53.099  -1.985  72.709  1.00  0.00    -0.000 C 
BRANCH  22  23
ATOM     23  C   UNL     1      51.568  -1.910  72.602  1.00  0.00    -0.000 C 
BRANCH  23  24
ATOM     24  C   UNL     1      51.063  -0.503  72.240  1.00  0.00    -0.000 C 
BRANCH  24  25
ATOM     25  C   UNL     1      49.616  -0.265  72.702  1.00  0.00    -0.003 C 
ATOM     26  C   UNL     1      48.585  -0.845  71.735  1.00  0.00     0.004 C 
ENDBRANCH  24  25
ENDBRANCH  23  24
ENDBRANCH  22  23
ENDBRANCH  21  22
ENDBRANCH  20  21
ENDBRANCH  19  20
ENDBRANCH  18  19
ENDBRANCH  17  18
ENDBRANCH  16  17
ENDBRANCH  15  16
ENDBRANCH   1  15
TORSDOF 22
ENDMDL
MODEL 2
REMARK VINA RESULT:    -3.906      2.969      6.183
REMARK INTER + INTRA:         -13.399
REMARK INTER:                  -9.522
REMARK INTRA:                  -3.877
REMARK UNBOUND:                -4.470
REMARK SMILES CCCCCCCCCCCCCCCCCCCCCCCC(=O)[O-]
REMARK SMILES IDX 13 1 14 2 15 3 16 4 17 5 18 6 19 7 20 8 21 9 22 10 23 11
REMARK SMILES IDX 24 12 25 13 26 14 12 15 11 16 10 17 9 18 8 19 7 20 6 21 5 22
REMARK SMILES IDX 4 23 3 24 2 25 1 26
REMARK H PARENT
REMARK Flexibility Score: inf
ROOT
ATOM      1  C   UNL     1      47.293  -5.889  73.794  1.00  0.00     0.000 C 
ENDROOT
BRANCH   1   2
ATOM      2  C   UNL     1      45.882  -5.398  74.173  1.00  0.00     0.000 C 
BRANCH   2   3
ATOM      3  C   UNL     1      45.809  -4.520  75.436  1.00  0.00     0.000 C 
BRANCH   3   4
ATOM      4  C   UNL     1      47.190  -4.202  76.029  1.00  0.00     0.000 C 
BRANCH   4   5
ATOM      5  C   UNL     1      47.473  -2.694  75.990  1.00  0.00     0.000 C 
BRANCH   5   6
ATOM      6  C   UNL     1      48.502  -2.310  74.913  1.00  0.00     0.000 C 
BRANCH   6   7
ATOM      7  C   UNL     1      48.560  -0.808  74.572  1.00  0.00     0.000 C 
BRANCH   7   8
ATOM      8  C   UNL     1      48.711  -0.480  73.073  1.00  0.00     0.000 C 
BRANCH   8   9
ATOM      9  C   UNL     1      50.159  -0.243  72.604  1.00  0.00     0.000 C 
BRANCH   9  10
ATOM     10  C   UNL     1      50.833  -1.523  72.081  1.00  0.00     0.006 C 
BRANCH  10  11
ATOM     11  C   UNL     1      52.000  -1.967  72.973  1.00  0.00     0.053 C 
BRANCH  11  12
ATOM     12  C   UNL     1      53.302  -1.959  72.232  1.00  0.00     0.041 C 
ATOM     13  O   UNL     1      53.664  -0.930  71.600  1.00  0.00    -0.550 OA
ATOM     14  O   UNL     1      54.101  -3.094  72.214  1.00  0.00    -0.550 OA
ENDBRANCH  11  12
ENDBRANCH  10  11
ENDBRANCH   9  10
ENDBRANCH   8   9
ENDBRANCH   7   8
ENDBRANCH   6   7
ENDBRANCH   5   6
ENDBRANCH   4   5
ENDBRANCH   3   4
ENDBRANCH   2   3
ENDBRANCH   1   2
BRANCH   1  15
ATOM     15  C   UNL     1      47.890  -5.137  72.596  1.00  0.00     0.000 C 
BRANCH  15  16
ATOM     16  C   UNL     1      49.415  -4.962  72.704  1.00  0.00     0.000 C 
BRANCH  16  17
ATOM     17  C   UNL     1      50.014  -5.527  74.010  1.00  0.00     0.000 C 
BRANCH  17  18
ATOM     18  C   UNL     1      51.550  -5.413  74.041  1.00  0.00    -0.000 C 
BRANCH  18  19
ATOM     19  C   UNL     1      52.072  -4.931  75.411  1.00  0.00    -0.000 C 
BRANCH  19  20
ATOM     20  C   UNL     1      50.964  -4.453  76.370  1.00  0.00    -0.000 C 
BRANCH  20  21
ATOM     21  C   UNL     1      51.340  -4.472  77.863  1.00  0.00    -0.000 C 
BRANCH  21  22
ATOM     22  C   UNL     1      51.370  -5.893  78.454  1.00  0.00    -0.000 C 
BRANCH  22  23
ATOM     23  C   UNL     1      50.093  -6.689  78.142  1.00  0.00    -0.000 C 
BRANCH  23  24
ATOM     24  C   UNL     1      48.840  -6.090  78.803  1.00  0.00    -0.000 C 
BRANCH  24  25
ATOM     25  C   UNL     1      47.597  -6.972  78.603  1.00  0.00    -0.003 C 
ATOM     26  C   UNL     1      47.642  -7.769  77.300  1.00  0.00     0.004 C 
ENDBRANCH  24  25
ENDBRANCH  23  24
ENDBRANCH  22  23
ENDBRANCH  21  22
ENDBRANCH  20  21
ENDBRANCH  19  20
ENDBRANCH  18  19
ENDBRANCH  17  18
ENDBRANCH  16  17
ENDBRANCH  15  16
ENDBRANCH   1  15
TORSDOF 22
ENDMDL
MODEL 3
REMARK VINA RESULT:    -3.896      3.001      6.591
REMARK INTER + INTRA:         -13.376
REMARK INTER:                  -9.686
REMARK INTRA:                  -3.691
REMARK UNBOUND:                -4.470
REMARK SMILES CCCCCCCCCCCCCCCCCCCCCCCC(=O)[O-]
REMARK SMILES IDX 13 1 14 2 15 3 16 4 17 5 18 6 19 7 20 8 21 9 22 10 23 11
REMARK SMILES IDX 24 12 25 13 26 14 12 15 11 16 10 17 9 18 8 19 7 20 6 21 5 22
REMARK SMILES IDX 4 23 3 24 2 25 1 26
REMARK H PARENT
REMARK Flexibility Score: inf
ROOT
ATOM      1  C   UNL     1      47.886  -4.355  72.951  1.00  0.00     0.000 C 
ENDROOT
BRANCH   1   2
ATOM      2  C   UNL     1      47.693  -4.198  74.471  1.00  0.00     0.000 C 
BRANCH   2   3
ATOM      3  C   UNL     1      48.967  -4.379  75.318  1.00  0.00     0.000 C 
BRANCH   3   4
ATOM      4  C   UNL     1      49.788  -3.087  75.452  1.00  0.00     0.000 C 
BRANCH   4   5
ATOM      5  C   UNL     1      48.952  -1.967  76.087  1.00  0.00     0.000 C 
BRANCH   5   6
ATOM      6  C   UNL     1      49.141  -0.612  75.381  1.00  0.00     0.000 C 
BRANCH   6   7
ATOM      7  C   UNL     1      48.387  -0.463  74.045  1.00  0.00     0.000 C 
BRANCH   7   8
ATOM      8  C   UNL     1      49.269  -0.118  72.828  1.00  0.00     0.000 C 
BRANCH   8   9
ATOM      9  C   UNL     1      49.407  -1.244  71.787  1.00  0.00     0.000 C 
BRANCH   9  10
ATOM     10  C   UNL     1      50.729  -2.018  71.917  1.00  0.00     0.006 C 
BRANCH  10  11
ATOM     11  C   UNL     1      51.779  -1.239  72.721  1.00  0.00     0.053 C 
BRANCH  11  12
ATOM     12  C   UNL     1      53.174  -1.611  72.323  1.00  0.00     0.041 C 
ATOM     13  O   UNL     1      53.757  -0.986  71.396  1.00  0.00    -0.550 OA
ATOM     14  O   UNL     1      53.821  -2.666  72.954  1.00  0.00    -0.550 OA
ENDBRANCH  11  12
ENDBRANCH  10  11
ENDBRANCH   9  10
ENDBRANCH   8   9
ENDBRANCH   7   8
ENDBRANCH   6   7
ENDBRANCH   5   6
ENDBRANCH   4   5
ENDBRANCH   3   4
ENDBRANCH   2   3
ENDBRANCH   1   2
BRANCH   1  15
ATOM     15  C   UNL     1      48.797  -5.534  72.578  1.00  0.00     0.000 C 
BRANCH  15  16
ATOM     16  C   UNL     1      48.021  -6.849  72.392  1.00  0.00     0.000 C 
BRANCH  16  17
ATOM     17  C   UNL     1      48.076  -7.782  73.620  1.00  0.00     0.000 C 
BRANCH  17  18
ATOM     18  C   UNL     1      46.711  -7.893  74.327  1.00  0.00    -0.000 C 
BRANCH  18  19
ATOM     19  C   UNL     1      46.814  -7.610  75.841  1.00  0.00    -0.000 C 
BRANCH  19  20
ATOM     20  C   UNL     1      47.560  -8.702  76.633  1.00  0.00    -0.000 C 
BRANCH  20  21
ATOM     21  C   UNL     1      47.456  -8.586  78.164  1.00  0.00    -0.000 C 
BRANCH  21  22
ATOM     22  C   UNL     1      48.820  -8.368  78.842  1.00  0.00    -0.000 C 
BRANCH  22  23
ATOM     23  C   UNL     1      49.557  -7.132  78.301  1.00  0.00    -0.000 C 
BRANCH  23  24
ATOM     24  C   UNL     1      48.828  -5.816  78.619  1.00  0.00    -0.000 C 
BRANCH  24  25
ATOM     25  C   UNL     1      49.797  -4.698  79.038  1.00  0.00    -0.003 C 
ATOM     26  C   UNL     1      51.190  -4.869  78.433  1.00  0.00     0.004 C 
ENDBRANCH  24  25
ENDBRANCH  23  24
ENDBRANCH  22  23
ENDBRANCH  21  22
ENDBRANCH  20  21
ENDBRANCH  19  20
ENDBRANCH  18  19
ENDBRANCH  17  18
ENDBRANCH  16  17
ENDBRANCH  15  16
ENDBRANCH   1  15
TORSDOF 22
ENDMDL
MODEL 4
REMARK VINA RESULT:    -3.877      2.661      5.723
REMARK INTER + INTRA:         -13.334
REMARK INTER:                  -9.601
REMARK INTRA:                  -3.733
REMARK UNBOUND:                -4.470
REMARK SMILES CCCCCCCCCCCCCCCCCCCCCCCC(=O)[O-]
REMARK SMILES IDX 13 1 14 2 15 3 16 4 17 5 18 6 19 7 20 8 21 9 22 10 23 11
REMARK SMILES IDX 24 12 25 13 26 14 12 15 11 16 10 17 9 18 8 19 7 20 6 21 5 22
REMARK SMILES IDX 4 23 3 24 2 25 1 26
REMARK H PARENT
REMARK Flexibility Score: inf
ROOT
ATOM      1  C   UNL     1      47.067  -6.461  72.014  1.00  0.00     0.000 C 
ENDROOT
BRANCH   1   2
ATOM      2  C   UNL     1      46.860  -7.949  72.355  1.00  0.00     0.000 C 
BRANCH   2   3
ATOM      3  C   UNL     1      46.203  -8.226  73.720  1.00  0.00     0.000 C 
BRANCH   3   4
ATOM      4  C   UNL     1      45.248  -7.107  74.166  1.00  0.00     0.000 C 
BRANCH   4   5
ATOM      5  C   UNL     1      45.382  -6.836  75.670  1.00  0.00     0.000 C 
BRANCH   5   6
ATOM      6  C   UNL     1      46.303  -7.847  76.376  1.00  0.00     0.000 C 
BRANCH   6   7
ATOM      7  C   UNL     1      47.654  -7.277  76.852  1.00  0.00     0.000 C 
BRANCH   7   8
ATOM      8  C   UNL     1      47.619  -6.560  78.217  1.00  0.00     0.000 C 
BRANCH   8   9
ATOM      9  C   UNL     1      48.990  -6.090  78.737  1.00  0.00     0.000 C 
BRANCH   9  10
ATOM     10  C   UNL     1      50.133  -7.046  78.354  1.00  0.00     0.006 C 
BRANCH  10  11
ATOM     11  C   UNL     1      51.278  -6.318  77.636  1.00  0.00     0.053 C 
BRANCH  11  12
ATOM     12  C   UNL     1      52.385  -5.956  78.579  1.00  0.00     0.041 C 
ATOM     13  O   UNL     1      52.388  -4.833  79.150  1.00  0.00    -0.550 OA
ATOM     14  O   UNL     1      53.427  -6.846  78.803  1.00  0.00    -0.550 OA
ENDBRANCH  11  12
ENDBRANCH  10  11
ENDBRANCH   9  10
ENDBRANCH   8   9
ENDBRANCH   7   8
ENDBRANCH   6   7
ENDBRANCH   5   6
ENDBRANCH   4   5
ENDBRANCH   3   4
ENDBRANCH   2   3
ENDBRANCH   1   2
BRANCH   1  15
ATOM     15  C   UNL     1      48.418  -5.914  72.498  1.00  0.00     0.000 C 
BRANCH  15  16
ATOM     16  C   UNL     1      48.409  -4.387  72.681  1.00  0.00     0.000 C 
BRANCH  16  17
ATOM     17  C   UNL     1      48.022  -3.934  74.105  1.00  0.00     0.000 C 
BRANCH  17  18
ATOM     18  C   UNL     1      48.996  -4.473  75.171  1.00  0.00    -0.000 C 
BRANCH  18  19
ATOM     19  C   UNL     1      49.735  -3.339  75.913  1.00  0.00    -0.000 C 
BRANCH  19  20
ATOM     20  C   UNL     1      51.113  -2.994  75.316  1.00  0.00    -0.000 C 
BRANCH  20  21
ATOM     21  C   UNL     1      51.704  -4.061  74.377  1.00  0.00    -0.000 C 
BRANCH  21  22
ATOM     22  C   UNL     1      52.013  -3.516  72.971  1.00  0.00    -0.000 C 
BRANCH  22  23
ATOM     23  C   UNL     1      52.107  -1.982  72.941  1.00  0.00    -0.000 C 
BRANCH  23  24
ATOM     24  C   UNL     1      51.129  -1.344  71.941  1.00  0.00    -0.000 C 
BRANCH  24  25
ATOM     25  C   UNL     1      49.944  -0.657  72.640  1.00  0.00    -0.003 C 
ATOM     26  C   UNL     1      48.630  -0.829  71.879  1.00  0.00     0.004 C 
ENDBRANCH  24  25
ENDBRANCH  23  24
ENDBRANCH  22  23
ENDBRANCH  21  22
ENDBRANCH  20  21
ENDBRANCH  19  20
ENDBRANCH  18  19
ENDBRANCH  17  18
ENDBRANCH  16  17
ENDBRANCH  15  16
ENDBRANCH   1  15
TORSDOF 22
ENDMDL
MODEL 5
REMARK VINA RESULT:    -3.874      2.235      5.713
REMARK INTER + INTRA:         -13.326
REMARK INTER:                  -9.051
REMARK INTRA:                  -4.275
REMARK UNBOUND:                -4.470
REMARK SMILES CCCCCCCCCCCCCCCCCCCCCCCC(=O)[O-]
REMARK SMILES IDX 13 1 14 2 15 3 16 4 17 5 18 6 19 7 20 8 21 9 22 10 23 11
REMARK SMILES IDX 24 12 25 13 26 14 12 15 11 16 10 17 9 18 8 19 7 20 6 21 5 22
REMARK SMILES IDX 4 23 3 24 2 25 1 26
REMARK H PARENT
REMARK Flexibility Score: inf
ROOT
ATOM      1  C   UNL     1      51.511  -3.919  73.984  1.00  0.00     0.000 C 
ENDROOT
BRANCH   1   2
ATOM      2  C   UNL     1      50.190  -4.708  74.064  1.00  0.00     0.000 C 
BRANCH   2   3
ATOM      3  C   UNL     1      49.422  -4.839  72.736  1.00  0.00     0.000 C 
BRANCH   3   4
ATOM      4  C   UNL     1      47.952  -4.404  72.845  1.00  0.00     0.000 C 
BRANCH   4   5
ATOM      5  C   UNL     1      47.037  -5.611  73.092  1.00  0.00     0.000 C 
BRANCH   5   6
ATOM      6  C   UNL     1      45.983  -5.345  74.182  1.00  0.00     0.000 C 
BRANCH   6   7
ATOM      7  C   UNL     1      46.554  -4.968  75.563  1.00  0.00     0.000 C 
BRANCH   7   8
ATOM      8  C   UNL     1      47.473  -6.028  76.205  1.00  0.00     0.000 C 
BRANCH   8   9
ATOM      9  C   UNL     1      46.737  -7.203  76.875  1.00  0.00     0.000 C 
BRANCH   9  10
ATOM     10  C   UNL     1      47.477  -7.744  78.109  1.00  0.00     0.006 C 
BRANCH  10  11
ATOM     11  C   UNL     1      48.078  -9.135  77.859  1.00  0.00     0.053 C 
BRANCH  11  12
ATOM     12  C   UNL     1      49.573  -9.089  77.779  1.00  0.00     0.041 C 
ATOM     13  O   UNL     1      50.272  -9.434  78.769  1.00  0.00    -0.550 OA
ATOM     14  O   UNL     1      50.194  -8.638  76.622  1.00  0.00    -0.550 OA
ENDBRANCH  11  12
ENDBRANCH  10  11
ENDBRANCH   9  10
ENDBRANCH   8   9
ENDBRANCH   7   8
ENDBRANCH   6   7
ENDBRANCH   5   6
ENDBRANCH   4   5
ENDBRANCH   3   4
ENDBRANCH   2   3
ENDBRANCH   1   2
BRANCH   1  15
ATOM     15  C   UNL     1      51.773  -3.323  72.593  1.00  0.00     0.000 C 
BRANCH  15  16
ATOM     16  C   UNL     1      52.369  -1.906  72.657  1.00  0.00     0.000 C 
BRANCH  16  17
ATOM     17  C   UNL     1      51.364  -0.792  72.296  1.00  0.00     0.000 C 
BRANCH  17  18
ATOM     18  C   UNL     1      50.073  -1.354  71.671  1.00  0.00    -0.000 C 
BRANCH  18  19
ATOM     19  C   UNL     1      48.804  -0.802  72.355  1.00  0.00    -0.000 C 
BRANCH  19  20
ATOM     20  C   UNL     1      49.016  -0.381  73.822  1.00  0.00    -0.000 C 
BRANCH  20  21
ATOM     21  C   UNL     1      48.483  -1.375  74.870  1.00  0.00    -0.000 C 
BRANCH  21  22
ATOM     22  C   UNL     1      49.440  -1.558  76.062  1.00  0.00    -0.000 C 
BRANCH  22  23
ATOM     23  C   UNL     1      49.009  -2.700  76.995  1.00  0.00    -0.000 C 
BRANCH  23  24
ATOM     24  C   UNL     1      50.201  -3.459  77.600  1.00  0.00    -0.000 C 
BRANCH  24  25
ATOM     25  C   UNL     1      49.768  -4.458  78.685  1.00  0.00    -0.003 C 
ATOM     26  C   UNL     1      50.594  -5.744  78.666  1.00  0.00     0.004 C 
ENDBRANCH  24  25
ENDBRANCH  23  24
ENDBRANCH  22  23
ENDBRANCH  21  22
ENDBRANCH  20  21
ENDBRANCH  19  20
ENDBRANCH  18  19
ENDBRANCH  17  18
ENDBRANCH  16  17
ENDBRANCH  15  16
ENDBRANCH   1  15
TORSDOF 22
ENDMDL
MODEL 6
REMARK VINA RESULT:    -3.852      2.959      6.325
REMARK INTER + INTRA:         -13.277
REMARK INTER:                  -9.411
REMARK INTRA:                  -3.866
REMARK UNBOUND:                -4.470
REMARK SMILES CCCCCCCCCCCCCCCCCCCCCCCC(=O)[O-]
REMARK SMILES IDX 13 1 14 2 15 3 16 4 17 5 18 6 19 7 20 8 21 9 22 10 23 11
REMARK SMILES IDX 24 12 25 13 26 14 12 15 11 16 10 17 9 18 8 19 7 20 6 21 5 22
REMARK SMILES IDX 4 23 3 24 2 25 1 26
REMARK H PARENT
REMARK Flexibility Score: inf
ROOT
ATOM      1  C   UNL     1      49.367  -4.380  72.705  1.00  0.00     0.000 C 
ENDROOT
BRANCH   1   2
ATOM      2  C   UNL     1      49.908  -5.359  73.764  1.00  0.00     0.000 C 
BRANCH   2   3
ATOM      3  C   UNL     1      50.482  -4.704  75.034  1.00  0.00     0.000 C 
BRANCH   3   4
ATOM      4  C   UNL     1      50.578  -3.173  74.930  1.00  0.00     0.000 C 
BRANCH   4   5
ATOM      5  C   UNL     1      49.995  -2.499  76.179  1.00  0.00     0.000 C 
BRANCH   5   6
ATOM      6  C   UNL     1      48.723  -1.687  75.876  1.00  0.00     0.000 C 
BRANCH   6   7
ATOM      7  C   UNL     1      48.414  -1.495  74.378  1.00  0.00     0.000 C 
BRANCH   7   8
ATOM      8  C   UNL     1      49.043  -0.243  73.733  1.00  0.00     0.000 C 
BRANCH   8   9
ATOM      9  C   UNL     1      49.640  -0.466  72.332  1.00  0.00     0.000 C 
BRANCH   9  10
ATOM     10  C   UNL     1      51.175  -0.369  72.314  1.00  0.00     0.006 C 
BRANCH  10  11
ATOM     11  C   UNL     1      51.842  -1.751  72.329  1.00  0.00     0.053 C 
BRANCH  11  12
ATOM     12  C   UNL     1      53.328  -1.653  72.170  1.00  0.00     0.041 C 
ATOM     13  O   UNL     1      53.838  -0.670  71.569  1.00  0.00    -0.550 OA
ATOM     14  O   UNL     1      54.148  -2.661  72.660  1.00  0.00    -0.550 OA
ENDBRANCH  11  12
ENDBRANCH  10  11
ENDBRANCH   9  10
ENDBRANCH   8   9
ENDBRANCH   7   8
ENDBRANCH   6   7
ENDBRANCH   5   6
ENDBRANCH   4   5
ENDBRANCH   3   4
ENDBRANCH   2   3
ENDBRANCH   1   2
BRANCH   1  15
ATOM     15  C   UNL     1      47.880  -4.597  72.388  1.00  0.00     0.000 C 
BRANCH  15  16
ATOM     16  C   UNL     1      47.208  -5.598  73.344  1.00  0.00     0.000 C 
BRANCH  16  17
ATOM     17  C   UNL     1      46.505  -4.933  74.547  1.00  0.00     0.000 C 
BRANCH  17  18
ATOM     18  C   UNL     1      46.601  -5.791  75.823  1.00  0.00    -0.000 C 
BRANCH  18  19
ATOM     19  C   UNL     1      47.535  -5.163  76.880  1.00  0.00    -0.000 C 
BRANCH  19  20
ATOM     20  C   UNL     1      48.155  -6.185  77.852  1.00  0.00    -0.000 C 
BRANCH  20  21
ATOM     21  C   UNL     1      49.030  -5.580  78.965  1.00  0.00    -0.000 C 
BRANCH  21  22
ATOM     22  C   UNL     1      50.518  -5.500  78.578  1.00  0.00    -0.000 C 
BRANCH  22  23
ATOM     23  C   UNL     1      51.171  -4.180  79.018  1.00  0.00    -0.000 C 
BRANCH  23  24
ATOM     24  C   UNL     1      50.176  -3.216  79.686  1.00  0.00    -0.000 C 
BRANCH  24  25
ATOM     25  C   UNL     1      50.763  -1.806  79.869  1.00  0.00    -0.003 C 
ATOM     26  C   UNL     1      52.115  -1.636  79.178  1.00  0.00     0.004 C 
ENDBRANCH  24  25
ENDBRANCH  23  24
ENDBRANCH  22  23
ENDBRANCH  21  22
ENDBRANCH  20  21
ENDBRANCH  19  20
ENDBRANCH  18  19
ENDBRANCH  17  18
ENDBRANCH  16  17
ENDBRANCH  15  16
ENDBRANCH   1  15
TORSDOF 22
ENDMDL
MODEL 7
REMARK VINA RESULT:    -3.851      2.316      6.478
REMARK INTER + INTRA:         -13.274
REMARK INTER:                  -8.373
REMARK INTRA:                  -4.902
REMARK UNBOUND:                -4.470
REMARK SMILES CCCCCCCCCCCCCCCCCCCCCCCC(=O)[O-]
REMARK SMILES IDX 13 1 14 2 15 3 16 4 17 5 18 6 19 7 20 8 21 9 22 10 23 11
REMARK SMILES IDX 24 12 25 13 26 14 12 15 11 16 10 17 9 18 8 19 7 20 6 21 5 22
REMARK SMILES IDX 4 23 3 24 2 25 1 26
REMARK H PARENT
REMARK Flexibility Score: inf
ROOT
ATOM      1  C   UNL     1      49.554  -4.622  72.937  1.00  0.00     0.000 C 
ENDROOT
BRANCH   1   2
ATOM      2  C   UNL     1      50.490  -3.874  71.970  1.00  0.00     0.000 C 
BRANCH   2   3
ATOM      3  C   UNL     1      51.574  -3.010  72.640  1.00  0.00     0.000 C 
BRANCH   3   4
ATOM      4  C   UNL     1      51.300  -1.502  72.522  1.00  0.00     0.000 C 
BRANCH   4   5
ATOM      5  C   UNL     1      49.996  -1.238  71.757  1.00  0.00     0.000 C 
BRANCH   5   6
ATOM      6  C   UNL     1      48.873  -0.706  72.664  1.00  0.00     0.000 C 
BRANCH   6   7
ATOM      7  C   UNL     1      49.236  -0.601  74.159  1.00  0.00     0.000 C 
BRANCH   7   8
ATOM      8  C   UNL     1      48.215  -1.228  75.129  1.00  0.00     0.000 C 
BRANCH   8   9
ATOM      9  C   UNL     1      48.775  -2.346  76.027  1.00  0.00     0.000 C 
BRANCH   9  10
ATOM     10  C   UNL     1      50.309  -2.448  75.966  1.00  0.00     0.006 C 
BRANCH  10  11
ATOM     11  C   UNL     1      50.813  -3.833  76.393  1.00  0.00     0.053 C 
BRANCH  11  12
ATOM     12  C   UNL     1      50.466  -4.136  77.819  1.00  0.00     0.041 C 
ATOM     13  O   UNL     1      50.961  -3.449  78.751  1.00  0.00    -0.550 OA
ATOM     14  O   UNL     1      49.619  -5.195  78.119  1.00  0.00    -0.550 OA
ENDBRANCH  11  12
ENDBRANCH  10  11
ENDBRANCH   9  10
ENDBRANCH   8   9
ENDBRANCH   7   8
ENDBRANCH   6   7
ENDBRANCH   5   6
ENDBRANCH   4   5
ENDBRANCH   3   4
ENDBRANCH   2   3
ENDBRANCH   1   2
BRANCH   1  15
ATOM     15  C   UNL     1      48.067  -4.325  72.688  1.00  0.00     0.000 C 
BRANCH  15  16
ATOM     16  C   UNL     1      47.157  -4.872  73.801  1.00  0.00     0.000 C 
BRANCH  16  17
ATOM     17  C   UNL     1      47.905  -5.707  74.861  1.00  0.00     0.000 C 
BRANCH  17  18
ATOM     18  C   UNL     1      46.963  -6.220  75.967  1.00  0.00    -0.000 C 
BRANCH  18  19
ATOM     19  C   UNL     1      47.315  -7.655  76.415  1.00  0.00    -0.000 C 
BRANCH  19  20
ATOM     20  C   UNL     1      46.357  -8.733  75.873  1.00  0.00    -0.000 C 
BRANCH  20  21
ATOM     21  C   UNL     1      45.266  -8.217  74.918  1.00  0.00    -0.000 C 
BRANCH  21  22
ATOM     22  C   UNL     1      45.068  -9.124  73.690  1.00  0.00    -0.000 C 
BRANCH  22  23
ATOM     23  C   UNL     1      46.370  -9.349  72.907  1.00  0.00    -0.000 C 
BRANCH  23  24
ATOM     24  C   UNL     1      46.838  -8.092  72.153  1.00  0.00    -0.000 C 
BRANCH  24  25
ATOM     25  C   UNL     1      48.361  -8.073  71.939  1.00  0.00    -0.003 C 
ATOM     26  C   UNL     1      49.129  -8.685  73.109  1.00  0.00     0.004 C 
ENDBRANCH  24  25
ENDBRANCH  23  24
ENDBRANCH  22  23
ENDBRANCH  21  22
ENDBRANCH  20  21
ENDBRANCH  19  20
ENDBRANCH  18  19
ENDBRANCH  17  18
ENDBRANCH  16  17
ENDBRANCH  15  16
ENDBRANCH   1  15
TORSDOF 22
ENDMDL
MODEL 8
REMARK VINA RESULT:    -3.847      1.482      4.395
REMARK INTER + INTRA:         -13.264
REMARK INTER:                  -8.804
REMARK INTRA:                  -4.460
REMARK UNBOUND:                -4.470
REMARK SMILES CCCCCCCCCCCCCCCCCCCCCCCC(=O)[O-]
REMARK SMILES IDX 13 1 14 2 15 3 16 4 17 5 18 6 19 7 20 8 21 9 22 10 23 11
REMARK SMILES IDX 24 12 25 13 26 14 12 15 11 16 10 17 9 18 8 19 7 20 6 21 5 22
REMARK SMILES IDX 4 23 3 24 2 25 1 26
REMARK H PARENT
REMARK Flexibility Score: inf
ROOT
ATOM      1  C   UNL     1      50.064  -1.908  75.860  1.00  0.00     0.000 C 
ENDROOT
BRANCH   1   2
ATOM      2  C   UNL     1      50.009  -1.842  77.398  1.00  0.00     0.000 C 
BRANCH   2   3
ATOM      3  C   UNL     1      51.255  -2.384  78.124  1.00  0.00     0.000 C 
BRANCH   3   4
ATOM      4  C   UNL     1      50.921  -3.448  79.181  1.00  0.00     0.000 C 
BRANCH   4   5
ATOM      5  C   UNL     1      51.568  -4.795  78.832  1.00  0.00     0.000 C 
BRANCH   5   6
ATOM      6  C   UNL     1      50.532  -5.890  78.526  1.00  0.00     0.000 C 
BRANCH   6   7
ATOM      7  C   UNL     1      49.071  -5.512  78.840  1.00  0.00     0.000 C 
BRANCH   7   8
ATOM      8  C   UNL     1      48.228  -5.082  77.622  1.00  0.00     0.000 C 
BRANCH   8   9
ATOM      9  C   UNL     1      48.832  -5.449  76.255  1.00  0.00     0.000 C 
BRANCH   9  10
ATOM     10  C   UNL     1      47.813  -6.104  75.308  1.00  0.00     0.006 C 
BRANCH  10  11
ATOM     11  C   UNL     1      46.613  -5.188  75.027  1.00  0.00     0.053 C 
BRANCH  11  12
ATOM     12  C   UNL     1      45.402  -5.968  74.613  1.00  0.00     0.041 C 
ATOM     13  O   UNL     1      45.463  -6.761  73.636  1.00  0.00    -0.550 OA
ATOM     14  O   UNL     1      44.201  -5.797  75.288  1.00  0.00    -0.550 OA
ENDBRANCH  11  12
ENDBRANCH  10  11
ENDBRANCH   9  10
ENDBRANCH   8   9
ENDBRANCH   7   8
ENDBRANCH   6   7
ENDBRANCH   5   6
ENDBRANCH   4   5
ENDBRANCH   3   4
ENDBRANCH   2   3
ENDBRANCH   1   2
BRANCH   1  15
ATOM     15  C   UNL     1      48.674  -1.979  75.211  1.00  0.00     0.000 C 
BRANCH  15  16
ATOM     16  C   UNL     1      48.735  -2.306  73.709  1.00  0.00     0.000 C 
BRANCH  16  17
ATOM     17  C   UNL     1      48.658  -1.062  72.798  1.00  0.00     0.000 C 
BRANCH  17  18
ATOM     18  C   UNL     1      49.844  -0.985  71.819  1.00  0.00    -0.000 C 
BRANCH  18  19
ATOM     19  C   UNL     1      51.121  -0.438  72.491  1.00  0.00    -0.000 C 
BRANCH  19  20
ATOM     20  C   UNL     1      52.380  -1.288  72.230  1.00  0.00    -0.000 C 
BRANCH  20  21
ATOM     21  C   UNL     1      52.550  -2.505  73.157  1.00  0.00    -0.000 C 
BRANCH  21  22
ATOM     22  C   UNL     1      51.937  -3.791  72.574  1.00  0.00    -0.000 C 
BRANCH  22  23
ATOM     23  C   UNL     1      51.410  -4.739  73.662  1.00  0.00    -0.000 C 
BRANCH  23  24
ATOM     24  C   UNL     1      52.213  -4.652  74.971  1.00  0.00    -0.000 C 
BRANCH  24  25
ATOM     25  C   UNL     1      52.623  -6.037  75.498  1.00  0.00    -0.003 C 
ATOM     26  C   UNL     1      51.871  -7.176  74.810  1.00  0.00     0.004 C 
ENDBRANCH  24  25
ENDBRANCH  23  24
ENDBRANCH  22  23
ENDBRANCH  21  22
ENDBRANCH  20  21
ENDBRANCH  19  20
ENDBRANCH  18  19
ENDBRANCH  17  18
ENDBRANCH  16  17
ENDBRANCH  15  16
ENDBRANCH   1  15
TORSDOF 22
ENDMDL
MODEL 9
REMARK VINA RESULT:    -3.845      2.783      5.913
REMARK INTER + INTRA:         -13.260
REMARK INTER:                  -9.573
REMARK INTRA:                  -3.687
REMARK UNBOUND:                -4.470
REMARK SMILES CCCCCCCCCCCCCCCCCCCCCCCC(=O)[O-]
REMARK SMILES IDX 13 1 14 2 15 3 16 4 17 5 18 6 19 7 20 8 21 9 22 10 23 11
REMARK SMILES IDX 24 12 25 13 26 14 12 15 11 16 10 17 9 18 8 19 7 20 6 21 5 22
REMARK SMILES IDX 4 23 3 24 2 25 1 26
REMARK H PARENT
REMARK Flexibility Score: inf
ROOT
ATOM      1  C   UNL     1      47.388  -4.994  73.077  1.00  0.00     0.000 C 
ENDROOT
BRANCH   1   2
ATOM      2  C   UNL     1      46.540  -6.245  73.374  1.00  0.00     0.000 C 
BRANCH   2   3
ATOM      3  C   UNL     1      45.201  -5.978  74.087  1.00  0.00     0.000 C 
BRANCH   3   4
ATOM      4  C   UNL     1      45.258  -6.258  75.597  1.00  0.00     0.000 C 
BRANCH   4   5
ATOM      5  C   UNL     1      45.939  -7.603  75.883  1.00  0.00     0.000 C 
BRANCH   5   6
ATOM      6  C   UNL     1      47.390  -7.443  76.370  1.00  0.00     0.000 C 
BRANCH   6   7
ATOM      7  C   UNL     1      47.541  -7.101  77.865  1.00  0.00     0.000 C 
BRANCH   7   8
ATOM      8  C   UNL     1      47.857  -5.623  78.172  1.00  0.00     0.000 C 
BRANCH   8   9
ATOM      9  C   UNL     1      49.184  -5.386  78.916  1.00  0.00     0.000 C 
BRANCH   9  10
ATOM     10  C   UNL     1      50.243  -6.456  78.605  1.00  0.00     0.006 C 
BRANCH  10  11
ATOM     11  C   UNL     1      51.507  -5.853  77.977  1.00  0.00     0.053 C 
BRANCH  11  12
ATOM     12  C   UNL     1      52.372  -5.183  79.000  1.00  0.00     0.041 C 
ATOM     13  O   UNL     1      52.130  -3.999  79.357  1.00  0.00    -0.550 OA
ATOM     14  O   UNL     1      53.461  -5.855  79.538  1.00  0.00    -0.550 OA
ENDBRANCH  11  12
ENDBRANCH  10  11
ENDBRANCH   9  10
ENDBRANCH   8   9
ENDBRANCH   7   8
ENDBRANCH   6   7
ENDBRANCH   5   6
ENDBRANCH   4   5
ENDBRANCH   3   4
ENDBRANCH   2   3
ENDBRANCH   1   2
BRANCH   1  15
ATOM     15  C   UNL     1      47.880  -4.284  74.347  1.00  0.00     0.000 C 
BRANCH  15  16
ATOM     16  C   UNL     1      49.311  -4.690  74.739  1.00  0.00     0.000 C 
BRANCH  16  17
ATOM     17  C   UNL     1      50.098  -3.576  75.462  1.00  0.00     0.000 C 
BRANCH  17  18
ATOM     18  C   UNL     1      49.175  -2.644  76.270  1.00  0.00    -0.000 C 
BRANCH  18  19
ATOM     19  C   UNL     1      49.287  -1.173  75.815  1.00  0.00    -0.000 C 
BRANCH  19  20
ATOM     20  C   UNL     1      48.045  -0.653  75.065  1.00  0.00    -0.000 C 
BRANCH  20  21
ATOM     21  C   UNL     1      48.334   0.381  73.962  1.00  0.00    -0.000 C 
BRANCH  21  22
ATOM     22  C   UNL     1      49.486  -0.042  73.033  1.00  0.00    -0.000 C 
BRANCH  22  23
ATOM     23  C   UNL     1      49.145  -1.285  72.196  1.00  0.00    -0.000 C 
BRANCH  23  24
ATOM     24  C   UNL     1      50.341  -2.235  72.024  1.00  0.00    -0.000 C 
BRANCH  24  25
ATOM     25  C   UNL     1      51.686  -1.530  72.259  1.00  0.00    -0.003 C 
ATOM     26  C   UNL     1      52.692  -2.411  73.000  1.00  0.00     0.004 C 
ENDBRANCH  24  25
ENDBRANCH  23  24
ENDBRANCH  22  23
ENDBRANCH  21  22
ENDBRANCH  20  21
ENDBRANCH  19  20
ENDBRANCH  18  19
ENDBRANCH  17  18
ENDBRANCH  16  17
ENDBRANCH  15  16
ENDBRANCH   1  15
TORSDOF 22
ENDMDL
