MODEL 1
REMARK VINA RESULT:    -2.779      0.000      0.000
REMARK INTER + INTRA:          -8.960
REMARK INTER:                  -7.002
REMARK INTRA:                  -1.957
REMARK UNBOUND:                -1.957
REMARK SMILES CCCCCCCCCCCCCCCCCCCCCCCCCCCC(=O)[O-]
REMARK SMILES IDX 15 1 16 2 17 3 18 4 19 5 20 6 21 7 22 8 23 9 24 10 25 11
REMARK SMILES IDX 26 12 27 13 28 14 29 15 30 16 14 17 13 18 12 19 11 20 10 21
REMARK SMILES IDX 9 22 8 23 7 24 6 25 5 26 4 27 3 28 2 29 1 30
REMARK H PARENT
REMARK Flexibility Score: inf
ROOT
ATOM      1  C   UNL     1      -1.643 -33.795  47.019  1.00  0.00     0.000 C 
ENDROOT
BRANCH   1   2
ATOM      2  C   UNL     1      -0.379 -34.609  47.349  1.00  0.00     0.000 C 
BRANCH   2   3
ATOM      3  C   UNL     1      -0.593 -36.128  47.229  1.00  0.00     0.000 C 
BRANCH   3   4
ATOM      4  C   UNL     1       0.311 -36.833  46.203  1.00  0.00     0.000 C 
BRANCH   4   5
ATOM      5  C   UNL     1       0.031 -36.393  44.754  1.00  0.00     0.000 C 
BRANCH   5   6
ATOM      6  C   UNL     1       1.314 -36.010  44.003  1.00  0.00     0.000 C 
BRANCH   6   7
ATOM      7  C   UNL     1       1.736 -34.555  44.269  1.00  0.00     0.000 C 
BRANCH   7   8
ATOM      8  C   UNL     1       2.369 -34.367  45.660  1.00  0.00     0.000 C 
BRANCH   8   9
ATOM      9  C   UNL     1       3.637 -35.219  45.845  1.00  0.00     0.000 C 
BRANCH   9  10
ATOM     10  C   UNL     1       3.745 -35.828  47.252  1.00  0.00     0.000 C 
BRANCH  10  11
ATOM     11  C   UNL     1       3.158 -34.916  48.345  1.00  0.00     0.000 C 
BRANCH  11  12
ATOM     12  C   UNL     1       4.168 -33.867  48.850  1.00  0.00     0.006 C 
BRANCH  12  13
ATOM     13  C   UNL     1       4.059 -32.501  48.153  1.00  0.00     0.053 C 
BRANCH  13  14
ATOM     14  C   UNL     1       2.934 -31.685  48.710  1.00  0.00     0.041 C 
ATOM     15  O   UNL     1       3.047 -30.437  48.821  1.00  0.00    -0.550 OA
ATOM     16  O   UNL     1       1.745 -32.302  49.073  1.00  0.00    -0.550 OA
ENDBRANCH  13  14
ENDBRANCH  12  13
ENDBRANCH  11  12
ENDBRANCH  10  11
ENDBRANCH   9  10
ENDBRANCH   8   9
ENDBRANCH   7   8
ENDBRANCH   6   7
ENDBRANCH   5   6
ENDBRANCH   4   5
ENDBRANCH   3   4
ENDBRANCH   2   3
ENDBRANCH   1   2
BRANCH   1  17
ATOM     17  C   UNL     1      -2.931 -34.433  47.577  1.00  0.00     0.000 C 
BRANCH  17  18
ATOM     18  C   UNL     1      -2.778 -35.037  48.988  1.00  0.00     0.000 C 
BRANCH  18  19
ATOM     19  C   UNL     1      -3.188 -36.512  49.125  1.00  0.00     0.000 C 
BRANCH  19  20
ATOM     20  C   UNL     1      -4.382 -36.881  48.233  1.00  0.00     0.000 C 
BRANCH  20  21
ATOM     21  C   UNL     1      -5.681 -36.237  48.733  1.00  0.00     0.000 C 
BRANCH  21  22
ATOM     22  C   UNL     1      -6.725 -36.187  47.610  1.00  0.00    -0.000 C 
BRANCH  22  23
ATOM     23  C   UNL     1      -7.095 -34.739  47.248  1.00  0.00    -0.000 C 
BRANCH  23  24
ATOM     24  C   UNL     1      -5.851 -33.843  47.158  1.00  0.00    -0.000 C 
BRANCH  24  25
ATOM     25  C   UNL     1      -5.750 -33.111  45.808  1.00  0.00    -0.000 C 
BRANCH  25  26
ATOM     26  C   UNL     1      -6.521 -33.845  44.698  1.00  0.00    -0.000 C 
BRANCH  26  27
ATOM     27  C   UNL     1      -5.574 -34.625  43.767  1.00  0.00    -0.000 C 
BRANCH  27  28
ATOM     28  C   UNL     1      -5.655 -36.151  43.990  1.00  0.00    -0.000 C 
BRANCH  28  29
ATOM     29  C   UNL     1      -4.565 -36.691  44.930  1.00  0.00    -0.003 C 
ATOM     30  C   UNL     1      -3.298 -35.834  44.928  1.00  0.00     0.004 C 
ENDBRANCH  28  29
ENDBRANCH  27  28
ENDBRANCH  26  27
ENDBRANCH  25  26
ENDBRANCH  24  25
ENDBRANCH  23  24
ENDBRANCH  22  23
ENDBRANCH  21  22
ENDBRANCH  20  21
ENDBRANCH  19  20
ENDBRANCH  18  19
ENDBRANCH  17  18
ENDBRANCH   1  17
TORSDOF 26
ENDMDL
MODEL 2
REMARK VINA RESULT:    -2.672      5.640      7.871
REMARK INTER + INTRA:          -8.690
REMARK INTER:                  -6.647
REMARK INTRA:                  -2.042
REMARK UNBOUND:                -1.957
REMARK SMILES CCCCCCCCCCCCCCCCCCCCCCCCCCCC(=O)[O-]
REMARK SMILES IDX 15 1 16 2 17 3 18 4 19 5 20 6 21 7 22 8 23 9 24 10 25 11
REMARK SMILES IDX 26 12 27 13 28 14 29 15 30 16 14 17 13 18 12 19 11 20 10 21
REMARK SMILES IDX 9 22 8 23 7 24 6 25 5 26 4 27 3 28 2 29 1 30
REMARK H PARENT
REMARK Flexibility Score: inf
ROOT
ATOM      1  C   UNL     1      -6.055 -33.219  46.124  1.00  0.00     0.000 C 
ENDROOT
BRANCH   1   2
ATOM      2  C   UNL     1      -5.713 -34.690  45.824  1.00  0.00     0.000 C 
BRANCH   2   3
ATOM      3  C   UNL     1      -6.436 -35.678  46.756  1.00  0.00     0.000 C 
BRANCH   3   4
ATOM      4  C   UNL     1      -5.519 -36.684  47.474  1.00  0.00     0.000 C 
BRANCH   4   5
ATOM      5  C   UNL     1      -4.801 -36.077  48.693  1.00  0.00     0.000 C 
BRANCH   5   6
ATOM      6  C   UNL     1      -3.280 -36.284  48.637  1.00  0.00     0.000 C 
BRANCH   6   7
ATOM      7  C   UNL     1      -2.834 -36.996  47.347  1.00  0.00     0.000 C 
BRANCH   7   8
ATOM      8  C   UNL     1      -1.374 -36.685  46.974  1.00  0.00     0.000 C 
BRANCH   8   9
ATOM      9  C   UNL     1      -1.267 -35.640  45.850  1.00  0.00     0.000 C 
BRANCH   9  10
ATOM     10  C   UNL     1      -0.450 -36.139  44.648  1.00  0.00     0.000 C 
BRANCH  10  11
ATOM     11  C   UNL     1       0.771 -35.251  44.345  1.00  0.00     0.000 C 
BRANCH  11  12
ATOM     12  C   UNL     1       1.988 -35.591  45.227  1.00  0.00     0.006 C 
BRANCH  12  13
ATOM     13  C   UNL     1       2.574 -34.389  45.984  1.00  0.00     0.053 C 
BRANCH  13  14
ATOM     14  C   UNL     1       2.265 -34.454  47.448  1.00  0.00     0.041 C 
ATOM     15  O   UNL     1       3.001 -35.115  48.225  1.00  0.00    -0.550 OA
ATOM     16  O   UNL     1       1.181 -33.753  47.958  1.00  0.00    -0.550 OA
ENDBRANCH  13  14
ENDBRANCH  12  13
ENDBRANCH  11  12
ENDBRANCH  10  11
ENDBRANCH   9  10
ENDBRANCH   8   9
ENDBRANCH   7   8
ENDBRANCH   6   7
ENDBRANCH   5   6
ENDBRANCH   4   5
ENDBRANCH   3   4
ENDBRANCH   2   3
ENDBRANCH   1   2
BRANCH   1  17
ATOM     17  C   UNL     1      -5.915 -32.862  47.618  1.00  0.00     0.000 C 
BRANCH  17  18
ATOM     18  C   UNL     1      -6.830 -31.710  48.082  1.00  0.00     0.000 C 
BRANCH  18  19
ATOM     19  C   UNL     1      -6.202 -30.730  49.086  1.00  0.00     0.000 C 
BRANCH  19  20
ATOM     20  C   UNL     1      -6.896 -29.360  49.091  1.00  0.00     0.000 C 
BRANCH  20  21
ATOM     21  C   UNL     1      -5.881 -28.212  49.125  1.00  0.00     0.000 C 
BRANCH  21  22
ATOM     22  C   UNL     1      -6.274 -27.114  48.128  1.00  0.00    -0.000 C 
BRANCH  22  23
ATOM     23  C   UNL     1      -5.893 -25.718  48.646  1.00  0.00    -0.000 C 
BRANCH  23  24
ATOM     24  C   UNL     1      -4.731 -25.114  47.843  1.00  0.00    -0.000 C 
BRANCH  24  25
ATOM     25  C   UNL     1      -4.724 -23.576  47.884  1.00  0.00    -0.000 C 
BRANCH  25  26
ATOM     26  C   UNL     1      -6.073 -23.008  48.358  1.00  0.00    -0.000 C 
BRANCH  26  27
ATOM     27  C   UNL     1      -6.836 -22.321  47.210  1.00  0.00    -0.000 C 
BRANCH  27  28
ATOM     28  C   UNL     1      -8.221 -22.957  46.961  1.00  0.00    -0.000 C 
BRANCH  28  29
ATOM     29  C   UNL     1      -8.879 -23.507  48.237  1.00  0.00    -0.003 C 
ATOM     30  C   UNL     1     -10.389 -23.266  48.280  1.00  0.00     0.004 C 
ENDBRANCH  28  29
ENDBRANCH  27  28
ENDBRANCH  26  27
ENDBRANCH  25  26
ENDBRANCH  24  25
ENDBRANCH  23  24
ENDBRANCH  22  23
ENDBRANCH  21  22
ENDBRANCH  20  21
ENDBRANCH  19  20
ENDBRANCH  18  19
ENDBRANCH  17  18
ENDBRANCH   1  17
TORSDOF 26
ENDMDL
MODEL 3
REMARK VINA RESULT:    -2.096      5.394      7.509
REMARK INTER + INTRA:          -7.239
REMARK INTER:                  -5.992
REMARK INTRA:                  -1.247
REMARK UNBOUND:                -1.957
REMARK SMILES CCCCCCCCCCCCCCCCCCCCCCCCCCCC(=O)[O-]
REMARK SMILES IDX 15 1 16 2 17 3 18 4 19 5 20 6 21 7 22 8 23 9 24 10 25 11
REMARK SMILES IDX 26 12 27 13 28 14 29 15 30 16 14 17 13 18 12 19 11 20 10 21
REMARK SMILES IDX 9 22 8 23 7 24 6 25 5 26 4 27 3 28 2 29 1 30
REMARK H PARENT
REMARK Flexibility Score: inf
ROOT
ATOM      1  C   UNL     1      -6.802 -35.239  46.631  1.00  0.00     0.000 C 
ENDROOT
BRANCH   1   2
ATOM      2  C   UNL     1      -5.435 -35.937  46.506  1.00  0.00     0.000 C 
BRANCH   2   3
ATOM      3  C   UNL     1      -4.721 -36.109  47.859  1.00  0.00     0.000 C 
BRANCH   3   4
ATOM      4  C   UNL     1      -3.908 -34.888  48.324  1.00  0.00     0.000 C 
BRANCH   4   5
ATOM      5  C   UNL     1      -2.584 -35.275  49.009  1.00  0.00     0.000 C 
BRANCH   5   6
ATOM      6  C   UNL     1      -2.112 -36.681  48.613  1.00  0.00     0.000 C 
BRANCH   6   7
ATOM      7  C   UNL     1      -1.100 -36.654  47.454  1.00  0.00     0.000 C 
BRANCH   7   8
ATOM      8  C   UNL     1      -0.379 -35.300  47.330  1.00  0.00     0.000 C 
BRANCH   8   9
ATOM      9  C   UNL     1      -0.957 -34.431  46.199  1.00  0.00     0.000 C 
BRANCH   9  10
ATOM     10  C   UNL     1      -0.255 -34.661  44.852  1.00  0.00     0.000 C 
BRANCH  10  11
ATOM     11  C   UNL     1       1.085 -35.406  44.996  1.00  0.00     0.000 C 
BRANCH  11  12
ATOM     12  C   UNL     1       2.297 -34.529  44.625  1.00  0.00     0.006 C 
BRANCH  12  13
ATOM     13  C   UNL     1       3.510 -34.707  45.552  1.00  0.00     0.053 C 
BRANCH  13  14
ATOM     14  C   UNL     1       3.236 -35.703  46.636  1.00  0.00     0.041 C 
ATOM     15  O   UNL     1       3.724 -36.860  46.575  1.00  0.00    -0.550 OA
ATOM     16  O   UNL     1       2.469 -35.338  47.734  1.00  0.00    -0.550 OA
ENDBRANCH  13  14
ENDBRANCH  12  13
ENDBRANCH  11  12
ENDBRANCH  10  11
ENDBRANCH   9  10
ENDBRANCH   8   9
ENDBRANCH   7   8
ENDBRANCH   6   7
ENDBRANCH   5   6
ENDBRANCH   4   5
ENDBRANCH   3   4
ENDBRANCH   2   3
ENDBRANCH   1   2
BRANCH   1  17
ATOM     17  C   UNL     1      -6.726 -33.719  46.380  1.00  0.00     0.000 C 
BRANCH  17  18
ATOM     18  C   UNL     1      -7.158 -32.857  47.584  1.00  0.00     0.000 C 
BRANCH  18  19
ATOM     19  C   UNL     1      -6.176 -31.744  47.988  1.00  0.00     0.000 C 
BRANCH  19  20
ATOM     20  C   UNL     1      -6.824 -30.678  48.883  1.00  0.00     0.000 C 
BRANCH  20  21
ATOM     21  C   UNL     1      -5.882 -29.493  49.123  1.00  0.00     0.000 C 
BRANCH  21  22
ATOM     22  C   UNL     1      -6.556 -28.177  48.713  1.00  0.00    -0.000 C 
BRANCH  22  23
ATOM     23  C   UNL     1      -5.755 -27.449  47.621  1.00  0.00    -0.000 C 
BRANCH  23  24
ATOM     24  C   UNL     1      -5.909 -25.924  47.729  1.00  0.00    -0.000 C 
BRANCH  24  25
ATOM     25  C   UNL     1      -6.470 -25.485  49.093  1.00  0.00    -0.000 C 
BRANCH  25  26
ATOM     26  C   UNL     1      -7.829 -24.779  48.954  1.00  0.00    -0.000 C 
BRANCH  26  27
ATOM     27  C   UNL     1      -8.016 -24.176  47.549  1.00  0.00    -0.000 C 
BRANCH  27  28
ATOM     28  C   UNL     1      -8.146 -22.638  47.582  1.00  0.00    -0.000 C 
BRANCH  28  29
ATOM     29  C   UNL     1      -6.793 -21.909  47.558  1.00  0.00    -0.003 C 
ATOM     30  C   UNL     1      -6.757 -20.751  46.559  1.00  0.00     0.004 C 
ENDBRANCH  28  29
ENDBRANCH  27  28
ENDBRANCH  26  27
ENDBRANCH  25  26
ENDBRANCH  24  25
ENDBRANCH  23  24
ENDBRANCH  22  23
ENDBRANCH  21  22
ENDBRANCH  20  21
ENDBRANCH  19  20
ENDBRANCH  18  19
ENDBRANCH  17  18
ENDBRANCH   1  17
TORSDOF 26
ENDMDL
MODEL 4
REMARK VINA RESULT:    -2.053      5.605      7.634
REMARK INTER + INTRA:          -7.131
REMARK INTER:                  -5.791
REMARK INTRA:                  -1.340
REMARK UNBOUND:                -1.957
REMARK SMILES CCCCCCCCCCCCCCCCCCCCCCCCCCCC(=O)[O-]
REMARK SMILES IDX 15 1 16 2 17 3 18 4 19 5 20 6 21 7 22 8 23 9 24 10 25 11
REMARK SMILES IDX 26 12 27 13 28 14 29 15 30 16 14 17 13 18 12 19 11 20 10 21
REMARK SMILES IDX 9 22 8 23 7 24 6 25 5 26 4 27 3 28 2 29 1 30
REMARK H PARENT
REMARK Flexibility Score: inf
ROOT
ATOM      1  C   UNL     1      -5.883 -35.181  46.520  1.00  0.00     0.000 C 
ENDROOT
BRANCH   1   2
ATOM      2  C   UNL     1      -4.453 -35.461  46.023  1.00  0.00     0.000 C 
BRANCH   2   3
ATOM      3  C   UNL     1      -3.815 -36.692  46.692  1.00  0.00     0.000 C 
BRANCH   3   4
ATOM      4  C   UNL     1      -4.207 -36.908  48.164  1.00  0.00     0.000 C 
BRANCH   4   5
ATOM      5  C   UNL     1      -2.989 -37.057  49.094  1.00  0.00     0.000 C 
BRANCH   5   6
ATOM      6  C   UNL     1      -1.723 -36.422  48.502  1.00  0.00     0.000 C 
BRANCH   6   7
ATOM      7  C   UNL     1      -1.678 -34.899  48.715  1.00  0.00     0.000 C 
BRANCH   7   8
ATOM      8  C   UNL     1      -0.241 -34.359  48.834  1.00  0.00     0.000 C 
BRANCH   8   9
ATOM      9  C   UNL     1       0.763 -35.184  48.010  1.00  0.00     0.000 C 
BRANCH   9  10
ATOM     10  C   UNL     1       2.169 -34.563  47.989  1.00  0.00     0.000 C 
BRANCH  10  11
ATOM     11  C   UNL     1       2.432 -33.722  46.727  1.00  0.00     0.000 C 
BRANCH  11  12
ATOM     12  C   UNL     1       2.698 -34.587  45.479  1.00  0.00     0.006 C 
BRANCH  12  13
ATOM     13  C   UNL     1       1.508 -34.678  44.510  1.00  0.00     0.053 C 
BRANCH  13  14
ATOM     14  C   UNL     1       1.087 -36.097  44.285  1.00  0.00     0.041 C 
ATOM     15  O   UNL     1       1.945 -36.984  44.042  1.00  0.00    -0.550 OA
ATOM     16  O   UNL     1      -0.253 -36.445  44.379  1.00  0.00    -0.550 OA
ENDBRANCH  13  14
ENDBRANCH  12  13
ENDBRANCH  11  12
ENDBRANCH  10  11
ENDBRANCH   9  10
ENDBRANCH   8   9
ENDBRANCH   7   8
ENDBRANCH   6   7
ENDBRANCH   5   6
ENDBRANCH   4   5
ENDBRANCH   3   4
ENDBRANCH   2   3
ENDBRANCH   1   2
BRANCH   1  17
ATOM     17  C   UNL     1      -6.467 -33.868  45.958  1.00  0.00     0.000 C 
BRANCH  17  18
ATOM     18  C   UNL     1      -7.115 -32.958  47.022  1.00  0.00     0.000 C 
BRANCH  18  19
ATOM     19  C   UNL     1      -6.209 -31.852  47.587  1.00  0.00     0.000 C 
BRANCH  19  20
ATOM     20  C   UNL     1      -6.926 -30.968  48.618  1.00  0.00     0.000 C 
BRANCH  20  21
ATOM     21  C   UNL     1      -6.020 -29.838  49.121  1.00  0.00     0.000 C 
BRANCH  21  22
ATOM     22  C   UNL     1      -6.145 -28.603  48.220  1.00  0.00    -0.000 C 
BRANCH  22  23
ATOM     23  C   UNL     1      -6.028 -27.300  49.027  1.00  0.00    -0.000 C 
BRANCH  23  24
ATOM     24  C   UNL     1      -6.537 -26.092  48.226  1.00  0.00    -0.000 C 
BRANCH  24  25
ATOM     25  C   UNL     1      -6.764 -24.853  49.111  1.00  0.00    -0.000 C 
BRANCH  25  26
ATOM     26  C   UNL     1      -6.191 -23.577  48.471  1.00  0.00    -0.000 C 
BRANCH  26  27
ATOM     27  C   UNL     1      -7.066 -23.087  47.302  1.00  0.00    -0.000 C 
BRANCH  27  28
ATOM     28  C   UNL     1      -8.559 -23.423  47.502  1.00  0.00    -0.000 C 
BRANCH  28  29
ATOM     29  C   UNL     1      -9.469 -22.185  47.510  1.00  0.00    -0.003 C 
ATOM     30  C   UNL     1     -10.910 -22.506  47.911  1.00  0.00     0.004 C 
ENDBRANCH  28  29
ENDBRANCH  27  28
ENDBRANCH  26  27
ENDBRANCH  25  26
ENDBRANCH  24  25
ENDBRANCH  23  24
ENDBRANCH  22  23
ENDBRANCH  21  22
ENDBRANCH  20  21
ENDBRANCH  19  20
ENDBRANCH  18  19
ENDBRANCH  17  18
ENDBRANCH   1  17
TORSDOF 26
ENDMDL
MODEL 5
REMARK VINA RESULT:    -1.862      5.773      9.509
REMARK INTER + INTRA:          -6.651
REMARK INTER:                  -4.454
REMARK INTRA:                  -2.196
REMARK UNBOUND:                -1.957
REMARK SMILES CCCCCCCCCCCCCCCCCCCCCCCCCCCC(=O)[O-]
REMARK SMILES IDX 15 1 16 2 17 3 18 4 19 5 20 6 21 7 22 8 23 9 24 10 25 11
REMARK SMILES IDX 26 12 27 13 28 14 29 15 30 16 14 17 13 18 12 19 11 20 10 21
REMARK SMILES IDX 9 22 8 23 7 24 6 25 5 26 4 27 3 28 2 29 1 30
REMARK H PARENT
REMARK Flexibility Score: inf
ROOT
ATOM      1  C   UNL     1      -4.388 -34.393  45.899  1.00  0.00     0.000 C 
ENDROOT
BRANCH   1   2
ATOM      2  C   UNL     1      -5.856 -33.933  45.959  1.00  0.00     0.000 C 
BRANCH   2   3
ATOM      3  C   UNL     1      -6.310 -33.550  47.379  1.00  0.00     0.000 C 
BRANCH   3   4
ATOM      4  C   UNL     1      -6.718 -32.076  47.554  1.00  0.00     0.000 C 
BRANCH   4   5
ATOM      5  C   UNL     1      -6.596 -31.589  49.010  1.00  0.00     0.000 C 
BRANCH   5   6
ATOM      6  C   UNL     1      -5.789 -30.288  49.123  1.00  0.00     0.000 C 
BRANCH   6   7
ATOM      7  C   UNL     1      -6.533 -29.084  48.518  1.00  0.00     0.000 C 
BRANCH   7   8
ATOM      8  C   UNL     1      -6.022 -27.738  49.061  1.00  0.00     0.000 C 
BRANCH   8   9
ATOM      9  C   UNL     1      -6.042 -26.631  47.993  1.00  0.00     0.000 C 
BRANCH   9  10
ATOM     10  C   UNL     1      -6.642 -25.314  48.511  1.00  0.00     0.000 C 
BRANCH  10  11
ATOM     11  C   UNL     1      -7.799 -24.799  47.635  1.00  0.00     0.000 C 
BRANCH  11  12
ATOM     12  C   UNL     1      -7.780 -23.267  47.464  1.00  0.00     0.006 C 
BRANCH  12  13
ATOM     13  C   UNL     1      -6.523 -22.585  48.028  1.00  0.00     0.053 C 
BRANCH  13  14
ATOM     14  C   UNL     1      -5.967 -21.576  47.073  1.00  0.00     0.041 C 
ATOM     15  O   UNL     1      -6.644 -20.568  46.746  1.00  0.00    -0.550 OA
ATOM     16  O   UNL     1      -4.682 -21.733  46.570  1.00  0.00    -0.550 OA
ENDBRANCH  13  14
ENDBRANCH  12  13
ENDBRANCH  11  12
ENDBRANCH  10  11
ENDBRANCH   9  10
ENDBRANCH   8   9
ENDBRANCH   7   8
ENDBRANCH   6   7
ENDBRANCH   5   6
ENDBRANCH   4   5
ENDBRANCH   3   4
ENDBRANCH   2   3
ENDBRANCH   1   2
BRANCH   1  17
ATOM     17  C   UNL     1      -4.203 -35.716  45.129  1.00  0.00     0.000 C 
BRANCH  17  18
ATOM     18  C   UNL     1      -4.084 -36.962  46.030  1.00  0.00     0.000 C 
BRANCH  18  19
ATOM     19  C   UNL     1      -4.550 -36.775  47.483  1.00  0.00     0.000 C 
BRANCH  19  20
ATOM     20  C   UNL     1      -3.445 -37.080  48.504  1.00  0.00     0.000 C 
BRANCH  20  21
ATOM     21  C   UNL     1      -2.739 -35.802  48.971  1.00  0.00     0.000 C 
BRANCH  21  22
ATOM     22  C   UNL     1      -1.221 -35.925  48.788  1.00  0.00    -0.000 C 
BRANCH  22  23
ATOM     23  C   UNL     1      -0.860 -37.059  47.815  1.00  0.00    -0.000 C 
BRANCH  23  24
ATOM     24  C   UNL     1      -0.445 -36.513  46.440  1.00  0.00    -0.000 C 
BRANCH  24  25
ATOM     25  C   UNL     1      -0.517 -34.978  46.370  1.00  0.00    -0.000 C 
BRANCH  25  26
ATOM     26  C   UNL     1       0.368 -34.411  45.247  1.00  0.00    -0.000 C 
BRANCH  26  27
ATOM     27  C   UNL     1       1.858 -34.413  45.642  1.00  0.00    -0.000 C 
BRANCH  27  28
ATOM     28  C   UNL     1       2.062 -34.501  47.169  1.00  0.00    -0.000 C 
BRANCH  28  29
ATOM     29  C   UNL     1       3.241 -33.656  47.678  1.00  0.00    -0.003 C 
ATOM     30  C   UNL     1       2.834 -32.232  48.059  1.00  0.00     0.004 C 
ENDBRANCH  28  29
ENDBRANCH  27  28
ENDBRANCH  26  27
ENDBRANCH  25  26
ENDBRANCH  24  25
ENDBRANCH  23  24
ENDBRANCH  22  23
ENDBRANCH  21  22
ENDBRANCH  20  21
ENDBRANCH  19  20
ENDBRANCH  18  19
ENDBRANCH  17  18
ENDBRANCH   1  17
TORSDOF 26
ENDMDL
MODEL 6
REMARK VINA RESULT:    -1.796      2.135      3.700
REMARK INTER + INTRA:          -6.483
REMARK INTER:                  -5.082
REMARK INTRA:                  -1.400
REMARK UNBOUND:                -1.957
REMARK SMILES CCCCCCCCCCCCCCCCCCCCCCCCCCCC(=O)[O-]
REMARK SMILES IDX 15 1 16 2 17 3 18 4 19 5 20 6 21 7 22 8 23 9 24 10 25 11
REMARK SMILES IDX 26 12 27 13 28 14 29 15 30 16 14 17 13 18 12 19 11 20 10 21
REMARK SMILES IDX 9 22 8 23 7 24 6 25 5 26 4 27 3 28 2 29 1 30
REMARK H PARENT
REMARK Flexibility Score: inf
ROOT
ATOM      1  C   UNL     1      -1.466 -35.180  48.019  1.00  0.00     0.000 C 
ENDROOT
BRANCH   1   2
ATOM      2  C   UNL     1      -0.377 -35.639  49.006  1.00  0.00     0.000 C 
BRANCH   2   3
ATOM      3  C   UNL     1       0.808 -34.660  49.092  1.00  0.00     0.000 C 
BRANCH   3   4
ATOM      4  C   UNL     1       0.704 -33.433  48.170  1.00  0.00     0.000 C 
BRANCH   4   5
ATOM      5  C   UNL     1       1.968 -33.215  47.318  1.00  0.00     0.000 C 
BRANCH   5   6
ATOM      6  C   UNL     1       2.993 -32.311  48.017  1.00  0.00     0.000 C 
BRANCH   6   7
ATOM      7  C   UNL     1       3.886 -33.090  48.999  1.00  0.00     0.000 C 
BRANCH   7   8
ATOM      8  C   UNL     1       3.855 -34.609  48.751  1.00  0.00     0.000 C 
BRANCH   8   9
ATOM      9  C   UNL     1       4.271 -34.975  47.316  1.00  0.00     0.000 C 
BRANCH   9  10
ATOM     10  C   UNL     1       4.208 -36.487  47.045  1.00  0.00     0.000 C 
BRANCH  10  11
ATOM     11  C   UNL     1       2.881 -37.121  47.504  1.00  0.00     0.000 C 
BRANCH  11  12
ATOM     12  C   UNL     1       1.809 -37.125  46.397  1.00  0.00     0.006 C 
BRANCH  12  13
ATOM     13  C   UNL     1       2.138 -36.222  45.197  1.00  0.00     0.053 C 
BRANCH  13  14
ATOM     14  C   UNL     1       0.903 -35.824  44.451  1.00  0.00     0.041 C 
ATOM     15  O   UNL     1       0.497 -34.634  44.481  1.00  0.00    -0.550 OA
ATOM     16  O   UNL     1       0.218 -36.764  43.692  1.00  0.00    -0.550 OA
ENDBRANCH  13  14
ENDBRANCH  12  13
ENDBRANCH  11  12
ENDBRANCH  10  11
ENDBRANCH   9  10
ENDBRANCH   8   9
ENDBRANCH   7   8
ENDBRANCH   6   7
ENDBRANCH   5   6
ENDBRANCH   4   5
ENDBRANCH   3   4
ENDBRANCH   2   3
ENDBRANCH   1   2
BRANCH   1  17
ATOM     17  C   UNL     1      -2.826 -35.866  48.263  1.00  0.00     0.000 C 
BRANCH  17  18
ATOM     18  C   UNL     1      -3.933 -34.917  48.766  1.00  0.00     0.000 C 
BRANCH  18  19
ATOM     19  C   UNL     1      -3.473 -33.495  49.125  1.00  0.00     0.000 C 
BRANCH  19  20
ATOM     20  C   UNL     1      -4.022 -32.433  48.161  1.00  0.00     0.000 C 
BRANCH  20  21
ATOM     21  C   UNL     1      -5.310 -31.796  48.696  1.00  0.00     0.000 C 
BRANCH  21  22
ATOM     22  C   UNL     1      -6.527 -32.292  47.903  1.00  0.00    -0.000 C 
BRANCH  22  23
ATOM     23  C   UNL     1      -6.109 -33.204  46.739  1.00  0.00    -0.000 C 
BRANCH  23  24
ATOM     24  C   UNL     1      -7.244 -34.156  46.331  1.00  0.00    -0.000 C 
BRANCH  24  25
ATOM     25  C   UNL     1      -7.192 -34.528  44.839  1.00  0.00    -0.000 C 
BRANCH  25  26
ATOM     26  C   UNL     1      -5.747 -34.683  44.336  1.00  0.00    -0.000 C 
BRANCH  26  27
ATOM     27  C   UNL     1      -5.297 -36.157  44.344  1.00  0.00    -0.000 C 
BRANCH  27  28
ATOM     28  C   UNL     1      -3.966 -36.362  45.098  1.00  0.00    -0.000 C 
BRANCH  28  29
ATOM     29  C   UNL     1      -2.838 -35.440  44.608  1.00  0.00    -0.003 C 
ATOM     30  C   UNL     1      -2.558 -34.280  45.565  1.00  0.00     0.004 C 
ENDBRANCH  28  29
ENDBRANCH  27  28
ENDBRANCH  26  27
ENDBRANCH  25  26
ENDBRANCH  24  25
ENDBRANCH  23  24
ENDBRANCH  22  23
ENDBRANCH  21  22
ENDBRANCH  20  21
ENDBRANCH  19  20
ENDBRANCH  18  19
ENDBRANCH  17  18
ENDBRANCH   1  17
TORSDOF 26
ENDMDL
MODEL 7
REMARK VINA RESULT:    -1.581      5.147      7.041
REMARK INTER + INTRA:          -5.942
REMARK INTER:                  -4.624
REMARK INTRA:                  -1.318
REMARK UNBOUND:                -1.957
REMARK SMILES CCCCCCCCCCCCCCCCCCCCCCCCCCCC(=O)[O-]
REMARK SMILES IDX 15 1 16 2 17 3 18 4 19 5 20 6 21 7 22 8 23 9 24 10 25 11
REMARK SMILES IDX 26 12 27 13 28 14 29 15 30 16 14 17 13 18 12 19 11 20 10 21
REMARK SMILES IDX 9 22 8 23 7 24 6 25 5 26 4 27 3 28 2 29 1 30
REMARK H PARENT
REMARK Flexibility Score: inf
ROOT
ATOM      1  C   UNL     1      -5.406 -35.295  46.678  1.00  0.00     0.000 C 
ENDROOT
BRANCH   1   2
ATOM      2  C   UNL     1      -4.097 -35.852  46.091  1.00  0.00     0.000 C 
BRANCH   2   3
ATOM      3  C   UNL     1      -3.601 -37.115  46.817  1.00  0.00     0.000 C 
BRANCH   3   4
ATOM      4  C   UNL     1      -3.770 -37.093  48.347  1.00  0.00     0.000 C 
BRANCH   4   5
ATOM      5  C   UNL     1      -2.427 -37.122  49.099  1.00  0.00     0.000 C 
BRANCH   5   6
ATOM      6  C   UNL     1      -1.720 -35.759  49.083  1.00  0.00     0.000 C 
BRANCH   6   7
ATOM      7  C   UNL     1      -0.199 -35.891  48.889  1.00  0.00     0.000 C 
BRANCH   7   8
ATOM      8  C   UNL     1       0.180 -37.043  47.941  1.00  0.00     0.000 C 
BRANCH   8   9
ATOM      9  C   UNL     1       0.971 -36.555  46.716  1.00  0.00     0.000 C 
BRANCH   9  10
ATOM     10  C   UNL     1       0.183 -35.553  45.857  1.00  0.00     0.000 C 
BRANCH  10  11
ATOM     11  C   UNL     1       0.225 -34.120  46.420  1.00  0.00     0.000 C 
BRANCH  11  12
ATOM     12  C   UNL     1       1.662 -33.614  46.653  1.00  0.00     0.006 C 
BRANCH  12  13
ATOM     13  C   UNL     1       2.105 -33.631  48.124  1.00  0.00     0.053 C 
BRANCH  13  14
ATOM     14  C   UNL     1       3.286 -32.740  48.355  1.00  0.00     0.041 C 
ATOM     15  O   UNL     1       4.392 -33.227  48.705  1.00  0.00    -0.550 OA
ATOM     16  O   UNL     1       3.172 -31.372  48.149  1.00  0.00    -0.550 OA
ENDBRANCH  13  14
ENDBRANCH  12  13
ENDBRANCH  11  12
ENDBRANCH  10  11
ENDBRANCH   9  10
ENDBRANCH   8   9
ENDBRANCH   7   8
ENDBRANCH   6   7
ENDBRANCH   5   6
ENDBRANCH   4   5
ENDBRANCH   3   4
ENDBRANCH   2   3
ENDBRANCH   1   2
BRANCH   1  17
ATOM     17  C   UNL     1      -5.857 -33.983  46.004  1.00  0.00     0.000 C 
BRANCH  17  18
ATOM     18  C   UNL     1      -6.639 -33.031  46.933  1.00  0.00     0.000 C 
BRANCH  18  19
ATOM     19  C   UNL     1      -5.824 -31.877  47.537  1.00  0.00     0.000 C 
BRANCH  19  20
ATOM     20  C   UNL     1      -6.543 -31.193  48.709  1.00  0.00     0.000 C 
BRANCH  20  21
ATOM     21  C   UNL     1      -5.838 -29.896  49.125  1.00  0.00     0.000 C 
BRANCH  21  22
ATOM     22  C   UNL     1      -6.486 -28.686  48.439  1.00  0.00    -0.000 C 
BRANCH  22  23
ATOM     23  C   UNL     1      -6.066 -27.367  49.106  1.00  0.00    -0.000 C 
BRANCH  23  24
ATOM     24  C   UNL     1      -5.874 -26.247  48.073  1.00  0.00    -0.000 C 
BRANCH  24  25
ATOM     25  C   UNL     1      -5.316 -24.957  48.700  1.00  0.00    -0.000 C 
BRANCH  25  26
ATOM     26  C   UNL     1      -6.084 -23.710  48.230  1.00  0.00    -0.000 C 
BRANCH  26  27
ATOM     27  C   UNL     1      -7.171 -24.068  47.198  1.00  0.00    -0.000 C 
BRANCH  27  28
ATOM     28  C   UNL     1      -8.023 -22.845  46.794  1.00  0.00    -0.000 C 
BRANCH  28  29
ATOM     29  C   UNL     1      -9.247 -22.627  47.698  1.00  0.00    -0.003 C 
ATOM     30  C   UNL     1      -9.456 -23.760  48.703  1.00  0.00     0.004 C 
ENDBRANCH  28  29
ENDBRANCH  27  28
ENDBRANCH  26  27
ENDBRANCH  25  26
ENDBRANCH  24  25
ENDBRANCH  23  24
ENDBRANCH  22  23
ENDBRANCH  21  22
ENDBRANCH  20  21
ENDBRANCH  19  20
ENDBRANCH  18  19
ENDBRANCH  17  18
ENDBRANCH   1  17
TORSDOF 26
ENDMDL
MODEL 8
REMARK VINA RESULT:    -1.412      5.920      9.554
REMARK INTER + INTRA:          -5.515
REMARK INTER:                  -3.754
REMARK INTRA:                  -1.761
REMARK UNBOUND:                -1.957
REMARK SMILES CCCCCCCCCCCCCCCCCCCCCCCCCCCC(=O)[O-]
REMARK SMILES IDX 15 1 16 2 17 3 18 4 19 5 20 6 21 7 22 8 23 9 24 10 25 11
REMARK SMILES IDX 26 12 27 13 28 14 29 15 30 16 14 17 13 18 12 19 11 20 10 21
REMARK SMILES IDX 9 22 8 23 7 24 6 25 5 26 4 27 3 28 2 29 1 30
REMARK H PARENT
REMARK Flexibility Score: inf
ROOT
ATOM      1  C   UNL     1      -4.766 -34.478  45.799  1.00  0.00     0.000 C 
ENDROOT
BRANCH   1   2
ATOM      2  C   UNL     1      -6.155 -33.815  45.802  1.00  0.00     0.000 C 
BRANCH   2   3
ATOM      3  C   UNL     1      -6.742 -33.653  47.216  1.00  0.00     0.000 C 
BRANCH   3   4
ATOM      4  C   UNL     1      -7.033 -32.201  47.635  1.00  0.00     0.000 C 
BRANCH   4   5
ATOM      5  C   UNL     1      -6.171 -31.735  48.824  1.00  0.00     0.000 C 
BRANCH   5   6
ATOM      6  C   UNL     1      -5.703 -30.281  48.669  1.00  0.00     0.000 C 
BRANCH   6   7
ATOM      7  C   UNL     1      -6.772 -29.272  49.125  1.00  0.00     0.000 C 
BRANCH   7   8
ATOM      8  C   UNL     1      -6.254 -27.822  49.125  1.00  0.00     0.000 C 
BRANCH   8   9
ATOM      9  C   UNL     1      -5.868 -27.339  47.716  1.00  0.00     0.000 C 
BRANCH   9  10
ATOM     10  C   UNL     1      -6.074 -25.828  47.527  1.00  0.00     0.000 C 
BRANCH  10  11
ATOM     11  C   UNL     1      -6.265 -25.079  48.859  1.00  0.00     0.000 C 
BRANCH  11  12
ATOM     12  C   UNL     1      -7.335 -23.973  48.772  1.00  0.00     0.006 C 
BRANCH  12  13
ATOM     13  C   UNL     1      -7.473 -23.338  47.379  1.00  0.00     0.053 C 
BRANCH  13  14
ATOM     14  C   UNL     1      -8.631 -22.391  47.317  1.00  0.00     0.041 C 
ATOM     15  O   UNL     1      -8.567 -21.353  46.609  1.00  0.00    -0.550 OA
ATOM     16  O   UNL     1      -9.797 -22.675  48.015  1.00  0.00    -0.550 OA
ENDBRANCH  13  14
ENDBRANCH  12  13
ENDBRANCH  11  12
ENDBRANCH  10  11
ENDBRANCH   9  10
ENDBRANCH   8   9
ENDBRANCH   7   8
ENDBRANCH   6   7
ENDBRANCH   5   6
ENDBRANCH   4   5
ENDBRANCH   3   4
ENDBRANCH   2   3
ENDBRANCH   1   2
BRANCH   1  17
ATOM     17  C   UNL     1      -4.753 -35.842  45.079  1.00  0.00     0.000 C 
BRANCH  17  18
ATOM     18  C   UNL     1      -4.921 -37.055  46.016  1.00  0.00     0.000 C 
BRANCH  18  19
ATOM     19  C   UNL     1      -5.465 -36.738  47.419  1.00  0.00     0.000 C 
BRANCH  19  20
ATOM     20  C   UNL     1      -4.394 -36.860  48.512  1.00  0.00     0.000 C 
BRANCH  20  21
ATOM     21  C   UNL     1      -3.662 -35.532  48.738  1.00  0.00     0.000 C 
BRANCH  21  22
ATOM     22  C   UNL     1      -2.153 -35.765  48.882  1.00  0.00    -0.000 C 
BRANCH  22  23
ATOM     23  C   UNL     1      -1.353 -34.936  47.865  1.00  0.00    -0.000 C 
BRANCH  23  24
ATOM     24  C   UNL     1      -0.002 -34.485  48.440  1.00  0.00    -0.000 C 
BRANCH  24  25
ATOM     25  C   UNL     1       0.977 -35.657  48.629  1.00  0.00    -0.000 C 
BRANCH  25  26
ATOM     26  C   UNL     1       2.073 -35.670  47.550  1.00  0.00    -0.000 C 
BRANCH  26  27
ATOM     27  C   UNL     1       2.046 -34.388  46.697  1.00  0.00    -0.000 C 
BRANCH  27  28
ATOM     28  C   UNL     1       2.702 -34.588  45.313  1.00  0.00    -0.000 C 
BRANCH  28  29
ATOM     29  C   UNL     1       1.690 -34.623  44.156  1.00  0.00    -0.003 C 
ATOM     30  C   UNL     1       0.314 -35.137  44.583  1.00  0.00     0.004 C 
ENDBRANCH  28  29
ENDBRANCH  27  28
ENDBRANCH  26  27
ENDBRANCH  25  26
ENDBRANCH  24  25
ENDBRANCH  23  24
ENDBRANCH  22  23
ENDBRANCH  21  22
ENDBRANCH  20  21
ENDBRANCH  19  20
ENDBRANCH  18  19
ENDBRANCH  17  18
ENDBRANCH   1  17
TORSDOF 26
ENDMDL
