MODEL 1
REMARK VINA RESULT:    -5.176      0.000      0.000
REMARK INTER + INTRA:          -6.495
REMARK INTER:                  -6.387
REMARK INTRA:                  -0.109
REMARK UNBOUND:                -0.109
REMARK SMILES Oc1cc(O)c2cc(O)c(-c3cc(O)c(O)c(O)c3)[o+]c2c1
REMARK SMILES IDX 10 1 20 2 21 3 22 4 2 5 3 6 4 7 6 8 7 9 8 10 11 11 12 12
REMARK SMILES IDX 13 13 19 14 15 15 17 16 14 17 16 19 18 21 9 23 1 25 5 27
REMARK H PARENT 14 18 16 20 18 22 9 24 1 26 5 28
REMARK Flexibility Score: inf
ROOT
ATOM      1  C   UNL     1       5.204  -2.191  32.856  1.00  0.00     0.402 A 
ATOM      2  O   UNL     1       6.504  -2.267  33.131  1.00  0.00    -0.202 OA
ATOM      3  C   UNL     1       7.326  -1.225  33.064  1.00  0.00     0.368 A 
ATOM      4  C   UNL     1       8.678  -1.406  33.369  1.00  0.00     0.162 A 
ATOM      5  C   UNL     1       9.566  -0.327  33.303  1.00  0.00     0.128 A 
ATOM      6  C   UNL     1       9.100   0.935  32.930  1.00  0.00     0.093 A 
ATOM      7  C   UNL     1       7.750   1.142  32.619  1.00  0.00     0.136 A 
ATOM      8  C   UNL     1       6.844   0.051  32.687  1.00  0.00     0.125 A 
ATOM      9  C   UNL     1       5.473   0.168  32.406  1.00  0.00     0.078 A 
ATOM     10  C   UNL     1       4.641  -0.952  32.498  1.00  0.00     0.223 A 
ENDROOT
BRANCH   1  11
ATOM     11  C   UNL     1       4.393  -3.426  32.958  1.00  0.00     0.091 A 
ATOM     12  C   UNL     1       3.289  -3.457  33.822  1.00  0.00     0.068 A 
ATOM     13  C   UNL     1       2.512  -4.613  33.958  1.00  0.00     0.162 A 
ATOM     14  C   UNL     1       4.738  -4.587  32.250  1.00  0.00     0.068 A 
ATOM     15  C   UNL     1       2.853  -5.774  33.223  1.00  0.00     0.200 A 
ATOM     16  C   UNL     1       3.970  -5.752  32.377  1.00  0.00     0.162 A 
BRANCH  13  17
ATOM     17  O   UNL     1       1.421  -4.565  34.828  1.00  0.00    -0.504 OA
ATOM     18  H   UNL     1       0.632  -3.946  34.714  1.00  0.00     0.293 HD
ENDBRANCH  13  17
BRANCH  15  19
ATOM     19  O   UNL     1       2.117  -6.958  33.307  1.00  0.00    -0.502 OA
ATOM     20  H   UNL     1       1.749  -7.454  32.508  1.00  0.00     0.293 HD
ENDBRANCH  15  19
BRANCH  16  21
ATOM     21  O   UNL     1       4.316  -6.900  31.664  1.00  0.00    -0.504 OA
ATOM     22  H   UNL     1       4.687  -6.849  30.722  1.00  0.00     0.293 HD
ENDBRANCH  16  21
ENDBRANCH   1  11
BRANCH  10  23
ATOM     23  O   UNL     1       3.271  -0.827  32.268  1.00  0.00    -0.500 OA
ATOM     24  H   UNL     1       2.757  -1.510  31.724  1.00  0.00     0.294 HD
ENDBRANCH  10  23
BRANCH   5  25
ATOM     25  O   UNL     1      10.914  -0.500  33.606  1.00  0.00    -0.507 OA
ATOM     26  H   UNL     1      11.629   0.092  33.198  1.00  0.00     0.293 HD
ENDBRANCH   5  25
BRANCH   7  27
ATOM     27  O   UNL     1       7.364   2.434  32.251  1.00  0.00    -0.507 OA
ATOM     28  H   UNL     1       7.891   3.269  32.460  1.00  0.00     0.293 HD
ENDBRANCH   7  27
TORSDOF 7
ENDMDL
MODEL 2
REMARK VINA RESULT:    -5.154      2.242      4.043
REMARK INTER + INTRA:          -6.468
REMARK INTER:                  -6.492
REMARK INTRA:                   0.024
REMARK UNBOUND:                -0.109
REMARK SMILES Oc1cc(O)c2cc(O)c(-c3cc(O)c(O)c(O)c3)[o+]c2c1
REMARK SMILES IDX 10 1 20 2 21 3 22 4 2 5 3 6 4 7 6 8 7 9 8 10 11 11 12 12
REMARK SMILES IDX 13 13 19 14 15 15 17 16 14 17 16 19 18 21 9 23 1 25 5 27
REMARK H PARENT 14 18 16 20 18 22 9 24 1 26 5 28
REMARK Flexibility Score: inf
ROOT
ATOM      1  C   UNL     1       3.805  -3.984  34.118  1.00  0.00     0.402 A 
ATOM      2  O   UNL     1       3.558  -3.004  33.252  1.00  0.00    -0.202 OA
ATOM      3  C   UNL     1       4.487  -2.154  32.828  1.00  0.00     0.368 A 
ATOM      4  C   UNL     1       4.130  -1.154  31.919  1.00  0.00     0.162 A 
ATOM      5  C   UNL     1       5.087  -0.244  31.459  1.00  0.00     0.128 A 
ATOM      6  C   UNL     1       6.405  -0.334  31.910  1.00  0.00     0.093 A 
ATOM      7  C   UNL     1       6.789  -1.326  32.822  1.00  0.00     0.136 A 
ATOM      8  C   UNL     1       5.821  -2.254  33.290  1.00  0.00     0.125 A 
ATOM      9  C   UNL     1       6.118  -3.289  34.193  1.00  0.00     0.078 A 
ATOM     10  C   UNL     1       5.112  -4.168  34.606  1.00  0.00     0.223 A 
ENDROOT
BRANCH   1  11
ATOM     11  C   UNL     1       2.682  -4.861  34.522  1.00  0.00     0.091 A 
ATOM     12  C   UNL     1       1.724  -5.238  33.570  1.00  0.00     0.068 A 
ATOM     13  C   UNL     1       0.639  -6.049  33.920  1.00  0.00     0.162 A 
ATOM     14  C   UNL     1       2.523  -5.279  35.852  1.00  0.00     0.068 A 
ATOM     15  C   UNL     1       0.498  -6.486  35.259  1.00  0.00     0.200 A 
ATOM     16  C   UNL     1       1.442  -6.091  36.217  1.00  0.00     0.162 A 
BRANCH  13  17
ATOM     17  O   UNL     1      -0.267  -6.393  32.916  1.00  0.00    -0.504 OA
ATOM     18  H   UNL     1      -0.086  -7.083  32.200  1.00  0.00     0.293 HD
ENDBRANCH  13  17
BRANCH  15  19
ATOM     19  O   UNL     1      -0.557  -7.302  35.675  1.00  0.00    -0.502 OA
ATOM     20  H   UNL     1      -1.081  -7.160  36.527  1.00  0.00     0.293 HD
ENDBRANCH  15  19
BRANCH  16  21
ATOM     21  O   UNL     1       1.295  -6.507  37.540  1.00  0.00    -0.504 OA
ATOM     22  H   UNL     1       1.615  -5.938  38.315  1.00  0.00     0.293 HD
ENDBRANCH  16  21
ENDBRANCH   1  11
BRANCH  10  23
ATOM     23  O   UNL     1       5.416  -5.225  35.463  1.00  0.00    -0.500 OA
ATOM     24  H   UNL     1       4.934  -6.115  35.403  1.00  0.00     0.294 HD
ENDBRANCH  10  23
BRANCH   5  25
ATOM     25  O   UNL     1       4.738   0.754  30.553  1.00  0.00    -0.507 OA
ATOM     26  H   UNL     1       3.946   1.365  30.716  1.00  0.00     0.293 HD
ENDBRANCH   5  25
BRANCH   7  27
ATOM     27  O   UNL     1       8.126  -1.346  33.228  1.00  0.00    -0.507 OA
ATOM     28  H   UNL     1       8.633  -2.180  33.482  1.00  0.00     0.293 HD
ENDBRANCH   7  27
TORSDOF 7
ENDMDL
MODEL 3
REMARK VINA RESULT:    -5.067      2.389      7.664
REMARK INTER + INTRA:          -6.360
REMARK INTER:                  -5.978
REMARK INTRA:                  -0.382
REMARK UNBOUND:                -0.109
REMARK SMILES Oc1cc(O)c2cc(O)c(-c3cc(O)c(O)c(O)c3)[o+]c2c1
REMARK SMILES IDX 10 1 20 2 21 3 22 4 2 5 3 6 4 7 6 8 7 9 8 10 11 11 12 12
REMARK SMILES IDX 13 13 19 14 15 15 17 16 14 17 16 19 18 21 9 23 1 25 5 27
REMARK H PARENT 14 18 16 20 18 22 9 24 1 26 5 28
REMARK Flexibility Score: inf
ROOT
ATOM      1  C   UNL     1       3.825  -4.113  34.219  1.00  0.00     0.402 A 
ATOM      2  O   UNL     1       2.755  -4.598  33.594  1.00  0.00    -0.202 OA
ATOM      3  C   UNL     1       1.863  -5.389  34.181  1.00  0.00     0.368 A 
ATOM      4  C   UNL     1       0.772  -5.852  33.439  1.00  0.00     0.162 A 
ATOM      5  C   UNL     1      -0.180  -6.687  34.031  1.00  0.00     0.128 A 
ATOM      6  C   UNL     1      -0.040  -7.062  35.368  1.00  0.00     0.093 A 
ATOM      7  C   UNL     1       1.044  -6.613  36.133  1.00  0.00     0.136 A 
ATOM      8  C   UNL     1       2.011  -5.762  35.538  1.00  0.00     0.125 A 
ATOM      9  C   UNL     1       3.123  -5.252  36.231  1.00  0.00     0.078 A 
ATOM     10  C   UNL     1       4.033  -4.416  35.578  1.00  0.00     0.223 A 
ENDROOT
BRANCH   1  11
ATOM     11  C   UNL     1       4.753  -3.250  33.453  1.00  0.00     0.091 A 
ATOM     12  C   UNL     1       4.445  -1.894  33.275  1.00  0.00     0.068 A 
ATOM     13  C   UNL     1       5.288  -1.053  32.540  1.00  0.00     0.162 A 
ATOM     14  C   UNL     1       5.909  -3.771  32.852  1.00  0.00     0.068 A 
ATOM     15  C   UNL     1       6.464  -1.581  31.955  1.00  0.00     0.200 A 
ATOM     16  C   UNL     1       6.762  -2.942  32.113  1.00  0.00     0.162 A 
BRANCH  13  17
ATOM     17  O   UNL     1       4.921   0.288  32.415  1.00  0.00    -0.504 OA
ATOM     18  H   UNL     1       4.488   0.683  31.592  1.00  0.00     0.293 HD
ENDBRANCH  13  17
BRANCH  15  19
ATOM     19  O   UNL     1       7.352  -0.797  31.215  1.00  0.00    -0.502 OA
ATOM     20  H   UNL     1       8.155  -1.162  30.724  1.00  0.00     0.293 HD
ENDBRANCH  15  19
BRANCH  16  21
ATOM     21  O   UNL     1       7.912  -3.467  31.525  1.00  0.00    -0.504 OA
ATOM     22  H   UNL     1       8.538  -4.079  32.036  1.00  0.00     0.293 HD
ENDBRANCH  16  21
ENDBRANCH   1  11
BRANCH  10  23
ATOM     23  O   UNL     1       5.108  -3.869  36.278  1.00  0.00    -0.500 OA
ATOM     24  H   UNL     1       5.121  -3.833  37.291  1.00  0.00     0.294 HD
ENDBRANCH  10  23
BRANCH   5  25
ATOM     25  O   UNL     1      -1.269  -7.151  33.298  1.00  0.00    -0.507 OA
ATOM     26  H   UNL     1      -1.146  -7.654  32.427  1.00  0.00     0.293 HD
ENDBRANCH   5  25
BRANCH   7  27
ATOM     27  O   UNL     1       1.113  -7.036  37.464  1.00  0.00    -0.507 OA
ATOM     28  H   UNL     1       0.317  -7.125  38.077  1.00  0.00     0.293 HD
ENDBRANCH   7  27
TORSDOF 7
ENDMDL
MODEL 4
REMARK VINA RESULT:    -5.035      2.311      4.151
REMARK INTER + INTRA:          -6.321
REMARK INTER:                  -6.257
REMARK INTRA:                  -0.063
REMARK UNBOUND:                -0.109
REMARK SMILES Oc1cc(O)c2cc(O)c(-c3cc(O)c(O)c(O)c3)[o+]c2c1
REMARK SMILES IDX 10 1 20 2 21 3 22 4 2 5 3 6 4 7 6 8 7 9 8 10 11 11 12 12
REMARK SMILES IDX 13 13 19 14 15 15 17 16 14 17 16 19 18 21 9 23 1 25 5 27
REMARK H PARENT 14 18 16 20 18 22 9 24 1 26 5 28
REMARK Flexibility Score: inf
ROOT
ATOM      1  C   UNL     1       3.584  -4.431  34.194  1.00  0.00     0.402 A 
ATOM      2  O   UNL     1       3.405  -3.292  33.528  1.00  0.00    -0.202 OA
ATOM      3  C   UNL     1       4.405  -2.504  33.147  1.00  0.00     0.368 A 
ATOM      4  C   UNL     1       4.115  -1.325  32.454  1.00  0.00     0.162 A 
ATOM      5  C   UNL     1       5.148  -0.477  32.044  1.00  0.00     0.128 A 
ATOM      6  C   UNL     1       6.474  -0.808  32.329  1.00  0.00     0.093 A 
ATOM      7  C   UNL     1       6.791  -1.983  33.023  1.00  0.00     0.136 A 
ATOM      8  C   UNL     1       5.746  -2.849  33.438  1.00  0.00     0.125 A 
ATOM      9  C   UNL     1       5.970  -4.054  34.126  1.00  0.00     0.078 A 
ATOM     10  C   UNL     1       4.889  -4.858  34.500  1.00  0.00     0.223 A 
ENDROOT
BRANCH   1  11
ATOM     11  C   UNL     1       2.387  -5.217  34.572  1.00  0.00     0.091 A 
ATOM     12  C   UNL     1       2.240  -5.655  35.896  1.00  0.00     0.068 A 
ATOM     13  C   UNL     1       1.132  -6.417  36.284  1.00  0.00     0.162 A 
ATOM     14  C   UNL     1       1.423  -5.583  33.621  1.00  0.00     0.068 A 
ATOM     15  C   UNL     1       0.152  -6.764  35.324  1.00  0.00     0.200 A 
ATOM     16  C   UNL     1       0.309  -6.346  33.995  1.00  0.00     0.162 A 
BRANCH  13  17
ATOM     17  O   UNL     1       1.048  -6.807  37.622  1.00  0.00    -0.504 OA
ATOM     18  H   UNL     1       1.565  -6.373  38.372  1.00  0.00     0.293 HD
ENDBRANCH  13  17
BRANCH  15  19
ATOM     19  O   UNL     1      -0.981  -7.516  35.645  1.00  0.00    -0.502 OA
ATOM     20  H   UNL     1      -1.925  -7.249  35.404  1.00  0.00     0.293 HD
ENDBRANCH  15  19
BRANCH  16  21
ATOM     21  O   UNL     1      -0.648  -6.699  33.044  1.00  0.00    -0.504 OA
ATOM     22  H   UNL     1      -0.643  -6.303  32.111  1.00  0.00     0.293 HD
ENDBRANCH  16  21
ENDBRANCH   1  11
BRANCH  10  23
ATOM     23  O   UNL     1       5.113  -6.078  35.138  1.00  0.00    -0.500 OA
ATOM     24  H   UNL     1       5.598  -6.839  34.677  1.00  0.00     0.294 HD
ENDBRANCH  10  23
BRANCH   5  25
ATOM     25  O   UNL     1       4.867   0.700  31.354  1.00  0.00    -0.507 OA
ATOM     26  H   UNL     1       4.479   1.510  31.822  1.00  0.00     0.293 HD
ENDBRANCH   5  25
BRANCH   7  27
ATOM     27  O   UNL     1       8.142  -2.240  33.272  1.00  0.00    -0.507 OA
ATOM     28  H   UNL     1       8.732  -1.672  33.861  1.00  0.00     0.293 HD
ENDBRANCH   7  27
TORSDOF 7
ENDMDL
MODEL 5
REMARK VINA RESULT:    -5.016      3.157      7.347
REMARK INTER + INTRA:          -6.298
REMARK INTER:                  -5.955
REMARK INTRA:                  -0.343
REMARK UNBOUND:                -0.109
REMARK SMILES Oc1cc(O)c2cc(O)c(-c3cc(O)c(O)c(O)c3)[o+]c2c1
REMARK SMILES IDX 10 1 20 2 21 3 22 4 2 5 3 6 4 7 6 8 7 9 8 10 11 11 12 12
REMARK SMILES IDX 13 13 19 14 15 15 17 16 14 17 16 19 18 21 9 23 1 25 5 27
REMARK H PARENT 14 18 16 20 18 22 9 24 1 26 5 28
REMARK Flexibility Score: inf
ROOT
ATOM      1  C   UNL     1       3.622  -4.599  34.475  1.00  0.00     0.402 A 
ATOM      2  O   UNL     1       4.409  -5.293  35.293  1.00  0.00    -0.202 OA
ATOM      3  C   UNL     1       3.946  -6.132  36.214  1.00  0.00     0.368 A 
ATOM      4  C   UNL     1       4.853  -6.814  37.030  1.00  0.00     0.162 A 
ATOM      5  C   UNL     1       4.393  -7.701  38.008  1.00  0.00     0.128 A 
ATOM      6  C   UNL     1       3.022  -7.904  38.172  1.00  0.00     0.093 A 
ATOM      7  C   UNL     1       2.092  -7.232  37.369  1.00  0.00     0.136 A 
ATOM      8  C   UNL     1       2.554  -6.334  36.371  1.00  0.00     0.125 A 
ATOM      9  C   UNL     1       1.697  -5.627  35.511  1.00  0.00     0.078 A 
ATOM     10  C   UNL     1       2.226  -4.762  34.550  1.00  0.00     0.223 A 
ENDROOT
BRANCH   1  11
ATOM     11  C   UNL     1       4.258  -3.687  33.496  1.00  0.00     0.091 A 
ATOM     12  C   UNL     1       4.928  -4.224  32.388  1.00  0.00     0.068 A 
ATOM     13  C   UNL     1       5.557  -3.394  31.454  1.00  0.00     0.162 A 
ATOM     14  C   UNL     1       4.254  -2.297  33.683  1.00  0.00     0.068 A 
ATOM     15  C   UNL     1       5.530  -1.991  31.637  1.00  0.00     0.200 A 
ATOM     16  C   UNL     1       4.881  -1.453  32.757  1.00  0.00     0.162 A 
BRANCH  13  17
ATOM     17  O   UNL     1       6.194  -4.000  30.369  1.00  0.00    -0.504 OA
ATOM     18  H   UNL     1       7.160  -4.294  30.371  1.00  0.00     0.293 HD
ENDBRANCH  13  17
BRANCH  15  19
ATOM     19  O   UNL     1       6.132  -1.105  30.740  1.00  0.00    -0.502 OA
ATOM     20  H   UNL     1       6.123  -0.100  30.844  1.00  0.00     0.293 HD
ENDBRANCH  15  19
BRANCH  16  21
ATOM     21  O   UNL     1       4.867  -0.072  32.947  1.00  0.00    -0.504 OA
ATOM     22  H   UNL     1       5.184   0.567  32.228  1.00  0.00     0.293 HD
ENDBRANCH  16  21
ENDBRANCH   1  11
BRANCH  10  23
ATOM     23  O   UNL     1       1.378  -4.099  33.663  1.00  0.00    -0.500 OA
ATOM     24  H   UNL     1       0.899  -3.243  33.921  1.00  0.00     0.294 HD
ENDBRANCH  10  23
BRANCH   5  25
ATOM     25  O   UNL     1       5.292  -8.384  38.824  1.00  0.00    -0.507 OA
ATOM     26  H   UNL     1       5.024  -8.721  39.742  1.00  0.00     0.293 HD
ENDBRANCH   5  25
BRANCH   7  27
ATOM     27  O   UNL     1       0.737  -7.488  37.598  1.00  0.00    -0.507 OA
ATOM     28  H   UNL     1       0.239  -8.290  37.242  1.00  0.00     0.293 HD
ENDBRANCH   7  27
TORSDOF 7
ENDMDL
MODEL 6
REMARK VINA RESULT:    -4.859      4.808      8.177
REMARK INTER + INTRA:          -6.104
REMARK INTER:                  -5.795
REMARK INTRA:                  -0.309
REMARK UNBOUND:                -0.109
REMARK SMILES Oc1cc(O)c2cc(O)c(-c3cc(O)c(O)c(O)c3)[o+]c2c1
REMARK SMILES IDX 10 1 20 2 21 3 22 4 2 5 3 6 4 7 6 8 7 9 8 10 11 11 12 12
REMARK SMILES IDX 13 13 19 14 15 15 17 16 14 17 16 19 18 21 9 23 1 25 5 27
REMARK H PARENT 14 18 16 20 18 22 9 24 1 26 5 28
REMARK Flexibility Score: inf
ROOT
ATOM      1  C   UNL     1       5.643  -4.781  36.774  1.00  0.00     0.402 A 
ATOM      2  O   UNL     1       4.637  -5.583  37.118  1.00  0.00    -0.202 OA
ATOM      3  C   UNL     1       3.484  -5.630  36.460  1.00  0.00     0.368 A 
ATOM      4  C   UNL     1       2.485  -6.503  36.900  1.00  0.00     0.162 A 
ATOM      5  C   UNL     1       1.261  -6.571  36.228  1.00  0.00     0.128 A 
ATOM      6  C   UNL     1       1.035  -5.761  35.113  1.00  0.00     0.093 A 
ATOM      7  C   UNL     1       2.018  -4.877  34.653  1.00  0.00     0.136 A 
ATOM      8  C   UNL     1       3.264  -4.807  35.329  1.00  0.00     0.125 A 
ATOM      9  C   UNL     1       4.313  -3.961  34.931  1.00  0.00     0.078 A 
ATOM     10  C   UNL     1       5.514  -3.949  35.646  1.00  0.00     0.223 A 
ENDROOT
BRANCH   1  11
ATOM     11  C   UNL     1       6.876  -4.813  37.594  1.00  0.00     0.091 A 
ATOM     12  C   UNL     1       7.676  -5.964  37.591  1.00  0.00     0.068 A 
ATOM     13  C   UNL     1       8.838  -6.037  38.369  1.00  0.00     0.162 A 
ATOM     14  C   UNL     1       7.233  -3.735  38.419  1.00  0.00     0.068 A 
ATOM     15  C   UNL     1       9.204  -4.937  39.182  1.00  0.00     0.200 A 
ATOM     16  C   UNL     1       8.392  -3.794  39.203  1.00  0.00     0.162 A 
BRANCH  13  17
ATOM     17  O   UNL     1       9.591  -7.210  38.305  1.00  0.00    -0.504 OA
ATOM     18  H   UNL     1       9.215  -8.111  38.044  1.00  0.00     0.293 HD
ENDBRANCH  13  17
BRANCH  15  19
ATOM     19  O   UNL     1      10.352  -4.941  39.977  1.00  0.00    -0.502 OA
ATOM     20  H   UNL     1      10.551  -5.636  40.682  1.00  0.00     0.293 HD
ENDBRANCH  15  19
BRANCH  16  21
ATOM     21  O   UNL     1       8.743  -2.716  40.015  1.00  0.00    -0.504 OA
ATOM     22  H   UNL     1       8.129  -1.919  40.136  1.00  0.00     0.293 HD
ENDBRANCH  16  21
ENDBRANCH   1  11
BRANCH  10  23
ATOM     23  O   UNL     1       6.573  -3.147  35.222  1.00  0.00    -0.500 OA
ATOM     24  H   UNL     1       7.180  -2.674  35.881  1.00  0.00     0.294 HD
ENDBRANCH  10  23
BRANCH   5  25
ATOM     25  O   UNL     1       0.262  -7.439  36.661  1.00  0.00    -0.507 OA
ATOM     26  H   UNL     1      -0.224  -8.051  36.016  1.00  0.00     0.293 HD
ENDBRANCH   5  25
BRANCH   7  27
ATOM     27  O   UNL     1       1.712  -4.098  33.533  1.00  0.00    -0.507 OA
ATOM     28  H   UNL     1       2.331  -3.411  33.129  1.00  0.00     0.293 HD
ENDBRANCH   7  27
TORSDOF 7
ENDMDL
MODEL 7
REMARK VINA RESULT:    -4.835      2.906      3.584
REMARK INTER + INTRA:          -6.074
REMARK INTER:                  -5.789
REMARK INTRA:                  -0.285
REMARK UNBOUND:                -0.109
REMARK SMILES Oc1cc(O)c2cc(O)c(-c3cc(O)c(O)c(O)c3)[o+]c2c1
REMARK SMILES IDX 10 1 20 2 21 3 22 4 2 5 3 6 4 7 6 8 7 9 8 10 11 11 12 12
REMARK SMILES IDX 13 13 19 14 15 15 17 16 14 17 16 19 18 21 9 23 1 25 5 27
REMARK H PARENT 14 18 16 20 18 22 9 24 1 26 5 28
REMARK Flexibility Score: inf
ROOT
ATOM      1  C   UNL     1       4.927  -2.865  34.001  1.00  0.00     0.402 A 
ATOM      2  O   UNL     1       5.953  -2.068  33.713  1.00  0.00    -0.202 OA
ATOM      3  C   UNL     1       5.919  -1.153  32.750  1.00  0.00     0.368 A 
ATOM      4  C   UNL     1       7.050  -0.365  32.521  1.00  0.00     0.162 A 
ATOM      5  C   UNL     1       7.042   0.603  31.512  1.00  0.00     0.128 A 
ATOM      6  C   UNL     1       5.900   0.781  30.728  1.00  0.00     0.093 A 
ATOM      7  C   UNL     1       4.754   0.003  30.937  1.00  0.00     0.136 A 
ATOM      8  C   UNL     1       4.756  -0.978  31.962  1.00  0.00     0.125 A 
ATOM      9  C   UNL     1       3.649  -1.794  32.252  1.00  0.00     0.078 A 
ATOM     10  C   UNL     1       3.724  -2.737  33.281  1.00  0.00     0.223 A 
ENDROOT
BRANCH   1  11
ATOM     11  C   UNL     1       5.091  -3.853  35.093  1.00  0.00     0.091 A 
ATOM     12  C   UNL     1       5.288  -3.403  36.406  1.00  0.00     0.068 A 
ATOM     13  C   UNL     1       5.467  -4.307  37.459  1.00  0.00     0.162 A 
ATOM     14  C   UNL     1       5.111  -5.232  34.834  1.00  0.00     0.068 A 
ATOM     15  C   UNL     1       5.463  -5.697  37.193  1.00  0.00     0.200 A 
ATOM     16  C   UNL     1       5.290  -6.148  35.878  1.00  0.00     0.162 A 
BRANCH  13  17
ATOM     17  O   UNL     1       5.645  -3.785  38.741  1.00  0.00    -0.504 OA
ATOM     18  H   UNL     1       5.905  -4.337  39.546  1.00  0.00     0.293 HD
ENDBRANCH  13  17
BRANCH  15  19
ATOM     19  O   UNL     1       5.629  -6.654  38.198  1.00  0.00    -0.502 OA
ATOM     20  H   UNL     1       4.997  -6.773  38.976  1.00  0.00     0.293 HD
ENDBRANCH  15  19
BRANCH  16  21
ATOM     21  O   UNL     1       5.301  -7.517  35.612  1.00  0.00    -0.504 OA
ATOM     22  H   UNL     1       4.654  -7.937  34.955  1.00  0.00     0.293 HD
ENDBRANCH  16  21
ENDBRANCH   1  11
BRANCH  10  23
ATOM     23  O   UNL     1       2.610  -3.512  33.602  1.00  0.00    -0.500 OA
ATOM     24  H   UNL     1       1.895  -3.728  32.917  1.00  0.00     0.294 HD
ENDBRANCH  10  23
BRANCH   5  25
ATOM     25  O   UNL     1       8.165   1.393  31.278  1.00  0.00    -0.507 OA
ATOM     26  H   UNL     1       8.995   1.319  31.855  1.00  0.00     0.293 HD
ENDBRANCH   5  25
BRANCH   7  27
ATOM     27  O   UNL     1       3.654   0.241  30.108  1.00  0.00    -0.507 OA
ATOM     28  H   UNL     1       3.232  -0.451  29.506  1.00  0.00     0.293 HD
ENDBRANCH   7  27
TORSDOF 7
ENDMDL
MODEL 8
REMARK VINA RESULT:    -4.826      4.955      8.591
REMARK INTER + INTRA:          -6.063
REMARK INTER:                  -5.685
REMARK INTRA:                  -0.378
REMARK UNBOUND:                -0.109
REMARK SMILES Oc1cc(O)c2cc(O)c(-c3cc(O)c(O)c(O)c3)[o+]c2c1
REMARK SMILES IDX 10 1 20 2 21 3 22 4 2 5 3 6 4 7 6 8 7 9 8 10 11 11 12 12
REMARK SMILES IDX 13 13 19 14 15 15 17 16 14 17 16 19 18 21 9 23 1 25 5 27
REMARK H PARENT 14 18 16 20 18 22 9 24 1 26 5 28
REMARK Flexibility Score: inf
ROOT
ATOM      1  C   UNL     1       3.808  -5.493  36.152  1.00  0.00     0.402 A 
ATOM      2  O   UNL     1       2.901  -6.318  36.669  1.00  0.00    -0.202 OA
ATOM      3  C   UNL     1       1.772  -6.644  36.049  1.00  0.00     0.368 A 
ATOM      4  C   UNL     1       0.879  -7.517  36.677  1.00  0.00     0.162 A 
ATOM      5  C   UNL     1      -0.318  -7.874  36.048  1.00  0.00     0.128 A 
ATOM      6  C   UNL     1      -0.622  -7.355  34.788  1.00  0.00     0.093 A 
ATOM      7  C   UNL     1       0.255  -6.478  34.138  1.00  0.00     0.136 A 
ATOM      8  C   UNL     1       1.473  -6.115  34.771  1.00  0.00     0.125 A 
ATOM      9  C   UNL     1       2.418  -5.253  34.190  1.00  0.00     0.078 A 
ATOM     10  C   UNL     1       3.598  -4.944  34.873  1.00  0.00     0.223 A 
ENDROOT
BRANCH   1  11
ATOM     11  C   UNL     1       5.023  -5.199  36.946  1.00  0.00     0.091 A 
ATOM     12  C   UNL     1       6.073  -6.128  36.968  1.00  0.00     0.068 A 
ATOM     13  C   UNL     1       7.228  -5.893  37.724  1.00  0.00     0.162 A 
ATOM     14  C   UNL     1       5.124  -4.036  37.724  1.00  0.00     0.068 A 
ATOM     15  C   UNL     1       7.332  -4.706  38.488  1.00  0.00     0.200 A 
ATOM     16  C   UNL     1       6.273  -3.787  38.485  1.00  0.00     0.162 A 
BRANCH  13  17
ATOM     17  O   UNL     1       8.237  -6.857  37.688  1.00  0.00    -0.504 OA
ATOM     18  H   UNL     1       8.805  -7.052  36.876  1.00  0.00     0.293 HD
ENDBRANCH  13  17
BRANCH  15  19
ATOM     19  O   UNL     1       8.458  -4.406  39.259  1.00  0.00    -0.502 OA
ATOM     20  H   UNL     1       8.618  -3.514  39.704  1.00  0.00     0.293 HD
ENDBRANCH  15  19
BRANCH  16  21
ATOM     21  O   UNL     1       6.368  -2.625  39.250  1.00  0.00    -0.504 OA
ATOM     22  H   UNL     1       5.652  -2.370  39.920  1.00  0.00     0.293 HD
ENDBRANCH  16  21
ENDBRANCH   1  11
BRANCH  10  23
ATOM     23  O   UNL     1       4.559  -4.129  34.275  1.00  0.00    -0.500 OA
ATOM     24  H   UNL     1       5.528  -4.139  34.575  1.00  0.00     0.294 HD
ENDBRANCH  10  23
BRANCH   5  25
ATOM     25  O   UNL     1      -1.212  -8.743  36.667  1.00  0.00    -0.507 OA
ATOM     26  H   UNL     1      -2.167  -8.469  36.864  1.00  0.00     0.293 HD
ENDBRANCH   5  25
BRANCH   7  27
ATOM     27  O   UNL     1      -0.125  -6.000  32.880  1.00  0.00    -0.507 OA
ATOM     28  H   UNL     1       0.273  -6.312  32.007  1.00  0.00     0.293 HD
ENDBRANCH   7  27
TORSDOF 7
ENDMDL
