MODEL 1
REMARK VINA RESULT:    -5.574      0.000      0.000
REMARK INTER + INTRA:          -7.235
REMARK INTER:                  -6.877
REMARK INTRA:                  -0.358
REMARK UNBOUND:                -0.358
REMARK SMILES Oc1cc(O)c2cc(O)c(-c3cc(O)c(O)c(O)c3)[o+]c2c1
REMARK SMILES IDX 10 1 20 2 21 3 22 4 2 5 3 6 4 7 6 8 7 9 8 10 11 11 12 12
REMARK SMILES IDX 13 13 19 14 15 15 17 16 14 17 16 19 18 21 9 23 1 25 5 27
REMARK H PARENT 14 18 16 20 18 22 9 24 1 26 5 28
REMARK Flexibility Score: inf
ROOT
ATOM      1  C   UNL     1     -13.282 -15.686  32.361  1.00  0.00     0.402 A 
ATOM      2  O   UNL     1     -12.232 -15.579  33.170  1.00  0.00    -0.202 OA
ATOM      3  C   UNL     1     -12.217 -14.804  34.250  1.00  0.00     0.368 A 
ATOM      4  C   UNL     1     -11.064 -14.756  35.038  1.00  0.00     0.162 A 
ATOM      5  C   UNL     1     -11.021 -13.946  36.176  1.00  0.00     0.128 A 
ATOM      6  C   UNL     1     -12.136 -13.181  36.529  1.00  0.00     0.093 A 
ATOM      7  C   UNL     1     -13.303 -13.211  35.756  1.00  0.00     0.136 A 
ATOM      8  C   UNL     1     -13.352 -14.034  34.600  1.00  0.00     0.125 A 
ATOM      9  C   UNL     1     -14.484 -14.137  33.774  1.00  0.00     0.078 A 
ATOM     10  C   UNL     1     -14.460 -14.973  32.654  1.00  0.00     0.223 A 
ENDROOT
BRANCH   1  11
ATOM     11  C   UNL     1     -13.171 -16.576  31.183  1.00  0.00     0.091 A 
ATOM     12  C   UNL     1     -12.950 -16.060  29.894  1.00  0.00     0.068 A 
ATOM     13  C   UNL     1     -12.825 -16.921  28.794  1.00  0.00     0.162 A 
ATOM     14  C   UNL     1     -13.231 -17.966  31.361  1.00  0.00     0.068 A 
ATOM     15  C   UNL     1     -12.909 -18.310  28.980  1.00  0.00     0.200 A 
ATOM     16  C   UNL     1     -13.109 -18.831  30.265  1.00  0.00     0.162 A 
BRANCH  13  17
ATOM     17  O   UNL     1     -12.612 -16.398  27.519  1.00  0.00    -0.504 OA
ATOM     18  H   UNL     1     -12.991 -16.844  26.693  1.00  0.00     0.293 HD
ENDBRANCH  13  17
BRANCH  15  19
ATOM     19  O   UNL     1     -12.793 -19.186  27.901  1.00  0.00    -0.502 OA
ATOM     20  H   UNL     1     -13.401 -19.990  27.790  1.00  0.00     0.293 HD
ENDBRANCH  15  19
BRANCH  16  21
ATOM     21  O   UNL     1     -13.183 -20.211  30.445  1.00  0.00    -0.504 OA
ATOM     22  H   UNL     1     -13.689 -20.618  31.224  1.00  0.00     0.293 HD
ENDBRANCH  16  21
ENDBRANCH   1  11
BRANCH  10  23
ATOM     23  O   UNL     1     -15.599 -15.114  31.861  1.00  0.00    -0.500 OA
ATOM     24  H   UNL     1     -15.553 -15.501  30.926  1.00  0.00     0.294 HD
ENDBRANCH  10  23
BRANCH   5  25
ATOM     25  O   UNL     1      -9.875 -13.893  36.967  1.00  0.00    -0.507 OA
ATOM     26  H   UNL     1      -9.135 -14.579  36.873  1.00  0.00     0.293 HD
ENDBRANCH   5  25
BRANCH   7  27
ATOM     27  O   UNL     1     -14.373 -12.414  36.173  1.00  0.00    -0.507 OA
ATOM     28  H   UNL     1     -14.925 -12.588  37.000  1.00  0.00     0.293 HD
ENDBRANCH   7  27
TORSDOF 7
ENDMDL
MODEL 2
REMARK VINA RESULT:    -5.527      0.122      1.790
REMARK INTER + INTRA:          -7.178
REMARK INTER:                  -6.882
REMARK INTRA:                  -0.297
REMARK UNBOUND:                -0.358
REMARK SMILES Oc1cc(O)c2cc(O)c(-c3cc(O)c(O)c(O)c3)[o+]c2c1
REMARK SMILES IDX 10 1 20 2 21 3 22 4 2 5 3 6 4 7 6 8 7 9 8 10 11 11 12 12
REMARK SMILES IDX 13 13 19 14 15 15 17 16 14 17 16 19 18 21 9 23 1 25 5 27
REMARK H PARENT 14 18 16 20 18 22 9 24 1 26 5 28
REMARK Flexibility Score: inf
ROOT
ATOM      1  C   UNL     1     -13.191 -15.768  32.401  1.00  0.00     0.402 A 
ATOM      2  O   UNL     1     -12.156 -15.641  33.227  1.00  0.00    -0.202 OA
ATOM      3  C   UNL     1     -12.164 -14.843  34.290  1.00  0.00     0.368 A 
ATOM      4  C   UNL     1     -11.026 -14.775  35.098  1.00  0.00     0.162 A 
ATOM      5  C   UNL     1     -11.006 -13.941  36.220  1.00  0.00     0.128 A 
ATOM      6  C   UNL     1     -12.129 -13.173  36.536  1.00  0.00     0.093 A 
ATOM      7  C   UNL     1     -13.282 -13.223  35.742  1.00  0.00     0.136 A 
ATOM      8  C   UNL     1     -13.308 -14.070  34.603  1.00  0.00     0.125 A 
ATOM      9  C   UNL     1     -14.424 -14.195  33.759  1.00  0.00     0.078 A 
ATOM     10  C   UNL     1     -14.376 -15.054  32.657  1.00  0.00     0.223 A 
ENDROOT
BRANCH   1  11
ATOM     11  C   UNL     1     -13.055 -16.683  31.245  1.00  0.00     0.091 A 
ATOM     12  C   UNL     1     -13.062 -18.079  31.411  1.00  0.00     0.068 A 
ATOM     13  C   UNL     1     -12.953 -18.928  30.301  1.00  0.00     0.162 A 
ATOM     14  C   UNL     1     -12.973 -16.150  29.949  1.00  0.00     0.068 A 
ATOM     15  C   UNL     1     -12.849 -18.384  29.010  1.00  0.00     0.200 A 
ATOM     16  C   UNL     1     -12.862 -16.995  28.836  1.00  0.00     0.162 A 
BRANCH  13  17
ATOM     17  O   UNL     1     -12.955 -20.312  30.477  1.00  0.00    -0.504 OA
ATOM     18  H   UNL     1     -12.137 -20.805  30.813  1.00  0.00     0.293 HD
ENDBRANCH  13  17
BRANCH  15  19
ATOM     19  O   UNL     1     -12.736 -19.209  27.891  1.00  0.00    -0.502 OA
ATOM     20  H   UNL     1     -13.492 -19.812  27.586  1.00  0.00     0.293 HD
ENDBRANCH  15  19
BRANCH  16  21
ATOM     21  O   UNL     1     -12.767 -16.459  27.554  1.00  0.00    -0.504 OA
ATOM     22  H   UNL     1     -11.974 -15.894  27.271  1.00  0.00     0.293 HD
ENDBRANCH  16  21
ENDBRANCH   1  11
BRANCH  10  23
ATOM     23  O   UNL     1     -15.500 -15.216  31.847  1.00  0.00    -0.500 OA
ATOM     24  H   UNL     1     -16.287 -15.786  32.136  1.00  0.00     0.294 HD
ENDBRANCH  10  23
BRANCH   5  25
ATOM     25  O   UNL     1      -9.875 -13.867  37.030  1.00  0.00    -0.507 OA
ATOM     26  H   UNL     1      -9.207 -13.110  36.940  1.00  0.00     0.293 HD
ENDBRANCH   5  25
BRANCH   7  27
ATOM     27  O   UNL     1     -14.362 -12.422  36.123  1.00  0.00    -0.507 OA
ATOM     28  H   UNL     1     -15.330 -12.700  36.058  1.00  0.00     0.293 HD
ENDBRANCH   7  27
TORSDOF 7
ENDMDL
MODEL 3
REMARK VINA RESULT:    -3.564      1.485      7.126
REMARK INTER + INTRA:          -4.755
REMARK INTER:                  -4.486
REMARK INTRA:                  -0.269
REMARK UNBOUND:                -0.358
REMARK SMILES Oc1cc(O)c2cc(O)c(-c3cc(O)c(O)c(O)c3)[o+]c2c1
REMARK SMILES IDX 10 1 20 2 21 3 22 4 2 5 3 6 4 7 6 8 7 9 8 10 11 11 12 12
REMARK SMILES IDX 13 13 19 14 15 15 17 16 14 17 16 19 18 21 9 23 1 25 5 27
REMARK H PARENT 14 18 16 20 18 22 9 24 1 26 5 28
REMARK Flexibility Score: inf
ROOT
ATOM      1  C   UNL     1     -12.678 -16.325  32.004  1.00  0.00     0.402 A 
ATOM      2  O   UNL     1     -12.022 -16.002  30.893  1.00  0.00    -0.202 OA
ATOM      3  C   UNL     1     -12.104 -16.704  29.767  1.00  0.00     0.368 A 
ATOM      4  C   UNL     1     -11.374 -16.287  28.651  1.00  0.00     0.162 A 
ATOM      5  C   UNL     1     -11.440 -17.009  27.455  1.00  0.00     0.128 A 
ATOM      6  C   UNL     1     -12.238 -18.152  27.376  1.00  0.00     0.093 A 
ATOM      7  C   UNL     1     -12.979 -18.591  28.480  1.00  0.00     0.136 A 
ATOM      8  C   UNL     1     -12.917 -17.860  29.696  1.00  0.00     0.125 A 
ATOM      9  C   UNL     1     -13.636 -18.218  30.849  1.00  0.00     0.078 A 
ATOM     10  C   UNL     1     -13.528 -17.445  32.009  1.00  0.00     0.223 A 
ENDROOT
BRANCH   1  11
ATOM     11  C   UNL     1     -12.495 -15.467  33.198  1.00  0.00     0.091 A 
ATOM     12  C   UNL     1     -13.535 -14.653  33.679  1.00  0.00     0.068 A 
ATOM     13  C   UNL     1     -13.350 -13.864  34.824  1.00  0.00     0.162 A 
ATOM     14  C   UNL     1     -11.280 -15.508  33.898  1.00  0.00     0.068 A 
ATOM     15  C   UNL     1     -12.122 -13.896  35.504  1.00  0.00     0.200 A 
ATOM     16  C   UNL     1     -11.089 -14.721  35.041  1.00  0.00     0.162 A 
BRANCH  13  17
ATOM     17  O   UNL     1     -14.386 -13.055  35.290  1.00  0.00    -0.504 OA
ATOM     18  H   UNL     1     -15.040 -13.381  35.991  1.00  0.00     0.293 HD
ENDBRANCH  13  17
BRANCH  15  19
ATOM     19  O   UNL     1     -11.912 -13.117  36.643  1.00  0.00    -0.502 OA
ATOM     20  H   UNL     1     -11.685 -12.131  36.587  1.00  0.00     0.293 HD
ENDBRANCH  15  19
BRANCH  16  21
ATOM     21  O   UNL     1      -9.875 -14.755  35.724  1.00  0.00    -0.504 OA
ATOM     22  H   UNL     1      -9.635 -15.520  36.345  1.00  0.00     0.293 HD
ENDBRANCH  16  21
ENDBRANCH   1  11
BRANCH  10  23
ATOM     23  O   UNL     1     -14.280 -17.771  33.139  1.00  0.00    -0.500 OA
ATOM     24  H   UNL     1     -14.326 -18.719  33.492  1.00  0.00     0.294 HD
ENDBRANCH  10  23
BRANCH   5  25
ATOM     25  O   UNL     1     -10.715 -16.600  26.338  1.00  0.00    -0.507 OA
ATOM     26  H   UNL     1     -11.162 -16.454  25.440  1.00  0.00     0.293 HD
ENDBRANCH   5  25
BRANCH   7  27
ATOM     27  O   UNL     1     -13.750 -19.746  28.321  1.00  0.00    -0.507 OA
ATOM     28  H   UNL     1     -13.962 -20.398  29.062  1.00  0.00     0.293 HD
ENDBRANCH   7  27
TORSDOF 7
ENDMDL
MODEL 4
REMARK VINA RESULT:    -2.874      1.618      7.399
REMARK INTER + INTRA:          -3.905
REMARK INTER:                  -3.770
REMARK INTRA:                  -0.135
REMARK UNBOUND:                -0.358
REMARK SMILES Oc1cc(O)c2cc(O)c(-c3cc(O)c(O)c(O)c3)[o+]c2c1
REMARK SMILES IDX 10 1 20 2 21 3 22 4 2 5 3 6 4 7 6 8 7 9 8 10 11 11 12 12
REMARK SMILES IDX 13 13 19 14 15 15 17 16 14 17 16 19 18 21 9 23 1 25 5 27
REMARK H PARENT 14 18 16 20 18 22 9 24 1 26 5 28
REMARK Flexibility Score: inf
ROOT
ATOM      1  C   UNL     1     -11.856 -16.165  32.040  1.00  0.00     0.402 A 
ATOM      2  O   UNL     1     -12.735 -17.136  31.806  1.00  0.00    -0.202 OA
ATOM      3  C   UNL     1     -12.752 -17.851  30.685  1.00  0.00     0.368 A 
ATOM      4  C   UNL     1     -13.717 -18.849  30.530  1.00  0.00     0.162 A 
ATOM      5  C   UNL     1     -13.760 -19.613  29.360  1.00  0.00     0.128 A 
ATOM      6  C   UNL     1     -12.833 -19.378  28.342  1.00  0.00     0.093 A 
ATOM      7  C   UNL     1     -11.856 -18.384  28.473  1.00  0.00     0.136 A 
ATOM      8  C   UNL     1     -11.807 -17.607  29.660  1.00  0.00     0.125 A 
ATOM      9  C   UNL     1     -10.854 -16.599  29.884  1.00  0.00     0.078 A 
ATOM     10  C   UNL     1     -10.867 -15.878  31.082  1.00  0.00     0.223 A 
ENDROOT
BRANCH   1  11
ATOM     11  C   UNL     1     -11.947 -15.434  33.324  1.00  0.00     0.091 A 
ATOM     12  C   UNL     1     -10.860 -15.380  34.214  1.00  0.00     0.068 A 
ATOM     13  C   UNL     1     -10.958 -14.664  35.416  1.00  0.00     0.162 A 
ATOM     14  C   UNL     1     -13.121 -14.733  33.638  1.00  0.00     0.068 A 
ATOM     15  C   UNL     1     -12.146 -13.984  35.730  1.00  0.00     0.200 A 
ATOM     16  C   UNL     1     -13.225 -14.017  34.838  1.00  0.00     0.162 A 
BRANCH  13  17
ATOM     17  O   UNL     1      -9.876 -14.622  36.294  1.00  0.00    -0.504 OA
ATOM     18  H   UNL     1      -9.437 -15.468  36.637  1.00  0.00     0.293 HD
ENDBRANCH  13  17
BRANCH  15  19
ATOM     19  O   UNL     1     -12.269 -13.269  36.922  1.00  0.00    -0.502 OA
ATOM     20  H   UNL     1     -12.866 -12.453  37.002  1.00  0.00     0.293 HD
ENDBRANCH  15  19
BRANCH  16  21
ATOM     21  O   UNL     1     -14.399 -13.334  35.150  1.00  0.00    -0.504 OA
ATOM     22  H   UNL     1     -14.383 -12.387  35.512  1.00  0.00     0.293 HD
ENDBRANCH  16  21
ENDBRANCH   1  11
BRANCH  10  23
ATOM     23  O   UNL     1      -9.891 -14.911  31.326  1.00  0.00    -0.500 OA
ATOM     24  H   UNL     1      -8.924 -15.162  31.497  1.00  0.00     0.294 HD
ENDBRANCH  10  23
BRANCH   5  25
ATOM     25  O   UNL     1     -14.720 -20.609  29.197  1.00  0.00    -0.507 OA
ATOM     26  H   UNL     1     -14.703 -21.236  28.401  1.00  0.00     0.293 HD
ENDBRANCH   5  25
BRANCH   7  27
ATOM     27  O   UNL     1     -10.968 -18.209  27.408  1.00  0.00    -0.507 OA
ATOM     28  H   UNL     1     -10.736 -17.315  26.999  1.00  0.00     0.293 HD
ENDBRANCH   7  27
TORSDOF 7
ENDMDL
MODEL 5
REMARK VINA RESULT:    -2.868      1.390      6.990
REMARK INTER + INTRA:          -3.897
REMARK INTER:                  -3.784
REMARK INTRA:                  -0.114
REMARK UNBOUND:                -0.358
REMARK SMILES Oc1cc(O)c2cc(O)c(-c3cc(O)c(O)c(O)c3)[o+]c2c1
REMARK SMILES IDX 10 1 20 2 21 3 22 4 2 5 3 6 4 7 6 8 7 9 8 10 11 11 12 12
REMARK SMILES IDX 13 13 19 14 15 15 17 16 14 17 16 19 18 21 9 23 1 25 5 27
REMARK H PARENT 14 18 16 20 18 22 9 24 1 26 5 28
REMARK Flexibility Score: inf
ROOT
ATOM      1  C   UNL     1     -12.848 -16.198  32.504  1.00  0.00     0.402 A 
ATOM      2  O   UNL     1     -12.499 -17.469  32.680  1.00  0.00    -0.202 OA
ATOM      3  C   UNL     1     -12.669 -18.408  31.754  1.00  0.00     0.368 A 
ATOM      4  C   UNL     1     -12.272 -19.718  32.034  1.00  0.00     0.162 A 
ATOM      5  C   UNL     1     -12.443 -20.726  31.079  1.00  0.00     0.128 A 
ATOM      6  C   UNL     1     -13.012 -20.421  29.841  1.00  0.00     0.093 A 
ATOM      7  C   UNL     1     -13.418 -19.116  29.536  1.00  0.00     0.136 A 
ATOM      8  C   UNL     1     -13.245 -18.089  30.501  1.00  0.00     0.125 A 
ATOM      9  C   UNL     1     -13.609 -16.751  30.278  1.00  0.00     0.078 A 
ATOM     10  C   UNL     1     -13.403 -15.794  31.276  1.00  0.00     0.223 A 
ENDROOT
BRANCH   1  11
ATOM     11  C   UNL     1     -12.617 -15.248  33.616  1.00  0.00     0.091 A 
ATOM     12  C   UNL     1     -13.644 -14.414  34.092  1.00  0.00     0.068 A 
ATOM     13  C   UNL     1     -13.411 -13.537  35.160  1.00  0.00     0.162 A 
ATOM     14  C   UNL     1     -11.365 -15.216  34.247  1.00  0.00     0.068 A 
ATOM     15  C   UNL     1     -12.147 -13.497  35.771  1.00  0.00     0.200 A 
ATOM     16  C   UNL     1     -11.126 -14.340  35.315  1.00  0.00     0.162 A 
BRANCH  13  17
ATOM     17  O   UNL     1     -14.435 -12.710  35.621  1.00  0.00    -0.504 OA
ATOM     18  H   UNL     1     -14.784 -11.938  35.066  1.00  0.00     0.293 HD
ENDBRANCH  13  17
BRANCH  15  19
ATOM     19  O   UNL     1     -11.890 -12.629  36.833  1.00  0.00    -0.502 OA
ATOM     20  H   UNL     1     -12.332 -11.719  36.904  1.00  0.00     0.293 HD
ENDBRANCH  15  19
BRANCH  16  21
ATOM     21  O   UNL     1      -9.876 -14.303  35.928  1.00  0.00    -0.504 OA
ATOM     22  H   UNL     1      -9.407 -13.426  36.128  1.00  0.00     0.293 HD
ENDBRANCH  16  21
ENDBRANCH   1  11
BRANCH  10  23
ATOM     23  O   UNL     1     -13.719 -14.455  31.037  1.00  0.00    -0.500 OA
ATOM     24  H   UNL     1     -13.476 -13.726  31.696  1.00  0.00     0.294 HD
ENDBRANCH  10  23
BRANCH   5  25
ATOM     25  O   UNL     1     -12.050 -22.035  31.351  1.00  0.00    -0.507 OA
ATOM     26  H   UNL     1     -12.597 -22.828  31.036  1.00  0.00     0.293 HD
ENDBRANCH   5  25
BRANCH   7  27
ATOM     27  O   UNL     1     -13.981 -18.894  28.277  1.00  0.00    -0.507 OA
ATOM     28  H   UNL     1     -14.516 -18.075  28.027  1.00  0.00     0.293 HD
ENDBRANCH   7  27
TORSDOF 7
ENDMDL
MODEL 6
REMARK VINA RESULT:    -2.643      1.643      7.431
REMARK INTER + INTRA:          -3.619
REMARK INTER:                  -3.848
REMARK INTRA:                   0.229
REMARK UNBOUND:                -0.358
REMARK SMILES Oc1cc(O)c2cc(O)c(-c3cc(O)c(O)c(O)c3)[o+]c2c1
REMARK SMILES IDX 10 1 20 2 21 3 22 4 2 5 3 6 4 7 6 8 7 9 8 10 11 11 12 12
REMARK SMILES IDX 13 13 19 14 15 15 17 16 14 17 16 19 18 21 9 23 1 25 5 27
REMARK H PARENT 14 18 16 20 18 22 9 24 1 26 5 28
REMARK Flexibility Score: inf
ROOT
ATOM      1  C   UNL     1     -11.524 -15.745  32.955  1.00  0.00     0.402 A 
ATOM      2  O   UNL     1     -12.231 -15.556  31.844  1.00  0.00    -0.202 OA
ATOM      3  C   UNL     1     -12.095 -16.307  30.756  1.00  0.00     0.368 A 
ATOM      4  C   UNL     1     -12.881 -16.030  29.635  1.00  0.00     0.162 A 
ATOM      5  C   UNL     1     -12.756 -16.802  28.476  1.00  0.00     0.128 A 
ATOM      6  C   UNL     1     -11.840 -17.856  28.438  1.00  0.00     0.093 A 
ATOM      7  C   UNL     1     -11.040 -18.154  29.548  1.00  0.00     0.136 A 
ATOM      8  C   UNL     1     -11.165 -17.374  30.728  1.00  0.00     0.125 A 
ATOM      9  C   UNL     1     -10.415 -17.610  31.892  1.00  0.00     0.078 A 
ATOM     10  C   UNL     1     -10.597 -16.802  33.018  1.00  0.00     0.223 A 
ENDROOT
BRANCH   1  11
ATOM     11  C   UNL     1     -11.760 -14.833  34.098  1.00  0.00     0.091 A 
ATOM     12  C   UNL     1     -13.026 -14.269  34.333  1.00  0.00     0.068 A 
ATOM     13  C   UNL     1     -13.236 -13.425  35.434  1.00  0.00     0.162 A 
ATOM     14  C   UNL     1     -10.717 -14.569  34.998  1.00  0.00     0.068 A 
ATOM     15  C   UNL     1     -12.179 -13.150  36.316  1.00  0.00     0.200 A 
ATOM     16  C   UNL     1     -10.921 -13.725  36.098  1.00  0.00     0.162 A 
BRANCH  13  17
ATOM     17  O   UNL     1     -14.494 -12.866  35.655  1.00  0.00    -0.504 OA
ATOM     18  H   UNL     1     -14.874 -12.767  36.589  1.00  0.00     0.293 HD
ENDBRANCH  13  17
BRANCH  15  19
ATOM     19  O   UNL     1     -12.362 -12.310  37.415  1.00  0.00    -0.502 OA
ATOM     20  H   UNL     1     -11.780 -12.370  38.243  1.00  0.00     0.293 HD
ENDBRANCH  15  19
BRANCH  16  21
ATOM     21  O   UNL     1      -9.877 -13.456  36.980  1.00  0.00    -0.504 OA
ATOM     22  H   UNL     1      -8.948 -13.218  36.649  1.00  0.00     0.293 HD
ENDBRANCH  16  21
ENDBRANCH   1  11
BRANCH  10  23
ATOM     23  O   UNL     1      -9.889 -17.065  34.191  1.00  0.00    -0.500 OA
ATOM     24  H   UNL     1      -9.975 -16.474  35.009  1.00  0.00     0.294 HD
ENDBRANCH  10  23
BRANCH   5  25
ATOM     25  O   UNL     1     -13.536 -16.531  27.354  1.00  0.00    -0.507 OA
ATOM     26  H   UNL     1     -13.153 -16.579  26.417  1.00  0.00     0.293 HD
ENDBRANCH   5  25
BRANCH   7  27
ATOM     27  O   UNL     1     -10.146 -19.222  29.429  1.00  0.00    -0.507 OA
ATOM     28  H   UNL     1      -9.142 -19.124  29.385  1.00  0.00     0.293 HD
ENDBRANCH   7  27
TORSDOF 7
ENDMDL
