MODEL 1
REMARK VINA RESULT:    -5.680      0.000      0.000
REMARK INTER + INTRA:          -6.961
REMARK INTER:                  -7.008
REMARK INTRA:                   0.047
REMARK UNBOUND:                 0.047
REMARK SMILES Oc1cc(O)c2cc(O)c(-c3cc(O)c(O)c(O)c3)[o+]c2c1
REMARK SMILES IDX 10 1 20 2 21 3 22 4 2 5 3 6 4 7 6 8 7 9 8 10 11 11 12 12
REMARK SMILES IDX 13 13 19 14 15 15 17 16 14 17 16 19 18 21 9 23 1 25 5 27
REMARK H PARENT 14 18 16 20 18 22 9 24 1 26 5 28
REMARK Flexibility Score: inf
ROOT
ATOM      1  C   UNL     1      75.054  90.648  11.769  1.00  0.00     0.402 A 
ATOM      2  O   UNL     1      73.846  90.795  11.230  1.00  0.00    -0.202 OA
ATOM      3  C   UNL     1      73.016  91.779  11.557  1.00  0.00     0.368 A 
ATOM      4  C   UNL     1      71.765  91.847  10.937  1.00  0.00     0.162 A 
ATOM      5  C   UNL     1      70.871  92.870  11.265  1.00  0.00     0.128 A 
ATOM      6  C   UNL     1      71.228  93.828  12.217  1.00  0.00     0.093 A 
ATOM      7  C   UNL     1      72.475  93.781  12.852  1.00  0.00     0.136 A 
ATOM      8  C   UNL     1      73.388  92.745  12.521  1.00  0.00     0.125 A 
ATOM      9  C   UNL     1      74.663  92.627  13.098  1.00  0.00     0.078 A 
ATOM     10  C   UNL     1      75.510  91.582  12.717  1.00  0.00     0.223 A 
ENDROOT
BRANCH   1  11
ATOM     11  C   UNL     1      75.883  89.503  11.329  1.00  0.00     0.091 A 
ATOM     12  C   UNL     1      77.231  89.713  10.998  1.00  0.00     0.068 A 
ATOM     13  C   UNL     1      78.034  88.650  10.560  1.00  0.00     0.162 A 
ATOM     14  C   UNL     1      75.336  88.216  11.181  1.00  0.00     0.068 A 
ATOM     15  C   UNL     1      77.483  87.364  10.436  1.00  0.00     0.200 A 
ATOM     16  C   UNL     1      76.132  87.151  10.742  1.00  0.00     0.162 A 
BRANCH  13  17
ATOM     17  O   UNL     1      79.374  88.869  10.249  1.00  0.00    -0.504 OA
ATOM     18  H   UNL     1      79.848  88.327   9.535  1.00  0.00     0.293 HD
ENDBRANCH  13  17
BRANCH  15  19
ATOM     19  O   UNL     1      78.261  86.289  10.003  1.00  0.00    -0.502 OA
ATOM     20  H   UNL     1      79.143  86.053  10.441  1.00  0.00     0.293 HD
ENDBRANCH  15  19
BRANCH  16  21
ATOM     21  O   UNL     1      75.587  85.875  10.603  1.00  0.00    -0.504 OA
ATOM     22  H   UNL     1      75.749  85.151  11.292  1.00  0.00     0.293 HD
ENDBRANCH  16  21
ENDBRANCH   1  11
BRANCH  10  23
ATOM     23  O   UNL     1      76.795  91.493  13.252  1.00  0.00    -0.500 OA
ATOM     24  H   UNL     1      77.525  92.149  12.998  1.00  0.00     0.294 HD
ENDBRANCH  10  23
BRANCH   5  25
ATOM     25  O   UNL     1      69.623  92.945  10.650  1.00  0.00    -0.507 OA
ATOM     26  H   UNL     1      69.194  92.134  10.221  1.00  0.00     0.293 HD
ENDBRANCH   5  25
BRANCH   7  27
ATOM     27  O   UNL     1      72.755  94.774  13.796  1.00  0.00    -0.507 OA
ATOM     28  H   UNL     1      73.393  94.662  14.570  1.00  0.00     0.293 HD
ENDBRANCH   7  27
TORSDOF 7
ENDMDL
MODEL 2
REMARK VINA RESULT:    -5.621      1.953      2.811
REMARK INTER + INTRA:          -6.889
REMARK INTER:                  -6.593
REMARK INTRA:                  -0.296
REMARK UNBOUND:                 0.047
REMARK SMILES Oc1cc(O)c2cc(O)c(-c3cc(O)c(O)c(O)c3)[o+]c2c1
REMARK SMILES IDX 10 1 20 2 21 3 22 4 2 5 3 6 4 7 6 8 7 9 8 10 11 11 12 12
REMARK SMILES IDX 13 13 19 14 15 15 17 16 14 17 16 19 18 21 9 23 1 25 5 27
REMARK H PARENT 14 18 16 20 18 22 9 24 1 26 5 28
REMARK Flexibility Score: inf
ROOT
ATOM      1  C   UNL     1      75.148  89.088  11.622  1.00  0.00     0.402 A 
ATOM      2  O   UNL     1      75.006  90.411  11.657  1.00  0.00    -0.202 OA
ATOM      3  C   UNL     1      74.145  91.032  12.456  1.00  0.00     0.368 A 
ATOM      4  C   UNL     1      74.066  92.427  12.418  1.00  0.00     0.162 A 
ATOM      5  C   UNL     1      73.166  93.105  13.245  1.00  0.00     0.128 A 
ATOM      6  C   UNL     1      72.342  92.385  14.113  1.00  0.00     0.093 A 
ATOM      7  C   UNL     1      72.401  90.987  14.169  1.00  0.00     0.136 A 
ATOM      8  C   UNL     1      73.315  90.294  13.333  1.00  0.00     0.125 A 
ATOM      9  C   UNL     1      73.452  88.896  13.331  1.00  0.00     0.078 A 
ATOM     10  C   UNL     1      74.379  88.283  12.482  1.00  0.00     0.223 A 
ENDROOT
BRANCH   1  11
ATOM     11  C   UNL     1      76.136  88.515  10.680  1.00  0.00     0.091 A 
ATOM     12  C   UNL     1      77.502  88.774  10.870  1.00  0.00     0.068 A 
ATOM     13  C   UNL     1      78.457  88.259   9.982  1.00  0.00     0.162 A 
ATOM     14  C   UNL     1      75.732  87.761   9.564  1.00  0.00     0.068 A 
ATOM     15  C   UNL     1      78.045  87.489   8.881  1.00  0.00     0.200 A 
ATOM     16  C   UNL     1      76.682  87.246   8.673  1.00  0.00     0.162 A 
BRANCH  13  17
ATOM     17  O   UNL     1      79.813  88.511  10.189  1.00  0.00    -0.504 OA
ATOM     18  H   UNL     1      80.447  87.783  10.494  1.00  0.00     0.293 HD
ENDBRANCH  13  17
BRANCH  15  19
ATOM     19  O   UNL     1      78.977  86.964   7.984  1.00  0.00    -0.502 OA
ATOM     20  H   UNL     1      79.013  87.254   7.015  1.00  0.00     0.293 HD
ENDBRANCH  15  19
BRANCH  16  21
ATOM     21  O   UNL     1      76.277  86.492   7.571  1.00  0.00    -0.504 OA
ATOM     22  H   UNL     1      75.458  86.742   7.030  1.00  0.00     0.293 HD
ENDBRANCH  16  21
ENDBRANCH   1  11
BRANCH  10  23
ATOM     23  O   UNL     1      74.551  86.900  12.515  1.00  0.00    -0.500 OA
ATOM     24  H   UNL     1      75.286  86.468  13.064  1.00  0.00     0.294 HD
ENDBRANCH  10  23
BRANCH   5  25
ATOM     25  O   UNL     1      73.083  94.495  13.214  1.00  0.00    -0.507 OA
ATOM     26  H   UNL     1      72.243  94.968  12.905  1.00  0.00     0.293 HD
ENDBRANCH   5  25
BRANCH   7  27
ATOM     27  O   UNL     1      71.540  90.341  15.061  1.00  0.00    -0.507 OA
ATOM     28  H   UNL     1      70.589  90.626  15.243  1.00  0.00     0.293 HD
ENDBRANCH   7  27
TORSDOF 7
ENDMDL
MODEL 3
REMARK VINA RESULT:    -5.620      1.401      1.518
REMARK INTER + INTRA:          -6.887
REMARK INTER:                  -6.599
REMARK INTRA:                  -0.288
REMARK UNBOUND:                 0.047
REMARK SMILES Oc1cc(O)c2cc(O)c(-c3cc(O)c(O)c(O)c3)[o+]c2c1
REMARK SMILES IDX 10 1 20 2 21 3 22 4 2 5 3 6 4 7 6 8 7 9 8 10 11 11 12 12
REMARK SMILES IDX 13 13 19 14 15 15 17 16 14 17 16 19 18 21 9 23 1 25 5 27
REMARK H PARENT 14 18 16 20 18 22 9 24 1 26 5 28
REMARK Flexibility Score: inf
ROOT
ATOM      1  C   UNL     1      75.784  90.084  11.615  1.00  0.00     0.402 A 
ATOM      2  O   UNL     1      74.539  90.030  11.147  1.00  0.00    -0.202 OA
ATOM      3  C   UNL     1      73.615  90.944  11.423  1.00  0.00     0.368 A 
ATOM      4  C   UNL     1      72.333  90.799  10.888  1.00  0.00     0.162 A 
ATOM      5  C   UNL     1      71.341  91.745  11.165  1.00  0.00     0.128 A 
ATOM      6  C   UNL     1      71.633  92.839  11.983  1.00  0.00     0.093 A 
ATOM      7  C   UNL     1      72.911  93.006  12.532  1.00  0.00     0.136 A 
ATOM      8  C   UNL     1      73.922  92.051  12.252  1.00  0.00     0.125 A 
ATOM      9  C   UNL     1      75.232  92.145  12.748  1.00  0.00     0.078 A 
ATOM     10  C   UNL     1      76.176  91.165  12.424  1.00  0.00     0.223 A 
ENDROOT
BRANCH   1  11
ATOM     11  C   UNL     1      76.719  88.997  11.243  1.00  0.00     0.091 A 
ATOM     12  C   UNL     1      77.092  88.837   9.899  1.00  0.00     0.068 A 
ATOM     13  C   UNL     1      77.960  87.806   9.516  1.00  0.00     0.162 A 
ATOM     14  C   UNL     1      77.199  88.085  12.198  1.00  0.00     0.068 A 
ATOM     15  C   UNL     1      78.452  86.912  10.482  1.00  0.00     0.200 A 
ATOM     16  C   UNL     1      78.066  87.052  11.822  1.00  0.00     0.162 A 
BRANCH  13  17
ATOM     17  O   UNL     1      78.335  87.665   8.181  1.00  0.00    -0.504 OA
ATOM     18  H   UNL     1      77.800  88.090   7.433  1.00  0.00     0.293 HD
ENDBRANCH  13  17
BRANCH  15  19
ATOM     19  O   UNL     1      79.319  85.878  10.127  1.00  0.00    -0.502 OA
ATOM     20  H   UNL     1      79.111  85.235   9.372  1.00  0.00     0.293 HD
ENDBRANCH  15  19
BRANCH  16  21
ATOM     21  O   UNL     1      78.546  86.153  12.774  1.00  0.00    -0.504 OA
ATOM     22  H   UNL     1      78.489  85.151  12.634  1.00  0.00     0.293 HD
ENDBRANCH  16  21
ENDBRANCH   1  11
BRANCH  10  23
ATOM     23  O   UNL     1      77.490  91.284  12.875  1.00  0.00    -0.500 OA
ATOM     24  H   UNL     1      78.265  91.413  12.233  1.00  0.00     0.294 HD
ENDBRANCH  10  23
BRANCH   5  25
ATOM     25  O   UNL     1      70.061  91.607  10.634  1.00  0.00    -0.507 OA
ATOM     26  H   UNL     1      69.474  92.412  10.452  1.00  0.00     0.293 HD
ENDBRANCH   5  25
BRANCH   7  27
ATOM     27  O   UNL     1      73.121  94.126  13.343  1.00  0.00    -0.507 OA
ATOM     28  H   UNL     1      72.894  95.073  13.077  1.00  0.00     0.293 HD
ENDBRANCH   7  27
TORSDOF 7
ENDMDL
MODEL 4
REMARK VINA RESULT:    -5.504      2.292      7.507
REMARK INTER + INTRA:          -6.744
REMARK INTER:                  -6.403
REMARK INTRA:                  -0.341
REMARK UNBOUND:                 0.047
REMARK SMILES Oc1cc(O)c2cc(O)c(-c3cc(O)c(O)c(O)c3)[o+]c2c1
REMARK SMILES IDX 10 1 20 2 21 3 22 4 2 5 3 6 4 7 6 8 7 9 8 10 11 11 12 12
REMARK SMILES IDX 13 13 19 14 15 15 17 16 14 17 16 19 18 21 9 23 1 25 5 27
REMARK H PARENT 14 18 16 20 18 22 9 24 1 26 5 28
REMARK Flexibility Score: inf
ROOT
ATOM      1  C   UNL     1      76.291  88.839  10.756  1.00  0.00     0.402 A 
ATOM      2  O   UNL     1      76.399  88.498   9.475  1.00  0.00    -0.202 OA
ATOM      3  C   UNL     1      77.380  87.736   9.003  1.00  0.00     0.368 A 
ATOM      4  C   UNL     1      77.410  87.433   7.638  1.00  0.00     0.162 A 
ATOM      5  C   UNL     1      78.432  86.637   7.115  1.00  0.00     0.128 A 
ATOM      6  C   UNL     1      79.429  86.141   7.959  1.00  0.00     0.093 A 
ATOM      7  C   UNL     1      79.422  86.430   9.329  1.00  0.00     0.136 A 
ATOM      8  C   UNL     1      78.384  87.237   9.866  1.00  0.00     0.125 A 
ATOM      9  C   UNL     1      78.290  87.567  11.228  1.00  0.00     0.078 A 
ATOM     10  C   UNL     1      77.235  88.363  11.685  1.00  0.00     0.223 A 
ENDROOT
BRANCH   1  11
ATOM     11  C   UNL     1      75.158  89.703  11.158  1.00  0.00     0.091 A 
ATOM     12  C   UNL     1      73.860  89.169  11.189  1.00  0.00     0.068 A 
ATOM     13  C   UNL     1      72.766  89.969  11.546  1.00  0.00     0.162 A 
ATOM     14  C   UNL     1      75.343  91.064  11.455  1.00  0.00     0.068 A 
ATOM     15  C   UNL     1      72.964  91.323  11.863  1.00  0.00     0.200 A 
ATOM     16  C   UNL     1      74.253  91.869  11.812  1.00  0.00     0.162 A 
BRANCH  13  17
ATOM     17  O   UNL     1      71.484  89.423  11.587  1.00  0.00    -0.504 OA
ATOM     18  H   UNL     1      71.273  88.532  11.155  1.00  0.00     0.293 HD
ENDBRANCH  13  17
BRANCH  15  19
ATOM     19  O   UNL     1      71.892  92.140  12.223  1.00  0.00    -0.502 OA
ATOM     20  H   UNL     1      71.667  92.988  11.717  1.00  0.00     0.293 HD
ENDBRANCH  15  19
BRANCH  16  21
ATOM     21  O   UNL     1      74.443  93.218  12.113  1.00  0.00    -0.504 OA
ATOM     22  H   UNL     1      74.743  93.881  11.408  1.00  0.00     0.293 HD
ENDBRANCH  16  21
ENDBRANCH   1  11
BRANCH  10  23
ATOM     23  O   UNL     1      77.112  88.649  13.044  1.00  0.00    -0.500 OA
ATOM     24  H   UNL     1      76.221  88.898  13.458  1.00  0.00     0.294 HD
ENDBRANCH  10  23
BRANCH   5  25
ATOM     25  O   UNL     1      78.467  86.331   5.756  1.00  0.00    -0.507 OA
ATOM     26  H   UNL     1      78.555  85.376   5.431  1.00  0.00     0.293 HD
ENDBRANCH   5  25
BRANCH   7  27
ATOM     27  O   UNL     1      80.457  85.899  10.104  1.00  0.00    -0.507 OA
ATOM     28  H   UNL     1      80.558  84.920  10.326  1.00  0.00     0.293 HD
ENDBRANCH   7  27
TORSDOF 7
ENDMDL
MODEL 5
REMARK VINA RESULT:    -5.485      1.966      3.367
REMARK INTER + INTRA:          -6.720
REMARK INTER:                  -6.463
REMARK INTRA:                  -0.257
REMARK UNBOUND:                 0.047
REMARK SMILES Oc1cc(O)c2cc(O)c(-c3cc(O)c(O)c(O)c3)[o+]c2c1
REMARK SMILES IDX 10 1 20 2 21 3 22 4 2 5 3 6 4 7 6 8 7 9 8 10 11 11 12 12
REMARK SMILES IDX 13 13 19 14 15 15 17 16 14 17 16 19 18 21 9 23 1 25 5 27
REMARK H PARENT 14 18 16 20 18 22 9 24 1 26 5 28
REMARK Flexibility Score: inf
ROOT
ATOM      1  C   UNL     1      74.986  88.638  10.991  1.00  0.00     0.402 A 
ATOM      2  O   UNL     1      74.671  89.930  10.956  1.00  0.00    -0.202 OA
ATOM      3  C   UNL     1      73.640  90.448  11.614  1.00  0.00     0.368 A 
ATOM      4  C   UNL     1      73.387  91.819  11.513  1.00  0.00     0.162 A 
ATOM      5  C   UNL     1      72.307  92.389  12.192  1.00  0.00     0.128 A 
ATOM      6  C   UNL     1      71.475  91.585  12.974  1.00  0.00     0.093 A 
ATOM      7  C   UNL     1      71.706  90.209  13.091  1.00  0.00     0.136 A 
ATOM      8  C   UNL     1      72.803  89.625  12.406  1.00  0.00     0.125 A 
ATOM      9  C   UNL     1      73.119  88.258  12.476  1.00  0.00     0.078 A 
ATOM     10  C   UNL     1      74.220  87.757  11.776  1.00  0.00     0.223 A 
ENDROOT
BRANCH   1  11
ATOM     11  C   UNL     1      76.155  88.181  10.205  1.00  0.00     0.091 A 
ATOM     12  C   UNL     1      75.959  87.321   9.113  1.00  0.00     0.068 A 
ATOM     13  C   UNL     1      77.049  86.857   8.364  1.00  0.00     0.162 A 
ATOM     14  C   UNL     1      77.465  88.544  10.562  1.00  0.00     0.068 A 
ATOM     15  C   UNL     1      78.354  87.243   8.716  1.00  0.00     0.200 A 
ATOM     16  C   UNL     1      78.559  88.082   9.819  1.00  0.00     0.162 A 
BRANCH  13  17
ATOM     17  O   UNL     1      76.841  86.015   7.273  1.00  0.00    -0.504 OA
ATOM     18  H   UNL     1      77.612  85.678   6.708  1.00  0.00     0.293 HD
ENDBRANCH  13  17
BRANCH  15  19
ATOM     19  O   UNL     1      79.455  86.796   7.985  1.00  0.00    -0.502 OA
ATOM     20  H   UNL     1      79.558  85.829   7.702  1.00  0.00     0.293 HD
ENDBRANCH  15  19
BRANCH  16  21
ATOM     21  O   UNL     1      79.856  88.450  10.173  1.00  0.00    -0.504 OA
ATOM     22  H   UNL     1      80.594  88.523   9.482  1.00  0.00     0.293 HD
ENDBRANCH  16  21
ENDBRANCH   1  11
BRANCH  10  23
ATOM     23  O   UNL     1      74.564  86.410  11.885  1.00  0.00    -0.500 OA
ATOM     24  H   UNL     1      74.423  85.892  12.745  1.00  0.00     0.294 HD
ENDBRANCH  10  23
BRANCH   5  25
ATOM     25  O   UNL     1      72.050  93.755  12.096  1.00  0.00    -0.507 OA
ATOM     26  H   UNL     1      71.341  94.118  11.470  1.00  0.00     0.293 HD
ENDBRANCH   5  25
BRANCH   7  27
ATOM     27  O   UNL     1      70.825  89.474  13.890  1.00  0.00    -0.507 OA
ATOM     28  H   UNL     1      69.819  89.551  13.850  1.00  0.00     0.293 HD
ENDBRANCH   7  27
TORSDOF 7
ENDMDL
MODEL 6
REMARK VINA RESULT:    -5.407      2.209      7.238
REMARK INTER + INTRA:          -6.625
REMARK INTER:                  -6.300
REMARK INTRA:                  -0.325
REMARK UNBOUND:                 0.047
REMARK SMILES Oc1cc(O)c2cc(O)c(-c3cc(O)c(O)c(O)c3)[o+]c2c1
REMARK SMILES IDX 10 1 20 2 21 3 22 4 2 5 3 6 4 7 6 8 7 9 8 10 11 11 12 12
REMARK SMILES IDX 13 13 19 14 15 15 17 16 14 17 16 19 18 21 9 23 1 25 5 27
REMARK H PARENT 14 18 16 20 18 22 9 24 1 26 5 28
REMARK Flexibility Score: inf
ROOT
ATOM      1  C   UNL     1      75.986  88.890  10.882  1.00  0.00     0.402 A 
ATOM      2  O   UNL     1      76.175  88.564   9.606  1.00  0.00    -0.202 OA
ATOM      3  C   UNL     1      77.170  87.788   9.190  1.00  0.00     0.368 A 
ATOM      4  C   UNL     1      77.289  87.504   7.827  1.00  0.00     0.162 A 
ATOM      5  C   UNL     1      78.329  86.694   7.363  1.00  0.00     0.128 A 
ATOM      6  C   UNL     1      79.255  86.167   8.265  1.00  0.00     0.093 A 
ATOM      7  C   UNL     1      79.160  86.438   9.636  1.00  0.00     0.136 A 
ATOM      8  C   UNL     1      78.104  87.257  10.113  1.00  0.00     0.125 A 
ATOM      9  C   UNL     1      77.922  87.571  11.470  1.00  0.00     0.078 A 
ATOM     10  C   UNL     1      76.854  88.382  11.865  1.00  0.00     0.223 A 
ENDROOT
BRANCH   1  11
ATOM     11  C   UNL     1      74.844  89.771  11.218  1.00  0.00     0.091 A 
ATOM     12  C   UNL     1      75.083  91.113  11.554  1.00  0.00     0.068 A 
ATOM     13  C   UNL     1      74.023  91.964  11.894  1.00  0.00     0.162 A 
ATOM     14  C   UNL     1      73.528  89.280  11.262  1.00  0.00     0.068 A 
ATOM     15  C   UNL     1      72.708  91.469  11.915  1.00  0.00     0.200 A 
ATOM     16  C   UNL     1      72.465  90.125  11.603  1.00  0.00     0.162 A 
BRANCH  13  17
ATOM     17  O   UNL     1      74.271  93.298  12.213  1.00  0.00    -0.504 OA
ATOM     18  H   UNL     1      75.178  93.722  12.054  1.00  0.00     0.293 HD
ENDBRANCH  13  17
BRANCH  15  19
ATOM     19  O   UNL     1      71.635  92.296  12.250  1.00  0.00    -0.502 OA
ATOM     20  H   UNL     1      71.594  93.267  11.964  1.00  0.00     0.293 HD
ENDBRANCH  15  19
BRANCH  16  21
ATOM     21  O   UNL     1      71.159  89.635  11.640  1.00  0.00    -0.504 OA
ATOM     22  H   UNL     1      70.416  90.141  12.106  1.00  0.00     0.293 HD
ENDBRANCH  16  21
ENDBRANCH   1  11
BRANCH  10  23
ATOM     23  O   UNL     1      76.644  88.652  13.217  1.00  0.00    -0.500 OA
ATOM     24  H   UNL     1      77.407  88.660  13.884  1.00  0.00     0.294 HD
ENDBRANCH  10  23
BRANCH   5  25
ATOM     25  O   UNL     1      78.452  86.406   6.005  1.00  0.00    -0.507 OA
ATOM     26  H   UNL     1      77.667  86.498   5.371  1.00  0.00     0.293 HD
ENDBRANCH   5  25
BRANCH   7  27
ATOM     27  O   UNL     1      80.129  85.875  10.472  1.00  0.00    -0.507 OA
ATOM     28  H   UNL     1      79.927  85.403  11.342  1.00  0.00     0.293 HD
ENDBRANCH   7  27
TORSDOF 7
ENDMDL
MODEL 7
REMARK VINA RESULT:    -5.309      2.007      7.316
REMARK INTER + INTRA:          -6.503
REMARK INTER:                  -6.135
REMARK INTRA:                  -0.368
REMARK UNBOUND:                 0.047
REMARK SMILES Oc1cc(O)c2cc(O)c(-c3cc(O)c(O)c(O)c3)[o+]c2c1
REMARK SMILES IDX 10 1 20 2 21 3 22 4 2 5 3 6 4 7 6 8 7 9 8 10 11 11 12 12
REMARK SMILES IDX 13 13 19 14 15 15 17 16 14 17 16 19 18 21 9 23 1 25 5 27
REMARK H PARENT 14 18 16 20 18 22 9 24 1 26 5 28
REMARK Flexibility Score: inf
ROOT
ATOM      1  C   UNL     1      75.514  89.295  11.955  1.00  0.00     0.402 A 
ATOM      2  O   UNL     1      76.284  89.069  10.894  1.00  0.00    -0.202 OA
ATOM      3  C   UNL     1      77.311  88.227  10.903  1.00  0.00     0.368 A 
ATOM      4  C   UNL     1      78.064  88.059   9.737  1.00  0.00     0.162 A 
ATOM      5  C   UNL     1      79.152  87.182   9.720  1.00  0.00     0.128 A 
ATOM      6  C   UNL     1      79.489  86.470  10.874  1.00  0.00     0.093 A 
ATOM      7  C   UNL     1      78.751  86.621  12.054  1.00  0.00     0.136 A 
ATOM      8  C   UNL     1      77.644  87.508  12.076  1.00  0.00     0.125 A 
ATOM      9  C   UNL     1      76.840  87.713  13.210  1.00  0.00     0.078 A 
ATOM     10  C   UNL     1      75.762  88.601  13.153  1.00  0.00     0.223 A 
ENDROOT
BRANCH   1  11
ATOM     11  C   UNL     1      74.405  90.266  11.822  1.00  0.00     0.091 A 
ATOM     12  C   UNL     1      73.230  89.885  11.153  1.00  0.00     0.068 A 
ATOM     13  C   UNL     1      72.172  90.791  10.996  1.00  0.00     0.162 A 
ATOM     14  C   UNL     1      74.521  91.583  12.301  1.00  0.00     0.068 A 
ATOM     15  C   UNL     1      72.290  92.098  11.497  1.00  0.00     0.200 A 
ATOM     16  C   UNL     1      73.468  92.492  12.145  1.00  0.00     0.162 A 
BRANCH  13  17
ATOM     17  O   UNL     1      71.005  90.397  10.343  1.00  0.00    -0.504 OA
ATOM     18  H   UNL     1      70.353  89.747  10.767  1.00  0.00     0.293 HD
ENDBRANCH  13  17
BRANCH  15  19
ATOM     19  O   UNL     1      71.250  93.017  11.354  1.00  0.00    -0.502 OA
ATOM     20  H   UNL     1      70.441  92.830  10.774  1.00  0.00     0.293 HD
ENDBRANCH  15  19
BRANCH  16  21
ATOM     21  O   UNL     1      73.586  93.795  12.628  1.00  0.00    -0.504 OA
ATOM     22  H   UNL     1      73.868  93.983  13.582  1.00  0.00     0.293 HD
ENDBRANCH  16  21
ENDBRANCH   1  11
BRANCH  10  23
ATOM     23  O   UNL     1      74.933  88.767  14.263  1.00  0.00    -0.500 OA
ATOM     24  H   UNL     1      73.947  88.979  14.164  1.00  0.00     0.294 HD
ENDBRANCH  10  23
BRANCH   5  25
ATOM     25  O   UNL     1      79.906  87.009   8.562  1.00  0.00    -0.507 OA
ATOM     26  H   UNL     1      79.945  86.117   8.084  1.00  0.00     0.293 HD
ENDBRANCH   5  25
BRANCH   7  27
ATOM     27  O   UNL     1      79.155  85.875  13.166  1.00  0.00    -0.507 OA
ATOM     28  H   UNL     1      80.065  85.449  13.267  1.00  0.00     0.293 HD
ENDBRANCH   7  27
TORSDOF 7
ENDMDL
