MODEL 1
REMARK VINA RESULT:    -3.174      0.000      0.000
REMARK INTER + INTRA:          -6.221
REMARK INTER:                  -5.030
REMARK INTRA:                  -1.191
REMARK UNBOUND:                -1.191
REMARK SMILES CCCCCCCCCCCC(=O)[O-]
REMARK SMILES IDX 7 1 8 2 9 3 10 4 11 5 12 6 13 7 14 8 6 9 5 10 4 11 3 12 2 13
REMARK SMILES IDX 1 14
REMARK H PARENT
REMARK Flexibility Score: inf
ROOT
ATOM      1  C   UNL     1     -23.724   2.369 -34.444  1.00  0.00     0.000 C 
ENDROOT
BRANCH   1   2
ATOM      2  C   UNL     1     -22.785   3.582 -34.355  1.00  0.00     0.000 C 
BRANCH   2   3
ATOM      3  C   UNL     1     -23.039   4.612 -35.467  1.00  0.00     0.000 C 
BRANCH   3   4
ATOM      4  C   UNL     1     -24.300   4.297 -36.290  1.00  0.00     0.006 C 
BRANCH   4   5
ATOM      5  C   UNL     1     -24.049   4.412 -37.800  1.00  0.00     0.053 C 
BRANCH   5   6
ATOM      6  C   UNL     1     -22.941   3.510 -38.252  1.00  0.00     0.041 C 
ATOM      7  O   UNL     1     -21.961   3.981 -38.887  1.00  0.00    -0.550 OA
ATOM      8  O   UNL     1     -22.976   2.157 -37.944  1.00  0.00    -0.550 OA
ENDBRANCH   5   6
ENDBRANCH   4   5
ENDBRANCH   3   4
ENDBRANCH   2   3
ENDBRANCH   1   2
BRANCH   1   9
ATOM      9  C   UNL     1     -24.613   2.273 -33.195  1.00  0.00     0.000 C 
BRANCH   9  10
ATOM     10  C   UNL     1     -24.674   3.591 -32.407  1.00  0.00    -0.000 C 
BRANCH  10  11
ATOM     11  C   UNL     1     -25.926   4.423 -32.735  1.00  0.00    -0.000 C 
BRANCH  11  12
ATOM     12  C   UNL     1     -26.912   3.657 -33.643  1.00  0.00    -0.000 C 
BRANCH  12  13
ATOM     13  C   UNL     1     -28.054   4.531 -34.185  1.00  0.00    -0.003 C 
ATOM     14  C   UNL     1     -27.957   4.779 -35.689  1.00  0.00     0.004 C 
ENDBRANCH  12  13
ENDBRANCH  11  12
ENDBRANCH  10  11
ENDBRANCH   9  10
ENDBRANCH   1   9
TORSDOF 10
ENDMDL
MODEL 2
REMARK VINA RESULT:    -2.980      2.609      4.721
REMARK INTER + INTRA:          -5.913
REMARK INTER:                  -4.845
REMARK INTRA:                  -1.068
REMARK UNBOUND:                -1.191
REMARK SMILES CCCCCCCCCCCC(=O)[O-]
REMARK SMILES IDX 7 1 8 2 9 3 10 4 11 5 12 6 13 7 14 8 6 9 5 10 4 11 3 12 2 13
REMARK SMILES IDX 1 14
REMARK H PARENT
REMARK Flexibility Score: inf
ROOT
ATOM      1  C   UNL     1     -23.521   2.031 -33.594  1.00  0.00     0.000 C 
ENDROOT
BRANCH   1   2
ATOM      2  C   UNL     1     -24.919   2.458 -33.122  1.00  0.00     0.000 C 
BRANCH   2   3
ATOM      3  C   UNL     1     -24.902   3.773 -32.328  1.00  0.00     0.000 C 
BRANCH   3   4
ATOM      4  C   UNL     1     -26.018   4.741 -32.758  1.00  0.00     0.006 C 
BRANCH   4   5
ATOM      5  C   UNL     1     -26.205   4.769 -34.281  1.00  0.00     0.053 C 
BRANCH   5   6
ATOM      6  C   UNL     1     -27.586   4.346 -34.682  1.00  0.00     0.041 C 
ATOM      7  O   UNL     1     -28.275   3.624 -33.913  1.00  0.00    -0.550 OA
ATOM      8  O   UNL     1     -28.122   4.774 -35.889  1.00  0.00    -0.550 OA
ENDBRANCH   5   6
ENDBRANCH   4   5
ENDBRANCH   3   4
ENDBRANCH   2   3
ENDBRANCH   1   2
BRANCH   1   9
ATOM      9  C   UNL     1     -22.635   3.259 -33.857  1.00  0.00     0.000 C 
BRANCH   9  10
ATOM     10  C   UNL     1     -22.805   3.820 -35.277  1.00  0.00    -0.000 C 
BRANCH  10  11
ATOM     11  C   UNL     1     -22.946   2.716 -36.340  1.00  0.00    -0.000 C 
BRANCH  11  12
ATOM     12  C   UNL     1     -23.112   3.294 -37.761  1.00  0.00    -0.000 C 
BRANCH  12  13
ATOM     13  C   UNL     1     -23.583   4.757 -37.779  1.00  0.00    -0.003 C 
ATOM     14  C   UNL     1     -25.096   4.896 -37.938  1.00  0.00     0.004 C 
ENDBRANCH  12  13
ENDBRANCH  11  12
ENDBRANCH  10  11
ENDBRANCH   9  10
ENDBRANCH   1   9
TORSDOF 10
ENDMDL
MODEL 3
REMARK VINA RESULT:    -2.956      2.792      4.964
REMARK INTER + INTRA:          -5.875
REMARK INTER:                  -4.796
REMARK INTRA:                  -1.079
REMARK UNBOUND:                -1.191
REMARK SMILES CCCCCCCCCCCC(=O)[O-]
REMARK SMILES IDX 7 1 8 2 9 3 10 4 11 5 12 6 13 7 14 8 6 9 5 10 4 11 3 12 2 13
REMARK SMILES IDX 1 14
REMARK H PARENT
REMARK Flexibility Score: inf
ROOT
ATOM      1  C   UNL     1     -23.462   2.123 -34.589  1.00  0.00     0.000 C 
ENDROOT
BRANCH   1   2
ATOM      2  C   UNL     1     -24.913   2.621 -34.672  1.00  0.00     0.000 C 
BRANCH   2   3
ATOM      3  C   UNL     1     -25.556   2.810 -33.289  1.00  0.00     0.000 C 
BRANCH   3   4
ATOM      4  C   UNL     1     -26.477   4.041 -33.225  1.00  0.00     0.006 C 
BRANCH   4   5
ATOM      5  C   UNL     1     -26.830   4.572 -34.621  1.00  0.00     0.053 C 
BRANCH   5   6
ATOM      6  C   UNL     1     -28.264   4.311 -34.970  1.00  0.00     0.041 C 
ATOM      7  O   UNL     1     -28.756   4.790 -36.026  1.00  0.00    -0.550 OA
ATOM      8  O   UNL     1     -29.047   3.513 -34.146  1.00  0.00    -0.550 OA
ENDBRANCH   5   6
ENDBRANCH   4   5
ENDBRANCH   3   4
ENDBRANCH   2   3
ENDBRANCH   1   2
BRANCH   1   9
ATOM      9  C   UNL     1     -22.480   3.305 -34.556  1.00  0.00     0.000 C 
BRANCH   9  10
ATOM     10  C   UNL     1     -23.145   4.639 -34.928  1.00  0.00    -0.000 C 
BRANCH  10  11
ATOM     11  C   UNL     1     -22.763   5.120 -36.339  1.00  0.00    -0.000 C 
BRANCH  11  12
ATOM     12  C   UNL     1     -23.964   5.092 -37.308  1.00  0.00    -0.000 C 
BRANCH  12  13
ATOM     13  C   UNL     1     -23.760   4.157 -38.512  1.00  0.00    -0.003 C 
ATOM     14  C   UNL     1     -22.288   3.887 -38.817  1.00  0.00     0.004 C 
ENDBRANCH  12  13
ENDBRANCH  11  12
ENDBRANCH  10  11
ENDBRANCH   9  10
ENDBRANCH   1   9
TORSDOF 10
ENDMDL
MODEL 4
REMARK VINA RESULT:    -2.688     14.053     15.675
REMARK INTER + INTRA:          -5.451
REMARK INTER:                  -4.782
REMARK INTRA:                  -0.669
REMARK UNBOUND:                -1.191
REMARK SMILES CCCCCCCCCCCC(=O)[O-]
REMARK SMILES IDX 7 1 8 2 9 3 10 4 11 5 12 6 13 7 14 8 6 9 5 10 4 11 3 12 2 13
REMARK SMILES IDX 1 14
REMARK H PARENT
REMARK Flexibility Score: inf
ROOT
ATOM      1  C   UNL     1     -11.116   1.178 -36.691  1.00  0.00     0.000 C 
ENDROOT
BRANCH   1   2
ATOM      2  C   UNL     1     -11.182   2.240 -37.799  1.00  0.00     0.000 C 
BRANCH   2   3
ATOM      3  C   UNL     1     -11.302   3.668 -37.246  1.00  0.00     0.000 C 
BRANCH   3   4
ATOM      4  C   UNL     1     -10.021   4.141 -36.538  1.00  0.00     0.006 C 
BRANCH   4   5
ATOM      5  C   UNL     1     -10.324   5.027 -35.322  1.00  0.00     0.053 C 
BRANCH   5   6
ATOM      6  C   UNL     1      -9.767   4.448 -34.057  1.00  0.00     0.041 C 
ATOM      7  O   UNL     1      -9.856   5.088 -32.976  1.00  0.00    -0.550 OA
ATOM      8  O   UNL     1      -9.179   3.190 -34.067  1.00  0.00    -0.550 OA
ENDBRANCH   5   6
ENDBRANCH   4   5
ENDBRANCH   3   4
ENDBRANCH   2   3
ENDBRANCH   1   2
BRANCH   1   9
ATOM      9  C   UNL     1      -9.908   0.250 -36.894  1.00  0.00     0.000 C 
BRANCH   9  10
ATOM     10  C   UNL     1      -9.434   0.205 -38.355  1.00  0.00    -0.000 C 
BRANCH  10  11
ATOM     11  C   UNL     1      -9.297  -1.232 -38.891  1.00  0.00    -0.000 C 
BRANCH  11  12
ATOM     12  C   UNL     1      -9.666  -2.287 -37.827  1.00  0.00    -0.000 C 
BRANCH  12  13
ATOM     13  C   UNL     1     -10.043  -3.654 -38.422  1.00  0.00    -0.003 C 
ATOM     14  C   UNL     1     -10.780  -4.555 -37.433  1.00  0.00     0.004 C 
ENDBRANCH  12  13
ENDBRANCH  11  12
ENDBRANCH  10  11
ENDBRANCH   9  10
ENDBRANCH   1   9
TORSDOF 10
ENDMDL
MODEL 5
REMARK VINA RESULT:    -2.594      3.074      4.905
REMARK INTER + INTRA:          -5.301
REMARK INTER:                  -4.313
REMARK INTRA:                  -0.988
REMARK UNBOUND:                -1.191
REMARK SMILES CCCCCCCCCCCC(=O)[O-]
REMARK SMILES IDX 7 1 8 2 9 3 10 4 11 5 12 6 13 7 14 8 6 9 5 10 4 11 3 12 2 13
REMARK SMILES IDX 1 14
REMARK H PARENT
REMARK Flexibility Score: inf
ROOT
ATOM      1  C   UNL     1     -22.750   2.152 -36.749  1.00  0.00     0.000 C 
ENDROOT
BRANCH   1   2
ATOM      2  C   UNL     1     -23.495   2.135 -35.405  1.00  0.00     0.000 C 
BRANCH   2   3
ATOM      3  C   UNL     1     -22.930   3.151 -34.401  1.00  0.00     0.000 C 
BRANCH   3   4
ATOM      4  C   UNL     1     -23.914   4.295 -34.097  1.00  0.00     0.006 C 
BRANCH   4   5
ATOM      5  C   UNL     1     -25.375   3.869 -34.292  1.00  0.00     0.053 C 
BRANCH   5   6
ATOM      6  C   UNL     1     -26.274   4.468 -33.253  1.00  0.00     0.041 C 
ATOM      7  O   UNL     1     -27.497   4.642 -33.499  1.00  0.00    -0.550 OA
ATOM      8  O   UNL     1     -25.767   4.806 -32.006  1.00  0.00    -0.550 OA
ENDBRANCH   5   6
ENDBRANCH   4   5
ENDBRANCH   3   4
ENDBRANCH   2   3
ENDBRANCH   1   2
BRANCH   1   9
ATOM      9  C   UNL     1     -22.399   3.589 -37.161  1.00  0.00     0.000 C 
BRANCH   9  10
ATOM     10  C   UNL     1     -22.689   3.869 -38.644  1.00  0.00    -0.000 C 
BRANCH  10  11
ATOM     11  C   UNL     1     -23.675   5.033 -38.847  1.00  0.00    -0.000 C 
BRANCH  11  12
ATOM     12  C   UNL     1     -24.825   5.008 -37.817  1.00  0.00    -0.000 C 
BRANCH  12  13
ATOM     13  C   UNL     1     -26.221   5.110 -38.452  1.00  0.00    -0.003 C 
ATOM     14  C   UNL     1     -27.348   5.125 -37.421  1.00  0.00     0.004 C 
ENDBRANCH  12  13
ENDBRANCH  11  12
ENDBRANCH  10  11
ENDBRANCH   9  10
ENDBRANCH   1   9
TORSDOF 10
ENDMDL
MODEL 6
REMARK VINA RESULT:    -2.546      1.180      2.005
REMARK INTER + INTRA:          -5.226
REMARK INTER:                  -4.395
REMARK INTRA:                  -0.831
REMARK UNBOUND:                -1.191
REMARK SMILES CCCCCCCCCCCC(=O)[O-]
REMARK SMILES IDX 7 1 8 2 9 3 10 4 11 5 12 6 13 7 14 8 6 9 5 10 4 11 3 12 2 13
REMARK SMILES IDX 1 14
REMARK H PARENT
REMARK Flexibility Score: inf
ROOT
ATOM      1  C   UNL     1     -24.681   2.545 -32.772  1.00  0.00     0.000 C 
ENDROOT
BRANCH   1   2
ATOM      2  C   UNL     1     -24.316   2.123 -34.203  1.00  0.00     0.000 C 
BRANCH   2   3
ATOM      3  C   UNL     1     -22.837   2.374 -34.537  1.00  0.00     0.000 C 
BRANCH   3   4
ATOM      4  C   UNL     1     -22.627   2.831 -35.991  1.00  0.00     0.006 C 
BRANCH   4   5
ATOM      5  C   UNL     1     -23.108   4.270 -36.221  1.00  0.00     0.053 C 
BRANCH   5   6
ATOM      6  C   UNL     1     -23.423   4.529 -37.663  1.00  0.00     0.041 C 
ATOM      7  O   UNL     1     -24.605   4.784 -38.017  1.00  0.00    -0.550 OA
ATOM      8  O   UNL     1     -22.407   4.518 -38.610  1.00  0.00    -0.550 OA
ENDBRANCH   5   6
ENDBRANCH   4   5
ENDBRANCH   3   4
ENDBRANCH   2   3
ENDBRANCH   1   2
BRANCH   1   9
ATOM      9  C   UNL     1     -24.583   4.069 -32.609  1.00  0.00     0.000 C 
BRANCH   9  10
ATOM     10  C   UNL     1     -25.957   4.757 -32.613  1.00  0.00    -0.000 C 
BRANCH  10  11
ATOM     11  C   UNL     1     -26.889   4.215 -33.711  1.00  0.00    -0.000 C 
BRANCH  11  12
ATOM     12  C   UNL     1     -26.620   4.874 -35.080  1.00  0.00    -0.000 C 
BRANCH  12  13
ATOM     13  C   UNL     1     -27.837   4.858 -36.020  1.00  0.00    -0.003 C 
ATOM     14  C   UNL     1     -29.120   4.398 -35.330  1.00  0.00     0.004 C 
ENDBRANCH  12  13
ENDBRANCH  11  12
ENDBRANCH  10  11
ENDBRANCH   9  10
ENDBRANCH   1   9
TORSDOF 10
ENDMDL
MODEL 7
REMARK VINA RESULT:    -2.534     13.331     15.511
REMARK INTER + INTRA:          -5.207
REMARK INTER:                  -4.668
REMARK INTRA:                  -0.540
REMARK UNBOUND:                -1.191
REMARK SMILES CCCCCCCCCCCC(=O)[O-]
REMARK SMILES IDX 7 1 8 2 9 3 10 4 11 5 12 6 13 7 14 8 6 9 5 10 4 11 3 12 2 13
REMARK SMILES IDX 1 14
REMARK H PARENT
REMARK Flexibility Score: inf
ROOT
ATOM      1  C   UNL     1      -9.854   0.642 -35.834  1.00  0.00     0.000 C 
ENDROOT
BRANCH   1   2
ATOM      2  C   UNL     1      -8.934   1.579 -35.037  1.00  0.00     0.000 C 
BRANCH   2   3
ATOM      3  C   UNL     1      -9.118   3.056 -35.417  1.00  0.00     0.000 C 
BRANCH   3   4
ATOM      4  C   UNL     1      -9.665   3.239 -36.843  1.00  0.00     0.006 C 
BRANCH   4   5
ATOM      5  C   UNL     1     -10.902   4.146 -36.878  1.00  0.00     0.053 C 
BRANCH   5   6
ATOM      6  C   UNL     1     -12.025   3.528 -37.653  1.00  0.00     0.041 C 
ATOM      7  O   UNL     1     -12.346   2.326 -37.454  1.00  0.00    -0.550 OA
ATOM      8  O   UNL     1     -12.736   4.288 -38.573  1.00  0.00    -0.550 OA
ENDBRANCH   5   6
ENDBRANCH   4   5
ENDBRANCH   3   4
ENDBRANCH   2   3
ENDBRANCH   1   2
BRANCH   1   9
ATOM      9  C   UNL     1      -9.049  -0.498 -36.476  1.00  0.00     0.000 C 
BRANCH   9  10
ATOM     10  C   UNL     1      -9.686  -1.016 -37.775  1.00  0.00    -0.000 C 
BRANCH  10  11
ATOM     11  C   UNL     1      -9.380  -2.502 -38.036  1.00  0.00    -0.000 C 
BRANCH  11  12
ATOM     12  C   UNL     1     -10.348  -3.436 -37.281  1.00  0.00    -0.000 C 
BRANCH  12  13
ATOM     13  C   UNL     1     -10.780  -4.665 -38.098  1.00  0.00    -0.003 C 
ATOM     14  C   UNL     1      -9.736  -5.098 -39.125  1.00  0.00     0.004 C 
ENDBRANCH  12  13
ENDBRANCH  11  12
ENDBRANCH  10  11
ENDBRANCH   9  10
ENDBRANCH   1   9
TORSDOF 10
ENDMDL
MODEL 8
REMARK VINA RESULT:    -2.523     14.516     15.854
REMARK INTER + INTRA:          -5.189
REMARK INTER:                  -4.622
REMARK INTRA:                  -0.567
REMARK UNBOUND:                -1.191
REMARK SMILES CCCCCCCCCCCC(=O)[O-]
REMARK SMILES IDX 7 1 8 2 9 3 10 4 11 5 12 6 13 7 14 8 6 9 5 10 4 11 3 12 2 13
REMARK SMILES IDX 1 14
REMARK H PARENT
REMARK Flexibility Score: inf
ROOT
ATOM      1  C   UNL     1     -10.716   0.464 -36.397  1.00  0.00     0.000 C 
ENDROOT
BRANCH   1   2
ATOM      2  C   UNL     1     -10.090  -0.853 -36.879  1.00  0.00     0.000 C 
BRANCH   2   3
ATOM      3  C   UNL     1      -9.750  -0.835 -38.377  1.00  0.00     0.000 C 
BRANCH   3   4
ATOM      4  C   UNL     1      -9.422  -2.234 -38.928  1.00  0.00     0.006 C 
BRANCH   4   5
ATOM      5  C   UNL     1      -9.266  -3.274 -37.811  1.00  0.00     0.053 C 
BRANCH   5   6
ATOM      6  C   UNL     1     -10.068  -4.510 -38.083  1.00  0.00     0.041 C 
ATOM      7  O   UNL     1     -11.114  -4.745 -37.422  1.00  0.00    -0.550 OA
ATOM      8  O   UNL     1      -9.677  -5.386 -39.087  1.00  0.00    -0.550 OA
ENDBRANCH   5   6
ENDBRANCH   4   5
ENDBRANCH   3   4
ENDBRANCH   2   3
ENDBRANCH   1   2
BRANCH   1   9
ATOM      9  C   UNL     1      -9.888   1.669 -36.869  1.00  0.00     0.000 C 
BRANCH   9  10
ATOM     10  C   UNL     1     -10.712   2.963 -36.946  1.00  0.00    -0.000 C 
BRANCH  10  11
ATOM     11  C   UNL     1      -9.864   4.223 -36.698  1.00  0.00    -0.000 C 
BRANCH  11  12
ATOM     12  C   UNL     1      -9.970   4.718 -35.240  1.00  0.00    -0.000 C 
BRANCH  12  13
ATOM     13  C   UNL     1      -8.879   4.150 -34.317  1.00  0.00    -0.003 C 
ATOM     14  C   UNL     1      -9.430   3.617 -32.996  1.00  0.00     0.004 C 
ENDBRANCH  12  13
ENDBRANCH  11  12
ENDBRANCH  10  11
ENDBRANCH   9  10
ENDBRANCH   1   9
TORSDOF 10
ENDMDL
