MODEL 1
REMARK VINA RESULT:     3.414      0.000      0.000
REMARK INTER + INTRA:           4.464
REMARK INTER:                   4.113
REMARK INTRA:                   0.351
REMARK UNBOUND:                 0.351
REMARK SMILES O=c1c(O)c(-c2ccc(O)c(O)c2)oc2cc(O)cc(O)c12
REMARK SMILES IDX 5 1 3 2 2 3 1 4 22 5 20 6 19 7 17 8 16 9 15 10 14 11 6 12
REMARK SMILES IDX 7 13 8 14 9 15 13 16 11 17 10 18 12 20 4 22 21 24 18 26
REMARK H PARENT 10 19 12 21 4 23 21 25 18 27
REMARK Flexibility Score: inf
ROOT
ATOM      1  C   UNL     1      20.859   5.215   6.063  1.00  0.00     0.180 A 
ATOM      2  C   UNL     1      22.128   5.377   5.480  1.00  0.00     0.208 A 
ATOM      3  C   UNL     1      23.006   4.282   5.446  1.00  0.00     0.238 A 
ATOM      4  O   UNL     1      24.120   4.418   4.876  1.00  0.00    -0.285 OA
ATOM      5  C   UNL     1      22.611   3.044   6.008  1.00  0.00     0.111 A 
ATOM      6  C   UNL     1      23.435   1.880   6.065  1.00  0.00     0.134 A 
ATOM      7  C   UNL     1      22.896   0.673   6.527  1.00  0.00     0.093 A 
ATOM      8  C   UNL     1      21.580   0.605   6.993  1.00  0.00     0.123 A 
ATOM      9  C   UNL     1      20.787   1.749   6.998  1.00  0.00     0.094 A 
ATOM     10  C   UNL     1      21.286   2.959   6.510  1.00  0.00     0.146 A 
ATOM     11  O   UNL     1      20.494   4.024   6.523  1.00  0.00    -0.452 OA
ENDROOT
BRANCH   1  12
ATOM     12  C   UNL     1      19.887   6.329   6.158  1.00  0.00     0.025 A 
ATOM     13  C   UNL     1      18.531   6.045   6.383  1.00  0.00     0.016 A 
ATOM     14  C   UNL     1      17.601   7.082   6.497  1.00  0.00     0.051 A 
ATOM     15  C   UNL     1      18.013   8.415   6.405  1.00  0.00     0.157 A 
ATOM     16  C   UNL     1      20.303   7.671   6.087  1.00  0.00     0.062 A 
ATOM     17  C   UNL     1      19.371   8.712   6.204  1.00  0.00     0.158 A 
BRANCH  15  18
ATOM     18  O   UNL     1      17.061   9.427   6.521  1.00  0.00    -0.504 OA
ATOM     19  H   UNL     1      17.258  10.384   6.248  1.00  0.00     0.293 HD
ENDBRANCH  15  18
BRANCH  17  20
ATOM     20  O   UNL     1      19.791  10.039   6.126  1.00  0.00    -0.504 OA
ATOM     21  H   UNL     1      20.361  10.371   5.356  1.00  0.00     0.293 HD
ENDBRANCH  17  20
ENDBRANCH   1  12
BRANCH   2  22
ATOM     22  O   UNL     1      22.489   6.601   4.912  1.00  0.00    -0.502 OA
ATOM     23  H   UNL     1      23.191   6.678   4.186  1.00  0.00     0.293 HD
ENDBRANCH   2  22
BRANCH   6  24
ATOM     24  O   UNL     1      24.787   1.864   5.709  1.00  0.00    -0.507 OA
ATOM     25  H   UNL     1      25.136   1.980   4.769  1.00  0.00     0.293 HD
ENDBRANCH   6  24
BRANCH   8  26
ATOM     26  O   UNL     1      21.057  -0.597   7.465  1.00  0.00    -0.508 OA
ATOM     27  H   UNL     1      20.830  -1.360   6.838  1.00  0.00     0.293 HD
ENDBRANCH   8  26
TORSDOF 6
ENDMDL
MODEL 2
REMARK VINA RESULT:     3.419      1.246      2.811
REMARK INTER + INTRA:           4.470
REMARK INTER:                   4.313
REMARK INTRA:                   0.157
REMARK UNBOUND:                 0.351
REMARK SMILES O=c1c(O)c(-c2ccc(O)c(O)c2)oc2cc(O)cc(O)c12
REMARK SMILES IDX 5 1 3 2 2 3 1 4 22 5 20 6 19 7 17 8 16 9 15 10 14 11 6 12
REMARK SMILES IDX 7 13 8 14 9 15 13 16 11 17 10 18 12 20 4 22 21 24 18 26
REMARK H PARENT 10 19 12 21 4 23 21 25 18 27
REMARK Flexibility Score: inf
ROOT
ATOM      1  C   UNL     1      20.561   5.231   6.420  1.00  0.00     0.180 A 
ATOM      2  C   UNL     1      19.924   4.278   7.232  1.00  0.00     0.208 A 
ATOM      3  C   UNL     1      20.514   3.014   7.390  1.00  0.00     0.238 A 
ATOM      4  O   UNL     1      19.967   2.183   8.162  1.00  0.00    -0.285 OA
ATOM      5  C   UNL     1      21.726   2.714   6.722  1.00  0.00     0.111 A 
ATOM      6  C   UNL     1      22.392   1.452   6.778  1.00  0.00     0.134 A 
ATOM      7  C   UNL     1      23.651   1.309   6.182  1.00  0.00     0.093 A 
ATOM      8  C   UNL     1      24.238   2.363   5.478  1.00  0.00     0.123 A 
ATOM      9  C   UNL     1      23.569   3.579   5.367  1.00  0.00     0.094 A 
ATOM     10  C   UNL     1      22.328   3.764   5.981  1.00  0.00     0.146 A 
ATOM     11  O   UNL     1      21.729   4.942   5.859  1.00  0.00    -0.452 OA
ENDROOT
BRANCH   1  12
ATOM     12  C   UNL     1      19.987   6.577   6.185  1.00  0.00     0.025 A 
ATOM     13  C   UNL     1      18.603   6.713   5.992  1.00  0.00     0.016 A 
ATOM     14  C   UNL     1      18.039   7.975   5.790  1.00  0.00     0.051 A 
ATOM     15  C   UNL     1      18.843   9.118   5.793  1.00  0.00     0.157 A 
ATOM     16  C   UNL     1      20.791   7.730   6.209  1.00  0.00     0.062 A 
ATOM     17  C   UNL     1      20.225   8.997   6.009  1.00  0.00     0.158 A 
BRANCH  15  18
ATOM     18  O   UNL     1      18.250  10.364   5.586  1.00  0.00    -0.504 OA
ATOM     19  H   UNL     1      17.898  10.926   6.352  1.00  0.00     0.293 HD
ENDBRANCH  15  18
BRANCH  17  20
ATOM     20  O   UNL     1      21.031  10.135   6.027  1.00  0.00    -0.504 OA
ATOM     21  H   UNL     1      21.447  10.504   5.179  1.00  0.00     0.293 HD
ENDBRANCH  17  20
ENDBRANCH   1  12
BRANCH   2  22
ATOM     22  O   UNL     1      18.740   4.602   7.900  1.00  0.00    -0.502 OA
ATOM     23  H   UNL     1      18.730   4.952   8.851  1.00  0.00     0.293 HD
ENDBRANCH   2  22
BRANCH   6  24
ATOM     24  O   UNL     1      21.851   0.311   7.377  1.00  0.00    -0.507 OA
ATOM     25  H   UNL     1      21.830   0.138   8.371  1.00  0.00     0.293 HD
ENDBRANCH   6  24
BRANCH   8  26
ATOM     26  O   UNL     1      25.485   2.206   4.876  1.00  0.00    -0.508 OA
ATOM     27  H   UNL     1      25.798   2.821   4.134  1.00  0.00     0.293 HD
ENDBRANCH   8  26
TORSDOF 6
ENDMDL
MODEL 3
REMARK VINA RESULT:     5.001      0.912      1.584
REMARK INTER + INTRA:           6.375
REMARK INTER:                   5.956
REMARK INTRA:                   0.419
REMARK UNBOUND:                 0.351
REMARK SMILES O=c1c(O)c(-c2ccc(O)c(O)c2)oc2cc(O)cc(O)c12
REMARK SMILES IDX 5 1 3 2 2 3 1 4 22 5 20 6 19 7 17 8 16 9 15 10 14 11 6 12
REMARK SMILES IDX 7 13 8 14 9 15 13 16 11 17 10 18 12 20 4 22 21 24 18 26
REMARK H PARENT 10 19 12 21 4 23 21 25 18 27
REMARK Flexibility Score: inf
ROOT
ATOM      1  C   UNL     1      21.195   4.670   6.167  1.00  0.00     0.180 A 
ATOM      2  C   UNL     1      22.445   4.628   5.525  1.00  0.00     0.208 A 
ATOM      3  C   UNL     1      23.159   3.420   5.502  1.00  0.00     0.238 A 
ATOM      4  O   UNL     1      24.252   3.375   4.880  1.00  0.00    -0.285 OA
ATOM      5  C   UNL     1      22.621   2.272   6.133  1.00  0.00     0.111 A 
ATOM      6  C   UNL     1      23.277   1.006   6.207  1.00  0.00     0.134 A 
ATOM      7  C   UNL     1      22.596  -0.094   6.742  1.00  0.00     0.093 A 
ATOM      8  C   UNL     1      21.308   0.042   7.266  1.00  0.00     0.123 A 
ATOM      9  C   UNL     1      20.684   1.286   7.254  1.00  0.00     0.094 A 
ATOM     10  C   UNL     1      21.323   2.395   6.694  1.00  0.00     0.146 A 
ATOM     11  O   UNL     1      20.689   3.560   6.693  1.00  0.00    -0.452 OA
ENDROOT
BRANCH   1  12
ATOM     12  C   UNL     1      20.394   5.913   6.254  1.00  0.00     0.025 A 
ATOM     13  C   UNL     1      21.029   7.155   6.097  1.00  0.00     0.016 A 
ATOM     14  C   UNL     1      20.289   8.339   6.155  1.00  0.00     0.051 A 
ATOM     15  C   UNL     1      18.906   8.300   6.355  1.00  0.00     0.157 A 
ATOM     16  C   UNL     1      19.000   5.875   6.434  1.00  0.00     0.062 A 
ATOM     17  C   UNL     1      18.256   7.062   6.490  1.00  0.00     0.158 A 
BRANCH  15  18
ATOM     18  O   UNL     1      18.196   9.499   6.411  1.00  0.00    -0.504 OA
ATOM     19  H   UNL     1      18.352  10.248   5.746  1.00  0.00     0.293 HD
ENDBRANCH  15  18
BRANCH  17  20
ATOM     20  O   UNL     1      16.875   7.016   6.676  1.00  0.00    -0.504 OA
ATOM     21  H   UNL     1      16.444   7.339   7.535  1.00  0.00     0.293 HD
ENDBRANCH  17  20
ENDBRANCH   1  12
BRANCH   2  22
ATOM     22  O   UNL     1      22.946   5.767   4.889  1.00  0.00    -0.502 OA
ATOM     23  H   UNL     1      23.688   6.331   5.287  1.00  0.00     0.293 HD
ENDBRANCH   2  22
BRANCH   6  24
ATOM     24  O   UNL     1      24.594   0.785   5.796  1.00  0.00    -0.507 OA
ATOM     25  H   UNL     1      24.861   0.273   4.967  1.00  0.00     0.293 HD
ENDBRANCH   6  24
BRANCH   8  26
ATOM     26  O   UNL     1      20.644  -1.055   7.811  1.00  0.00    -0.508 OA
ATOM     27  H   UNL     1      20.316  -1.055   8.769  1.00  0.00     0.293 HD
ENDBRANCH   8  26
TORSDOF 6
ENDMDL
