MODEL 1
REMARK VINA RESULT:    -7.966      0.000      0.000
REMARK INTER + INTRA:          -9.956
REMARK INTER:                  -9.596
REMARK INTRA:                  -0.360
REMARK UNBOUND:                -0.360
REMARK SMILES O=c1c(O)c(-c2ccc(O)cc2O)oc2cc(O)cc(O)c12
REMARK SMILES IDX 5 1 3 2 2 3 1 4 22 5 20 6 19 7 17 8 16 9 15 10 14 11 6 12
REMARK SMILES IDX 8 13 7 14 9 15 11 16 12 17 10 18 13 20 4 22 21 24 18 26
REMARK H PARENT 10 19 13 21 4 23 21 25 18 27
REMARK Flexibility Score: inf
ROOT
ATOM      1  C   UNL     1      -3.650  67.482 -20.743  1.00  0.00     0.184 A 
ATOM      2  C   UNL     1      -4.027  66.285 -20.114  1.00  0.00     0.208 A 
ATOM      3  C   UNL     1      -5.383  65.922 -20.103  1.00  0.00     0.238 A 
ATOM      4  O   UNL     1      -5.724  64.874 -19.492  1.00  0.00    -0.285 OA
ATOM      5  C   UNL     1      -6.340  66.752 -20.735  1.00  0.00     0.111 A 
ATOM      6  C   UNL     1      -7.735  66.462 -20.821  1.00  0.00     0.134 A 
ATOM      7  C   UNL     1      -8.607  67.419 -21.356  1.00  0.00     0.093 A 
ATOM      8  C   UNL     1      -8.130  68.624 -21.868  1.00  0.00     0.123 A 
ATOM      9  C   UNL     1      -6.761  68.893 -21.843  1.00  0.00     0.094 A 
ATOM     10  C   UNL     1      -5.869  67.975 -21.283  1.00  0.00     0.146 A 
ATOM     11  O   UNL     1      -4.575  68.274 -21.269  1.00  0.00    -0.451 OA
ENDROOT
BRANCH   1  12
ATOM     12  C   UNL     1      -2.238  67.915 -20.804  1.00  0.00     0.063 A 
ATOM     13  C   UNL     1       0.035  67.488 -21.554  1.00  0.00     0.047 A 
ATOM     14  C   UNL     1      -1.309  67.112 -21.483  1.00  0.00     0.020 A 
ATOM     15  C   UNL     1       0.470  68.664 -20.936  1.00  0.00     0.119 A 
ATOM     16  C   UNL     1      -0.445  69.459 -20.234  1.00  0.00     0.093 A 
ATOM     17  C   UNL     1      -1.795  69.086 -20.154  1.00  0.00     0.130 A 
BRANCH  15  18
ATOM     18  O   UNL     1       1.812  69.027 -21.018  1.00  0.00    -0.508 OA
ATOM     19  H   UNL     1       2.110  69.986 -20.877  1.00  0.00     0.293 HD
ENDBRANCH  15  18
BRANCH  17  20
ATOM     20  O   UNL     1      -2.686  69.861 -19.412  1.00  0.00    -0.507 OA
ATOM     21  H   UNL     1      -3.140  69.501 -18.581  1.00  0.00     0.293 HD
ENDBRANCH  17  20
ENDBRANCH   1  12
BRANCH   2  22
ATOM     22  O   UNL     1      -3.065  65.493 -19.482  1.00  0.00    -0.502 OA
ATOM     23  H   UNL     1      -2.078  65.719 -19.500  1.00  0.00     0.293 HD
ENDBRANCH   2  22
BRANCH   6  24
ATOM     24  O   UNL     1      -8.306  65.250 -20.423  1.00  0.00    -0.507 OA
ATOM     25  H   UNL     1      -9.173  64.879 -20.779  1.00  0.00     0.293 HD
ENDBRANCH   6  24
BRANCH   8  26
ATOM     26  O   UNL     1      -9.025  69.545 -22.406  1.00  0.00    -0.508 OA
ATOM     27  H   UNL     1      -9.984  69.295 -22.612  1.00  0.00     0.293 HD
ENDBRANCH   8  26
TORSDOF 6
ENDMDL
MODEL 2
REMARK VINA RESULT:    -7.806      1.806      3.182
REMARK INTER + INTRA:          -9.763
REMARK INTER:                  -9.354
REMARK INTRA:                  -0.409
REMARK UNBOUND:                -0.360
REMARK SMILES O=c1c(O)c(-c2ccc(O)cc2O)oc2cc(O)cc(O)c12
REMARK SMILES IDX 5 1 3 2 2 3 1 4 22 5 20 6 19 7 17 8 16 9 15 10 14 11 6 12
REMARK SMILES IDX 8 13 7 14 9 15 11 16 12 17 10 18 13 20 4 22 21 24 18 26
REMARK H PARENT 10 19 13 21 4 23 21 25 18 27
REMARK Flexibility Score: inf
ROOT
ATOM      1  C   UNL     1      -2.877  68.302 -21.673  1.00  0.00     0.184 A 
ATOM      2  C   UNL     1      -3.394  68.510 -22.961  1.00  0.00     0.208 A 
ATOM      3  C   UNL     1      -4.786  68.564 -23.134  1.00  0.00     0.238 A 
ATOM      4  O   UNL     1      -5.246  68.697 -24.298  1.00  0.00    -0.285 OA
ATOM      5  C   UNL     1      -5.640  68.425 -22.013  1.00  0.00     0.111 A 
ATOM      6  C   UNL     1      -7.065  68.504 -22.065  1.00  0.00     0.134 A 
ATOM      7  C   UNL     1      -7.814  68.223 -20.915  1.00  0.00     0.093 A 
ATOM      8  C   UNL     1      -7.192  67.931 -19.703  1.00  0.00     0.123 A 
ATOM      9  C   UNL     1      -5.799  67.909 -19.626  1.00  0.00     0.094 A 
ATOM     10  C   UNL     1      -5.023  68.149 -20.764  1.00  0.00     0.146 A 
ATOM     11  O   UNL     1      -3.701  68.109 -20.651  1.00  0.00    -0.451 OA
ENDROOT
BRANCH   1  12
ATOM     12  C   UNL     1      -1.421  68.251 -21.421  1.00  0.00     0.063 A 
ATOM     13  C   UNL     1       0.636  69.428 -20.880  1.00  0.00     0.047 A 
ATOM     14  C   UNL     1      -0.741  69.440 -21.117  1.00  0.00     0.020 A 
ATOM     15  C   UNL     1       1.352  68.230 -20.955  1.00  0.00     0.119 A 
ATOM     16  C   UNL     1       0.686  67.041 -21.281  1.00  0.00     0.093 A 
ATOM     17  C   UNL     1      -0.695  67.046 -21.527  1.00  0.00     0.130 A 
BRANCH  15  18
ATOM     18  O   UNL     1       2.724  68.233 -20.713  1.00  0.00    -0.508 OA
ATOM     19  H   UNL     1       3.175  67.475 -20.213  1.00  0.00     0.293 HD
ENDBRANCH  15  18
BRANCH  17  20
ATOM     20  O   UNL     1      -1.337  65.865 -21.899  1.00  0.00    -0.507 OA
ATOM     21  H   UNL     1      -1.007  65.301 -22.672  1.00  0.00     0.293 HD
ENDBRANCH  17  20
ENDBRANCH   1  12
BRANCH   2  22
ATOM     22  O   UNL     1      -2.529  68.625 -24.053  1.00  0.00    -0.502 OA
ATOM     23  H   UNL     1      -2.864  68.685 -25.007  1.00  0.00     0.293 HD
ENDBRANCH   2  22
BRANCH   6  24
ATOM     24  O   UNL     1      -7.785  68.877 -23.203  1.00  0.00    -0.507 OA
ATOM     25  H   UNL     1      -8.200  68.232 -23.858  1.00  0.00     0.293 HD
ENDBRANCH   6  24
BRANCH   8  26
ATOM     26  O   UNL     1      -7.968  67.671 -18.576  1.00  0.00    -0.508 OA
ATOM     27  H   UNL     1      -8.923  67.343 -18.654  1.00  0.00     0.293 HD
ENDBRANCH   8  26
TORSDOF 6
ENDMDL
MODEL 3
REMARK VINA RESULT:    -7.742      7.910      9.742
REMARK INTER + INTRA:          -9.686
REMARK INTER:                  -9.406
REMARK INTRA:                  -0.280
REMARK UNBOUND:                -0.360
REMARK SMILES O=c1c(O)c(-c2ccc(O)cc2O)oc2cc(O)cc(O)c12
REMARK SMILES IDX 5 1 3 2 2 3 1 4 22 5 20 6 19 7 17 8 16 9 15 10 14 11 6 12
REMARK SMILES IDX 8 13 7 14 9 15 11 16 12 17 10 18 13 20 4 22 21 24 18 26
REMARK H PARENT 10 19 13 21 4 23 21 25 18 27
REMARK Flexibility Score: inf
ROOT
ATOM      1  C   UNL     1      -3.366  61.840 -13.521  1.00  0.00     0.184 A 
ATOM      2  C   UNL     1      -4.570  61.123 -13.457  1.00  0.00     0.208 A 
ATOM      3  C   UNL     1      -5.220  60.778 -14.652  1.00  0.00     0.238 A 
ATOM      4  O   UNL     1      -6.327  60.181 -14.588  1.00  0.00    -0.285 OA
ATOM      5  C   UNL     1      -4.648  61.141 -15.895  1.00  0.00     0.111 A 
ATOM      6  C   UNL     1      -5.199  60.809 -17.169  1.00  0.00     0.134 A 
ATOM      7  C   UNL     1      -4.617  61.332 -18.331  1.00  0.00     0.093 A 
ATOM      8  C   UNL     1      -3.469  62.119 -18.270  1.00  0.00     0.123 A 
ATOM      9  C   UNL     1      -2.887  62.402 -17.033  1.00  0.00     0.094 A 
ATOM     10  C   UNL     1      -3.465  61.925 -15.854  1.00  0.00     0.146 A 
ATOM     11  O   UNL     1      -2.887  62.226 -14.697  1.00  0.00    -0.451 OA
ENDROOT
BRANCH   1  12
ATOM     12  C   UNL     1      -2.623  62.221 -12.301  1.00  0.00     0.063 A 
ATOM     13  C   UNL     1      -1.739  63.977 -10.870  1.00  0.00     0.047 A 
ATOM     14  C   UNL     1      -2.441  63.582 -12.012  1.00  0.00     0.020 A 
ATOM     15  C   UNL     1      -1.198  63.017 -10.011  1.00  0.00     0.119 A 
ATOM     16  C   UNL     1      -1.353  61.656 -10.304  1.00  0.00     0.093 A 
ATOM     17  C   UNL     1      -2.052  61.251 -11.451  1.00  0.00     0.130 A 
BRANCH  15  18
ATOM     18  O   UNL     1      -0.503  63.425  -8.875  1.00  0.00    -0.508 OA
ATOM     19  H   UNL     1      -0.461  62.848  -8.043  1.00  0.00     0.293 HD
ENDBRANCH  15  18
BRANCH  17  20
ATOM     20  O   UNL     1      -2.157  59.895 -11.757  1.00  0.00    -0.507 OA
ATOM     21  H   UNL     1      -2.733  59.565 -12.522  1.00  0.00     0.293 HD
ENDBRANCH  17  20
ENDBRANCH   1  12
BRANCH   2  22
ATOM     22  O   UNL     1      -5.123  60.792 -12.216  1.00  0.00    -0.502 OA
ATOM     23  H   UNL     1      -5.484  59.869 -12.011  1.00  0.00     0.293 HD
ENDBRANCH   2  22
BRANCH   6  24
ATOM     24  O   UNL     1      -6.291  59.954 -17.348  1.00  0.00    -0.507 OA
ATOM     25  H   UNL     1      -6.834  59.551 -16.600  1.00  0.00     0.293 HD
ENDBRANCH   6  24
BRANCH   8  26
ATOM     26  O   UNL     1      -2.908  62.610 -19.446  1.00  0.00    -0.508 OA
ATOM     27  H   UNL     1      -2.897  63.601 -19.655  1.00  0.00     0.293 HD
ENDBRANCH   8  26
TORSDOF 6
ENDMDL
MODEL 4
REMARK VINA RESULT:    -7.722      1.698      2.410
REMARK INTER + INTRA:          -9.662
REMARK INTER:                  -9.264
REMARK INTRA:                  -0.397
REMARK UNBOUND:                -0.360
REMARK SMILES O=c1c(O)c(-c2ccc(O)cc2O)oc2cc(O)cc(O)c12
REMARK SMILES IDX 5 1 3 2 2 3 1 4 22 5 20 6 19 7 17 8 16 9 15 10 14 11 6 12
REMARK SMILES IDX 8 13 7 14 9 15 11 16 12 17 10 18 13 20 4 22 21 24 18 26
REMARK H PARENT 10 19 13 21 4 23 21 25 18 27
REMARK Flexibility Score: inf
ROOT
ATOM      1  C   UNL     1      -3.063  68.178 -21.248  1.00  0.00     0.184 A 
ATOM      2  C   UNL     1      -3.858  68.107 -20.093  1.00  0.00     0.208 A 
ATOM      3  C   UNL     1      -5.255  68.122 -20.227  1.00  0.00     0.238 A 
ATOM      4  O   UNL     1      -5.963  68.112 -19.185  1.00  0.00    -0.285 OA
ATOM      5  C   UNL     1      -5.838  68.192 -21.515  1.00  0.00     0.111 A 
ATOM      6  C   UNL     1      -7.242  68.173 -21.772  1.00  0.00     0.134 A 
ATOM      7  C   UNL     1      -7.708  68.378 -23.077  1.00  0.00     0.093 A 
ATOM      8  C   UNL     1      -6.823  68.535 -24.142  1.00  0.00     0.123 A 
ATOM      9  C   UNL     1      -5.447  68.496 -23.912  1.00  0.00     0.094 A 
ATOM     10  C   UNL     1      -4.951  68.330 -22.616  1.00  0.00     0.146 A 
ATOM     11  O   UNL     1      -3.636  68.309 -22.438  1.00  0.00    -0.451 OA
ENDROOT
BRANCH   1  12
ATOM     12  C   UNL     1      -1.587  68.150 -21.177  1.00  0.00     0.063 A 
ATOM     13  C   UNL     1       0.500  69.358 -20.871  1.00  0.00     0.047 A 
ATOM     14  C   UNL     1      -0.895  69.348 -20.937  1.00  0.00     0.020 A 
ATOM     15  C   UNL     1       1.223  68.176 -21.057  1.00  0.00     0.119 A 
ATOM     16  C   UNL     1       0.542  66.980 -21.321  1.00  0.00     0.093 A 
ATOM     17  C   UNL     1      -0.859  66.962 -21.395  1.00  0.00     0.130 A 
BRANCH  15  18
ATOM     18  O   UNL     1       2.613  68.202 -20.984  1.00  0.00    -0.508 OA
ATOM     19  H   UNL     1       3.094  68.571 -20.173  1.00  0.00     0.293 HD
ENDBRANCH  15  18
BRANCH  17  20
ATOM     20  O   UNL     1      -1.521  65.775 -21.708  1.00  0.00    -0.507 OA
ATOM     21  H   UNL     1      -1.896  65.603 -22.633  1.00  0.00     0.293 HD
ENDBRANCH  17  20
ENDBRANCH   1  12
BRANCH   2  22
ATOM     22  O   UNL     1      -3.257  68.057 -18.832  1.00  0.00    -0.502 OA
ATOM     23  H   UNL     1      -2.252  68.085 -18.707  1.00  0.00     0.293 HD
ENDBRANCH   2  22
BRANCH   6  24
ATOM     24  O   UNL     1      -8.211  67.931 -20.794  1.00  0.00    -0.507 OA
ATOM     25  H   UNL     1      -8.745  67.080 -20.712  1.00  0.00     0.293 HD
ENDBRANCH   6  24
BRANCH   8  26
ATOM     26  O   UNL     1      -7.322  68.722 -25.429  1.00  0.00    -0.508 OA
ATOM     27  H   UNL     1      -6.882  68.296 -26.236  1.00  0.00     0.293 HD
ENDBRANCH   8  26
TORSDOF 6
ENDMDL
MODEL 5
REMARK VINA RESULT:    -7.594      3.658      6.445
REMARK INTER + INTRA:          -9.507
REMARK INTER:                  -9.211
REMARK INTRA:                  -0.296
REMARK UNBOUND:                -0.360
REMARK SMILES O=c1c(O)c(-c2ccc(O)cc2O)oc2cc(O)cc(O)c12
REMARK SMILES IDX 5 1 3 2 2 3 1 4 22 5 20 6 19 7 17 8 16 9 15 10 14 11 6 12
REMARK SMILES IDX 8 13 7 14 9 15 11 16 12 17 10 18 13 20 4 22 21 24 18 26
REMARK H PARENT 10 19 13 21 4 23 21 25 18 27
REMARK Flexibility Score: inf
ROOT
ATOM      1  C   UNL     1      -3.813  68.039 -23.680  1.00  0.00     0.184 A 
ATOM      2  C   UNL     1      -4.702  67.750 -22.634  1.00  0.00     0.208 A 
ATOM      3  C   UNL     1      -4.275  67.930 -21.309  1.00  0.00     0.238 A 
ATOM      4  O   UNL     1      -5.058  67.619 -20.373  1.00  0.00    -0.285 OA
ATOM      5  C   UNL     1      -2.969  68.411 -21.050  1.00  0.00     0.111 A 
ATOM      6  C   UNL     1      -2.443  68.669 -19.748  1.00  0.00     0.134 A 
ATOM      7  C   UNL     1      -1.094  69.020 -19.605  1.00  0.00     0.093 A 
ATOM      8  C   UNL     1      -0.271  69.186 -20.717  1.00  0.00     0.123 A 
ATOM      9  C   UNL     1      -0.789  68.994 -21.998  1.00  0.00     0.094 A 
ATOM     10  C   UNL     1      -2.121  68.608 -22.172  1.00  0.00     0.146 A 
ATOM     11  O   UNL     1      -2.573  68.426 -23.407  1.00  0.00    -0.451 OA
ENDROOT
BRANCH   1  12
ATOM     12  C   UNL     1      -4.206  67.887 -25.097  1.00  0.00     0.063 A 
ATOM     13  C   UNL     1      -5.739  68.444 -26.899  1.00  0.00     0.047 A 
ATOM     14  C   UNL     1      -5.337  68.571 -25.567  1.00  0.00     0.020 A 
ATOM     15  C   UNL     1      -5.025  67.621 -27.774  1.00  0.00     0.119 A 
ATOM     16  C   UNL     1      -3.909  66.915 -27.308  1.00  0.00     0.093 A 
ATOM     17  C   UNL     1      -3.501  67.033 -25.971  1.00  0.00     0.130 A 
BRANCH  15  18
ATOM     18  O   UNL     1      -5.437  67.507 -29.100  1.00  0.00    -0.508 OA
ATOM     19  H   UNL     1      -5.756  66.624 -29.481  1.00  0.00     0.293 HD
ENDBRANCH  15  18
BRANCH  17  20
ATOM     20  O   UNL     1      -2.418  66.286 -25.508  1.00  0.00    -0.507 OA
ATOM     21  H   UNL     1      -1.897  66.560 -24.683  1.00  0.00     0.293 HD
ENDBRANCH  17  20
ENDBRANCH   1  12
BRANCH   2  22
ATOM     22  O   UNL     1      -5.980  67.259 -22.916  1.00  0.00    -0.502 OA
ATOM     23  H   UNL     1      -6.768  67.869 -23.097  1.00  0.00     0.293 HD
ENDBRANCH   2  22
BRANCH   6  24
ATOM     24  O   UNL     1      -3.203  68.622 -18.576  1.00  0.00    -0.507 OA
ATOM     25  H   UNL     1      -3.738  67.823 -18.270  1.00  0.00     0.293 HD
ENDBRANCH   6  24
BRANCH   8  26
ATOM     26  O   UNL     1       1.061  69.550 -20.538  1.00  0.00    -0.508 OA
ATOM     27  H   UNL     1       1.429  69.785 -19.624  1.00  0.00     0.293 HD
ENDBRANCH   8  26
TORSDOF 6
ENDMDL
MODEL 6
REMARK VINA RESULT:    -7.579      3.199      5.245
REMARK INTER + INTRA:          -9.489
REMARK INTER:                  -9.226
REMARK INTRA:                  -0.263
REMARK UNBOUND:                -0.360
REMARK SMILES O=c1c(O)c(-c2ccc(O)cc2O)oc2cc(O)cc(O)c12
REMARK SMILES IDX 5 1 3 2 2 3 1 4 22 5 20 6 19 7 17 8 16 9 15 10 14 11 6 12
REMARK SMILES IDX 8 13 7 14 9 15 11 16 12 17 10 18 13 20 4 22 21 24 18 26
REMARK H PARENT 10 19 13 21 4 23 21 25 18 27
REMARK Flexibility Score: inf
ROOT
ATOM      1  C   UNL     1      -4.990  65.603 -21.369  1.00  0.00     0.184 A 
ATOM      2  C   UNL     1      -6.364  65.891 -21.403  1.00  0.00     0.208 A 
ATOM      3  C   UNL     1      -6.830  66.871 -22.293  1.00  0.00     0.238 A 
ATOM      4  O   UNL     1      -8.055  67.163 -22.283  1.00  0.00    -0.285 OA
ATOM      5  C   UNL     1      -5.919  67.538 -23.147  1.00  0.00     0.111 A 
ATOM      6  C   UNL     1      -6.286  68.520 -24.117  1.00  0.00     0.134 A 
ATOM      7  C   UNL     1      -5.286  69.207 -24.816  1.00  0.00     0.093 A 
ATOM      8  C   UNL     1      -3.938  68.905 -24.630  1.00  0.00     0.123 A 
ATOM      9  C   UNL     1      -3.570  67.905 -23.728  1.00  0.00     0.094 A 
ATOM     10  C   UNL     1      -4.543  67.227 -22.988  1.00  0.00     0.146 A 
ATOM     11  O   UNL     1      -4.150  66.290 -22.133  1.00  0.00    -0.451 OA
ENDROOT
BRANCH   1  12
ATOM     12  C   UNL     1      -4.436  64.572 -20.466  1.00  0.00     0.063 A 
ATOM     13  C   UNL     1      -2.956  64.002 -18.625  1.00  0.00     0.047 A 
ATOM     14  C   UNL     1      -3.504  64.952 -19.489  1.00  0.00     0.020 A 
ATOM     15  C   UNL     1      -3.321  62.657 -18.734  1.00  0.00     0.119 A 
ATOM     16  C   UNL     1      -4.233  62.264 -19.722  1.00  0.00     0.093 A 
ATOM     17  C   UNL     1      -4.784  63.211 -20.598  1.00  0.00     0.130 A 
BRANCH  15  18
ATOM     18  O   UNL     1      -2.769  61.722 -17.863  1.00  0.00    -0.508 OA
ATOM     19  H   UNL     1      -2.854  60.726 -18.032  1.00  0.00     0.293 HD
ENDBRANCH  15  18
BRANCH  17  20
ATOM     20  O   UNL     1      -5.653  62.799 -21.608  1.00  0.00    -0.507 OA
ATOM     21  H   UNL     1      -6.093  63.462 -22.234  1.00  0.00     0.293 HD
ENDBRANCH  17  20
ENDBRANCH   1  12
BRANCH   2  22
ATOM     22  O   UNL     1      -7.239  65.231 -20.537  1.00  0.00    -0.502 OA
ATOM     23  H   UNL     1      -7.000  65.025 -19.575  1.00  0.00     0.293 HD
ENDBRANCH   2  22
BRANCH   6  24
ATOM     24  O   UNL     1      -7.607  68.834 -24.447  1.00  0.00    -0.507 OA
ATOM     25  H   UNL     1      -8.208  68.263 -25.021  1.00  0.00     0.293 HD
ENDBRANCH   6  24
BRANCH   8  26
ATOM     26  O   UNL     1      -2.971  69.598 -25.353  1.00  0.00    -0.508 OA
ATOM     27  H   UNL     1      -2.918  69.536 -26.363  1.00  0.00     0.293 HD
ENDBRANCH   8  26
TORSDOF 6
ENDMDL
MODEL 7
REMARK VINA RESULT:    -7.478      3.060      5.161
REMARK INTER + INTRA:          -9.368
REMARK INTER:                  -9.121
REMARK INTRA:                  -0.246
REMARK UNBOUND:                -0.360
REMARK SMILES O=c1c(O)c(-c2ccc(O)cc2O)oc2cc(O)cc(O)c12
REMARK SMILES IDX 5 1 3 2 2 3 1 4 22 5 20 6 19 7 17 8 16 9 15 10 14 11 6 12
REMARK SMILES IDX 8 13 7 14 9 15 11 16 12 17 10 18 13 20 4 22 21 24 18 26
REMARK H PARENT 10 19 13 21 4 23 21 25 18 27
REMARK Flexibility Score: inf
ROOT
ATOM      1  C   UNL     1      -5.236  65.522 -21.344  1.00  0.00     0.184 A 
ATOM      2  C   UNL     1      -6.590  65.891 -21.377  1.00  0.00     0.208 A 
ATOM      3  C   UNL     1      -6.997  66.904 -22.259  1.00  0.00     0.238 A 
ATOM      4  O   UNL     1      -8.203  67.268 -22.246  1.00  0.00    -0.285 OA
ATOM      5  C   UNL     1      -6.048  67.522 -23.107  1.00  0.00     0.111 A 
ATOM      6  C   UNL     1      -6.355  68.531 -24.069  1.00  0.00     0.134 A 
ATOM      7  C   UNL     1      -5.316  69.164 -24.763  1.00  0.00     0.093 A 
ATOM      8  C   UNL     1      -3.989  68.781 -24.579  1.00  0.00     0.123 A 
ATOM      9  C   UNL     1      -3.681  67.754 -23.685  1.00  0.00     0.094 A 
ATOM     10  C   UNL     1      -4.692  67.129 -22.951  1.00  0.00     0.146 A 
ATOM     11  O   UNL     1      -4.356  66.164 -22.103  1.00  0.00    -0.451 OA
ENDROOT
BRANCH   1  12
ATOM     12  C   UNL     1      -4.744  64.452 -20.450  1.00  0.00     0.063 A 
ATOM     13  C   UNL     1      -4.938  62.168 -19.643  1.00  0.00     0.047 A 
ATOM     14  C   UNL     1      -5.373  63.198 -20.479  1.00  0.00     0.020 A 
ATOM     15  C   UNL     1      -3.878  62.381 -18.757  1.00  0.00     0.119 A 
ATOM     16  C   UNL     1      -3.259  63.637 -18.703  1.00  0.00     0.093 A 
ATOM     17  C   UNL     1      -3.694  64.679 -19.536  1.00  0.00     0.130 A 
BRANCH  15  18
ATOM     18  O   UNL     1      -3.452  61.343 -17.932  1.00  0.00    -0.508 OA
ATOM     19  H   UNL     1      -3.960  61.094 -17.090  1.00  0.00     0.293 HD
ENDBRANCH  15  18
BRANCH  17  20
ATOM     20  O   UNL     1      -3.102  65.938 -19.437  1.00  0.00    -0.507 OA
ATOM     21  H   UNL     1      -2.196  66.067 -19.003  1.00  0.00     0.293 HD
ENDBRANCH  17  20
ENDBRANCH   1  12
BRANCH   2  22
ATOM     22  O   UNL     1      -7.503  65.277 -20.516  1.00  0.00    -0.502 OA
ATOM     23  H   UNL     1      -7.240  64.930 -19.601  1.00  0.00     0.293 HD
ENDBRANCH   2  22
BRANCH   6  24
ATOM     24  O   UNL     1      -7.656  68.926 -24.397  1.00  0.00    -0.507 OA
ATOM     25  H   UNL     1      -8.049  68.896 -25.325  1.00  0.00     0.293 HD
ENDBRANCH   6  24
BRANCH   8  26
ATOM     26  O   UNL     1      -2.982  69.421 -25.298  1.00  0.00    -0.508 OA
ATOM     27  H   UNL     1      -2.918  70.432 -25.335  1.00  0.00     0.293 HD
ENDBRANCH   8  26
TORSDOF 6
ENDMDL
MODEL 8
REMARK VINA RESULT:    -7.410      2.896      5.520
REMARK INTER + INTRA:          -9.285
REMARK INTER:                  -9.044
REMARK INTRA:                  -0.241
REMARK UNBOUND:                -0.360
REMARK SMILES O=c1c(O)c(-c2ccc(O)cc2O)oc2cc(O)cc(O)c12
REMARK SMILES IDX 5 1 3 2 2 3 1 4 22 5 20 6 19 7 17 8 16 9 15 10 14 11 6 12
REMARK SMILES IDX 8 13 7 14 9 15 11 16 12 17 10 18 13 20 4 22 21 24 18 26
REMARK H PARENT 10 19 13 21 4 23 21 25 18 27
REMARK Flexibility Score: inf
ROOT
ATOM      1  C   UNL     1      -3.971  65.152 -20.954  1.00  0.00     0.184 A 
ATOM      2  C   UNL     1      -2.722  65.661 -21.345  1.00  0.00     0.208 A 
ATOM      3  C   UNL     1      -2.680  66.774 -22.200  1.00  0.00     0.238 A 
ATOM      4  O   UNL     1      -1.558  67.194 -22.591  1.00  0.00    -0.285 OA
ATOM      5  C   UNL     1      -3.886  67.371 -22.639  1.00  0.00     0.111 A 
ATOM      6  C   UNL     1      -3.962  68.527 -23.473  1.00  0.00     0.134 A 
ATOM      7  C   UNL     1      -5.208  68.954 -23.951  1.00  0.00     0.093 A 
ATOM      8  C   UNL     1      -6.384  68.309 -23.572  1.00  0.00     0.123 A 
ATOM      9  C   UNL     1      -6.327  67.214 -22.708  1.00  0.00     0.094 A 
ATOM     10  C   UNL     1      -5.096  66.742 -22.244  1.00  0.00     0.146 A 
ATOM     11  O   UNL     1      -5.085  65.691 -21.433  1.00  0.00    -0.451 OA
ENDROOT
BRANCH   1  12
ATOM     12  C   UNL     1      -4.085  63.994 -20.044  1.00  0.00     0.063 A 
ATOM     13  C   UNL     1      -3.478  62.936 -17.940  1.00  0.00     0.047 A 
ATOM     14  C   UNL     1      -3.396  64.018 -18.821  1.00  0.00     0.020 A 
ATOM     15  C   UNL     1      -4.238  61.812 -18.275  1.00  0.00     0.119 A 
ATOM     16  C   UNL     1      -4.909  61.768 -19.504  1.00  0.00     0.093 A 
ATOM     17  C   UNL     1      -4.828  62.847 -20.397  1.00  0.00     0.130 A 
BRANCH  15  18
ATOM     18  O   UNL     1      -4.312  60.743 -17.386  1.00  0.00    -0.508 OA
ATOM     19  H   UNL     1      -5.204  60.374 -17.074  1.00  0.00     0.293 HD
ENDBRANCH  15  18
BRANCH  17  20
ATOM     20  O   UNL     1      -5.461  62.771 -21.637  1.00  0.00    -0.507 OA
ATOM     21  H   UNL     1      -5.956  63.562 -22.031  1.00  0.00     0.293 HD
ENDBRANCH  17  20
ENDBRANCH   1  12
BRANCH   2  22
ATOM     22  O   UNL     1      -1.547  65.041 -20.913  1.00  0.00    -0.502 OA
ATOM     23  H   UNL     1      -0.878  64.636 -21.556  1.00  0.00     0.293 HD
ENDBRANCH   2  22
BRANCH   6  24
ATOM     24  O   UNL     1      -2.856  69.300 -23.838  1.00  0.00    -0.507 OA
ATOM     25  H   UNL     1      -2.734  69.743 -24.735  1.00  0.00     0.293 HD
ENDBRANCH   6  24
BRANCH   8  26
ATOM     26  O   UNL     1      -7.606  68.770 -24.053  1.00  0.00    -0.508 OA
ATOM     27  H   UNL     1      -7.732  69.022 -25.026  1.00  0.00     0.293 HD
ENDBRANCH   8  26
TORSDOF 6
ENDMDL
