MODEL 1
REMARK VINA RESULT:    -4.373      0.000      0.000
REMARK INTER + INTRA:          -6.171
REMARK INTER:                  -5.396
REMARK INTRA:                  -0.775
REMARK UNBOUND:                -0.775
REMARK SMILES C=CC(=C)CCC=C(C)C
REMARK SMILES IDX 5 1 6 2 7 3 9 4 8 5 10 6 3 7 4 8 2 9 1 10
REMARK H PARENT
REMARK Flexibility Score: inf
ROOT
ATOM      1  C   UNL     1     -47.747 -51.075  16.589  1.00  0.00     0.039 C 
ENDROOT
BRANCH   1   2
ATOM      2  C   UNL     1     -48.034 -50.714  18.051  1.00  0.00     0.032 C 
BRANCH   2   3
ATOM      3  C   UNL     1     -49.510 -50.798  18.356  1.00  0.00    -0.028 C 
ATOM      4  C   UNL     1     -49.574 -48.428  19.139  1.00  0.00     0.039 C 
ATOM      5  C   UNL     1     -50.220 -49.762  18.852  1.00  0.00    -0.080 C 
ATOM      6  C   UNL     1     -51.689 -49.954  19.120  1.00  0.00     0.039 C 
ENDBRANCH   2   3
ENDBRANCH   1   2
BRANCH   1   7
ATOM      7  C   UNL     1     -48.209 -49.974  15.661  1.00  0.00    -0.055 C 
ATOM      8  C   UNL     1     -47.631 -48.770  15.741  1.00  0.00     0.012 C 
BRANCH   7   9
ATOM      9  C   UNL     1     -49.255 -50.194  14.628  1.00  0.00    -0.005 C 
ATOM     10  C   UNL     1     -50.210 -51.120  14.720  1.00  0.00     0.009 C 
ENDBRANCH   7   9
ENDBRANCH   1   7
TORSDOF 4
ENDMDL
MODEL 2
REMARK VINA RESULT:    -4.278      1.624      3.086
REMARK INTER + INTRA:          -6.053
REMARK INTER:                  -5.407
REMARK INTRA:                  -0.646
REMARK UNBOUND:                -0.775
REMARK SMILES C=CC(=C)CCC=C(C)C
REMARK SMILES IDX 5 1 6 2 7 3 9 4 8 5 10 6 3 7 4 8 2 9 1 10
REMARK H PARENT
REMARK Flexibility Score: inf
ROOT
ATOM      1  C   UNL     1     -48.604 -50.613  18.128  1.00  0.00     0.039 C 
ENDROOT
BRANCH   1   2
ATOM      2  C   UNL     1     -47.403 -49.662  18.197  1.00  0.00     0.032 C 
BRANCH   2   3
ATOM      3  C   UNL     1     -47.836 -48.222  18.059  1.00  0.00    -0.028 C 
ATOM      4  C   UNL     1     -47.069 -48.125  15.685  1.00  0.00     0.039 C 
ATOM      5  C   UNL     1     -47.689 -47.515  16.919  1.00  0.00    -0.080 C 
ATOM      6  C   UNL     1     -48.156 -46.083  16.890  1.00  0.00     0.039 C 
ENDBRANCH   2   3
ENDBRANCH   1   2
BRANCH   1   7
ATOM      7  C   UNL     1     -48.827 -51.097  16.713  1.00  0.00    -0.055 C 
ATOM      8  C   UNL     1     -47.837 -51.737  16.080  1.00  0.00     0.012 C 
BRANCH   7   9
ATOM      9  C   UNL     1     -50.127 -50.929  16.013  1.00  0.00    -0.005 C 
ATOM     10  C   UNL     1     -50.295 -51.100  14.701  1.00  0.00     0.009 C 
ENDBRANCH   7   9
ENDBRANCH   1   7
TORSDOF 4
ENDMDL
MODEL 3
REMARK VINA RESULT:    -4.264      0.822      2.135
REMARK INTER + INTRA:          -6.036
REMARK INTER:                  -5.222
REMARK INTRA:                  -0.814
REMARK UNBOUND:                -0.775
REMARK SMILES C=CC(=C)CCC=C(C)C
REMARK SMILES IDX 5 1 6 2 7 3 9 4 8 5 10 6 3 7 4 8 2 9 1 10
REMARK H PARENT
REMARK Flexibility Score: inf
ROOT
ATOM      1  C   UNL     1     -47.732 -51.340  16.874  1.00  0.00     0.039 C 
ENDROOT
BRANCH   1   2
ATOM      2  C   UNL     1     -48.633 -51.593  18.088  1.00  0.00     0.032 C 
BRANCH   2   3
ATOM      3  C   UNL     1     -48.834 -50.332  18.893  1.00  0.00    -0.028 C 
ATOM      4  C   UNL     1     -51.296 -50.351  18.472  1.00  0.00     0.039 C 
ATOM      5  C   UNL     1     -50.044 -49.759  19.073  1.00  0.00    -0.080 C 
ATOM      6  C   UNL     1     -50.133 -48.500  19.895  1.00  0.00     0.039 C 
ENDBRANCH   2   3
ENDBRANCH   1   2
BRANCH   1   7
ATOM      7  C   UNL     1     -48.465 -50.542  15.818  1.00  0.00    -0.055 C 
ATOM      8  C   UNL     1     -49.566 -51.057  15.260  1.00  0.00     0.012 C 
BRANCH   7   9
ATOM      9  C   UNL     1     -48.030 -49.180  15.409  1.00  0.00    -0.005 C 
ATOM     10  C   UNL     1     -47.250 -48.393  16.150  1.00  0.00     0.009 C 
ENDBRANCH   7   9
ENDBRANCH   1   7
TORSDOF 4
ENDMDL
MODEL 4
REMARK VINA RESULT:    -4.198     13.993     16.013
REMARK INTER + INTRA:          -5.954
REMARK INTER:                  -5.138
REMARK INTRA:                  -0.816
REMARK UNBOUND:                -0.775
REMARK SMILES C=CC(=C)CCC=C(C)C
REMARK SMILES IDX 5 1 6 2 7 3 9 4 8 5 10 6 3 7 4 8 2 9 1 10
REMARK H PARENT
REMARK Flexibility Score: inf
ROOT
ATOM      1  C   UNL     1     -46.219 -52.025  32.290  1.00  0.00     0.039 C 
ENDROOT
BRANCH   1   2
ATOM      2  C   UNL     1     -45.226 -52.020  31.121  1.00  0.00     0.032 C 
BRANCH   2   3
ATOM      3  C   UNL     1     -45.140 -50.655  30.483  1.00  0.00    -0.028 C 
ATOM      4  C   UNL     1     -42.707 -50.464  31.013  1.00  0.00     0.039 C 
ATOM      5  C   UNL     1     -43.996 -49.939  30.429  1.00  0.00    -0.080 C 
ATOM      6  C   UNL     1     -44.020 -48.585  29.769  1.00  0.00     0.039 C 
ENDBRANCH   2   3
ENDBRANCH   1   2
BRANCH   1   7
ATOM      7  C   UNL     1     -45.636 -51.320  33.495  1.00  0.00    -0.055 C 
ATOM      8  C   UNL     1     -44.514 -51.796  34.048  1.00  0.00     0.012 C 
BRANCH   7   9
ATOM      9  C   UNL     1     -46.240 -50.085  34.061  1.00  0.00    -0.005 C 
ATOM     10  C   UNL     1     -46.970 -49.222  33.354  1.00  0.00     0.009 C 
ENDBRANCH   7   9
ENDBRANCH   1   7
TORSDOF 4
ENDMDL
MODEL 5
REMARK VINA RESULT:    -4.192      1.503      2.514
REMARK INTER + INTRA:          -5.948
REMARK INTER:                  -5.326
REMARK INTRA:                  -0.622
REMARK UNBOUND:                -0.775
REMARK SMILES C=CC(=C)CCC=C(C)C
REMARK SMILES IDX 5 1 6 2 7 3 9 4 8 5 10 6 3 7 4 8 2 9 1 10
REMARK H PARENT
REMARK Flexibility Score: inf
ROOT
ATOM      1  C   UNL     1     -47.772 -49.656  18.453  1.00  0.00     0.039 C 
ENDROOT
BRANCH   1   2
ATOM      2  C   UNL     1     -49.138 -49.044  18.781  1.00  0.00     0.032 C 
BRANCH   2   3
ATOM      3  C   UNL     1     -49.957 -49.968  19.650  1.00  0.00    -0.028 C 
ATOM      4  C   UNL     1     -51.509 -50.506  17.768  1.00  0.00     0.039 C 
ATOM      5  C   UNL     1     -51.038 -50.639  19.197  1.00  0.00    -0.080 C 
ATOM      6  C   UNL     1     -51.785 -51.536  20.149  1.00  0.00     0.039 C 
ENDBRANCH   2   3
ENDBRANCH   1   2
BRANCH   1   7
ATOM      7  C   UNL     1     -47.767 -50.246  17.060  1.00  0.00    -0.055 C 
ATOM      8  C   UNL     1     -47.926 -51.567  16.911  1.00  0.00     0.012 C 
BRANCH   7   9
ATOM      9  C   UNL     1     -47.638 -49.404  15.842  1.00  0.00    -0.005 C 
ATOM     10  C   UNL     1     -47.161 -48.158  15.845  1.00  0.00     0.009 C 
ENDBRANCH   7   9
ENDBRANCH   1   7
TORSDOF 4
ENDMDL
MODEL 6
REMARK VINA RESULT:    -4.187     14.070     15.553
REMARK INTER + INTRA:          -5.941
REMARK INTER:                  -5.126
REMARK INTRA:                  -0.816
REMARK UNBOUND:                -0.775
REMARK SMILES C=CC(=C)CCC=C(C)C
REMARK SMILES IDX 5 1 6 2 7 3 9 4 8 5 10 6 3 7 4 8 2 9 1 10
REMARK H PARENT
REMARK Flexibility Score: inf
ROOT
ATOM      1  C   UNL     1     -46.385 -49.730  31.119  1.00  0.00     0.039 C 
ENDROOT
BRANCH   1   2
ATOM      2  C   UNL     1     -44.971 -49.165  30.938  1.00  0.00     0.032 C 
BRANCH   2   3
ATOM      3  C   UNL     1     -44.145 -50.038  30.025  1.00  0.00    -0.028 C 
ATOM      4  C   UNL     1     -42.797 -50.913  31.936  1.00  0.00     0.039 C 
ATOM      5  C   UNL     1     -43.153 -50.838  30.471  1.00  0.00    -0.080 C 
ATOM      6  C   UNL     1     -42.390 -51.669  29.473  1.00  0.00     0.039 C 
ENDBRANCH   2   3
ENDBRANCH   1   2
BRANCH   1   7
ATOM      7  C   UNL     1     -46.577 -50.260  32.522  1.00  0.00    -0.055 C 
ATOM      8  C   UNL     1     -46.972 -49.422  33.487  1.00  0.00     0.012 C 
BRANCH   7   9
ATOM      9  C   UNL     1     -46.387 -51.696  32.860  1.00  0.00    -0.005 C 
ATOM     10  C   UNL     1     -46.094 -52.639  31.965  1.00  0.00     0.009 C 
ENDBRANCH   7   9
ENDBRANCH   1   7
TORSDOF 4
ENDMDL
MODEL 7
REMARK VINA RESULT:    -4.132      1.495      3.172
REMARK INTER + INTRA:          -5.873
REMARK INTER:                  -5.215
REMARK INTRA:                  -0.658
REMARK UNBOUND:                -0.775
REMARK SMILES C=CC(=C)CCC=C(C)C
REMARK SMILES IDX 5 1 6 2 7 3 9 4 8 5 10 6 3 7 4 8 2 9 1 10
REMARK H PARENT
REMARK Flexibility Score: inf
ROOT
ATOM      1  C   UNL     1     -48.099 -51.119  16.825  1.00  0.00     0.039 C 
ENDROOT
BRANCH   1   2
ATOM      2  C   UNL     1     -47.408 -50.035  17.660  1.00  0.00     0.032 C 
BRANCH   2   3
ATOM      3  C   UNL     1     -47.483 -48.689  16.980  1.00  0.00    -0.028 C 
ATOM      4  C   UNL     1     -48.498 -47.626  18.999  1.00  0.00     0.039 C 
ATOM      5  C   UNL     1     -47.978 -47.586  17.582  1.00  0.00    -0.080 C 
ATOM      6  C   UNL     1     -48.007 -46.293  16.811  1.00  0.00     0.039 C 
ENDBRANCH   2   3
ENDBRANCH   1   2
BRANCH   1   7
ATOM      7  C   UNL     1     -49.598 -50.918  16.816  1.00  0.00    -0.055 C 
ATOM      8  C   UNL     1     -50.267 -51.053  15.665  1.00  0.00     0.012 C 
BRANCH   7   9
ATOM      9  C   UNL     1     -50.366 -50.621  18.054  1.00  0.00    -0.005 C 
ATOM     10  C   UNL     1     -51.688 -50.451  18.089  1.00  0.00     0.009 C 
ENDBRANCH   7   9
ENDBRANCH   1   7
TORSDOF 4
ENDMDL
MODEL 8
REMARK VINA RESULT:    -4.131      0.976      1.581
REMARK INTER + INTRA:          -5.872
REMARK INTER:                  -5.293
REMARK INTRA:                  -0.579
REMARK UNBOUND:                -0.775
REMARK SMILES C=CC(=C)CCC=C(C)C
REMARK SMILES IDX 5 1 6 2 7 3 9 4 8 5 10 6 3 7 4 8 2 9 1 10
REMARK H PARENT
REMARK Flexibility Score: inf
ROOT
ATOM      1  C   UNL     1     -47.524 -49.350  17.978  1.00  0.00     0.039 C 
ENDROOT
BRANCH   1   2
ATOM      2  C   UNL     1     -48.417 -50.463  18.538  1.00  0.00     0.032 C 
BRANCH   2   3
ATOM      3  C   UNL     1     -49.432 -49.913  19.510  1.00  0.00    -0.028 C 
ATOM      4  C   UNL     1     -51.331 -50.520  18.006  1.00  0.00     0.039 C 
ATOM      5  C   UNL     1     -50.763 -49.935  19.276  1.00  0.00    -0.080 C 
ATOM      6  C   UNL     1     -51.689 -49.358  20.314  1.00  0.00     0.039 C 
ENDBRANCH   2   3
ENDBRANCH   1   2
BRANCH   1   7
ATOM      7  C   UNL     1     -47.570 -49.333  16.466  1.00  0.00    -0.055 C 
ATOM      8  C   UNL     1     -47.152 -48.242  15.814  1.00  0.00     0.012 C 
BRANCH   7   9
ATOM      9  C   UNL     1     -48.020 -50.507  15.673  1.00  0.00    -0.005 C 
ATOM     10  C   UNL     1     -49.056 -50.485  14.833  1.00  0.00     0.009 C 
ENDBRANCH   7   9
ENDBRANCH   1   7
TORSDOF 4
ENDMDL
MODEL 9
REMARK VINA RESULT:    -3.968      1.272      4.124
REMARK INTER + INTRA:          -5.671
REMARK INTER:                  -4.811
REMARK INTRA:                  -0.859
REMARK UNBOUND:                -0.775
REMARK SMILES C=CC(=C)CCC=C(C)C
REMARK SMILES IDX 5 1 6 2 7 3 9 4 8 5 10 6 3 7 4 8 2 9 1 10
REMARK H PARENT
REMARK Flexibility Score: inf
ROOT
ATOM      1  C   UNL     1     -48.448 -48.218  19.050  1.00  0.00     0.039 C 
ENDROOT
BRANCH   1   2
ATOM      2  C   UNL     1     -47.371 -49.072  18.370  1.00  0.00     0.032 C 
BRANCH   2   3
ATOM      3  C   UNL     1     -47.778 -49.450  16.967  1.00  0.00    -0.028 C 
ATOM      4  C   UNL     1     -48.055 -51.850  17.599  1.00  0.00     0.039 C 
ATOM      5  C   UNL     1     -48.091 -50.713  16.607  1.00  0.00    -0.080 C 
ATOM      6  C   UNL     1     -48.484 -50.981  15.177  1.00  0.00     0.039 C 
ENDBRANCH   2   3
ENDBRANCH   1   2
BRANCH   1   7
ATOM      7  C   UNL     1     -49.489 -49.092  19.714  1.00  0.00    -0.055 C 
ATOM      8  C   UNL     1     -49.235 -49.602  20.925  1.00  0.00     0.012 C 
BRANCH   7   9
ATOM      9  C   UNL     1     -50.808 -49.368  19.088  1.00  0.00    -0.005 C 
ATOM     10  C   UNL     1     -51.342 -50.586  18.982  1.00  0.00     0.009 C 
ENDBRANCH   7   9
ENDBRANCH   1   7
TORSDOF 4
ENDMDL
