MODEL 1
REMARK VINA RESULT:     7.140      0.000      0.000
REMARK INTER + INTRA:          20.246
REMARK INTER:                  18.828
REMARK INTRA:                   1.418
REMARK UNBOUND:                 1.418
REMARK SMILES CCCCCCCCCCCCCCCCCCCCCCCCCCCCCC(=O)[O-]
REMARK SMILES IDX 16 1 17 2 18 3 19 4 20 5 21 6 22 7 23 8 24 9 25 10 26 11
REMARK SMILES IDX 27 12 28 13 29 14 30 15 31 16 32 17 15 18 14 19 13 20 12 21
REMARK SMILES IDX 11 22 10 23 9 24 8 25 7 26 6 27 5 28 4 29 3 30 2 31 1 32
REMARK H PARENT
REMARK Flexibility Score: inf
ROOT
ATOM      1  C   UNL     1      36.478 104.637 266.279  1.00  0.00     0.000 C 
ENDROOT
BRANCH   1   2
ATOM      2  C   UNL     1      36.538 104.064 264.852  1.00  0.00     0.000 C 
BRANCH   2   3
ATOM      3  C   UNL     1      35.151 103.956 264.198  1.00  0.00     0.000 C 
BRANCH   3   4
ATOM      4  C   UNL     1      35.190 104.226 262.680  1.00  0.00     0.000 C 
BRANCH   4   5
ATOM      5  C   UNL     1      35.278 105.720 262.319  1.00  0.00     0.000 C 
BRANCH   5   6
ATOM      6  C   UNL     1      35.951 105.971 260.951  1.00  0.00     0.000 C 
BRANCH   6   7
ATOM      7  C   UNL     1      36.255 107.461 260.708  1.00  0.00     0.000 C 
BRANCH   7   8
ATOM      8  C   UNL     1      36.549 107.781 259.226  1.00  0.00     0.000 C 
BRANCH   8   9
ATOM      9  C   UNL     1      36.067 106.683 258.261  1.00  0.00     0.000 C 
BRANCH   9  10
ATOM     10  C   UNL     1      37.001 105.461 258.262  1.00  0.00     0.000 C 
BRANCH  10  11
ATOM     11  C   UNL     1      38.434 105.822 258.683  1.00  0.00     0.000 C 
BRANCH  11  12
ATOM     12  C   UNL     1      38.995 104.841 259.726  1.00  0.00     0.000 C 
BRANCH  12  13
ATOM     13  C   UNL     1      39.713 105.551 260.883  1.00  0.00     0.006 C 
BRANCH  13  14
ATOM     14  C   UNL     1      39.031 106.866 261.288  1.00  0.00     0.053 C 
BRANCH  14  15
ATOM     15  C   UNL     1      39.005 107.004 262.776  1.00  0.00     0.041 C 
ATOM     16  O   UNL     1      37.927 107.277 263.369  1.00  0.00    -0.550 OA
ATOM     17  O   UNL     1      40.178 106.864 263.509  1.00  0.00    -0.550 OA
ENDBRANCH  14  15
ENDBRANCH  13  14
ENDBRANCH  12  13
ENDBRANCH  11  12
ENDBRANCH  10  11
ENDBRANCH   9  10
ENDBRANCH   8   9
ENDBRANCH   7   8
ENDBRANCH   6   7
ENDBRANCH   5   6
ENDBRANCH   4   5
ENDBRANCH   3   4
ENDBRANCH   2   3
ENDBRANCH   1   2
BRANCH   1  18
ATOM     18  C   UNL     1      35.098 105.164 266.725  1.00  0.00     0.000 C 
BRANCH  18  19
ATOM     19  C   UNL     1      34.898 106.690 266.625  1.00  0.00     0.000 C 
BRANCH  19  20
ATOM     20  C   UNL     1      34.886 107.263 265.191  1.00  0.00     0.000 C 
BRANCH  20  21
ATOM     21  C   UNL     1      34.879 108.798 265.120  1.00  0.00     0.000 C 
BRANCH  21  22
ATOM     22  C   UNL     1      35.361 109.471 266.419  1.00  0.00     0.000 C 
BRANCH  22  23
ATOM     23  C   UNL     1      34.877 108.736 267.680  1.00  0.00     0.000 C 
BRANCH  23  24
ATOM     24  C   UNL     1      35.848 108.880 268.866  1.00  0.00    -0.000 C 
BRANCH  24  25
ATOM     25  C   UNL     1      35.348 108.125 270.111  1.00  0.00    -0.000 C 
BRANCH  25  26
ATOM     26  C   UNL     1      35.281 106.598 269.906  1.00  0.00    -0.000 C 
BRANCH  26  27
ATOM     27  C   UNL     1      36.621 105.908 270.233  1.00  0.00    -0.000 C 
BRANCH  27  28
ATOM     28  C   UNL     1      37.664 106.891 270.807  1.00  0.00    -0.000 C 
BRANCH  28  29
ATOM     29  C   UNL     1      38.400 106.364 272.053  1.00  0.00    -0.000 C 
BRANCH  29  30
ATOM     30  C   UNL     1      38.508 104.833 272.140  1.00  0.00    -0.000 C 
BRANCH  30  31
ATOM     31  C   UNL     1      39.028 104.350 273.501  1.00  0.00    -0.003 C 
ATOM     32  C   UNL     1      39.651 102.960 273.391  1.00  0.00     0.004 C 
ENDBRANCH  30  31
ENDBRANCH  29  30
ENDBRANCH  28  29
ENDBRANCH  27  28
ENDBRANCH  26  27
ENDBRANCH  25  26
ENDBRANCH  24  25
ENDBRANCH  23  24
ENDBRANCH  22  23
ENDBRANCH  21  22
ENDBRANCH  20  21
ENDBRANCH  19  20
ENDBRANCH  18  19
ENDBRANCH   1  18
TORSDOF 28
ENDMDL
MODEL 2
REMARK VINA RESULT:     9.704      1.695      3.344
REMARK INTER + INTRA:          27.007
REMARK INTER:                  25.455
REMARK INTRA:                   1.551
REMARK UNBOUND:                 1.418
REMARK SMILES CCCCCCCCCCCCCCCCCCCCCCCCCCCCCC(=O)[O-]
REMARK SMILES IDX 16 1 17 2 18 3 19 4 20 5 21 6 22 7 23 8 24 9 25 10 26 11
REMARK SMILES IDX 27 12 28 13 29 14 30 15 31 16 32 17 15 18 14 19 13 20 12 21
REMARK SMILES IDX 11 22 10 23 9 24 8 25 7 26 6 27 5 28 4 29 3 30 2 31 1 32
REMARK H PARENT
REMARK Flexibility Score: inf
ROOT
ATOM      1  C   UNL     1      35.453 107.245 266.519  1.00  0.00     0.000 C 
ENDROOT
BRANCH   1   2
ATOM      2  C   UNL     1      34.878 106.090 265.680  1.00  0.00     0.000 C 
BRANCH   2   3
ATOM      3  C   UNL     1      35.706 104.800 265.798  1.00  0.00     0.000 C 
BRANCH   3   4
ATOM      4  C   UNL     1      35.925 104.110 264.437  1.00  0.00     0.000 C 
BRANCH   4   5
ATOM      5  C   UNL     1      35.588 105.004 263.228  1.00  0.00     0.000 C 
BRANCH   5   6
ATOM      6  C   UNL     1      35.320 104.197 261.938  1.00  0.00     0.000 C 
BRANCH   6   7
ATOM      7  C   UNL     1      36.096 104.746 260.727  1.00  0.00     0.000 C 
BRANCH   7   8
ATOM      8  C   UNL     1      36.064 106.287 260.640  1.00  0.00     0.000 C 
BRANCH   8   9
ATOM      9  C   UNL     1      36.530 106.827 259.276  1.00  0.00     0.000 C 
BRANCH   9  10
ATOM     10  C   UNL     1      37.302 105.770 258.469  1.00  0.00     0.000 C 
BRANCH  10  11
ATOM     11  C   UNL     1      38.802 105.761 258.801  1.00  0.00     0.000 C 
BRANCH  11  12
ATOM     12  C   UNL     1      39.059 105.781 260.318  1.00  0.00     0.000 C 
BRANCH  12  13
ATOM     13  C   UNL     1      38.744 107.141 260.956  1.00  0.00     0.006 C 
BRANCH  13  14
ATOM     14  C   UNL     1      39.832 107.605 261.935  1.00  0.00     0.053 C 
BRANCH  14  15
ATOM     15  C   UNL     1      39.670 106.925 263.256  1.00  0.00     0.041 C 
ATOM     16  O   UNL     1      40.683 106.598 263.929  1.00  0.00    -0.550 OA
ATOM     17  O   UNL     1      38.400 106.620 263.731  1.00  0.00    -0.550 OA
ENDBRANCH  14  15
ENDBRANCH  13  14
ENDBRANCH  12  13
ENDBRANCH  11  12
ENDBRANCH  10  11
ENDBRANCH   9  10
ENDBRANCH   8   9
ENDBRANCH   7   8
ENDBRANCH   6   7
ENDBRANCH   5   6
ENDBRANCH   4   5
ENDBRANCH   3   4
ENDBRANCH   2   3
ENDBRANCH   1   2
BRANCH   1  18
ATOM     18  C   UNL     1      34.878 108.642 266.207  1.00  0.00     0.000 C 
BRANCH  18  19
ATOM     19  C   UNL     1      35.353 109.784 267.129  1.00  0.00     0.000 C 
BRANCH  19  20
ATOM     20  C   UNL     1      35.240 109.503 268.643  1.00  0.00     0.000 C 
BRANCH  20  21
ATOM     21  C   UNL     1      35.281 108.013 269.017  1.00  0.00     0.000 C 
BRANCH  21  22
ATOM     22  C   UNL     1      35.772 107.757 270.454  1.00  0.00     0.000 C 
BRANCH  22  23
ATOM     23  C   UNL     1      36.719 106.549 270.546  1.00  0.00     0.000 C 
BRANCH  23  24
ATOM     24  C   UNL     1      37.798 106.715 271.632  1.00  0.00    -0.000 C 
BRANCH  24  25
ATOM     25  C   UNL     1      38.670 105.455 271.773  1.00  0.00    -0.000 C 
BRANCH  25  26
ATOM     26  C   UNL     1      38.051 104.393 272.705  1.00  0.00    -0.000 C 
BRANCH  26  27
ATOM     27  C   UNL     1      39.083 103.817 273.697  1.00  0.00    -0.000 C 
BRANCH  27  28
ATOM     28  C   UNL     1      40.392 103.388 273.001  1.00  0.00    -0.000 C 
BRANCH  28  29
ATOM     29  C   UNL     1      41.644 104.125 273.513  1.00  0.00    -0.000 C 
BRANCH  29  30
ATOM     30  C   UNL     1      42.970 103.383 273.280  1.00  0.00    -0.000 C 
BRANCH  30  31
ATOM     31  C   UNL     1      44.096 103.876 274.199  1.00  0.00    -0.003 C 
ATOM     32  C   UNL     1      45.456 103.370 273.724  1.00  0.00     0.004 C 
ENDBRANCH  30  31
ENDBRANCH  29  30
ENDBRANCH  28  29
ENDBRANCH  27  28
ENDBRANCH  26  27
ENDBRANCH  25  26
ENDBRANCH  24  25
ENDBRANCH  23  24
ENDBRANCH  22  23
ENDBRANCH  21  22
ENDBRANCH  20  21
ENDBRANCH  19  20
ENDBRANCH  18  19
ENDBRANCH   1  18
TORSDOF 28
ENDMDL
MODEL 3
REMARK VINA RESULT:    10.067      1.088      2.591
REMARK INTER + INTRA:          27.965
REMARK INTER:                  27.377
REMARK INTRA:                   0.587
REMARK UNBOUND:                 1.418
REMARK SMILES CCCCCCCCCCCCCCCCCCCCCCCCCCCCCC(=O)[O-]
REMARK SMILES IDX 16 1 17 2 18 3 19 4 20 5 21 6 22 7 23 8 24 9 25 10 26 11
REMARK SMILES IDX 27 12 28 13 29 14 30 15 31 16 32 17 15 18 14 19 13 20 12 21
REMARK SMILES IDX 11 22 10 23 9 24 8 25 7 26 6 27 5 28 4 29 3 30 2 31 1 32
REMARK H PARENT
REMARK Flexibility Score: inf
ROOT
ATOM      1  C   UNL     1      35.551 105.608 267.406  1.00  0.00     0.000 C 
ENDROOT
BRANCH   1   2
ATOM      2  C   UNL     1      35.072 104.192 267.038  1.00  0.00     0.000 C 
BRANCH   2   3
ATOM      3  C   UNL     1      36.165 103.356 266.354  1.00  0.00     0.000 C 
BRANCH   3   4
ATOM      4  C   UNL     1      36.314 103.688 264.855  1.00  0.00     0.000 C 
BRANCH   4   5
ATOM      5  C   UNL     1      35.161 104.540 264.292  1.00  0.00     0.000 C 
BRANCH   5   6
ATOM      6  C   UNL     1      35.635 105.898 263.729  1.00  0.00     0.000 C 
BRANCH   6   7
ATOM      7  C   UNL     1      36.434 105.747 262.421  1.00  0.00     0.000 C 
BRANCH   7   8
ATOM      8  C   UNL     1      35.812 104.720 261.450  1.00  0.00     0.000 C 
BRANCH   8   9
ATOM      9  C   UNL     1      35.928 105.135 259.973  1.00  0.00     0.000 C 
BRANCH   9  10
ATOM     10  C   UNL     1      36.306 106.618 259.817  1.00  0.00     0.000 C 
BRANCH  10  11
ATOM     11  C   UNL     1      37.622 106.806 259.046  1.00  0.00     0.000 C 
BRANCH  11  12
ATOM     12  C   UNL     1      38.641 105.697 259.359  1.00  0.00     0.000 C 
BRANCH  12  13
ATOM     13  C   UNL     1      39.330 105.891 260.717  1.00  0.00     0.006 C 
BRANCH  13  14
ATOM     14  C   UNL     1      39.140 107.305 261.285  1.00  0.00     0.053 C 
BRANCH  14  15
ATOM     15  C   UNL     1      39.317 107.300 262.770  1.00  0.00     0.041 C 
ATOM     16  O   UNL     1      38.604 108.043 263.495  1.00  0.00    -0.550 OA
ATOM     17  O   UNL     1      40.293 106.499 263.351  1.00  0.00    -0.550 OA
ENDBRANCH  14  15
ENDBRANCH  13  14
ENDBRANCH  12  13
ENDBRANCH  11  12
ENDBRANCH  10  11
ENDBRANCH   9  10
ENDBRANCH   8   9
ENDBRANCH   7   8
ENDBRANCH   6   7
ENDBRANCH   5   6
ENDBRANCH   4   5
ENDBRANCH   3   4
ENDBRANCH   2   3
ENDBRANCH   1   2
BRANCH   1  18
ATOM     18  C   UNL     1      34.875 106.758 266.631  1.00  0.00     0.000 C 
BRANCH  18  19
ATOM     19  C   UNL     1      35.580 108.128 266.713  1.00  0.00     0.000 C 
BRANCH  19  20
ATOM     20  C   UNL     1      34.941 109.144 267.685  1.00  0.00     0.000 C 
BRANCH  20  21
ATOM     21  C   UNL     1      35.083 108.777 269.171  1.00  0.00     0.000 C 
BRANCH  21  22
ATOM     22  C   UNL     1      35.162 107.260 269.421  1.00  0.00     0.000 C 
BRANCH  22  23
ATOM     23  C   UNL     1      36.140 106.897 270.551  1.00  0.00     0.000 C 
BRANCH  23  24
ATOM     24  C   UNL     1      37.071 108.062 270.932  1.00  0.00    -0.000 C 
BRANCH  24  25
ATOM     25  C   UNL     1      38.554 107.649 270.886  1.00  0.00    -0.000 C 
BRANCH  25  26
ATOM     26  C   UNL     1      38.766 106.135 271.089  1.00  0.00    -0.000 C 
BRANCH  26  27
ATOM     27  C   UNL     1      38.642 105.723 272.570  1.00  0.00    -0.000 C 
BRANCH  27  28
ATOM     28  C   UNL     1      38.237 104.243 272.737  1.00  0.00    -0.000 C 
BRANCH  28  29
ATOM     29  C   UNL     1      38.688 103.618 274.070  1.00  0.00    -0.000 C 
BRANCH  29  30
ATOM     30  C   UNL     1      40.001 102.822 273.999  1.00  0.00    -0.000 C 
BRANCH  30  31
ATOM     31  C   UNL     1      40.885 103.238 272.814  1.00  0.00    -0.003 C 
ATOM     32  C   UNL     1      42.185 103.877 273.296  1.00  0.00     0.004 C 
ENDBRANCH  30  31
ENDBRANCH  29  30
ENDBRANCH  28  29
ENDBRANCH  27  28
ENDBRANCH  26  27
ENDBRANCH  25  26
ENDBRANCH  24  25
ENDBRANCH  23  24
ENDBRANCH  22  23
ENDBRANCH  21  22
ENDBRANCH  20  21
ENDBRANCH  19  20
ENDBRANCH  18  19
ENDBRANCH   1  18
TORSDOF 28
ENDMDL
