MODEL 1
REMARK VINA RESULT:    -5.740      0.000      0.000
REMARK INTER + INTRA:          -7.330
REMARK INTER:                  -6.914
REMARK INTRA:                  -0.416
REMARK UNBOUND:                -0.416
REMARK SMILES O=c1c(O)c(-c2ccc(O)cc2O)oc2cc(O)cc(O)c12
REMARK SMILES IDX 5 1 3 2 2 3 1 4 22 5 20 6 19 7 17 8 16 9 15 10 14 11 6 12
REMARK SMILES IDX 8 13 7 14 9 15 11 16 12 17 10 18 13 20 4 22 21 24 18 26
REMARK H PARENT 10 19 13 21 4 23 21 25 18 27
REMARK Flexibility Score: inf
ROOT
ATOM      1  C   UNL     1    -105.872  44.557  54.163  1.00  0.00     0.184 A 
ATOM      2  C   UNL     1    -106.917  43.654  54.411  1.00  0.00     0.208 A 
ATOM      3  C   UNL     1    -106.764  42.700  55.430  1.00  0.00     0.238 A 
ATOM      4  O   UNL     1    -107.682  41.859  55.610  1.00  0.00    -0.285 OA
ATOM      5  C   UNL     1    -105.575  42.675  56.197  1.00  0.00     0.111 A 
ATOM      6  C   UNL     1    -105.329  41.778  57.280  1.00  0.00     0.134 A 
ATOM      7  C   UNL     1    -104.066  41.755  57.885  1.00  0.00     0.093 A 
ATOM      8  C   UNL     1    -103.062  42.639  57.490  1.00  0.00     0.123 A 
ATOM      9  C   UNL     1    -103.312  43.561  56.472  1.00  0.00     0.094 A 
ATOM     10  C   UNL     1    -104.550  43.583  55.825  1.00  0.00     0.146 A 
ATOM     11  O   UNL     1    -104.742  44.468  54.854  1.00  0.00    -0.451 OA
ENDROOT
BRANCH   1  12
ATOM     12  C   UNL     1    -105.975  45.597  53.117  1.00  0.00     0.063 A 
ATOM     13  C   UNL     1    -106.812  47.772  52.425  1.00  0.00     0.047 A 
ATOM     14  C   UNL     1    -106.690  46.772  53.394  1.00  0.00     0.020 A 
ATOM     15  C   UNL     1    -106.232  47.602  51.162  1.00  0.00     0.119 A 
ATOM     16  C   UNL     1    -105.538  46.424  50.870  1.00  0.00     0.093 A 
ATOM     17  C   UNL     1    -105.417  45.413  51.835  1.00  0.00     0.130 A 
BRANCH  15  18
ATOM     18  O   UNL     1    -106.343  48.594  50.191  1.00  0.00    -0.508 OA
ATOM     19  H   UNL     1    -106.297  49.578  50.430  1.00  0.00     0.293 HD
ENDBRANCH  15  18
BRANCH  17  20
ATOM     20  O   UNL     1    -104.764  44.223  51.514  1.00  0.00    -0.507 OA
ATOM     21  H   UNL     1    -104.882  43.385  52.073  1.00  0.00     0.293 HD
ENDBRANCH  17  20
ENDBRANCH   1  12
BRANCH   2  22
ATOM     22  O   UNL     1    -108.072  43.690  53.625  1.00  0.00    -0.502 OA
ATOM     23  H   UNL     1    -108.712  44.475  53.636  1.00  0.00     0.293 HD
ENDBRANCH   2  22
BRANCH   6  24
ATOM     24  O   UNL     1    -106.291  40.916  57.814  1.00  0.00    -0.507 OA
ATOM     25  H   UNL     1    -107.280  41.112  57.854  1.00  0.00     0.293 HD
ENDBRANCH   6  24
BRANCH   8  26
ATOM     26  O   UNL     1    -101.823  42.599  58.124  1.00  0.00    -0.508 OA
ATOM     27  H   UNL     1    -101.019  43.092  57.750  1.00  0.00     0.293 HD
ENDBRANCH   8  26
TORSDOF 6
ENDMDL
MODEL 2
REMARK VINA RESULT:    -5.556      0.754      1.469
REMARK INTER + INTRA:          -7.109
REMARK INTER:                  -6.710
REMARK INTRA:                  -0.399
REMARK UNBOUND:                -0.416
REMARK SMILES O=c1c(O)c(-c2ccc(O)cc2O)oc2cc(O)cc(O)c12
REMARK SMILES IDX 5 1 3 2 2 3 1 4 22 5 20 6 19 7 17 8 16 9 15 10 14 11 6 12
REMARK SMILES IDX 8 13 7 14 9 15 11 16 12 17 10 18 13 20 4 22 21 24 18 26
REMARK H PARENT 10 19 13 21 4 23 21 25 18 27
REMARK Flexibility Score: inf
ROOT
ATOM      1  C   UNL     1    -105.918  44.527  54.114  1.00  0.00     0.184 A 
ATOM      2  C   UNL     1    -106.921  43.563  54.298  1.00  0.00     0.208 A 
ATOM      3  C   UNL     1    -106.747  42.582  55.287  1.00  0.00     0.238 A 
ATOM      4  O   UNL     1    -107.624  41.688  55.411  1.00  0.00    -0.285 OA
ATOM      5  C   UNL     1    -105.579  42.590  56.088  1.00  0.00     0.111 A 
ATOM      6  C   UNL     1    -105.317  41.667  57.146  1.00  0.00     0.134 A 
ATOM      7  C   UNL     1    -104.072  41.688  57.787  1.00  0.00     0.093 A 
ATOM      8  C   UNL     1    -103.105  42.636  57.452  1.00  0.00     0.123 A 
ATOM      9  C   UNL     1    -103.374  43.580  56.460  1.00  0.00     0.094 A 
ATOM     10  C   UNL     1    -104.593  43.563  55.779  1.00  0.00     0.146 A 
ATOM     11  O   UNL     1    -104.804  44.471  54.833  1.00  0.00    -0.451 OA
ENDROOT
BRANCH   1  12
ATOM     12  C   UNL     1    -106.046  45.597  53.101  1.00  0.00     0.063 A 
ATOM     13  C   UNL     1    -105.709  46.342  50.811  1.00  0.00     0.047 A 
ATOM     14  C   UNL     1    -105.608  45.350  51.791  1.00  0.00     0.020 A 
ATOM     15  C   UNL     1    -106.237  47.598  51.134  1.00  0.00     0.119 A 
ATOM     16  C   UNL     1    -106.654  47.860  52.442  1.00  0.00     0.093 A 
ATOM     17  C   UNL     1    -106.549  46.872  53.433  1.00  0.00     0.130 A 
BRANCH  15  18
ATOM     18  O   UNL     1    -106.346  48.592  50.164  1.00  0.00    -0.508 OA
ATOM     19  H   UNL     1    -105.726  49.393  50.155  1.00  0.00     0.293 HD
ENDBRANCH  15  18
BRANCH  17  20
ATOM     20  O   UNL     1    -106.924  47.163  54.745  1.00  0.00    -0.507 OA
ATOM     21  H   UNL     1    -106.317  46.953  55.530  1.00  0.00     0.293 HD
ENDBRANCH  17  20
ENDBRANCH   1  12
BRANCH   2  22
ATOM     22  O   UNL     1    -108.054  43.568  53.481  1.00  0.00    -0.502 OA
ATOM     23  H   UNL     1    -108.493  44.425  53.167  1.00  0.00     0.293 HD
ENDBRANCH   2  22
BRANCH   6  24
ATOM     24  O   UNL     1    -106.247  40.738  57.621  1.00  0.00    -0.507 OA
ATOM     25  H   UNL     1    -107.073  40.972  58.150  1.00  0.00     0.293 HD
ENDBRANCH   6  24
BRANCH   8  26
ATOM     26  O   UNL     1    -101.883  42.637  58.122  1.00  0.00    -0.508 OA
ATOM     27  H   UNL     1    -101.004  42.694  57.620  1.00  0.00     0.293 HD
ENDBRANCH   8  26
TORSDOF 6
ENDMDL
MODEL 3
REMARK VINA RESULT:    -5.110      2.904      4.812
REMARK INTER + INTRA:          -6.571
REMARK INTER:                  -6.175
REMARK INTRA:                  -0.396
REMARK UNBOUND:                -0.416
REMARK SMILES O=c1c(O)c(-c2ccc(O)cc2O)oc2cc(O)cc(O)c12
REMARK SMILES IDX 5 1 3 2 2 3 1 4 22 5 20 6 19 7 17 8 16 9 15 10 14 11 6 12
REMARK SMILES IDX 8 13 7 14 9 15 11 16 12 17 10 18 13 20 4 22 21 24 18 26
REMARK H PARENT 10 19 13 21 4 23 21 25 18 27
REMARK Flexibility Score: inf
ROOT
ATOM      1  C   UNL     1    -106.816  48.018  53.687  1.00  0.00     0.184 A 
ATOM      2  C   UNL     1    -106.332  47.544  52.459  1.00  0.00     0.208 A 
ATOM      3  C   UNL     1    -105.785  46.252  52.397  1.00  0.00     0.238 A 
ATOM      4  O   UNL     1    -105.303  45.853  51.305  1.00  0.00    -0.285 OA
ATOM      5  C   UNL     1    -105.745  45.449  53.562  1.00  0.00     0.111 A 
ATOM      6  C   UNL     1    -105.248  44.111  53.605  1.00  0.00     0.134 A 
ATOM      7  C   UNL     1    -105.137  43.456  54.838  1.00  0.00     0.093 A 
ATOM      8  C   UNL     1    -105.562  44.065  56.019  1.00  0.00     0.123 A 
ATOM      9  C   UNL     1    -106.104  45.351  55.979  1.00  0.00     0.094 A 
ATOM     10  C   UNL     1    -106.195  46.043  54.769  1.00  0.00     0.146 A 
ATOM     11  O   UNL     1    -106.706  47.269  54.777  1.00  0.00    -0.451 OA
ENDROOT
BRANCH   1  12
ATOM     12  C   UNL     1    -107.420  49.362  53.818  1.00  0.00     0.063 A 
ATOM     13  C   UNL     1    -109.412  50.755  53.797  1.00  0.00     0.047 A 
ATOM     14  C   UNL     1    -108.810  49.499  53.686  1.00  0.00     0.020 A 
ATOM     15  C   UNL     1    -108.629  51.892  54.029  1.00  0.00     0.119 A 
ATOM     16  C   UNL     1    -107.241  51.768  54.139  1.00  0.00     0.093 A 
ATOM     17  C   UNL     1    -106.628  50.511  54.021  1.00  0.00     0.130 A 
BRANCH  15  18
ATOM     18  O   UNL     1    -109.219  53.148  54.146  1.00  0.00    -0.508 OA
ATOM     19  H   UNL     1    -110.225  53.258  54.198  1.00  0.00     0.293 HD
ENDBRANCH  15  18
BRANCH  17  20
ATOM     20  O   UNL     1    -105.238  50.408  54.084  1.00  0.00    -0.507 OA
ATOM     21  H   UNL     1    -104.768  49.513  54.010  1.00  0.00     0.293 HD
ENDBRANCH  17  20
ENDBRANCH   1  12
BRANCH   2  22
ATOM     22  O   UNL     1    -106.368  48.366  51.329  1.00  0.00    -0.502 OA
ATOM     23  H   UNL     1    -105.845  48.155  50.488  1.00  0.00     0.293 HD
ENDBRANCH   2  22
BRANCH   6  24
ATOM     24  O   UNL     1    -104.882  43.376  52.474  1.00  0.00    -0.507 OA
ATOM     25  H   UNL     1    -104.920  43.722  51.527  1.00  0.00     0.293 HD
ENDBRANCH   6  24
BRANCH   8  26
ATOM     26  O   UNL     1    -105.450  43.377  57.225  1.00  0.00    -0.508 OA
ATOM     27  H   UNL     1    -106.201  42.791  57.573  1.00  0.00     0.293 HD
ENDBRANCH   8  26
TORSDOF 6
ENDMDL
MODEL 4
REMARK VINA RESULT:    -5.013      1.553      2.871
REMARK INTER + INTRA:          -6.454
REMARK INTER:                  -6.197
REMARK INTRA:                  -0.256
REMARK UNBOUND:                -0.416
REMARK SMILES O=c1c(O)c(-c2ccc(O)cc2O)oc2cc(O)cc(O)c12
REMARK SMILES IDX 5 1 3 2 2 3 1 4 22 5 20 6 19 7 17 8 16 9 15 10 14 11 6 12
REMARK SMILES IDX 8 13 7 14 9 15 11 16 12 17 10 18 13 20 4 22 21 24 18 26
REMARK H PARENT 10 19 13 21 4 23 21 25 18 27
REMARK Flexibility Score: inf
ROOT
ATOM      1  C   UNL     1    -106.043  44.507  54.149  1.00  0.00     0.184 A 
ATOM      2  C   UNL     1    -105.619  44.757  55.463  1.00  0.00     0.208 A 
ATOM      3  C   UNL     1    -105.628  43.705  56.393  1.00  0.00     0.238 A 
ATOM      4  O   UNL     1    -105.299  43.948  57.583  1.00  0.00    -0.285 OA
ATOM      5  C   UNL     1    -106.045  42.413  55.989  1.00  0.00     0.111 A 
ATOM      6  C   UNL     1    -106.057  41.265  56.836  1.00  0.00     0.134 A 
ATOM      7  C   UNL     1    -106.611  40.067  56.368  1.00  0.00     0.093 A 
ATOM      8  C   UNL     1    -107.095  39.958  55.065  1.00  0.00     0.123 A 
ATOM      9  C   UNL     1    -107.035  41.059  54.209  1.00  0.00     0.094 A 
ATOM     10  C   UNL     1    -106.520  42.277  54.658  1.00  0.00     0.146 A 
ATOM     11  O   UNL     1    -106.491  43.303  53.815  1.00  0.00    -0.451 OA
ENDROOT
BRANCH   1  12
ATOM     12  C   UNL     1    -106.042  45.566  53.118  1.00  0.00     0.063 A 
ATOM     13  C   UNL     1    -106.775  47.773  52.406  1.00  0.00     0.047 A 
ATOM     14  C   UNL     1    -106.749  46.754  53.361  1.00  0.00     0.020 A 
ATOM     15  C   UNL     1    -106.103  47.611  51.188  1.00  0.00     0.119 A 
ATOM     16  C   UNL     1    -105.416  46.422  50.927  1.00  0.00     0.093 A 
ATOM     17  C   UNL     1    -105.391  45.392  51.879  1.00  0.00     0.130 A 
BRANCH  15  18
ATOM     18  O   UNL     1    -106.118  48.621  50.229  1.00  0.00    -0.508 OA
ATOM     19  H   UNL     1    -105.273  49.113  49.965  1.00  0.00     0.293 HD
ENDBRANCH  15  18
BRANCH  17  20
ATOM     20  O   UNL     1    -104.742  44.192  51.586  1.00  0.00    -0.507 OA
ATOM     21  H   UNL     1    -105.025  43.612  50.804  1.00  0.00     0.293 HD
ENDBRANCH  17  20
ENDBRANCH   1  12
BRANCH   2  22
ATOM     22  O   UNL     1    -105.230  46.046  55.839  1.00  0.00    -0.502 OA
ATOM     23  H   UNL     1    -104.266  46.288  56.032  1.00  0.00     0.293 HD
ENDBRANCH   2  22
BRANCH   6  24
ATOM     24  O   UNL     1    -105.515  41.239  58.125  1.00  0.00    -0.507 OA
ATOM     25  H   UNL     1    -105.895  41.733  58.918  1.00  0.00     0.293 HD
ENDBRANCH   6  24
BRANCH   8  26
ATOM     26  O   UNL     1    -107.626  38.746  54.628  1.00  0.00    -0.508 OA
ATOM     27  H   UNL     1    -107.030  37.988  54.317  1.00  0.00     0.293 HD
ENDBRANCH   8  26
TORSDOF 6
ENDMDL
MODEL 5
REMARK VINA RESULT:    -4.960      1.653      6.760
REMARK INTER + INTRA:          -6.390
REMARK INTER:                  -5.971
REMARK INTRA:                  -0.419
REMARK UNBOUND:                -0.416
REMARK SMILES O=c1c(O)c(-c2ccc(O)cc2O)oc2cc(O)cc(O)c12
REMARK SMILES IDX 5 1 3 2 2 3 1 4 22 5 20 6 19 7 17 8 16 9 15 10 14 11 6 12
REMARK SMILES IDX 8 13 7 14 9 15 11 16 12 17 10 18 13 20 4 22 21 24 18 26
REMARK H PARENT 10 19 13 21 4 23 21 25 18 27
REMARK Flexibility Score: inf
ROOT
ATOM      1  C   UNL     1    -105.668  44.660  54.547  1.00  0.00     0.184 A 
ATOM      2  C   UNL     1    -105.398  44.552  53.174  1.00  0.00     0.208 A 
ATOM      3  C   UNL     1    -105.656  45.654  52.342  1.00  0.00     0.238 A 
ATOM      4  O   UNL     1    -105.464  45.533  51.105  1.00  0.00    -0.285 OA
ATOM      5  C   UNL     1    -106.165  46.852  52.900  1.00  0.00     0.111 A 
ATOM      6  C   UNL     1    -106.425  48.043  52.157  1.00  0.00     0.134 A 
ATOM      7  C   UNL     1    -107.049  49.127  52.787  1.00  0.00     0.093 A 
ATOM      8  C   UNL     1    -107.363  49.087  54.145  1.00  0.00     0.123 A 
ATOM      9  C   UNL     1    -107.059  47.949  54.894  1.00  0.00     0.094 A 
ATOM     10  C   UNL     1    -106.469  46.839  54.286  1.00  0.00     0.146 A 
ATOM     11  O   UNL     1    -106.207  45.772  55.032  1.00  0.00    -0.451 OA
ENDROOT
BRANCH   1  12
ATOM     12  C   UNL     1    -105.404  43.543  55.480  1.00  0.00     0.063 A 
ATOM     13  C   UNL     1    -106.091  41.402  56.405  1.00  0.00     0.047 A 
ATOM     14  C   UNL     1    -106.307  42.470  55.530  1.00  0.00     0.020 A 
ATOM     15  C   UNL     1    -104.976  41.401  57.251  1.00  0.00     0.119 A 
ATOM     16  C   UNL     1    -104.084  42.477  57.225  1.00  0.00     0.093 A 
ATOM     17  C   UNL     1    -104.298  43.556  56.354  1.00  0.00     0.130 A 
BRANCH  15  18
ATOM     18  O   UNL     1    -104.748  40.340  58.124  1.00  0.00    -0.508 OA
ATOM     19  H   UNL     1    -103.831  39.921  58.221  1.00  0.00     0.293 HD
ENDBRANCH  15  18
BRANCH  17  20
ATOM     20  O   UNL     1    -103.427  44.646  56.373  1.00  0.00    -0.507 OA
ATOM     21  H   UNL     1    -103.704  45.541  56.762  1.00  0.00     0.293 HD
ENDBRANCH  17  20
ENDBRANCH   1  12
BRANCH   2  22
ATOM     22  O   UNL     1    -104.915  43.351  52.649  1.00  0.00    -0.502 OA
ATOM     23  H   UNL     1    -104.796  42.519  53.215  1.00  0.00     0.293 HD
ENDBRANCH   2  22
BRANCH   6  24
ATOM     24  O   UNL     1    -106.068  48.222  50.817  1.00  0.00    -0.507 OA
ATOM     25  H   UNL     1    -106.151  47.516  50.101  1.00  0.00     0.293 HD
ENDBRANCH   6  24
BRANCH   8  26
ATOM     26  O   UNL     1    -107.970  50.190  54.743  1.00  0.00    -0.508 OA
ATOM     27  H   UNL     1    -108.911  50.475  54.497  1.00  0.00     0.293 HD
ENDBRANCH   8  26
TORSDOF 6
ENDMDL
MODEL 6
REMARK VINA RESULT:    -4.924      1.952      7.147
REMARK INTER + INTRA:          -6.347
REMARK INTER:                  -5.943
REMARK INTRA:                  -0.404
REMARK UNBOUND:                -0.416
REMARK SMILES O=c1c(O)c(-c2ccc(O)cc2O)oc2cc(O)cc(O)c12
REMARK SMILES IDX 5 1 3 2 2 3 1 4 22 5 20 6 19 7 17 8 16 9 15 10 14 11 6 12
REMARK SMILES IDX 8 13 7 14 9 15 11 16 12 17 10 18 13 20 4 22 21 24 18 26
REMARK H PARENT 10 19 13 21 4 23 21 25 18 27
REMARK Flexibility Score: inf
ROOT
ATOM      1  C   UNL     1    -106.816  44.232  53.635  1.00  0.00     0.184 A 
ATOM      2  C   UNL     1    -105.850  44.574  52.676  1.00  0.00     0.208 A 
ATOM      3  C   UNL     1    -106.097  45.659  51.820  1.00  0.00     0.238 A 
ATOM      4  O   UNL     1    -105.252  45.927  50.927  1.00  0.00    -0.285 OA
ATOM      5  C   UNL     1    -107.299  46.396  51.947  1.00  0.00     0.111 A 
ATOM      6  C   UNL     1    -107.635  47.539  51.159  1.00  0.00     0.134 A 
ATOM      7  C   UNL     1    -108.907  48.112  51.282  1.00  0.00     0.093 A 
ATOM      8  C   UNL     1    -109.830  47.625  52.207  1.00  0.00     0.123 A 
ATOM      9  C   UNL     1    -109.490  46.546  53.024  1.00  0.00     0.094 A 
ATOM     10  C   UNL     1    -108.242  45.930  52.899  1.00  0.00     0.146 A 
ATOM     11  O   UNL     1    -107.963  44.899  53.688  1.00  0.00    -0.451 OA
ENDROOT
BRANCH   1  12
ATOM     12  C   UNL     1    -106.612  43.111  54.577  1.00  0.00     0.063 A 
ATOM     13  C   UNL     1    -105.806  42.333  56.735  1.00  0.00     0.047 A 
ATOM     14  C   UNL     1    -106.019  43.369  55.823  1.00  0.00     0.020 A 
ATOM     15  C   UNL     1    -106.171  41.022  56.407  1.00  0.00     0.119 A 
ATOM     16  C   UNL     1    -106.741  40.751  55.159  1.00  0.00     0.093 A 
ATOM     17  C   UNL     1    -106.952  41.786  54.235  1.00  0.00     0.130 A 
BRANCH  15  18
ATOM     18  O   UNL     1    -105.967  39.981  57.310  1.00  0.00    -0.508 OA
ATOM     19  H   UNL     1    -106.232  39.028  57.088  1.00  0.00     0.293 HD
ENDBRANCH  15  18
BRANCH  17  20
ATOM     20  O   UNL     1    -107.476  41.496  52.975  1.00  0.00    -0.507 OA
ATOM     21  H   UNL     1    -107.734  42.229  52.325  1.00  0.00     0.293 HD
ENDBRANCH  17  20
ENDBRANCH   1  12
BRANCH   2  22
ATOM     22  O   UNL     1    -104.682  43.817  52.561  1.00  0.00    -0.502 OA
ATOM     23  H   UNL     1    -104.588  42.896  52.972  1.00  0.00     0.293 HD
ENDBRANCH   2  22
BRANCH   6  24
ATOM     24  O   UNL     1    -106.754  48.162  50.270  1.00  0.00    -0.507 OA
ATOM     25  H   UNL     1    -105.757  48.234  50.406  1.00  0.00     0.293 HD
ENDBRANCH   6  24
BRANCH   8  26
ATOM     26  O   UNL     1    -111.081  48.230  52.312  1.00  0.00    -0.508 OA
ATOM     27  H   UNL     1    -111.922  47.769  51.983  1.00  0.00     0.293 HD
ENDBRANCH   8  26
TORSDOF 6
ENDMDL
MODEL 7
REMARK VINA RESULT:    -4.769      1.864      2.471
REMARK INTER + INTRA:          -6.161
REMARK INTER:                  -5.883
REMARK INTRA:                  -0.277
REMARK UNBOUND:                -0.416
REMARK SMILES O=c1c(O)c(-c2ccc(O)cc2O)oc2cc(O)cc(O)c12
REMARK SMILES IDX 5 1 3 2 2 3 1 4 22 5 20 6 19 7 17 8 16 9 15 10 14 11 6 12
REMARK SMILES IDX 8 13 7 14 9 15 11 16 12 17 10 18 13 20 4 22 21 24 18 26
REMARK H PARENT 10 19 13 21 4 23 21 25 18 27
REMARK Flexibility Score: inf
ROOT
ATOM      1  C   UNL     1    -107.002  44.406  54.033  1.00  0.00     0.184 A 
ATOM      2  C   UNL     1    -107.855  43.600  53.265  1.00  0.00     0.208 A 
ATOM      3  C   UNL     1    -108.042  42.259  53.637  1.00  0.00     0.238 A 
ATOM      4  O   UNL     1    -108.764  41.527  52.913  1.00  0.00    -0.285 OA
ATOM      5  C   UNL     1    -107.385  41.750  54.783  1.00  0.00     0.111 A 
ATOM      6  C   UNL     1    -107.532  40.418  55.276  1.00  0.00     0.134 A 
ATOM      7  C   UNL     1    -106.735  39.983  56.342  1.00  0.00     0.093 A 
ATOM      8  C   UNL     1    -105.843  40.850  56.974  1.00  0.00     0.123 A 
ATOM      9  C   UNL     1    -105.734  42.171  56.538  1.00  0.00     0.094 A 
ATOM     10  C   UNL     1    -106.490  42.623  55.454  1.00  0.00     0.146 A 
ATOM     11  O   UNL     1    -106.347  43.885  55.063  1.00  0.00    -0.451 OA
ENDROOT
BRANCH   1  12
ATOM     12  C   UNL     1    -106.775  45.830  53.705  1.00  0.00     0.063 A 
ATOM     13  C   UNL     1    -107.076  48.170  54.292  1.00  0.00     0.047 A 
ATOM     14  C   UNL     1    -107.268  46.815  54.574  1.00  0.00     0.020 A 
ATOM     15  C   UNL     1    -106.400  48.556  53.128  1.00  0.00     0.119 A 
ATOM     16  C   UNL     1    -105.926  47.582  52.245  1.00  0.00     0.093 A 
ATOM     17  C   UNL     1    -106.120  46.220  52.519  1.00  0.00     0.130 A 
BRANCH  15  18
ATOM     18  O   UNL     1    -106.199  49.904  52.838  1.00  0.00    -0.508 OA
ATOM     19  H   UNL     1    -106.389  50.282  51.918  1.00  0.00     0.293 HD
ENDBRANCH  15  18
BRANCH  17  20
ATOM     20  O   UNL     1    -105.685  45.260  51.605  1.00  0.00    -0.507 OA
ATOM     21  H   UNL     1    -105.352  44.351  51.907  1.00  0.00     0.293 HD
ENDBRANCH  17  20
ENDBRANCH   1  12
BRANCH   2  22
ATOM     22  O   UNL     1    -108.475  44.124  52.128  1.00  0.00    -0.502 OA
ATOM     23  H   UNL     1    -109.343  43.751  51.761  1.00  0.00     0.293 HD
ENDBRANCH   2  22
BRANCH   6  24
ATOM     24  O   UNL     1    -108.460  39.498  54.776  1.00  0.00    -0.507 OA
ATOM     25  H   UNL     1    -108.531  39.222  53.809  1.00  0.00     0.293 HD
ENDBRANCH   6  24
BRANCH   8  26
ATOM     26  O   UNL     1    -105.076  40.388  58.041  1.00  0.00    -0.508 OA
ATOM     27  H   UNL     1    -104.069  40.298  57.971  1.00  0.00     0.293 HD
ENDBRANCH   8  26
TORSDOF 6
ENDMDL
MODEL 8
REMARK VINA RESULT:    -4.736      2.209      6.683
REMARK INTER + INTRA:          -6.121
REMARK INTER:                  -5.702
REMARK INTRA:                  -0.419
REMARK UNBOUND:                -0.416
REMARK SMILES O=c1c(O)c(-c2ccc(O)cc2O)oc2cc(O)cc(O)c12
REMARK SMILES IDX 5 1 3 2 2 3 1 4 22 5 20 6 19 7 17 8 16 9 15 10 14 11 6 12
REMARK SMILES IDX 8 13 7 14 9 15 11 16 12 17 10 18 13 20 4 22 21 24 18 26
REMARK H PARENT 10 19 13 21 4 23 21 25 18 27
REMARK Flexibility Score: inf
ROOT
ATOM      1  C   UNL     1    -107.435  44.139  54.055  1.00  0.00     0.184 A 
ATOM      2  C   UNL     1    -108.751  44.615  53.952  1.00  0.00     0.208 A 
ATOM      3  C   UNL     1    -109.029  45.655  53.051  1.00  0.00     0.238 A 
ATOM      4  O   UNL     1    -110.200  46.114  53.003  1.00  0.00    -0.285 OA
ATOM      5  C   UNL     1    -107.990  46.192  52.254  1.00  0.00     0.111 A 
ATOM      6  C   UNL     1    -108.166  47.220  51.279  1.00  0.00     0.134 A 
ATOM      7  C   UNL     1    -107.046  47.765  50.640  1.00  0.00     0.093 A 
ATOM      8  C   UNL     1    -105.764  47.277  50.893  1.00  0.00     0.123 A 
ATOM      9  C   UNL     1    -105.586  46.231  51.801  1.00  0.00     0.094 A 
ATOM     10  C   UNL     1    -106.681  45.691  52.480  1.00  0.00     0.146 A 
ATOM     11  O   UNL     1    -106.468  44.705  53.344  1.00  0.00    -0.451 OA
ENDROOT
BRANCH   1  12
ATOM     12  C   UNL     1    -107.077  43.036  54.972  1.00  0.00     0.063 A 
ATOM     13  C   UNL     1    -106.628  42.282  57.239  1.00  0.00     0.047 A 
ATOM     14  C   UNL     1    -106.970  43.300  56.346  1.00  0.00     0.020 A 
ATOM     15  C   UNL     1    -106.375  40.988  56.767  1.00  0.00     0.119 A 
ATOM     16  C   UNL     1    -106.456  40.721  55.398  1.00  0.00     0.093 A 
ATOM     17  C   UNL     1    -106.793  41.740  54.494  1.00  0.00     0.130 A 
BRANCH  15  18
ATOM     18  O   UNL     1    -106.037  39.964  57.649  1.00  0.00    -0.508 OA
ATOM     19  H   UNL     1    -105.868  40.146  58.632  1.00  0.00     0.293 HD
ENDBRANCH  15  18
BRANCH  17  20
ATOM     20  O   UNL     1    -106.823  41.471  53.125  1.00  0.00    -0.507 OA
ATOM     21  H   UNL     1    -106.866  42.215  52.438  1.00  0.00     0.293 HD
ENDBRANCH  17  20
ENDBRANCH   1  12
BRANCH   2  22
ATOM     22  O   UNL     1    -109.753  44.079  54.765  1.00  0.00    -0.502 OA
ATOM     23  H   UNL     1    -110.717  44.006  54.462  1.00  0.00     0.293 HD
ENDBRANCH   2  22
BRANCH   6  24
ATOM     24  O   UNL     1    -109.412  47.717  50.884  1.00  0.00    -0.507 OA
ATOM     25  H   UNL     1    -110.277  47.555  51.376  1.00  0.00     0.293 HD
ENDBRANCH   6  24
BRANCH   8  26
ATOM     26  O   UNL     1    -104.673  47.833  50.228  1.00  0.00    -0.508 OA
ATOM     27  H   UNL     1    -104.757  48.696  49.702  1.00  0.00     0.293 HD
ENDBRANCH   8  26
TORSDOF 6
ENDMDL
MODEL 9
REMARK VINA RESULT:    -4.677      2.613      6.400
REMARK INTER + INTRA:          -6.049
REMARK INTER:                  -5.639
REMARK INTRA:                  -0.410
REMARK UNBOUND:                -0.416
REMARK SMILES O=c1c(O)c(-c2ccc(O)cc2O)oc2cc(O)cc(O)c12
REMARK SMILES IDX 5 1 3 2 2 3 1 4 22 5 20 6 19 7 17 8 16 9 15 10 14 11 6 12
REMARK SMILES IDX 8 13 7 14 9 15 11 16 12 17 10 18 13 20 4 22 21 24 18 26
REMARK H PARENT 10 19 13 21 4 23 21 25 18 27
REMARK Flexibility Score: inf
ROOT
ATOM      1  C   UNL     1    -106.689  45.632  53.950  1.00  0.00     0.184 A 
ATOM      2  C   UNL     1    -106.554  46.268  52.707  1.00  0.00     0.208 A 
ATOM      3  C   UNL     1    -106.445  47.668  52.667  1.00  0.00     0.238 A 
ATOM      4  O   UNL     1    -106.380  48.236  51.546  1.00  0.00    -0.285 OA
ATOM      5  C   UNL     1    -106.457  48.408  53.874  1.00  0.00     0.111 A 
ATOM      6  C   UNL     1    -106.313  49.826  53.954  1.00  0.00     0.134 A 
ATOM      7  C   UNL     1    -106.469  50.467  55.189  1.00  0.00     0.093 A 
ATOM      8  C   UNL     1    -106.699  49.737  56.356  1.00  0.00     0.123 A 
ATOM      9  C   UNL     1    -106.782  48.345  56.297  1.00  0.00     0.094 A 
ATOM     10  C   UNL     1    -106.666  47.680  55.074  1.00  0.00     0.146 A 
ATOM     11  O   UNL     1    -106.763  46.356  55.060  1.00  0.00    -0.451 OA
ENDROOT
BRANCH   1  12
ATOM     12  C   UNL     1    -106.791  44.161  54.063  1.00  0.00     0.063 A 
ATOM     13  C   UNL     1    -108.163  42.159  53.933  1.00  0.00     0.047 A 
ATOM     14  C   UNL     1    -108.030  43.545  53.829  1.00  0.00     0.020 A 
ATOM     15  C   UNL     1    -107.061  41.371  54.287  1.00  0.00     0.119 A 
ATOM     16  C   UNL     1    -105.828  41.978  54.545  1.00  0.00     0.093 A 
ATOM     17  C   UNL     1    -105.689  43.371  54.448  1.00  0.00     0.130 A 
BRANCH  15  18
ATOM     18  O   UNL     1    -107.181  39.987  54.390  1.00  0.00    -0.508 OA
ATOM     19  H   UNL     1    -106.397  39.406  54.663  1.00  0.00     0.293 HD
ENDBRANCH  15  18
BRANCH  17  20
ATOM     20  O   UNL     1    -104.466  43.968  54.756  1.00  0.00    -0.507 OA
ATOM     21  H   UNL     1    -103.589  43.472  54.644  1.00  0.00     0.293 HD
ENDBRANCH  17  20
ENDBRANCH   1  12
BRANCH   2  22
ATOM     22  O   UNL     1    -106.565  45.513  51.531  1.00  0.00    -0.502 OA
ATOM     23  H   UNL     1    -106.986  45.850  50.673  1.00  0.00     0.293 HD
ENDBRANCH   2  22
BRANCH   6  24
ATOM     24  O   UNL     1    -105.992  50.642  52.865  1.00  0.00    -0.507 OA
ATOM     25  H   UNL     1    -106.416  51.537  52.673  1.00  0.00     0.293 HD
ENDBRANCH   6  24
BRANCH   8  26
ATOM     26  O   UNL     1    -106.834  50.406  57.570  1.00  0.00    -0.508 OA
ATOM     27  H   UNL     1    -106.099  50.391  58.268  1.00  0.00     0.293 HD
ENDBRANCH   8  26
TORSDOF 6
ENDMDL
