MODEL 1
REMARK VINA RESULT:    -5.866      0.000      0.000
REMARK INTER + INTRA:          -6.442
REMARK INTER:                  -6.380
REMARK INTRA:                  -0.062
REMARK UNBOUND:                -0.062
REMARK SMILES COc1cc2ccc(=O)oc2cc1O
REMARK SMILES IDX 3 1 13 2 12 3 11 4 5 5 4 6 6 7 7 8 8 9 9 10 10 11 2 12 1 13
REMARK SMILES IDX 14 14
REMARK H PARENT 14 15
REMARK Flexibility Score: inf
ROOT
ATOM      1  C   UNL     1     -29.347  -4.465  -1.307  1.00  0.00     0.161 A 
ATOM      2  C   UNL     1     -28.581  -5.147  -2.266  1.00  0.00     0.161 A 
ATOM      3  C   UNL     1     -28.211  -6.483  -2.057  1.00  0.00     0.098 A 
ATOM      4  C   UNL     1     -28.600  -7.147  -0.891  1.00  0.00     0.142 A 
ATOM      5  C   UNL     1     -29.369  -6.469   0.078  1.00  0.00     0.022 A 
ATOM      6  C   UNL     1     -29.740  -5.134  -0.131  1.00  0.00     0.062 A 
ATOM      7  C   UNL     1     -29.744  -7.161   1.234  1.00  0.00     0.019 A 
ATOM      8  C   UNL     1     -29.350  -8.488   1.396  1.00  0.00     0.094 A 
ATOM      9  C   UNL     1     -28.588  -9.097   0.393  1.00  0.00     0.336 A 
ATOM     10  O   UNL     1     -28.222 -10.295   0.520  1.00  0.00    -0.246 OA
ATOM     11  O   UNL     1     -28.245  -8.416  -0.698  1.00  0.00    -0.423 OA
ENDROOT
BRANCH   1  12
ATOM     12  O   UNL     1     -29.695  -3.129  -1.559  1.00  0.00    -0.493 OA
ATOM     13  C   UNL     1     -31.029  -2.664  -1.744  1.00  0.00     0.278 C 
ENDBRANCH   1  12
BRANCH   2  14
ATOM     14  O   UNL     1     -28.192  -4.487  -3.431  1.00  0.00    -0.504 OA
ATOM     15  H   UNL     1     -27.219  -4.438  -3.712  1.00  0.00     0.293 HD
ENDBRANCH   2  14
TORSDOF 2
ENDMDL
MODEL 2
REMARK VINA RESULT:    -5.838      1.318      4.942
REMARK INTER + INTRA:          -6.412
REMARK INTER:                  -6.347
REMARK INTRA:                  -0.065
REMARK UNBOUND:                -0.062
REMARK SMILES COc1cc2ccc(=O)oc2cc1O
REMARK SMILES IDX 3 1 13 2 12 3 11 4 5 5 4 6 6 7 7 8 8 9 9 10 10 11 2 12 1 13
REMARK SMILES IDX 14 14
REMARK H PARENT 14 15
REMARK Flexibility Score: inf
ROOT
ATOM      1  C   UNL     1     -29.492  -8.641   1.481  1.00  0.00     0.161 A 
ATOM      2  C   UNL     1     -28.793  -9.335   0.482  1.00  0.00     0.161 A 
ATOM      3  C   UNL     1     -28.318  -8.657  -0.650  1.00  0.00     0.098 A 
ATOM      4  C   UNL     1     -28.538  -7.284  -0.792  1.00  0.00     0.142 A 
ATOM      5  C   UNL     1     -29.241  -6.580   0.208  1.00  0.00     0.022 A 
ATOM      6  C   UNL     1     -29.715  -7.257   1.339  1.00  0.00     0.062 A 
ATOM      7  C   UNL     1     -29.445  -5.207   0.037  1.00  0.00     0.019 A 
ATOM      8  C   UNL     1     -28.953  -4.579  -1.107  1.00  0.00     0.094 A 
ATOM      9  C   UNL     1     -28.265  -5.341  -2.057  1.00  0.00     0.336 A 
ATOM     10  O   UNL     1     -27.814  -4.793  -3.097  1.00  0.00    -0.246 OA
ATOM     11  O   UNL     1     -28.084  -6.646  -1.870  1.00  0.00    -0.423 OA
ENDROOT
BRANCH   1  12
ATOM     12  O   UNL     1     -29.949  -9.360   2.597  1.00  0.00    -0.493 OA
ATOM     13  C   UNL     1     -31.292  -9.797   2.782  1.00  0.00     0.278 C 
ENDBRANCH   1  12
BRANCH   2  14
ATOM     14  O   UNL     1     -28.571 -10.704   0.622  1.00  0.00    -0.504 OA
ATOM     15  H   UNL     1     -29.264 -11.385   0.332  1.00  0.00     0.293 HD
ENDBRANCH   2  14
TORSDOF 2
ENDMDL
MODEL 3
REMARK VINA RESULT:    -5.726      8.619     11.956
REMARK INTER + INTRA:          -6.290
REMARK INTER:                  -6.235
REMARK INTRA:                  -0.054
REMARK UNBOUND:                -0.062
REMARK SMILES COc1cc2ccc(=O)oc2cc1O
REMARK SMILES IDX 3 1 13 2 12 3 11 4 5 5 4 6 6 7 7 8 8 9 9 10 10 11 2 12 1 13
REMARK SMILES IDX 14 14
REMARK H PARENT 14 15
REMARK Flexibility Score: inf
ROOT
ATOM      1  C   UNL     1     -34.749 -16.113   5.225  1.00  0.00     0.161 A 
ATOM      2  C   UNL     1     -33.634 -16.361   6.041  1.00  0.00     0.161 A 
ATOM      3  C   UNL     1     -32.389 -15.798   5.728  1.00  0.00     0.098 A 
ATOM      4  C   UNL     1     -32.247 -14.985   4.600  1.00  0.00     0.142 A 
ATOM      5  C   UNL     1     -33.362 -14.732   3.775  1.00  0.00     0.022 A 
ATOM      6  C   UNL     1     -34.607 -15.293   4.087  1.00  0.00     0.062 A 
ATOM      7  C   UNL     1     -33.188 -13.914   2.654  1.00  0.00     0.019 A 
ATOM      8  C   UNL     1     -31.929 -13.379   2.385  1.00  0.00     0.094 A 
ATOM      9  C   UNL     1     -30.869 -13.674   3.248  1.00  0.00     0.336 A 
ATOM     10  O   UNL     1     -29.724 -13.200   3.023  1.00  0.00    -0.246 OA
ATOM     11  O   UNL     1     -31.061 -14.454   4.309  1.00  0.00    -0.423 OA
ENDROOT
BRANCH   1  12
ATOM     12  O   UNL     1     -35.977 -16.696   5.577  1.00  0.00    -0.493 OA
ATOM     13  C   UNL     1     -37.214 -15.994   5.646  1.00  0.00     0.278 C 
ENDBRANCH   1  12
BRANCH   2  14
ATOM     14  O   UNL     1     -33.774 -17.171   7.167  1.00  0.00    -0.504 OA
ATOM     15  H   UNL     1     -34.346 -16.889   7.955  1.00  0.00     0.293 HD
ENDBRANCH   2  14
TORSDOF 2
ENDMDL
MODEL 4
REMARK VINA RESULT:    -5.627      1.662      2.299
REMARK INTER + INTRA:          -6.182
REMARK INTER:                  -6.136
REMARK INTRA:                  -0.047
REMARK UNBOUND:                -0.062
REMARK SMILES COc1cc2ccc(=O)oc2cc1O
REMARK SMILES IDX 3 1 13 2 12 3 11 4 5 5 4 6 6 7 7 8 8 9 9 10 10 11 2 12 1 13
REMARK SMILES IDX 14 14
REMARK H PARENT 14 15
REMARK Flexibility Score: inf
ROOT
ATOM      1  C   UNL     1     -28.952  -6.136  -0.239  1.00  0.00     0.161 A 
ATOM      2  C   UNL     1     -28.235  -7.104  -0.961  1.00  0.00     0.161 A 
ATOM      3  C   UNL     1     -28.245  -8.444  -0.549  1.00  0.00     0.098 A 
ATOM      4  C   UNL     1     -28.968  -8.828   0.583  1.00  0.00     0.142 A 
ATOM      5  C   UNL     1     -29.689  -7.861   1.315  1.00  0.00     0.022 A 
ATOM      6  C   UNL     1     -29.681  -6.521   0.904  1.00  0.00     0.062 A 
ATOM      7  C   UNL     1     -30.403  -8.276   2.443  1.00  0.00     0.019 A 
ATOM      8  C   UNL     1     -30.381  -9.621   2.812  1.00  0.00     0.094 A 
ATOM      9  C   UNL     1     -29.643 -10.523   2.039  1.00  0.00     0.336 A 
ATOM     10  O   UNL     1     -29.609 -11.742   2.355  1.00  0.00    -0.246 OA
ATOM     11  O   UNL     1     -28.973 -10.102   0.969  1.00  0.00    -0.423 OA
ENDROOT
BRANCH   1  12
ATOM     12  O   UNL     1     -28.914  -4.806  -0.687  1.00  0.00    -0.493 OA
ATOM     13  C   UNL     1     -29.145  -3.669   0.138  1.00  0.00     0.278 C 
ENDBRANCH   1  12
BRANCH   2  14
ATOM     14  O   UNL     1     -27.514  -6.723  -2.091  1.00  0.00    -0.504 OA
ATOM     15  H   UNL     1     -27.342  -7.370  -2.852  1.00  0.00     0.293 HD
ENDBRANCH   2  14
TORSDOF 2
ENDMDL
MODEL 5
REMARK VINA RESULT:    -5.602     10.499     11.939
REMARK INTER + INTRA:          -6.156
REMARK INTER:                  -6.100
REMARK INTRA:                  -0.056
REMARK UNBOUND:                -0.062
REMARK SMILES COc1cc2ccc(=O)oc2cc1O
REMARK SMILES IDX 3 1 13 2 12 3 11 4 5 5 4 6 6 7 7 8 8 9 9 10 10 11 2 12 1 13
REMARK SMILES IDX 14 14
REMARK H PARENT 14 15
REMARK Flexibility Score: inf
ROOT
ATOM      1  C   UNL     1     -35.458 -15.230   3.854  1.00  0.00     0.161 A 
ATOM      2  C   UNL     1     -35.411 -16.164   4.901  1.00  0.00     0.161 A 
ATOM      3  C   UNL     1     -34.196 -16.452   5.538  1.00  0.00     0.098 A 
ATOM      4  C   UNL     1     -33.021 -15.813   5.135  1.00  0.00     0.142 A 
ATOM      5  C   UNL     1     -33.060 -14.874   4.082  1.00  0.00     0.022 A 
ATOM      6  C   UNL     1     -34.274 -14.585   3.447  1.00  0.00     0.062 A 
ATOM      7  C   UNL     1     -31.867 -14.250   3.702  1.00  0.00     0.019 A 
ATOM      8  C   UNL     1     -30.684 -14.572   4.366  1.00  0.00     0.094 A 
ATOM      9  C   UNL     1     -30.721 -15.514   5.401  1.00  0.00     0.336 A 
ATOM     10  O   UNL     1     -29.663 -15.818   6.012  1.00  0.00    -0.246 OA
ATOM     11  O   UNL     1     -31.869 -16.092   5.743  1.00  0.00    -0.423 OA
ENDROOT
BRANCH   1  12
ATOM     12  O   UNL     1     -36.697 -14.971   3.246  1.00  0.00    -0.493 OA
ATOM     13  C   UNL     1     -37.254 -13.672   3.069  1.00  0.00     0.278 C 
ENDBRANCH   1  12
BRANCH   2  14
ATOM     14  O   UNL     1     -36.583 -16.803   5.306  1.00  0.00    -0.504 OA
ATOM     15  H   UNL     1     -37.265 -16.337   5.893  1.00  0.00     0.293 HD
ENDBRANCH   2  14
TORSDOF 2
ENDMDL
MODEL 6
REMARK VINA RESULT:    -5.599      9.234     11.374
REMARK INTER + INTRA:          -6.152
REMARK INTER:                  -6.097
REMARK INTRA:                  -0.055
REMARK UNBOUND:                -0.062
REMARK SMILES COc1cc2ccc(=O)oc2cc1O
REMARK SMILES IDX 3 1 13 2 12 3 11 4 5 5 4 6 6 7 7 8 8 9 9 10 10 11 2 12 1 13
REMARK SMILES IDX 14 14
REMARK H PARENT 14 15
REMARK Flexibility Score: inf
ROOT
ATOM      1  C   UNL     1     -30.466 -15.027   4.924  1.00  0.00     0.161 A 
ATOM      2  C   UNL     1     -30.747 -14.054   3.952  1.00  0.00     0.161 A 
ATOM      3  C   UNL     1     -32.049 -13.909   3.452  1.00  0.00     0.098 A 
ATOM      4  C   UNL     1     -33.077 -14.733   3.917  1.00  0.00     0.142 A 
ATOM      5  C   UNL     1     -32.802 -15.714   4.893  1.00  0.00     0.022 A 
ATOM      6  C   UNL     1     -31.502 -15.858   5.394  1.00  0.00     0.062 A 
ATOM      7  C   UNL     1     -33.853 -16.522   5.338  1.00  0.00     0.019 A 
ATOM      8  C   UNL     1     -35.130 -16.340   4.809  1.00  0.00     0.094 A 
ATOM      9  C   UNL     1     -35.328 -15.347   3.843  1.00  0.00     0.336 A 
ATOM     10  O   UNL     1     -36.473 -15.166   3.353  1.00  0.00    -0.246 OA
ATOM     11  O   UNL     1     -34.311 -14.591   3.438  1.00  0.00    -0.423 OA
ENDROOT
BRANCH   1  12
ATOM     12  O   UNL     1     -29.148 -15.136   5.397  1.00  0.00    -0.493 OA
ATOM     13  C   UNL     1     -28.178 -16.042   4.882  1.00  0.00     0.278 C 
ENDBRANCH   1  12
BRANCH   2  14
ATOM     14  O   UNL     1     -29.722 -13.230   3.487  1.00  0.00    -0.504 OA
ATOM     15  H   UNL     1     -29.131 -13.507   2.713  1.00  0.00     0.293 HD
ENDBRANCH   2  14
TORSDOF 2
ENDMDL
MODEL 7
REMARK VINA RESULT:    -5.573      5.841      6.851
REMARK INTER + INTRA:          -6.124
REMARK INTER:                  -6.076
REMARK INTRA:                  -0.047
REMARK UNBOUND:                -0.062
REMARK SMILES COc1cc2ccc(=O)oc2cc1O
REMARK SMILES IDX 3 1 13 2 12 3 11 4 5 5 4 6 6 7 7 8 8 9 9 10 10 11 2 12 1 13
REMARK SMILES IDX 14 14
REMARK H PARENT 14 15
REMARK Flexibility Score: inf
ROOT
ATOM      1  C   UNL     1     -34.304  -9.581   2.258  1.00  0.00     0.161 A 
ATOM      2  C   UNL     1     -33.255  -8.794   2.760  1.00  0.00     0.161 A 
ATOM      3  C   UNL     1     -31.932  -9.256   2.699  1.00  0.00     0.098 A 
ATOM      4  C   UNL     1     -31.647 -10.504   2.138  1.00  0.00     0.142 A 
ATOM      5  C   UNL     1     -32.696 -11.301   1.633  1.00  0.00     0.022 A 
ATOM      6  C   UNL     1     -34.018 -10.839   1.693  1.00  0.00     0.062 A 
ATOM      7  C   UNL     1     -32.379 -12.544   1.077  1.00  0.00     0.019 A 
ATOM      8  C   UNL     1     -31.048 -12.959   1.040  1.00  0.00     0.094 A 
ATOM      9  C   UNL     1     -30.060 -12.115   1.561  1.00  0.00     0.336 A 
ATOM     10  O   UNL     1     -28.853 -12.471   1.538  1.00  0.00    -0.246 OA
ATOM     11  O   UNL     1     -30.389 -10.937   2.083  1.00  0.00    -0.423 OA
ENDROOT
BRANCH   1  12
ATOM     12  O   UNL     1     -35.612  -9.079   2.339  1.00  0.00    -0.493 OA
ATOM     13  C   UNL     1     -36.782  -9.885   2.437  1.00  0.00     0.278 C 
ENDBRANCH   1  12
BRANCH   2  14
ATOM     14  O   UNL     1     -33.537  -7.549   3.320  1.00  0.00    -0.504 OA
ATOM     15  H   UNL     1     -34.292  -6.970   2.972  1.00  0.00     0.293 HD
ENDBRANCH   2  14
TORSDOF 2
ENDMDL
MODEL 8
REMARK VINA RESULT:    -5.490      7.254     10.737
REMARK INTER + INTRA:          -6.034
REMARK INTER:                  -5.989
REMARK INTRA:                  -0.045
REMARK UNBOUND:                -0.062
REMARK SMILES COc1cc2ccc(=O)oc2cc1O
REMARK SMILES IDX 3 1 13 2 12 3 11 4 5 5 4 6 6 7 7 8 8 9 9 10 10 11 2 12 1 13
REMARK SMILES IDX 14 14
REMARK H PARENT 14 15
REMARK Flexibility Score: inf
ROOT
ATOM      1  C   UNL     1     -33.516 -15.597   4.484  1.00  0.00     0.161 A 
ATOM      2  C   UNL     1     -32.198 -15.593   4.966  1.00  0.00     0.161 A 
ATOM      3  C   UNL     1     -31.267 -14.668   4.472  1.00  0.00     0.098 A 
ATOM      4  C   UNL     1     -31.644 -13.743   3.494  1.00  0.00     0.142 A 
ATOM      5  C   UNL     1     -32.966 -13.742   3.004  1.00  0.00     0.022 A 
ATOM      6  C   UNL     1     -33.898 -14.665   3.498  1.00  0.00     0.062 A 
ATOM      7  C   UNL     1     -33.313 -12.804   2.026  1.00  0.00     0.019 A 
ATOM      8  C   UNL     1     -32.350 -11.906   1.567  1.00  0.00     0.094 A 
ATOM      9  C   UNL     1     -31.058 -11.966   2.099  1.00  0.00     0.336 A 
ATOM     10  O   UNL     1     -30.174 -11.165   1.697  1.00  0.00    -0.246 OA
ATOM     11  O   UNL     1     -30.754 -12.868   3.029  1.00  0.00    -0.423 OA
ENDROOT
BRANCH   1  12
ATOM     12  O   UNL     1     -34.415 -16.539   5.008  1.00  0.00    -0.493 OA
ATOM     13  C   UNL     1     -35.814 -16.557   4.741  1.00  0.00     0.278 C 
ENDBRANCH   1  12
BRANCH   2  14
ATOM     14  O   UNL     1     -31.820 -16.514   5.942  1.00  0.00    -0.504 OA
ATOM     15  H   UNL     1     -30.925 -16.449   6.413  1.00  0.00     0.293 HD
ENDBRANCH   2  14
TORSDOF 2
ENDMDL
MODEL 9
REMARK VINA RESULT:    -5.443      8.117     10.650
REMARK INTER + INTRA:          -5.982
REMARK INTER:                  -5.937
REMARK INTRA:                  -0.045
REMARK UNBOUND:                -0.062
REMARK SMILES COc1cc2ccc(=O)oc2cc1O
REMARK SMILES IDX 3 1 13 2 12 3 11 4 5 5 4 6 6 7 7 8 8 9 9 10 10 11 2 12 1 13
REMARK SMILES IDX 14 14
REMARK H PARENT 14 15
REMARK Flexibility Score: inf
ROOT
ATOM      1  C   UNL     1     -27.568 -15.667   4.305  1.00  0.00     0.161 A 
ATOM      2  C   UNL     1     -27.809 -16.870   3.622  1.00  0.00     0.161 A 
ATOM      3  C   UNL     1     -27.859 -16.889   2.221  1.00  0.00     0.098 A 
ATOM      4  C   UNL     1     -27.670 -15.711   1.493  1.00  0.00     0.142 A 
ATOM      5  C   UNL     1     -27.428 -14.499   2.172  1.00  0.00     0.022 A 
ATOM      6  C   UNL     1     -27.377 -14.479   3.573  1.00  0.00     0.062 A 
ATOM      7  C   UNL     1     -27.241 -13.338   1.416  1.00  0.00     0.019 A 
ATOM      8  C   UNL     1     -27.301 -13.409   0.025  1.00  0.00     0.094 A 
ATOM      9  C   UNL     1     -27.545 -14.646  -0.581  1.00  0.00     0.336 A 
ATOM     10  O   UNL     1     -27.604 -14.732  -1.836  1.00  0.00    -0.246 OA
ATOM     11  O   UNL     1     -27.718 -15.737   0.162  1.00  0.00    -0.423 OA
ENDROOT
BRANCH   1  12
ATOM     12  O   UNL     1     -27.526 -15.695   5.708  1.00  0.00    -0.493 OA
ATOM     13  C   UNL     1     -27.539 -14.538   6.539  1.00  0.00     0.278 C 
ENDBRANCH   1  12
BRANCH   2  14
ATOM     14  O   UNL     1     -27.998 -18.046   4.345  1.00  0.00    -0.504 OA
ATOM     15  H   UNL     1     -27.690 -18.132   5.307  1.00  0.00     0.293 HD
ENDBRANCH   2  14
TORSDOF 2
ENDMDL
