MODEL 1
REMARK VINA RESULT:    -5.062      0.000      0.000
REMARK INTER + INTRA:          -9.855
REMARK INTER:                  -9.205
REMARK INTRA:                  -0.650
REMARK UNBOUND:                -0.650
REMARK SMILES CCCCCCCCCCCCCCCC(=O)[O-]
REMARK SMILES IDX 9 1 10 2 11 3 12 4 13 5 14 6 15 7 16 8 17 9 18 10 8 11 7 12
REMARK SMILES IDX 6 13 5 14 4 15 3 16 2 17 1 18
REMARK H PARENT
REMARK Flexibility Score: inf
ROOT
ATOM      1  C   UNL     1      -8.165  -2.376 -12.845  1.00  0.00     0.000 C 
ENDROOT
BRANCH   1   2
ATOM      2  C   UNL     1      -7.681  -3.046 -14.142  1.00  0.00     0.000 C 
BRANCH   2   3
ATOM      3  C   UNL     1      -8.843  -3.505 -15.037  1.00  0.00     0.000 C 
BRANCH   3   4
ATOM      4  C   UNL     1      -8.804  -5.015 -15.327  1.00  0.00     0.000 C 
BRANCH   4   5
ATOM      5  C   UNL     1      -9.556  -5.846 -14.273  1.00  0.00     0.000 C 
BRANCH   5   6
ATOM      6  C   UNL     1     -10.998  -6.226 -14.656  1.00  0.00     0.006 C 
BRANCH   6   7
ATOM      7  C   UNL     1     -11.618  -5.262 -15.676  1.00  0.00     0.053 C 
BRANCH   7   8
ATOM      8  C   UNL     1     -12.649  -4.399 -15.018  1.00  0.00     0.041 C 
ATOM      9  O   UNL     1     -12.806  -4.440 -13.770  1.00  0.00    -0.550 OA
ATOM     10  O   UNL     1     -13.471  -3.587 -15.789  1.00  0.00    -0.550 OA
ENDBRANCH   7   8
ENDBRANCH   6   7
ENDBRANCH   5   6
ENDBRANCH   4   5
ENDBRANCH   3   4
ENDBRANCH   2   3
ENDBRANCH   1   2
BRANCH   1  11
ATOM     11  C   UNL     1      -7.208  -2.614 -11.665  1.00  0.00     0.000 C 
BRANCH  11  12
ATOM     12  C   UNL     1      -7.041  -1.366 -10.782  1.00  0.00    -0.000 C 
BRANCH  12  13
ATOM     13  C   UNL     1      -5.841  -1.476  -9.828  1.00  0.00    -0.000 C 
BRANCH  13  14
ATOM     14  C   UNL     1      -5.776  -0.311  -8.825  1.00  0.00    -0.000 C 
BRANCH  14  15
ATOM     15  C   UNL     1      -7.036   0.568  -8.859  1.00  0.00    -0.000 C 
BRANCH  15  16
ATOM     16  C   UNL     1      -6.708   2.067  -8.973  1.00  0.00    -0.000 C 
BRANCH  16  17
ATOM     17  C   UNL     1      -6.607   2.539 -10.431  1.00  0.00    -0.003 C 
ATOM     18  C   UNL     1      -7.422   3.805 -10.699  1.00  0.00     0.004 C 
ENDBRANCH  16  17
ENDBRANCH  15  16
ENDBRANCH  14  15
ENDBRANCH  13  14
ENDBRANCH  12  13
ENDBRANCH  11  12
ENDBRANCH   1  11
TORSDOF 14
ENDMDL
MODEL 2
REMARK VINA RESULT:    -4.987      3.479      8.391
REMARK INTER + INTRA:          -9.718
REMARK INTER:                  -8.507
REMARK INTRA:                  -1.212
REMARK UNBOUND:                -0.650
REMARK SMILES CCCCCCCCCCCCCCCC(=O)[O-]
REMARK SMILES IDX 9 1 10 2 11 3 12 4 13 5 14 6 15 7 16 8 17 9 18 10 8 11 7 12
REMARK SMILES IDX 6 13 5 14 4 15 3 16 2 17 1 18
REMARK H PARENT
REMARK Flexibility Score: inf
ROOT
ATOM      1  C   UNL     1      -6.903  -3.064 -12.586  1.00  0.00     0.000 C 
ENDROOT
BRANCH   1   2
ATOM      2  C   UNL     1      -7.946  -1.997 -12.212  1.00  0.00     0.000 C 
BRANCH   2   3
ATOM      3  C   UNL     1      -7.366  -0.903 -11.301  1.00  0.00     0.000 C 
BRANCH   3   4
ATOM      4  C   UNL     1      -6.465  -1.474 -10.194  1.00  0.00     0.000 C 
BRANCH   4   5
ATOM      5  C   UNL     1      -6.081  -0.427  -9.134  1.00  0.00     0.000 C 
BRANCH   5   6
ATOM      6  C   UNL     1      -7.061   0.754  -9.005  1.00  0.00     0.006 C 
BRANCH   6   7
ATOM      7  C   UNL     1      -6.365   2.119  -9.083  1.00  0.00     0.053 C 
BRANCH   7   8
ATOM      8  C   UNL     1      -6.219   2.551 -10.509  1.00  0.00     0.041 C 
ATOM      9  O   UNL     1      -7.120   3.236 -11.058  1.00  0.00    -0.550 OA
ATOM     10  O   UNL     1      -5.111   2.152 -11.246  1.00  0.00    -0.550 OA
ENDBRANCH   7   8
ENDBRANCH   6   7
ENDBRANCH   5   6
ENDBRANCH   4   5
ENDBRANCH   3   4
ENDBRANCH   2   3
ENDBRANCH   1   2
BRANCH   1  11
ATOM     11  C   UNL     1      -6.888  -3.370 -14.093  1.00  0.00     0.000 C 
BRANCH  11  12
ATOM     12  C   UNL     1      -8.303  -3.478 -14.687  1.00  0.00    -0.000 C 
BRANCH  12  13
ATOM     13  C   UNL     1      -8.432  -4.632 -15.693  1.00  0.00    -0.000 C 
BRANCH  13  14
ATOM     14  C   UNL     1      -8.437  -6.012 -15.011  1.00  0.00    -0.000 C 
BRANCH  14  15
ATOM     15  C   UNL     1      -9.584  -6.165 -14.000  1.00  0.00    -0.000 C 
BRANCH  15  16
ATOM     16  C   UNL     1     -10.959  -6.278 -14.681  1.00  0.00    -0.000 C 
BRANCH  16  17
ATOM     17  C   UNL     1     -11.896  -5.118 -14.312  1.00  0.00    -0.003 C 
ATOM     18  C   UNL     1     -12.381  -4.341 -15.535  1.00  0.00     0.004 C 
ENDBRANCH  16  17
ENDBRANCH  15  16
ENDBRANCH  14  15
ENDBRANCH  13  14
ENDBRANCH  12  13
ENDBRANCH  11  12
ENDBRANCH   1  11
TORSDOF 14
ENDMDL
MODEL 3
REMARK VINA RESULT:    -4.949      3.706      8.687
REMARK INTER + INTRA:          -9.649
REMARK INTER:                  -8.267
REMARK INTRA:                  -1.382
REMARK UNBOUND:                -0.650
REMARK SMILES CCCCCCCCCCCCCCCC(=O)[O-]
REMARK SMILES IDX 9 1 10 2 11 3 12 4 13 5 14 6 15 7 16 8 17 9 18 10 8 11 7 12
REMARK SMILES IDX 6 13 5 14 4 15 3 16 2 17 1 18
REMARK H PARENT
REMARK Flexibility Score: inf
ROOT
ATOM      1  C   UNL     1      -8.088  -4.301 -15.236  1.00  0.00     0.000 C 
ENDROOT
BRANCH   1   2
ATOM      2  C   UNL     1      -8.567  -3.600 -13.953  1.00  0.00     0.000 C 
BRANCH   2   3
ATOM      3  C   UNL     1      -7.543  -2.585 -13.421  1.00  0.00     0.000 C 
BRANCH   3   4
ATOM      4  C   UNL     1      -8.135  -1.660 -12.344  1.00  0.00     0.000 C 
BRANCH   4   5
ATOM      5  C   UNL     1      -7.270  -1.590 -11.074  1.00  0.00     0.000 C 
BRANCH   5   6
ATOM      6  C   UNL     1      -6.627  -0.217 -10.802  1.00  0.00     0.006 C 
BRANCH   6   7
ATOM      7  C   UNL     1      -6.907   0.304  -9.386  1.00  0.00     0.053 C 
BRANCH   7   8
ATOM      8  C   UNL     1      -6.577   1.760  -9.291  1.00  0.00     0.041 C 
ATOM      9  O   UNL     1      -7.497   2.619  -9.275  1.00  0.00    -0.550 OA
ATOM     10  O   UNL     1      -5.250   2.172  -9.272  1.00  0.00    -0.550 OA
ENDBRANCH   7   8
ENDBRANCH   6   7
ENDBRANCH   5   6
ENDBRANCH   4   5
ENDBRANCH   3   4
ENDBRANCH   2   3
ENDBRANCH   1   2
BRANCH   1  11
ATOM     11  C   UNL     1      -9.129  -4.237 -16.366  1.00  0.00     0.000 C 
BRANCH  11  12
ATOM     12  C   UNL     1     -10.501  -3.746 -15.876  1.00  0.00    -0.000 C 
BRANCH  12  13
ATOM     13  C   UNL     1     -11.562  -4.858 -15.883  1.00  0.00    -0.000 C 
BRANCH  13  14
ATOM     14  C   UNL     1     -11.992  -5.272 -14.465  1.00  0.00    -0.000 C 
BRANCH  14  15
ATOM     15  C   UNL     1     -11.019  -6.274 -13.823  1.00  0.00    -0.000 C 
BRANCH  15  16
ATOM     16  C   UNL     1     -10.769  -7.505 -14.711  1.00  0.00    -0.000 C 
BRANCH  16  17
ATOM     17  C   UNL     1      -9.346  -8.063 -14.559  1.00  0.00    -0.003 C 
ATOM     18  C   UNL     1      -8.496  -7.858 -15.813  1.00  0.00     0.004 C 
ENDBRANCH  16  17
ENDBRANCH  15  16
ENDBRANCH  14  15
ENDBRANCH  13  14
ENDBRANCH  12  13
ENDBRANCH  11  12
ENDBRANCH   1  11
TORSDOF 14
ENDMDL
MODEL 4
REMARK VINA RESULT:    -4.914      3.713      8.419
REMARK INTER + INTRA:          -9.586
REMARK INTER:                  -8.616
REMARK INTRA:                  -0.970
REMARK UNBOUND:                -0.650
REMARK SMILES CCCCCCCCCCCCCCCC(=O)[O-]
REMARK SMILES IDX 9 1 10 2 11 3 12 4 13 5 14 6 15 7 16 8 17 9 18 10 8 11 7 12
REMARK SMILES IDX 6 13 5 14 4 15 3 16 2 17 1 18
REMARK H PARENT
REMARK Flexibility Score: inf
ROOT
ATOM      1  C   UNL     1      -7.922  -2.004 -12.343  1.00  0.00     0.000 C 
ENDROOT
BRANCH   1   2
ATOM      2  C   UNL     1      -7.141  -3.005 -11.474  1.00  0.00     0.000 C 
BRANCH   2   3
ATOM      3  C   UNL     1      -6.187  -2.310 -10.491  1.00  0.00     0.000 C 
BRANCH   3   4
ATOM      4  C   UNL     1      -6.417  -0.791 -10.419  1.00  0.00     0.000 C 
BRANCH   4   5
ATOM      5  C   UNL     1      -5.207   0.022 -10.912  1.00  0.00     0.000 C 
BRANCH   5   6
ATOM      6  C   UNL     1      -5.118   1.454 -10.355  1.00  0.00     0.006 C 
BRANCH   6   7
ATOM      7  C   UNL     1      -6.010   2.446 -11.111  1.00  0.00     0.053 C 
BRANCH   7   8
ATOM      8  C   UNL     1      -7.005   3.067 -10.181  1.00  0.00     0.041 C 
ATOM      9  O   UNL     1      -7.692   4.053 -10.556  1.00  0.00    -0.550 OA
ATOM     10  O   UNL     1      -7.136   2.590  -8.884  1.00  0.00    -0.550 OA
ENDBRANCH   7   8
ENDBRANCH   6   7
ENDBRANCH   5   6
ENDBRANCH   4   5
ENDBRANCH   3   4
ENDBRANCH   2   3
ENDBRANCH   1   2
BRANCH   1  11
ATOM     11  C   UNL     1      -8.189  -2.536 -13.760  1.00  0.00     0.000 C 
BRANCH  11  12
ATOM     12  C   UNL     1      -7.796  -4.015 -13.918  1.00  0.00    -0.000 C 
BRANCH  12  13
ATOM     13  C   UNL     1      -8.226  -4.597 -15.274  1.00  0.00    -0.000 C 
BRANCH  13  14
ATOM     14  C   UNL     1      -9.366  -3.795 -15.925  1.00  0.00    -0.000 C 
BRANCH  14  15
ATOM     15  C   UNL     1     -10.673  -4.599 -16.017  1.00  0.00    -0.000 C 
BRANCH  15  16
ATOM     16  C   UNL     1     -11.205  -5.021 -14.637  1.00  0.00    -0.000 C 
BRANCH  16  17
ATOM     17  C   UNL     1     -12.702  -4.721 -14.465  1.00  0.00    -0.003 C 
ATOM     18  C   UNL     1     -13.235  -3.755 -15.522  1.00  0.00     0.004 C 
ENDBRANCH  16  17
ENDBRANCH  15  16
ENDBRANCH  14  15
ENDBRANCH  13  14
ENDBRANCH  12  13
ENDBRANCH  11  12
ENDBRANCH   1  11
TORSDOF 14
ENDMDL
MODEL 5
REMARK VINA RESULT:    -4.909      1.820      2.430
REMARK INTER + INTRA:          -9.577
REMARK INTER:                  -8.354
REMARK INTRA:                  -1.223
REMARK UNBOUND:                -0.650
REMARK SMILES CCCCCCCCCCCCCCCC(=O)[O-]
REMARK SMILES IDX 9 1 10 2 11 3 12 4 13 5 14 6 15 7 16 8 17 9 18 10 8 11 7 12
REMARK SMILES IDX 6 13 5 14 4 15 3 16 2 17 1 18
REMARK H PARENT
REMARK Flexibility Score: inf
ROOT
ATOM      1  C   UNL     1      -4.267  -2.931 -13.331  1.00  0.00     0.000 C 
ENDROOT
BRANCH   1   2
ATOM      2  C   UNL     1      -5.158  -2.403 -14.468  1.00  0.00     0.000 C 
BRANCH   2   3
ATOM      3  C   UNL     1      -6.408  -3.268 -14.686  1.00  0.00     0.000 C 
BRANCH   3   4
ATOM      4  C   UNL     1      -7.617  -2.773 -13.874  1.00  0.00     0.000 C 
BRANCH   4   5
ATOM      5  C   UNL     1      -8.923  -3.500 -14.241  1.00  0.00     0.000 C 
BRANCH   5   6
ATOM      6  C   UNL     1      -8.933  -4.150 -15.637  1.00  0.00     0.006 C 
BRANCH   6   7
ATOM      7  C   UNL     1     -10.211  -3.843 -16.428  1.00  0.00     0.053 C 
BRANCH   7   8
ATOM      8  C   UNL     1     -11.377  -4.572 -15.838  1.00  0.00     0.041 C 
ATOM      9  O   UNL     1     -12.464  -3.970 -15.637  1.00  0.00    -0.550 OA
ATOM     10  O   UNL     1     -11.247  -5.903 -15.462  1.00  0.00    -0.550 OA
ENDBRANCH   7   8
ENDBRANCH   6   7
ENDBRANCH   5   6
ENDBRANCH   4   5
ENDBRANCH   3   4
ENDBRANCH   2   3
ENDBRANCH   1   2
BRANCH   1  11
ATOM     11  C   UNL     1      -3.524  -1.806 -12.592  1.00  0.00     0.000 C 
BRANCH  11  12
ATOM     12  C   UNL     1      -4.483  -0.804 -11.928  1.00  0.00    -0.000 C 
BRANCH  12  13
ATOM     13  C   UNL     1      -5.518  -1.491 -11.023  1.00  0.00    -0.000 C 
BRANCH  13  14
ATOM     14  C   UNL     1      -6.780  -0.636 -10.816  1.00  0.00    -0.000 C 
BRANCH  14  15
ATOM     15  C   UNL     1      -6.945  -0.171  -9.360  1.00  0.00    -0.000 C 
BRANCH  15  16
ATOM     16  C   UNL     1      -7.007   1.361  -9.233  1.00  0.00    -0.000 C 
BRANCH  16  17
ATOM     17  C   UNL     1      -6.197   2.077 -10.323  1.00  0.00    -0.003 C 
ATOM     18  C   UNL     1      -7.009   3.143 -11.058  1.00  0.00     0.004 C 
ENDBRANCH  16  17
ENDBRANCH  15  16
ENDBRANCH  14  15
ENDBRANCH  13  14
ENDBRANCH  12  13
ENDBRANCH  11  12
ENDBRANCH   1  11
TORSDOF 14
ENDMDL
MODEL 6
REMARK VINA RESULT:    -4.890      1.827      3.104
REMARK INTER + INTRA:          -9.542
REMARK INTER:                  -8.406
REMARK INTRA:                  -1.136
REMARK UNBOUND:                -0.650
REMARK SMILES CCCCCCCCCCCCCCCC(=O)[O-]
REMARK SMILES IDX 9 1 10 2 11 3 12 4 13 5 14 6 15 7 16 8 17 9 18 10 8 11 7 12
REMARK SMILES IDX 6 13 5 14 4 15 3 16 2 17 1 18
REMARK H PARENT
REMARK Flexibility Score: inf
ROOT
ATOM      1  C   UNL     1      -6.294  -2.059 -10.357  1.00  0.00     0.000 C 
ENDROOT
BRANCH   1   2
ATOM      2  C   UNL     1      -6.903  -1.271 -11.530  1.00  0.00     0.000 C 
BRANCH   2   3
ATOM      3  C   UNL     1      -8.129  -1.971 -12.136  1.00  0.00     0.000 C 
BRANCH   3   4
ATOM      4  C   UNL     1      -7.808  -2.676 -13.466  1.00  0.00     0.000 C 
BRANCH   4   5
ATOM      5  C   UNL     1      -9.020  -3.416 -14.058  1.00  0.00     0.000 C 
BRANCH   5   6
ATOM      6  C   UNL     1      -8.847  -3.879 -15.517  1.00  0.00     0.006 C 
BRANCH   6   7
ATOM      7  C   UNL     1     -10.116  -3.690 -16.357  1.00  0.00     0.053 C 
BRANCH   7   8
ATOM      8  C   UNL     1     -11.215  -4.569 -15.847  1.00  0.00     0.041 C 
ATOM      9  O   UNL     1     -11.001  -5.791 -15.634  1.00  0.00    -0.550 OA
ATOM     10  O   UNL     1     -12.489  -4.050 -15.657  1.00  0.00    -0.550 OA
ENDBRANCH   7   8
ENDBRANCH   6   7
ENDBRANCH   5   6
ENDBRANCH   4   5
ENDBRANCH   3   4
ENDBRANCH   2   3
ENDBRANCH   1   2
BRANCH   1  11
ATOM     11  C   UNL     1      -5.693  -1.141  -9.280  1.00  0.00     0.000 C 
BRANCH  11  12
ATOM     12  C   UNL     1      -6.648  -0.005  -8.874  1.00  0.00    -0.000 C 
BRANCH  12  13
ATOM     13  C   UNL     1      -5.997   1.381  -8.993  1.00  0.00    -0.000 C 
BRANCH  13  14
ATOM     14  C   UNL     1      -6.560   2.199 -10.168  1.00  0.00    -0.000 C 
BRANCH  14  15
ATOM     15  C   UNL     1      -5.504   2.482 -11.249  1.00  0.00    -0.000 C 
BRANCH  15  16
ATOM     16  C   UNL     1      -4.313   1.511 -11.179  1.00  0.00    -0.000 C 
BRANCH  16  17
ATOM     17  C   UNL     1      -2.962   2.239 -11.107  1.00  0.00    -0.003 C 
ATOM     18  C   UNL     1      -2.492   2.467  -9.670  1.00  0.00     0.004 C 
ENDBRANCH  16  17
ENDBRANCH  15  16
ENDBRANCH  14  15
ENDBRANCH  13  14
ENDBRANCH  12  13
ENDBRANCH  11  12
ENDBRANCH   1  11
TORSDOF 14
ENDMDL
MODEL 7
REMARK VINA RESULT:    -4.864      3.786      8.547
REMARK INTER + INTRA:          -9.495
REMARK INTER:                  -8.282
REMARK INTRA:                  -1.213
REMARK UNBOUND:                -0.650
REMARK SMILES CCCCCCCCCCCCCCCC(=O)[O-]
REMARK SMILES IDX 9 1 10 2 11 3 12 4 13 5 14 6 15 7 16 8 17 9 18 10 8 11 7 12
REMARK SMILES IDX 6 13 5 14 4 15 3 16 2 17 1 18
REMARK H PARENT
REMARK Flexibility Score: inf
ROOT
ATOM      1  C   UNL     1      -7.060  -4.354 -12.428  1.00  0.00     0.000 C 
ENDROOT
BRANCH   1   2
ATOM      2  C   UNL     1      -6.832  -2.844 -12.616  1.00  0.00     0.000 C 
BRANCH   2   3
ATOM      3  C   UNL     1      -7.783  -1.994 -11.759  1.00  0.00     0.000 C 
BRANCH   3   4
ATOM      4  C   UNL     1      -7.115  -0.713 -11.232  1.00  0.00     0.000 C 
BRANCH   4   5
ATOM      5  C   UNL     1      -5.907  -0.998 -10.322  1.00  0.00     0.000 C 
BRANCH   5   6
ATOM      6  C   UNL     1      -6.054  -0.498  -8.873  1.00  0.00     0.006 C 
BRANCH   6   7
ATOM      7  C   UNL     1      -7.109   0.606  -8.728  1.00  0.00     0.053 C 
BRANCH   7   8
ATOM      8  C   UNL     1      -6.457   1.954  -8.714  1.00  0.00     0.041 C 
ATOM      9  O   UNL     1      -5.625   2.245  -7.816  1.00  0.00    -0.550 OA
ATOM     10  O   UNL     1      -6.807   2.905  -9.664  1.00  0.00    -0.550 OA
ENDBRANCH   7   8
ENDBRANCH   6   7
ENDBRANCH   5   6
ENDBRANCH   4   5
ENDBRANCH   3   4
ENDBRANCH   2   3
ENDBRANCH   1   2
BRANCH   1  11
ATOM     11  C   UNL     1      -7.620  -5.026 -13.692  1.00  0.00     0.000 C 
BRANCH  11  12
ATOM     12  C   UNL     1      -7.786  -4.040 -14.860  1.00  0.00    -0.000 C 
BRANCH  12  13
ATOM     13  C   UNL     1      -9.221  -3.502 -14.978  1.00  0.00    -0.000 C 
BRANCH  13  14
ATOM     14  C   UNL     1      -9.903  -3.922 -16.292  1.00  0.00    -0.000 C 
BRANCH  14  15
ATOM     15  C   UNL     1     -10.923  -5.054 -16.091  1.00  0.00    -0.000 C 
BRANCH  15  16
ATOM     16  C   UNL     1     -11.497  -5.085 -14.663  1.00  0.00    -0.000 C 
BRANCH  16  17
ATOM     17  C   UNL     1     -11.304  -6.447 -13.980  1.00  0.00    -0.003 C 
ATOM     18  C   UNL     1     -10.395  -7.383 -14.777  1.00  0.00     0.004 C 
ENDBRANCH  16  17
ENDBRANCH  15  16
ENDBRANCH  14  15
ENDBRANCH  13  14
ENDBRANCH  12  13
ENDBRANCH  11  12
ENDBRANCH   1  11
TORSDOF 14
ENDMDL
MODEL 8
REMARK VINA RESULT:    -4.863      1.262      2.204
REMARK INTER + INTRA:          -9.492
REMARK INTER:                  -8.134
REMARK INTRA:                  -1.358
REMARK UNBOUND:                -0.650
REMARK SMILES CCCCCCCCCCCCCCCC(=O)[O-]
REMARK SMILES IDX 9 1 10 2 11 3 12 4 13 5 14 6 15 7 16 8 17 9 18 10 8 11 7 12
REMARK SMILES IDX 6 13 5 14 4 15 3 16 2 17 1 18
REMARK H PARENT
REMARK Flexibility Score: inf
ROOT
ATOM      1  C   UNL     1      -7.543  -1.780 -11.767  1.00  0.00     0.000 C 
ENDROOT
BRANCH   1   2
ATOM      2  C   UNL     1      -6.549  -2.555 -12.648  1.00  0.00     0.000 C 
BRANCH   2   3
ATOM      3  C   UNL     1      -7.180  -3.798 -13.294  1.00  0.00     0.000 C 
BRANCH   3   4
ATOM      4  C   UNL     1      -6.974  -3.840 -14.818  1.00  0.00     0.000 C 
BRANCH   4   5
ATOM      5  C   UNL     1      -8.222  -4.323 -15.578  1.00  0.00     0.000 C 
BRANCH   5   6
ATOM      6  C   UNL     1      -9.563  -3.841 -14.995  1.00  0.00     0.006 C 
BRANCH   6   7
ATOM      7  C   UNL     1     -10.452  -4.994 -14.511  1.00  0.00     0.053 C 
BRANCH   7   8
ATOM      8  C   UNL     1     -11.885  -4.727 -14.854  1.00  0.00     0.041 C 
ATOM      9  O   UNL     1     -12.251  -4.688 -16.057  1.00  0.00    -0.550 OA
ATOM     10  O   UNL     1     -12.804  -4.470 -13.845  1.00  0.00    -0.550 OA
ENDBRANCH   7   8
ENDBRANCH   6   7
ENDBRANCH   5   6
ENDBRANCH   4   5
ENDBRANCH   3   4
ENDBRANCH   2   3
ENDBRANCH   1   2
BRANCH   1  11
ATOM     11  C   UNL     1      -6.900  -1.258 -10.472  1.00  0.00     0.000 C 
BRANCH  11  12
ATOM     12  C   UNL     1      -5.467  -1.782 -10.273  1.00  0.00    -0.000 C 
BRANCH  12  13
ATOM     13  C   UNL     1      -4.439  -0.648 -10.142  1.00  0.00    -0.000 C 
BRANCH  13  14
ATOM     14  C   UNL     1      -4.557   0.389 -11.273  1.00  0.00    -0.000 C 
BRANCH  14  15
ATOM     15  C   UNL     1      -4.676   1.827 -10.744  1.00  0.00    -0.000 C 
BRANCH  15  16
ATOM     16  C   UNL     1      -6.101   2.391 -10.883  1.00  0.00    -0.000 C 
BRANCH  16  17
ATOM     17  C   UNL     1      -6.877   2.364  -9.559  1.00  0.00    -0.003 C 
ATOM     18  C   UNL     1      -5.973   2.123  -8.350  1.00  0.00     0.004 C 
ENDBRANCH  16  17
ENDBRANCH  15  16
ENDBRANCH  14  15
ENDBRANCH  13  14
ENDBRANCH  12  13
ENDBRANCH  11  12
ENDBRANCH   1  11
TORSDOF 14
ENDMDL
MODEL 9
REMARK VINA RESULT:    -4.841      4.875      7.967
REMARK INTER + INTRA:          -9.453
REMARK INTER:                  -8.312
REMARK INTRA:                  -1.142
REMARK UNBOUND:                -0.650
REMARK SMILES CCCCCCCCCCCCCCCC(=O)[O-]
REMARK SMILES IDX 9 1 10 2 11 3 12 4 13 5 14 6 15 7 16 8 17 9 18 10 8 11 7 12
REMARK SMILES IDX 6 13 5 14 4 15 3 16 2 17 1 18
REMARK H PARENT
REMARK Flexibility Score: inf
ROOT
ATOM      1  C   UNL     1      -7.897  -2.734 -13.486  1.00  0.00     0.000 C 
ENDROOT
BRANCH   1   2
ATOM      2  C   UNL     1      -7.780  -2.011 -12.133  1.00  0.00     0.000 C 
BRANCH   2   3
ATOM      3  C   UNL     1      -7.015  -2.838 -11.088  1.00  0.00     0.000 C 
BRANCH   3   4
ATOM      4  C   UNL     1      -5.766  -2.111 -10.562  1.00  0.00     0.000 C 
BRANCH   4   5
ATOM      5  C   UNL     1      -5.297  -0.977 -11.490  1.00  0.00     0.000 C 
BRANCH   5   6
ATOM      6  C   UNL     1      -5.182   0.404 -10.819  1.00  0.00     0.006 C 
BRANCH   6   7
ATOM      7  C   UNL     1      -6.411   0.759  -9.971  1.00  0.00     0.053 C 
BRANCH   7   8
ATOM      8  C   UNL     1      -6.775   2.199 -10.158  1.00  0.00     0.041 C 
ATOM      9  O   UNL     1      -7.444   2.802  -9.279  1.00  0.00    -0.550 OA
ATOM     10  O   UNL     1      -6.419   2.860 -11.327  1.00  0.00    -0.550 OA
ENDBRANCH   7   8
ENDBRANCH   6   7
ENDBRANCH   5   6
ENDBRANCH   4   5
ENDBRANCH   3   4
ENDBRANCH   2   3
ENDBRANCH   1   2
BRANCH   1  11
ATOM     11  C   UNL     1      -6.819  -3.814 -13.672  1.00  0.00     0.000 C 
BRANCH  11  12
ATOM     12  C   UNL     1      -6.103  -3.706 -15.029  1.00  0.00    -0.000 C 
BRANCH  12  13
ATOM     13  C   UNL     1      -4.914  -2.734 -14.992  1.00  0.00    -0.000 C 
BRANCH  13  14
ATOM     14  C   UNL     1      -3.969  -2.911 -16.193  1.00  0.00    -0.000 C 
BRANCH  14  15
ATOM     15  C   UNL     1      -3.702  -1.591 -16.933  1.00  0.00    -0.000 C 
BRANCH  15  16
ATOM     16  C   UNL     1      -3.102  -1.809 -18.333  1.00  0.00    -0.000 C 
BRANCH  16  17
ATOM     17  C   UNL     1      -1.614  -1.436 -18.402  1.00  0.00    -0.003 C 
ATOM     18  C   UNL     1      -1.190  -0.492 -17.277  1.00  0.00     0.004 C 
ENDBRANCH  16  17
ENDBRANCH  15  16
ENDBRANCH  14  15
ENDBRANCH  13  14
ENDBRANCH  12  13
ENDBRANCH  11  12
ENDBRANCH   1  11
TORSDOF 14
ENDMDL
