MODEL 1
REMARK VINA RESULT:    -2.790      0.000      0.000
REMARK INTER + INTRA:          -6.784
REMARK INTER:                  -5.073
REMARK INTRA:                  -1.711
REMARK UNBOUND:                -1.711
REMARK SMILES CCCCCCCCCCCCCCCC(=O)[O-]
REMARK SMILES IDX 9 1 10 2 11 3 12 4 13 5 14 6 15 7 16 8 17 9 18 10 8 11 7 12
REMARK SMILES IDX 6 13 5 14 4 15 3 16 2 17 1 18
REMARK H PARENT
REMARK Flexibility Score: inf
ROOT
ATOM      1  C   UNL     1      27.759  16.872   2.920  1.00  0.00     0.000 C 
ENDROOT
BRANCH   1   2
ATOM      2  C   UNL     1      29.175  16.344   2.629  1.00  0.00     0.000 C 
BRANCH   2   3
ATOM      3  C   UNL     1      29.269  14.812   2.707  1.00  0.00     0.000 C 
BRANCH   3   4
ATOM      4  C   UNL     1      30.474  14.245   1.932  1.00  0.00     0.000 C 
BRANCH   4   5
ATOM      5  C   UNL     1      30.579  14.688   0.460  1.00  0.00     0.000 C 
BRANCH   5   6
ATOM      6  C   UNL     1      31.715  15.682   0.148  1.00  0.00     0.006 C 
BRANCH   6   7
ATOM      7  C   UNL     1      31.310  16.810  -0.820  1.00  0.00     0.053 C 
BRANCH   7   8
ATOM      8  C   UNL     1      32.449  17.268  -1.679  1.00  0.00     0.041 C 
ATOM      9  O   UNL     1      33.251  18.144  -1.257  1.00  0.00    -0.550 OA
ATOM     10  O   UNL     1      32.607  16.757  -2.961  1.00  0.00    -0.550 OA
ENDBRANCH   7   8
ENDBRANCH   6   7
ENDBRANCH   5   6
ENDBRANCH   4   5
ENDBRANCH   3   4
ENDBRANCH   2   3
ENDBRANCH   1   2
BRANCH   1  11
ATOM     11  C   UNL     1      26.988  17.408   1.697  1.00  0.00     0.000 C 
BRANCH  11  12
ATOM     12  C   UNL     1      27.804  17.505   0.395  1.00  0.00    -0.000 C 
BRANCH  12  13
ATOM     13  C   UNL     1      27.617  16.282  -0.518  1.00  0.00    -0.000 C 
BRANCH  13  14
ATOM     14  C   UNL     1      26.697  15.217   0.101  1.00  0.00    -0.000 C 
BRANCH  14  15
ATOM     15  C   UNL     1      27.187  13.781  -0.161  1.00  0.00    -0.000 C 
BRANCH  15  16
ATOM     16  C   UNL     1      27.019  13.371  -1.639  1.00  0.00    -0.000 C 
BRANCH  16  17
ATOM     17  C   UNL     1      27.436  11.918  -1.925  1.00  0.00    -0.003 C 
ATOM     18  C   UNL     1      27.656  11.640  -3.411  1.00  0.00     0.004 C 
ENDBRANCH  16  17
ENDBRANCH  15  16
ENDBRANCH  14  15
ENDBRANCH  13  14
ENDBRANCH  12  13
ENDBRANCH  11  12
ENDBRANCH   1  11
TORSDOF 14
ENDMDL
MODEL 2
REMARK VINA RESULT:    -2.629      0.871      1.613
REMARK INTER + INTRA:          -6.491
REMARK INTER:                  -4.594
REMARK INTRA:                  -1.897
REMARK UNBOUND:                -1.711
REMARK SMILES CCCCCCCCCCCCCCCC(=O)[O-]
REMARK SMILES IDX 9 1 10 2 11 3 12 4 13 5 14 6 15 7 16 8 17 9 18 10 8 11 7 12
REMARK SMILES IDX 6 13 5 14 4 15 3 16 2 17 1 18
REMARK H PARENT
REMARK Flexibility Score: inf
ROOT
ATOM      1  C   UNL     1      28.157  15.941   3.410  1.00  0.00     0.000 C 
ENDROOT
BRANCH   1   2
ATOM      2  C   UNL     1      28.633  14.703   2.629  1.00  0.00     0.000 C 
BRANCH   2   3
ATOM      3  C   UNL     1      30.163  14.638   2.487  1.00  0.00     0.000 C 
BRANCH   3   4
ATOM      4  C   UNL     1      30.615  14.076   1.126  1.00  0.00     0.000 C 
BRANCH   4   5
ATOM      5  C   UNL     1      31.629  14.944   0.357  1.00  0.00     0.000 C 
BRANCH   5   6
ATOM      6  C   UNL     1      31.214  16.412   0.140  1.00  0.00     0.006 C 
BRANCH   6   7
ATOM      7  C   UNL     1      31.114  16.822  -1.341  1.00  0.00     0.053 C 
BRANCH   7   8
ATOM      8  C   UNL     1      32.439  17.204  -1.925  1.00  0.00     0.041 C 
ATOM      9  O   UNL     1      33.199  17.998  -1.309  1.00  0.00    -0.550 OA
ATOM     10  O   UNL     1      32.823  16.713  -3.166  1.00  0.00    -0.550 OA
ENDBRANCH   7   8
ENDBRANCH   6   7
ENDBRANCH   5   6
ENDBRANCH   4   5
ENDBRANCH   3   4
ENDBRANCH   2   3
ENDBRANCH   1   2
BRANCH   1  11
ATOM     11  C   UNL     1      28.280  17.284   2.661  1.00  0.00     0.000 C 
BRANCH  11  12
ATOM     12  C   UNL     1      26.948  17.910   2.208  1.00  0.00    -0.000 C 
BRANCH  12  13
ATOM     13  C   UNL     1      26.628  17.626   0.731  1.00  0.00    -0.000 C 
BRANCH  13  14
ATOM     14  C   UNL     1      27.871  17.222  -0.077  1.00  0.00    -0.000 C 
BRANCH  14  15
ATOM     15  C   UNL     1      27.733  15.835  -0.730  1.00  0.00    -0.000 C 
BRANCH  15  16
ATOM     16  C   UNL     1      26.619  14.992  -0.075  1.00  0.00    -0.000 C 
BRANCH  16  17
ATOM     17  C   UNL     1      26.919  13.484  -0.055  1.00  0.00    -0.003 C 
ATOM     18  C   UNL     1      27.170  12.905  -1.446  1.00  0.00     0.004 C 
ENDBRANCH  16  17
ENDBRANCH  15  16
ENDBRANCH  14  15
ENDBRANCH  13  14
ENDBRANCH  12  13
ENDBRANCH  11  12
ENDBRANCH   1  11
TORSDOF 14
ENDMDL
MODEL 3
REMARK VINA RESULT:    -2.612      2.819      5.395
REMARK INTER + INTRA:          -6.461
REMARK INTER:                  -4.968
REMARK INTRA:                  -1.494
REMARK UNBOUND:                -1.711
REMARK SMILES CCCCCCCCCCCCCCCC(=O)[O-]
REMARK SMILES IDX 9 1 10 2 11 3 12 4 13 5 14 6 15 7 16 8 17 9 18 10 8 11 7 12
REMARK SMILES IDX 6 13 5 14 4 15 3 16 2 17 1 18
REMARK H PARENT
REMARK Flexibility Score: inf
ROOT
ATOM      1  C   UNL     1      28.565  14.722   2.631  1.00  0.00     0.000 C 
ENDROOT
BRANCH   1   2
ATOM      2  C   UNL     1      27.810  13.426   2.283  1.00  0.00     0.000 C 
BRANCH   2   3
ATOM      3  C   UNL     1      26.781  13.618   1.158  1.00  0.00     0.000 C 
BRANCH   3   4
ATOM      4  C   UNL     1      27.432  13.776  -0.229  1.00  0.00     0.000 C 
BRANCH   4   5
ATOM      5  C   UNL     1      27.546  15.223  -0.745  1.00  0.00     0.000 C 
BRANCH   5   6
ATOM      6  C   UNL     1      26.629  16.247  -0.049  1.00  0.00     0.006 C 
BRANCH   6   7
ATOM      7  C   UNL     1      27.346  17.541   0.378  1.00  0.00     0.053 C 
BRANCH   7   8
ATOM      8  C   UNL     1      26.904  18.029   1.724  1.00  0.00     0.041 C 
ATOM      9  O   UNL     1      27.583  17.761   2.751  1.00  0.00    -0.550 OA
ATOM     10  O   UNL     1      25.723  18.749   1.852  1.00  0.00    -0.550 OA
ENDBRANCH   7   8
ENDBRANCH   6   7
ENDBRANCH   5   6
ENDBRANCH   4   5
ENDBRANCH   3   4
ENDBRANCH   2   3
ENDBRANCH   1   2
BRANCH   1  11
ATOM     11  C   UNL     1      30.103  14.617   2.612  1.00  0.00     0.000 C 
BRANCH  11  12
ATOM     12  C   UNL     1      30.703  13.950   1.361  1.00  0.00    -0.000 C 
BRANCH  12  13
ATOM     13  C   UNL     1      31.422  14.950   0.439  1.00  0.00    -0.000 C 
BRANCH  13  14
ATOM     14  C   UNL     1      30.589  16.215   0.175  1.00  0.00    -0.000 C 
BRANCH  14  15
ATOM     15  C   UNL     1      31.012  16.949  -1.111  1.00  0.00    -0.000 C 
BRANCH  15  16
ATOM     16  C   UNL     1      32.519  17.283  -1.120  1.00  0.00    -0.000 C 
BRANCH  16  17
ATOM     17  C   UNL     1      33.036  17.749  -2.492  1.00  0.00    -0.003 C 
ATOM     18  C   UNL     1      32.853  16.702  -3.589  1.00  0.00     0.004 C 
ENDBRANCH  16  17
ENDBRANCH  15  16
ENDBRANCH  14  15
ENDBRANCH  13  14
ENDBRANCH  12  13
ENDBRANCH  11  12
ENDBRANCH   1  11
TORSDOF 14
ENDMDL
MODEL 4
REMARK VINA RESULT:    -2.490      0.923      2.505
REMARK INTER + INTRA:          -6.240
REMARK INTER:                  -4.504
REMARK INTRA:                  -1.735
REMARK UNBOUND:                -1.711
REMARK SMILES CCCCCCCCCCCCCCCC(=O)[O-]
REMARK SMILES IDX 9 1 10 2 11 3 12 4 13 5 14 6 15 7 16 8 17 9 18 10 8 11 7 12
REMARK SMILES IDX 6 13 5 14 4 15 3 16 2 17 1 18
REMARK H PARENT
REMARK Flexibility Score: inf
ROOT
ATOM      1  C   UNL     1      27.914  16.602   3.153  1.00  0.00     0.000 C 
ENDROOT
BRANCH   1   2
ATOM      2  C   UNL     1      27.536  17.901   2.417  1.00  0.00     0.000 C 
BRANCH   2   3
ATOM      3  C   UNL     1      26.610  17.658   1.215  1.00  0.00     0.000 C 
BRANCH   3   4
ATOM      4  C   UNL     1      27.364  17.157  -0.031  1.00  0.00     0.000 C 
BRANCH   4   5
ATOM      5  C   UNL     1      28.829  17.618  -0.147  1.00  0.00     0.000 C 
BRANCH   5   6
ATOM      6  C   UNL     1      29.733  16.735  -1.028  1.00  0.00     0.006 C 
BRANCH   6   7
ATOM      7  C   UNL     1      31.163  16.561  -0.482  1.00  0.00     0.053 C 
BRANCH   7   8
ATOM      8  C   UNL     1      32.205  17.105  -1.410  1.00  0.00     0.041 C 
ATOM      9  O   UNL     1      32.367  16.597  -2.552  1.00  0.00    -0.550 OA
ATOM     10  O   UNL     1      33.025  18.150  -1.004  1.00  0.00    -0.550 OA
ENDBRANCH   7   8
ENDBRANCH   6   7
ENDBRANCH   5   6
ENDBRANCH   4   5
ENDBRANCH   3   4
ENDBRANCH   2   3
ENDBRANCH   1   2
BRANCH   1  11
ATOM     11  C   UNL     1      29.242  15.954   2.710  1.00  0.00     0.000 C 
BRANCH  11  12
ATOM     12  C   UNL     1      29.106  14.593   2.003  1.00  0.00    -0.000 C 
BRANCH  12  13
ATOM     13  C   UNL     1      27.771  13.894   2.309  1.00  0.00    -0.000 C 
BRANCH  13  14
ATOM     14  C   UNL     1      26.942  13.624   1.043  1.00  0.00    -0.000 C 
BRANCH  14  15
ATOM     15  C   UNL     1      27.754  13.805  -0.252  1.00  0.00    -0.000 C 
BRANCH  15  16
ATOM     16  C   UNL     1      27.000  13.274  -1.490  1.00  0.00    -0.000 C 
BRANCH  16  17
ATOM     17  C   UNL     1      27.544  11.934  -2.013  1.00  0.00    -0.003 C 
ATOM     18  C   UNL     1      27.631  11.877  -3.537  1.00  0.00     0.004 C 
ENDBRANCH  16  17
ENDBRANCH  15  16
ENDBRANCH  14  15
ENDBRANCH  13  14
ENDBRANCH  12  13
ENDBRANCH  11  12
ENDBRANCH   1  11
TORSDOF 14
ENDMDL
MODEL 5
REMARK VINA RESULT:    -2.426      1.400      3.825
REMARK INTER + INTRA:          -6.123
REMARK INTER:                  -4.455
REMARK INTRA:                  -1.667
REMARK UNBOUND:                -1.711
REMARK SMILES CCCCCCCCCCCCCCCC(=O)[O-]
REMARK SMILES IDX 9 1 10 2 11 3 12 4 13 5 14 6 15 7 16 8 17 9 18 10 8 11 7 12
REMARK SMILES IDX 6 13 5 14 4 15 3 16 2 17 1 18
REMARK H PARENT
REMARK Flexibility Score: inf
ROOT
ATOM      1  C   UNL     1      27.858  13.571   2.256  1.00  0.00     0.000 C 
ENDROOT
BRANCH   1   2
ATOM      2  C   UNL     1      28.683  14.831   2.573  1.00  0.00     0.000 C 
BRANCH   2   3
ATOM      3  C   UNL     1      30.197  14.566   2.588  1.00  0.00     0.000 C 
BRANCH   3   4
ATOM      4  C   UNL     1      30.719  13.999   1.254  1.00  0.00     0.000 C 
BRANCH   4   5
ATOM      5  C   UNL     1      31.495  14.994   0.372  1.00  0.00     0.000 C 
BRANCH   5   6
ATOM      6  C   UNL     1      30.857  16.390   0.229  1.00  0.00     0.006 C 
BRANCH   6   7
ATOM      7  C   UNL     1      30.866  16.937  -1.211  1.00  0.00     0.053 C 
BRANCH   7   8
ATOM      8  C   UNL     1      32.251  17.188  -1.724  1.00  0.00     0.041 C 
ATOM      9  O   UNL     1      33.043  17.928  -1.081  1.00  0.00    -0.550 OA
ATOM     10  O   UNL     1      32.659  16.633  -2.930  1.00  0.00    -0.550 OA
ENDBRANCH   7   8
ENDBRANCH   6   7
ENDBRANCH   5   6
ENDBRANCH   4   5
ENDBRANCH   3   4
ENDBRANCH   2   3
ENDBRANCH   1   2
BRANCH   1  11
ATOM     11  C   UNL     1      26.808  13.731   1.138  1.00  0.00     0.000 C 
BRANCH  11  12
ATOM     12  C   UNL     1      27.377  13.840  -0.289  1.00  0.00    -0.000 C 
BRANCH  12  13
ATOM     13  C   UNL     1      27.715  15.287  -0.686  1.00  0.00    -0.000 C 
BRANCH  13  14
ATOM     14  C   UNL     1      26.782  16.315  -0.025  1.00  0.00    -0.000 C 
BRANCH  14  15
ATOM     15  C   UNL     1      27.544  17.504   0.588  1.00  0.00    -0.000 C 
BRANCH  15  16
ATOM     16  C   UNL     1      26.807  18.101   1.805  1.00  0.00    -0.000 C 
BRANCH  16  17
ATOM     17  C   UNL     1      25.588  18.959   1.425  1.00  0.00    -0.003 C 
ATOM     18  C   UNL     1      24.623  19.177   2.589  1.00  0.00     0.004 C 
ENDBRANCH  16  17
ENDBRANCH  15  16
ENDBRANCH  14  15
ENDBRANCH  13  14
ENDBRANCH  12  13
ENDBRANCH  11  12
ENDBRANCH   1  11
TORSDOF 14
ENDMDL
MODEL 6
REMARK VINA RESULT:    -2.052      3.096      6.556
REMARK INTER + INTRA:          -5.442
REMARK INTER:                  -4.383
REMARK INTRA:                  -1.059
REMARK UNBOUND:                -1.711
REMARK SMILES CCCCCCCCCCCCCCCC(=O)[O-]
REMARK SMILES IDX 9 1 10 2 11 3 12 4 13 5 14 6 15 7 16 8 17 9 18 10 8 11 7 12
REMARK SMILES IDX 6 13 5 14 4 15 3 16 2 17 1 18
REMARK H PARENT
REMARK Flexibility Score: inf
ROOT
ATOM      1  C   UNL     1      30.636  14.113   1.376  1.00  0.00     0.000 C 
ENDROOT
BRANCH   1   2
ATOM      2  C   UNL     1      29.592  14.823   2.257  1.00  0.00     0.000 C 
BRANCH   2   3
ATOM      3  C   UNL     1      28.183  14.225   2.112  1.00  0.00     0.000 C 
BRANCH   3   4
ATOM      4  C   UNL     1      27.772  14.007   0.644  1.00  0.00     0.000 C 
BRANCH   4   5
ATOM      5  C   UNL     1      26.872  15.102   0.041  1.00  0.00     0.000 C 
BRANCH   5   6
ATOM      6  C   UNL     1      27.548  16.470  -0.175  1.00  0.00     0.006 C 
BRANCH   6   7
ATOM      7  C   UNL     1      26.634  17.674   0.123  1.00  0.00     0.053 C 
BRANCH   7   8
ATOM      8  C   UNL     1      26.633  18.052   1.573  1.00  0.00     0.041 C 
ATOM      9  O   UNL     1      25.719  18.784   2.038  1.00  0.00    -0.550 OA
ATOM     10  O   UNL     1      27.659  17.625   2.407  1.00  0.00    -0.550 OA
ENDBRANCH   7   8
ENDBRANCH   6   7
ENDBRANCH   5   6
ENDBRANCH   4   5
ENDBRANCH   3   4
ENDBRANCH   2   3
ENDBRANCH   1   2
BRANCH   1  11
ATOM     11  C   UNL     1      31.389  15.020   0.382  1.00  0.00     0.000 C 
BRANCH  11  12
ATOM     12  C   UNL     1      30.784  16.421   0.180  1.00  0.00    -0.000 C 
BRANCH  12  13
ATOM     13  C   UNL     1      31.055  16.990  -1.223  1.00  0.00    -0.000 C 
BRANCH  13  14
ATOM     14  C   UNL     1      32.554  17.183  -1.504  1.00  0.00    -0.000 C 
BRANCH  14  15
ATOM     15  C   UNL     1      33.059  18.584  -1.114  1.00  0.00    -0.000 C 
BRANCH  15  16
ATOM     16  C   UNL     1      34.581  18.730  -1.319  1.00  0.00    -0.000 C 
BRANCH  16  17
ATOM     17  C   UNL     1      35.213  19.843  -0.465  1.00  0.00    -0.003 C 
ATOM     18  C   UNL     1      36.731  19.923  -0.613  1.00  0.00     0.004 C 
ENDBRANCH  16  17
ENDBRANCH  15  16
ENDBRANCH  14  15
ENDBRANCH  13  14
ENDBRANCH  12  13
ENDBRANCH  11  12
ENDBRANCH   1  11
TORSDOF 14
ENDMDL
MODEL 7
REMARK VINA RESULT:    -1.812      2.739      4.428
REMARK INTER + INTRA:          -5.006
REMARK INTER:                  -3.462
REMARK INTRA:                  -1.545
REMARK UNBOUND:                -1.711
REMARK SMILES CCCCCCCCCCCCCCCC(=O)[O-]
REMARK SMILES IDX 9 1 10 2 11 3 12 4 13 5 14 6 15 7 16 8 17 9 18 10 8 11 7 12
REMARK SMILES IDX 6 13 5 14 4 15 3 16 2 17 1 18
REMARK H PARENT
REMARK Flexibility Score: inf
ROOT
ATOM      1  C   UNL     1      31.444  14.377   0.477  1.00  0.00     0.000 C 
ENDROOT
BRANCH   1   2
ATOM      2  C   UNL     1      31.654  15.901   0.417  1.00  0.00     0.000 C 
BRANCH   2   3
ATOM      3  C   UNL     1      31.769  16.431  -1.022  1.00  0.00     0.000 C 
BRANCH   3   4
ATOM      4  C   UNL     1      30.468  17.084  -1.526  1.00  0.00     0.000 C 
BRANCH   4   5
ATOM      5  C   UNL     1      29.188  16.671  -0.775  1.00  0.00     0.000 C 
BRANCH   5   6
ATOM      6  C   UNL     1      28.538  17.775   0.081  1.00  0.00     0.006 C 
BRANCH   6   7
ATOM      7  C   UNL     1      27.058  17.516   0.418  1.00  0.00     0.053 C 
BRANCH   7   8
ATOM      8  C   UNL     1      26.676  18.031   1.773  1.00  0.00     0.041 C 
ATOM      9  O   UNL     1      27.376  17.747   2.781  1.00  0.00    -0.550 OA
ATOM     10  O   UNL     1      25.527  18.796   1.930  1.00  0.00    -0.550 OA
ENDBRANCH   7   8
ENDBRANCH   6   7
ENDBRANCH   5   6
ENDBRANCH   4   5
ENDBRANCH   3   4
ENDBRANCH   2   3
ENDBRANCH   1   2
BRANCH   1  11
ATOM     11  C   UNL     1      30.471  13.886   1.568  1.00  0.00     0.000 C 
BRANCH  11  12
ATOM     12  C   UNL     1      29.615  14.982   2.228  1.00  0.00    -0.000 C 
BRANCH  12  13
ATOM     13  C   UNL     1      28.129  14.598   2.328  1.00  0.00    -0.000 C 
BRANCH  13  14
ATOM     14  C   UNL     1      27.664  13.724   1.152  1.00  0.00    -0.000 C 
BRANCH  14  15
ATOM     15  C   UNL     1      26.664  14.447   0.230  1.00  0.00    -0.000 C 
BRANCH  15  16
ATOM     16  C   UNL     1      26.680  13.878  -1.204  1.00  0.00    -0.000 C 
BRANCH  16  17
ATOM     17  C   UNL     1      27.652  12.699  -1.388  1.00  0.00    -0.003 C 
ATOM     18  C   UNL     1      27.395  11.906  -2.668  1.00  0.00     0.004 C 
ENDBRANCH  16  17
ENDBRANCH  15  16
ENDBRANCH  14  15
ENDBRANCH  13  14
ENDBRANCH  12  13
ENDBRANCH  11  12
ENDBRANCH   1  11
TORSDOF 14
ENDMDL
MODEL 8
REMARK VINA RESULT:    -1.752     16.762     18.664
REMARK INTER + INTRA:          -4.897
REMARK INTER:                  -3.874
REMARK INTRA:                  -1.023
REMARK UNBOUND:                -1.711
REMARK SMILES CCCCCCCCCCCCCCCC(=O)[O-]
REMARK SMILES IDX 9 1 10 2 11 3 12 4 13 5 14 6 15 7 16 8 17 9 18 10 8 11 7 12
REMARK SMILES IDX 6 13 5 14 4 15 3 16 2 17 1 18
REMARK H PARENT
REMARK Flexibility Score: inf
ROOT
ATOM      1  C   UNL     1      21.095  21.313  15.308  1.00  0.00     0.000 C 
ENDROOT
BRANCH   1   2
ATOM      2  C   UNL     1      22.135  20.761  14.315  1.00  0.00     0.000 C 
BRANCH   2   3
ATOM      3  C   UNL     1      23.230  21.783  13.968  1.00  0.00     0.000 C 
BRANCH   3   4
ATOM      4  C   UNL     1      24.438  21.714  14.921  1.00  0.00     0.000 C 
BRANCH   4   5
ATOM      5  C   UNL     1      24.610  22.924  15.858  1.00  0.00     0.000 C 
BRANCH   5   6
ATOM      6  C   UNL     1      23.843  24.195  15.444  1.00  0.00     0.006 C 
BRANCH   6   7
ATOM      7  C   UNL     1      24.619  25.107  14.475  1.00  0.00     0.053 C 
BRANCH   7   8
ATOM      8  C   UNL     1      26.101  24.892  14.543  1.00  0.00     0.041 C 
ATOM      9  O   UNL     1      26.767  24.719  13.487  1.00  0.00    -0.550 OA
ATOM     10  O   UNL     1      26.743  24.848  15.773  1.00  0.00    -0.550 OA
ENDBRANCH   7   8
ENDBRANCH   6   7
ENDBRANCH   5   6
ENDBRANCH   4   5
ENDBRANCH   3   4
ENDBRANCH   2   3
ENDBRANCH   1   2
BRANCH   1  11
ATOM     11  C   UNL     1      19.647  20.830  15.086  1.00  0.00     0.000 C 
BRANCH  11  12
ATOM     12  C   UNL     1      18.623  21.323  16.125  1.00  0.00    -0.000 C 
BRANCH  12  13
ATOM     13  C   UNL     1      17.215  21.504  15.533  1.00  0.00    -0.000 C 
BRANCH  13  14
ATOM     14  C   UNL     1      17.232  22.223  14.174  1.00  0.00    -0.000 C 
BRANCH  14  15
ATOM     15  C   UNL     1      16.920  23.725  14.290  1.00  0.00    -0.000 C 
BRANCH  15  16
ATOM     16  C   UNL     1      18.115  24.527  14.848  1.00  0.00    -0.000 C 
BRANCH  16  17
ATOM     17  C   UNL     1      19.031  25.104  13.756  1.00  0.00    -0.003 C 
ATOM     18  C   UNL     1      20.313  24.296  13.562  1.00  0.00     0.004 C 
ENDBRANCH  16  17
ENDBRANCH  15  16
ENDBRANCH  14  15
ENDBRANCH  13  14
ENDBRANCH  12  13
ENDBRANCH  11  12
ENDBRANCH   1  11
TORSDOF 14
ENDMDL
