MODEL 1
REMARK VINA RESULT:    -4.048      0.000      0.000
REMARK INTER + INTRA:          -9.981
REMARK INTER:                  -7.598
REMARK INTRA:                  -2.383
REMARK UNBOUND:                -2.383
REMARK SMILES CCCCCCCCC=CCCCCCCCC(=O)[O-]
REMARK SMILES IDX 10 1 9 2 11 3 12 4 13 5 14 6 15 7 16 8 17 9 18 10 19 11
REMARK SMILES IDX 20 12 8 13 7 14 6 15 5 16 4 17 3 18 2 19 1 20
REMARK H PARENT
REMARK Flexibility Score: inf
ROOT
ATOM      1  C   UNL     1      25.427 -36.641  23.835  1.00  0.00    -0.031 C 
ATOM      2  C   UNL     1      26.105 -37.710  24.294  1.00  0.00    -0.031 C 
ENDROOT
BRANCH   1   3
ATOM      3  C   UNL     1      25.425 -36.161  22.405  1.00  0.00     0.027 C 
BRANCH   3   4
ATOM      4  C   UNL     1      26.232 -34.862  22.248  1.00  0.00     0.004 C 
BRANCH   4   5
ATOM      5  C   UNL     1      25.422 -33.743  21.576  1.00  0.00     0.000 C 
BRANCH   5   6
ATOM      6  C   UNL     1      24.985 -32.652  22.567  1.00  0.00     0.000 C 
BRANCH   6   7
ATOM      7  C   UNL     1      25.375 -32.974  24.021  1.00  0.00     0.000 C 
BRANCH   7   8
ATOM      8  C   UNL     1      24.180 -32.969  24.996  1.00  0.00     0.006 C 
BRANCH   8   9
ATOM      9  C   UNL     1      23.196 -31.827  24.707  1.00  0.00     0.053 C 
BRANCH   9  10
ATOM     10  C   UNL     1      23.429 -30.685  25.644  1.00  0.00     0.041 C 
ATOM     11  O   UNL     1      23.709 -29.543  25.192  1.00  0.00    -0.550 OA
ATOM     12  O   UNL     1      23.289 -30.868  27.013  1.00  0.00    -0.550 OA
ENDBRANCH   9  10
ENDBRANCH   8   9
ENDBRANCH   7   8
ENDBRANCH   6   7
ENDBRANCH   5   6
ENDBRANCH   4   5
ENDBRANCH   3   4
ENDBRANCH   1   3
BRANCH   2  13
ATOM     13  C   UNL     1      27.000 -38.603  23.464  1.00  0.00     0.027 C 
BRANCH  13  14
ATOM     14  C   UNL     1      26.369 -39.985  23.220  1.00  0.00     0.004 C 
BRANCH  14  15
ATOM     15  C   UNL     1      25.988 -40.277  21.755  1.00  0.00     0.000 C 
BRANCH  15  16
ATOM     16  C   UNL     1      24.704 -39.582  21.261  1.00  0.00     0.000 C 
BRANCH  16  17
ATOM     17  C   UNL     1      23.434 -39.903  22.074  1.00  0.00    -0.000 C 
BRANCH  17  18
ATOM     18  C   UNL     1      22.606 -38.676  22.494  1.00  0.00    -0.000 C 
BRANCH  18  19
ATOM     19  C   UNL     1      22.249 -38.681  23.987  1.00  0.00    -0.003 C 
ATOM     20  C   UNL     1      23.001 -39.782  24.729  1.00  0.00     0.004 C 
ENDBRANCH  18  19
ENDBRANCH  17  18
ENDBRANCH  16  17
ENDBRANCH  15  16
ENDBRANCH  14  15
ENDBRANCH  13  14
ENDBRANCH   2  13
TORSDOF 15
ENDMDL
MODEL 2
REMARK VINA RESULT:    -4.001      4.101      7.193
REMARK INTER + INTRA:          -9.893
REMARK INTER:                  -7.391
REMARK INTRA:                  -2.502
REMARK UNBOUND:                -2.383
REMARK SMILES CCCCCCCCC=CCCCCCCCC(=O)[O-]
REMARK SMILES IDX 10 1 9 2 11 3 12 4 13 5 14 6 15 7 16 8 17 9 18 10 19 11
REMARK SMILES IDX 20 12 8 13 7 14 6 15 5 16 4 17 3 18 2 19 1 20
REMARK H PARENT
REMARK Flexibility Score: inf
ROOT
ATOM      1  C   UNL     1      21.695 -29.899  26.453  1.00  0.00    -0.031 C 
ATOM      2  C   UNL     1      21.238 -30.972  25.780  1.00  0.00    -0.031 C 
ENDROOT
BRANCH   1   3
ATOM      3  C   UNL     1      23.087 -29.329  26.339  1.00  0.00     0.027 C 
BRANCH   3   4
ATOM      4  C   UNL     1      23.952 -29.716  27.549  1.00  0.00     0.004 C 
BRANCH   4   5
ATOM      5  C   UNL     1      23.182 -29.630  28.875  1.00  0.00     0.000 C 
BRANCH   5   6
ATOM      6  C   UNL     1      23.331 -30.899  29.730  1.00  0.00     0.000 C 
BRANCH   6   7
ATOM      7  C   UNL     1      23.341 -32.188  28.889  1.00  0.00     0.000 C 
BRANCH   7   8
ATOM      8  C   UNL     1      22.161 -33.134  29.195  1.00  0.00     0.006 C 
BRANCH   8   9
ATOM      9  C   UNL     1      20.802 -32.434  29.057  1.00  0.00     0.053 C 
BRANCH   9  10
ATOM     10  C   UNL     1      19.832 -33.310  28.331  1.00  0.00     0.041 C 
ATOM     11  O   UNL     1      20.215 -34.001  27.351  1.00  0.00    -0.550 OA
ATOM     12  O   UNL     1      18.517 -33.403  28.767  1.00  0.00    -0.550 OA
ENDBRANCH   9  10
ENDBRANCH   8   9
ENDBRANCH   7   8
ENDBRANCH   6   7
ENDBRANCH   5   6
ENDBRANCH   4   5
ENDBRANCH   3   4
ENDBRANCH   1   3
BRANCH   2  13
ATOM     13  C   UNL     1      22.043 -31.807  24.809  1.00  0.00     0.027 C 
BRANCH  13  14
ATOM     14  C   UNL     1      22.964 -32.804  25.533  1.00  0.00     0.004 C 
BRANCH  14  15
ATOM     15  C   UNL     1      24.468 -32.627  25.245  1.00  0.00     0.000 C 
BRANCH  15  16
ATOM     16  C   UNL     1      24.802 -31.772  24.008  1.00  0.00     0.000 C 
BRANCH  16  17
ATOM     17  C   UNL     1      25.207 -32.570  22.752  1.00  0.00    -0.000 C 
BRANCH  17  18
ATOM     18  C   UNL     1      25.571 -34.043  23.008  1.00  0.00    -0.000 C 
BRANCH  18  19
ATOM     19  C   UNL     1      26.263 -34.704  21.809  1.00  0.00    -0.003 C 
ATOM     20  C   UNL     1      25.853 -34.034  20.500  1.00  0.00     0.004 C 
ENDBRANCH  18  19
ENDBRANCH  17  18
ENDBRANCH  16  17
ENDBRANCH  15  16
ENDBRANCH  14  15
ENDBRANCH  13  14
ENDBRANCH   2  13
TORSDOF 15
ENDMDL
MODEL 3
REMARK VINA RESULT:    -3.995      3.682      7.964
REMARK INTER + INTRA:          -9.882
REMARK INTER:                  -8.196
REMARK INTRA:                  -1.686
REMARK UNBOUND:                -2.383
REMARK SMILES CCCCCCCCC=CCCCCCCCC(=O)[O-]
REMARK SMILES IDX 10 1 9 2 11 3 12 4 13 5 14 6 15 7 16 8 17 9 18 10 19 11
REMARK SMILES IDX 20 12 8 13 7 14 6 15 5 16 4 17 3 18 2 19 1 20
REMARK H PARENT
REMARK Flexibility Score: inf
ROOT
ATOM      1  C   UNL     1      24.389 -30.993  23.925  1.00  0.00    -0.031 C 
ATOM      2  C   UNL     1      23.629 -31.261  25.004  1.00  0.00    -0.031 C 
ENDROOT
BRANCH   1   3
ATOM      3  C   UNL     1      25.472 -31.890  23.379  1.00  0.00     0.027 C 
BRANCH   3   4
ATOM      4  C   UNL     1      24.885 -33.014  22.512  1.00  0.00     0.004 C 
BRANCH   4   5
ATOM      5  C   UNL     1      25.936 -33.666  21.601  1.00  0.00     0.000 C 
BRANCH   5   6
ATOM      6  C   UNL     1      26.347 -35.068  22.079  1.00  0.00     0.000 C 
BRANCH   6   7
ATOM      7  C   UNL     1      25.413 -35.625  23.168  1.00  0.00     0.000 C 
BRANCH   7   8
ATOM      8  C   UNL     1      24.695 -36.928  22.759  1.00  0.00     0.006 C 
BRANCH   8   9
ATOM      9  C   UNL     1      24.233 -36.903  21.295  1.00  0.00     0.053 C 
BRANCH   9  10
ATOM     10  C   UNL     1      23.166 -37.925  21.065  1.00  0.00     0.041 C 
ATOM     11  O   UNL     1      22.232 -37.693  20.253  1.00  0.00    -0.550 OA
ATOM     12  O   UNL     1      23.228 -39.154  21.710  1.00  0.00    -0.550 OA
ENDBRANCH   9  10
ENDBRANCH   8   9
ENDBRANCH   7   8
ENDBRANCH   6   7
ENDBRANCH   5   6
ENDBRANCH   4   5
ENDBRANCH   3   4
ENDBRANCH   1   3
BRANCH   2  13
ATOM     13  C   UNL     1      23.741 -32.496  25.869  1.00  0.00     0.027 C 
BRANCH  13  14
ATOM     14  C   UNL     1      22.363 -33.017  26.312  1.00  0.00     0.004 C 
BRANCH  14  15
ATOM     15  C   UNL     1      21.167 -32.155  25.859  1.00  0.00     0.000 C 
BRANCH  15  16
ATOM     16  C   UNL     1      20.447 -31.391  26.987  1.00  0.00     0.000 C 
BRANCH  16  17
ATOM     17  C   UNL     1      20.520 -29.854  26.884  1.00  0.00    -0.000 C 
BRANCH  17  18
ATOM     18  C   UNL     1      21.293 -29.164  28.022  1.00  0.00    -0.000 C 
BRANCH  18  19
ATOM     19  C   UNL     1      22.543 -29.943  28.452  1.00  0.00    -0.003 C 
ATOM     20  C   UNL     1      23.810 -29.303  27.890  1.00  0.00     0.004 C 
ENDBRANCH  18  19
ENDBRANCH  17  18
ENDBRANCH  16  17
ENDBRANCH  15  16
ENDBRANCH  14  15
ENDBRANCH  13  14
ENDBRANCH   2  13
TORSDOF 15
ENDMDL
MODEL 4
REMARK VINA RESULT:    -3.973      3.552      7.758
REMARK INTER + INTRA:          -9.840
REMARK INTER:                  -8.351
REMARK INTRA:                  -1.490
REMARK UNBOUND:                -2.383
REMARK SMILES CCCCCCCCC=CCCCCCCCC(=O)[O-]
REMARK SMILES IDX 10 1 9 2 11 3 12 4 13 5 14 6 15 7 16 8 17 9 18 10 19 11
REMARK SMILES IDX 20 12 8 13 7 14 6 15 5 16 4 17 3 18 2 19 1 20
REMARK H PARENT
REMARK Flexibility Score: inf
ROOT
ATOM      1  C   UNL     1      25.002 -30.787  23.620  1.00  0.00    -0.031 C 
ATOM      2  C   UNL     1      24.282 -29.956  24.398  1.00  0.00    -0.031 C 
ENDROOT
BRANCH   1   3
ATOM      3  C   UNL     1      25.244 -32.250  23.900  1.00  0.00     0.027 C 
BRANCH   3   4
ATOM      4  C   UNL     1      24.796 -33.128  22.721  1.00  0.00     0.004 C 
BRANCH   4   5
ATOM      5  C   UNL     1      25.979 -33.634  21.882  1.00  0.00     0.000 C 
BRANCH   5   6
ATOM      6  C   UNL     1      26.076 -35.168  21.861  1.00  0.00     0.000 C 
BRANCH   6   7
ATOM      7  C   UNL     1      25.387 -35.827  23.068  1.00  0.00     0.000 C 
BRANCH   7   8
ATOM      8  C   UNL     1      24.688 -37.160  22.729  1.00  0.00     0.006 C 
BRANCH   8   9
ATOM      9  C   UNL     1      24.076 -37.155  21.321  1.00  0.00     0.053 C 
BRANCH   9  10
ATOM     10  C   UNL     1      22.727 -37.799  21.334  1.00  0.00     0.041 C 
ATOM     11  O   UNL     1      22.293 -38.339  22.385  1.00  0.00    -0.550 OA
ATOM     12  O   UNL     1      21.926 -37.760  20.199  1.00  0.00    -0.550 OA
ENDBRANCH   9  10
ENDBRANCH   8   9
ENDBRANCH   7   8
ENDBRANCH   6   7
ENDBRANCH   5   6
ENDBRANCH   4   5
ENDBRANCH   3   4
ENDBRANCH   1   3
BRANCH   2  13
ATOM     13  C   UNL     1      23.610 -30.336  25.698  1.00  0.00     0.027 C 
BRANCH  13  14
ATOM     14  C   UNL     1      23.750 -29.235  26.764  1.00  0.00     0.004 C 
BRANCH  14  15
ATOM     15  C   UNL     1      23.964 -29.747  28.203  1.00  0.00     0.000 C 
BRANCH  15  16
ATOM     16  C   UNL     1      24.376 -31.227  28.317  1.00  0.00     0.000 C 
BRANCH  16  17
ATOM     17  C   UNL     1      23.364 -32.132  29.048  1.00  0.00    -0.000 C 
BRANCH  17  18
ATOM     18  C   UNL     1      22.113 -32.499  28.231  1.00  0.00    -0.000 C 
BRANCH  18  19
ATOM     19  C   UNL     1      22.178 -33.916  27.646  1.00  0.00    -0.003 C 
ATOM     20  C   UNL     1      23.022 -33.948  26.375  1.00  0.00     0.004 C 
ENDBRANCH  18  19
ENDBRANCH  17  18
ENDBRANCH  16  17
ENDBRANCH  15  16
ENDBRANCH  14  15
ENDBRANCH  13  14
ENDBRANCH   2  13
TORSDOF 15
ENDMDL
MODEL 5
REMARK VINA RESULT:    -3.933      3.779      8.423
REMARK INTER + INTRA:          -9.766
REMARK INTER:                  -8.278
REMARK INTRA:                  -1.488
REMARK UNBOUND:                -2.383
REMARK SMILES CCCCCCCCC=CCCCCCCCC(=O)[O-]
REMARK SMILES IDX 10 1 9 2 11 3 12 4 13 5 14 6 15 7 16 8 17 9 18 10 19 11
REMARK SMILES IDX 20 12 8 13 7 14 6 15 5 16 4 17 3 18 2 19 1 20
REMARK H PARENT
REMARK Flexibility Score: inf
ROOT
ATOM      1  C   UNL     1      23.580 -31.828  24.534  1.00  0.00    -0.031 C 
ATOM      2  C   UNL     1      23.043 -30.920  25.370  1.00  0.00    -0.031 C 
ENDROOT
BRANCH   1   3
ATOM      3  C   UNL     1      24.835 -31.629  23.722  1.00  0.00     0.027 C 
BRANCH   3   4
ATOM      4  C   UNL     1      25.496 -32.971  23.371  1.00  0.00     0.004 C 
BRANCH   4   5
ATOM      5  C   UNL     1      25.254 -33.383  21.912  1.00  0.00     0.000 C 
BRANCH   5   6
ATOM      6  C   UNL     1      25.923 -34.721  21.555  1.00  0.00     0.000 C 
BRANCH   6   7
ATOM      7  C   UNL     1      25.931 -35.716  22.728  1.00  0.00     0.000 C 
BRANCH   7   8
ATOM      8  C   UNL     1      24.940 -36.885  22.553  1.00  0.00     0.006 C 
BRANCH   8   9
ATOM      9  C   UNL     1      24.169 -36.801  21.229  1.00  0.00     0.053 C 
BRANCH   9  10
ATOM     10  C   UNL     1      23.073 -37.819  21.194  1.00  0.00     0.041 C 
ATOM     11  O   UNL     1      22.718 -38.330  20.100  1.00  0.00    -0.550 OA
ATOM     12  O   UNL     1      22.478 -38.240  22.376  1.00  0.00    -0.550 OA
ENDBRANCH   9  10
ENDBRANCH   8   9
ENDBRANCH   7   8
ENDBRANCH   6   7
ENDBRANCH   5   6
ENDBRANCH   4   5
ENDBRANCH   3   4
ENDBRANCH   1   3
BRANCH   2  13
ATOM     13  C   UNL     1      23.592 -29.534  25.628  1.00  0.00     0.027 C 
BRANCH  13  14
ATOM     14  C   UNL     1      23.713 -29.232  27.131  1.00  0.00     0.004 C 
BRANCH  14  15
ATOM     15  C   UNL     1      23.680 -30.471  28.048  1.00  0.00     0.000 C 
BRANCH  15  16
ATOM     16  C   UNL     1      22.476 -30.545  29.007  1.00  0.00     0.000 C 
BRANCH  16  17
ATOM     17  C   UNL     1      21.368 -31.531  28.590  1.00  0.00    -0.000 C 
BRANCH  17  18
ATOM     18  C   UNL     1      19.990 -30.891  28.342  1.00  0.00    -0.000 C 
BRANCH  18  19
ATOM     19  C   UNL     1      19.981 -29.945  27.133  1.00  0.00    -0.003 C 
ATOM     20  C   UNL     1      19.645 -28.517  27.555  1.00  0.00     0.004 C 
ENDBRANCH  18  19
ENDBRANCH  17  18
ENDBRANCH  16  17
ENDBRANCH  15  16
ENDBRANCH  14  15
ENDBRANCH  13  14
ENDBRANCH   2  13
TORSDOF 15
ENDMDL
MODEL 6
REMARK VINA RESULT:    -3.910      3.537      8.009
REMARK INTER + INTRA:          -9.723
REMARK INTER:                  -7.757
REMARK INTRA:                  -1.966
REMARK UNBOUND:                -2.383
REMARK SMILES CCCCCCCCC=CCCCCCCCC(=O)[O-]
REMARK SMILES IDX 10 1 9 2 11 3 12 4 13 5 14 6 15 7 16 8 17 9 18 10 19 11
REMARK SMILES IDX 20 12 8 13 7 14 6 15 5 16 4 17 3 18 2 19 1 20
REMARK H PARENT
REMARK Flexibility Score: inf
ROOT
ATOM      1  C   UNL     1      23.209 -31.930  24.535  1.00  0.00    -0.031 C 
ATOM      2  C   UNL     1      23.082 -32.542  25.727  1.00  0.00    -0.031 C 
ENDROOT
BRANCH   1   3
ATOM      3  C   UNL     1      24.423 -31.159  24.078  1.00  0.00     0.027 C 
BRANCH   3   4
ATOM      4  C   UNL     1      25.448 -32.079  23.396  1.00  0.00     0.004 C 
BRANCH   4   5
ATOM      5  C   UNL     1      24.805 -33.004  22.351  1.00  0.00     0.000 C 
BRANCH   5   6
ATOM      6  C   UNL     1      25.813 -33.983  21.728  1.00  0.00     0.000 C 
BRANCH   6   7
ATOM      7  C   UNL     1      26.187 -35.138  22.675  1.00  0.00     0.000 C 
BRANCH   7   8
ATOM      8  C   UNL     1      24.997 -36.052  23.033  1.00  0.00     0.006 C 
BRANCH   8   9
ATOM      9  C   UNL     1      25.174 -37.478  22.492  1.00  0.00     0.053 C 
BRANCH   9  10
ATOM     10  C   UNL     1      23.914 -37.951  21.840  1.00  0.00     0.041 C 
ATOM     11  O   UNL     1      23.906 -38.242  20.615  1.00  0.00    -0.550 OA
ATOM     12  O   UNL     1      22.760 -38.120  22.595  1.00  0.00    -0.550 OA
ENDBRANCH   9  10
ENDBRANCH   8   9
ENDBRANCH   7   8
ENDBRANCH   6   7
ENDBRANCH   5   6
ENDBRANCH   4   5
ENDBRANCH   3   4
ENDBRANCH   1   3
BRANCH   2  13
ATOM     13  C   UNL     1      24.121 -32.546  26.826  1.00  0.00     0.027 C 
BRANCH  13  14
ATOM     14  C   UNL     1      23.664 -31.741  28.055  1.00  0.00     0.004 C 
BRANCH  14  15
ATOM     15  C   UNL     1      24.330 -30.359  28.210  1.00  0.00     0.000 C 
BRANCH  15  16
ATOM     16  C   UNL     1      23.637 -29.210  27.452  1.00  0.00     0.000 C 
BRANCH  16  17
ATOM     17  C   UNL     1      22.137 -29.035  27.759  1.00  0.00    -0.000 C 
BRANCH  17  18
ATOM     18  C   UNL     1      21.187 -29.494  26.639  1.00  0.00    -0.000 C 
BRANCH  18  19
ATOM     19  C   UNL     1      19.869 -30.069  27.174  1.00  0.00    -0.003 C 
ATOM     20  C   UNL     1      20.038 -31.522  27.609  1.00  0.00     0.004 C 
ENDBRANCH  18  19
ENDBRANCH  17  18
ENDBRANCH  16  17
ENDBRANCH  15  16
ENDBRANCH  14  15
ENDBRANCH  13  14
ENDBRANCH   2  13
TORSDOF 15
ENDMDL
MODEL 7
REMARK VINA RESULT:    -3.871      1.909      2.728
REMARK INTER + INTRA:          -9.649
REMARK INTER:                  -8.487
REMARK INTRA:                  -1.162
REMARK UNBOUND:                -2.383
REMARK SMILES CCCCCCCCC=CCCCCCCCC(=O)[O-]
REMARK SMILES IDX 10 1 9 2 11 3 12 4 13 5 14 6 15 7 16 8 17 9 18 10 19 11
REMARK SMILES IDX 20 12 8 13 7 14 6 15 5 16 4 17 3 18 2 19 1 20
REMARK H PARENT
REMARK Flexibility Score: inf
ROOT
ATOM      1  C   UNL     1      26.117 -35.719  22.562  1.00  0.00    -0.031 C 
ATOM      2  C   UNL     1      25.653 -36.853  23.119  1.00  0.00    -0.031 C 
ENDROOT
BRANCH   1   3
ATOM      3  C   UNL     1      25.404 -34.915  21.503  1.00  0.00     0.027 C 
BRANCH   3   4
ATOM      4  C   UNL     1      25.545 -33.406  21.755  1.00  0.00     0.004 C 
BRANCH   4   5
ATOM      5  C   UNL     1      25.413 -33.041  23.241  1.00  0.00     0.000 C 
BRANCH   5   6
ATOM      6  C   UNL     1      24.867 -31.620  23.456  1.00  0.00     0.000 C 
BRANCH   6   7
ATOM      7  C   UNL     1      24.137 -31.458  24.801  1.00  0.00     0.000 C 
BRANCH   7   8
ATOM      8  C   UNL     1      23.833 -29.990  25.165  1.00  0.00     0.006 C 
BRANCH   8   9
ATOM      9  C   UNL     1      22.485 -29.835  25.882  1.00  0.00     0.053 C 
BRANCH   9  10
ATOM     10  C   UNL     1      22.681 -29.794  27.364  1.00  0.00     0.041 C 
ATOM     11  O   UNL     1      23.346 -28.862  27.889  1.00  0.00    -0.550 OA
ATOM     12  O   UNL     1      22.087 -30.755  28.171  1.00  0.00    -0.550 OA
ENDBRANCH   9  10
ENDBRANCH   8   9
ENDBRANCH   7   8
ENDBRANCH   6   7
ENDBRANCH   5   6
ENDBRANCH   4   5
ENDBRANCH   3   4
ENDBRANCH   1   3
BRANCH   2  13
ATOM     13  C   UNL     1      24.349 -37.533  22.767  1.00  0.00     0.027 C 
BRANCH  13  14
ATOM     14  C   UNL     1      24.565 -38.772  21.881  1.00  0.00     0.004 C 
BRANCH  14  15
ATOM     15  C   UNL     1      23.828 -38.739  20.527  1.00  0.00     0.000 C 
BRANCH  15  16
ATOM     16  C   UNL     1      22.783 -37.617  20.378  1.00  0.00     0.000 C 
BRANCH  16  17
ATOM     17  C   UNL     1      21.316 -38.090  20.347  1.00  0.00    -0.000 C 
BRANCH  17  18
ATOM     18  C   UNL     1      20.862 -38.877  21.589  1.00  0.00    -0.000 C 
BRANCH  18  19
ATOM     19  C   UNL     1      19.822 -39.958  21.263  1.00  0.00    -0.003 C 
ATOM     20  C   UNL     1      19.411 -39.900  19.794  1.00  0.00     0.004 C 
ENDBRANCH  18  19
ENDBRANCH  17  18
ENDBRANCH  16  17
ENDBRANCH  15  16
ENDBRANCH  14  15
ENDBRANCH  13  14
ENDBRANCH   2  13
TORSDOF 15
ENDMDL
MODEL 8
REMARK VINA RESULT:    -3.853      2.062      4.874
REMARK INTER + INTRA:          -9.615
REMARK INTER:                  -8.143
REMARK INTRA:                  -1.472
REMARK UNBOUND:                -2.383
REMARK SMILES CCCCCCCCC=CCCCCCCCC(=O)[O-]
REMARK SMILES IDX 10 1 9 2 11 3 12 4 13 5 14 6 15 7 16 8 17 9 18 10 19 11
REMARK SMILES IDX 20 12 8 13 7 14 6 15 5 16 4 17 3 18 2 19 1 20
REMARK H PARENT
REMARK Flexibility Score: inf
ROOT
ATOM      1  C   UNL     1      24.165 -31.239  24.549  1.00  0.00    -0.031 C 
ATOM      2  C   UNL     1      24.831 -31.684  23.466  1.00  0.00    -0.031 C 
ENDROOT
BRANCH   1   3
ATOM      3  C   UNL     1      23.921 -32.033  25.808  1.00  0.00     0.027 C 
BRANCH   3   4
ATOM      4  C   UNL     1      22.528 -32.680  25.802  1.00  0.00     0.004 C 
BRANCH   4   5
ATOM      5  C   UNL     1      21.504 -31.867  24.996  1.00  0.00     0.000 C 
BRANCH   5   6
ATOM      6  C   UNL     1      20.906 -30.702  25.802  1.00  0.00     0.000 C 
BRANCH   6   7
ATOM      7  C   UNL     1      20.721 -31.041  27.292  1.00  0.00     0.000 C 
BRANCH   7   8
ATOM      8  C   UNL     1      21.265 -29.955  28.244  1.00  0.00     0.006 C 
BRANCH   8   9
ATOM      9  C   UNL     1      22.530 -30.410  28.984  1.00  0.00     0.053 C 
BRANCH   9  10
ATOM     10  C   UNL     1      23.733 -29.695  28.454  1.00  0.00     0.041 C 
ATOM     11  O   UNL     1      24.864 -29.891  28.971  1.00  0.00    -0.550 OA
ATOM     12  O   UNL     1      23.614 -28.852  27.356  1.00  0.00    -0.550 OA
ENDBRANCH   9  10
ENDBRANCH   8   9
ENDBRANCH   7   8
ENDBRANCH   6   7
ENDBRANCH   5   6
ENDBRANCH   4   5
ENDBRANCH   3   4
ENDBRANCH   1   3
BRANCH   2  13
ATOM     13  C   UNL     1      25.431 -33.063  23.313  1.00  0.00     0.027 C 
BRANCH  13  14
ATOM     14  C   UNL     1      25.382 -33.555  21.856  1.00  0.00     0.004 C 
BRANCH  14  15
ATOM     15  C   UNL     1      25.508 -35.082  21.681  1.00  0.00     0.000 C 
BRANCH  15  16
ATOM     16  C   UNL     1      25.600 -35.887  22.992  1.00  0.00     0.000 C 
BRANCH  16  17
ATOM     17  C   UNL     1      25.193 -37.369  22.879  1.00  0.00    -0.000 C 
BRANCH  17  18
ATOM     18  C   UNL     1      24.499 -37.753  21.560  1.00  0.00    -0.000 C 
BRANCH  18  19
ATOM     19  C   UNL     1      22.976 -37.874  21.701  1.00  0.00    -0.003 C 
ATOM     20  C   UNL     1      22.287 -37.758  20.344  1.00  0.00     0.004 C 
ENDBRANCH  18  19
ENDBRANCH  17  18
ENDBRANCH  16  17
ENDBRANCH  15  16
ENDBRANCH  14  15
ENDBRANCH  13  14
ENDBRANCH   2  13
TORSDOF 15
ENDMDL
MODEL 9
REMARK VINA RESULT:    -3.803      4.237      8.566
REMARK INTER + INTRA:          -9.520
REMARK INTER:                  -7.275
REMARK INTRA:                  -2.245
REMARK UNBOUND:                -2.383
REMARK SMILES CCCCCCCCC=CCCCCCCCC(=O)[O-]
REMARK SMILES IDX 10 1 9 2 11 3 12 4 13 5 14 6 15 7 16 8 17 9 18 10 19 11
REMARK SMILES IDX 20 12 8 13 7 14 6 15 5 16 4 17 3 18 2 19 1 20
REMARK H PARENT
REMARK Flexibility Score: inf
ROOT
ATOM      1  C   UNL     1      22.258 -33.067  28.540  1.00  0.00    -0.031 C 
ATOM      2  C   UNL     1      23.184 -32.366  29.221  1.00  0.00    -0.031 C 
ENDROOT
BRANCH   1   3
ATOM      3  C   UNL     1      22.346 -33.436  27.080  1.00  0.00     0.027 C 
BRANCH   3   4
ATOM      4  C   UNL     1      21.436 -32.545  26.220  1.00  0.00     0.004 C 
BRANCH   4   5
ATOM      5  C   UNL     1      22.171 -31.945  25.012  1.00  0.00     0.000 C 
BRANCH   5   6
ATOM      6  C   UNL     1      23.678 -32.251  25.024  1.00  0.00     0.000 C 
BRANCH   6   7
ATOM      7  C   UNL     1      24.433 -31.578  23.864  1.00  0.00     0.000 C 
BRANCH   7   8
ATOM      8  C   UNL     1      24.984 -32.577  22.825  1.00  0.00     0.006 C 
BRANCH   8   9
ATOM      9  C   UNL     1      25.563 -33.838  23.479  1.00  0.00     0.053 C 
BRANCH   9  10
ATOM     10  C   UNL     1      26.035 -34.800  22.436  1.00  0.00     0.041 C 
ATOM     11  O   UNL     1      26.581 -34.376  21.384  1.00  0.00    -0.550 OA
ATOM     12  O   UNL     1      25.916 -36.168  22.646  1.00  0.00    -0.550 OA
ENDBRANCH   9  10
ENDBRANCH   8   9
ENDBRANCH   7   8
ENDBRANCH   6   7
ENDBRANCH   5   6
ENDBRANCH   4   5
ENDBRANCH   3   4
ENDBRANCH   1   3
BRANCH   2  13
ATOM     13  C   UNL     1      24.463 -31.807  28.639  1.00  0.00     0.027 C 
BRANCH  13  14
ATOM     14  C   UNL     1      24.521 -30.273  28.741  1.00  0.00     0.004 C 
BRANCH  14  15
ATOM     15  C   UNL     1      23.854 -29.518  27.573  1.00  0.00     0.000 C 
BRANCH  15  16
ATOM     16  C   UNL     1      22.690 -28.591  27.973  1.00  0.00     0.000 C 
BRANCH  16  17
ATOM     17  C   UNL     1      21.349 -29.304  28.236  1.00  0.00    -0.000 C 
BRANCH  17  18
ATOM     18  C   UNL     1      20.326 -29.206  27.091  1.00  0.00    -0.000 C 
BRANCH  18  19
ATOM     19  C   UNL     1      18.878 -29.111  27.590  1.00  0.00    -0.003 C 
ATOM     20  C   UNL     1      18.244 -27.783  27.189  1.00  0.00     0.004 C 
ENDBRANCH  18  19
ENDBRANCH  17  18
ENDBRANCH  16  17
ENDBRANCH  15  16
ENDBRANCH  14  15
ENDBRANCH  13  14
ENDBRANCH   2  13
TORSDOF 15
ENDMDL
