MODEL 1
REMARK VINA RESULT:    -5.325      0.000      0.000
REMARK INTER + INTRA:          -5.636
REMARK INTER:                  -5.636
REMARK INTRA:                   0.000
REMARK UNBOUND:                 0.000
REMARK SMILES O=c1ccc2cc(O)c(O)cc2o1
REMARK SMILES IDX 4 1 3 2 2 3 1 4 13 5 12 6 11 7 9 8 7 9 6 10 5 11 8 12 10 14
REMARK H PARENT 8 13 10 15
REMARK Flexibility Score: inf
ROOT
ATOM      1  C   UNL     1      -8.686   4.914   1.796  1.00  0.00     0.019 A 
ATOM      2  C   UNL     1      -7.984   5.221   2.961  1.00  0.00     0.094 A 
ATOM      3  C   UNL     1      -6.762   5.892   2.860  1.00  0.00     0.336 A 
ATOM      4  O   UNL     1      -6.113   6.179   3.900  1.00  0.00    -0.246 OA
ATOM      5  O   UNL     1      -6.278   6.232   1.667  1.00  0.00    -0.423 OA
ATOM      6  C   UNL     1      -6.915   5.959   0.531  1.00  0.00     0.142 A 
ATOM      7  C   UNL     1      -6.357   6.341  -0.693  1.00  0.00     0.098 A 
ATOM      8  C   UNL     1      -7.025   6.055  -1.893  1.00  0.00     0.161 A 
ATOM      9  C   UNL     1      -8.256   5.383  -1.867  1.00  0.00     0.158 A 
ATOM     10  C   UNL     1      -8.820   4.998  -0.642  1.00  0.00     0.062 A 
ATOM     11  C   UNL     1      -8.154   5.284   0.557  1.00  0.00     0.022 A 
ENDROOT
BRANCH   9  12
ATOM     12  O   UNL     1      -8.913   5.104  -3.064  1.00  0.00    -0.504 OA
ATOM     13  H   UNL     1      -9.588   4.352  -3.136  1.00  0.00     0.293 HD
ENDBRANCH   9  12
BRANCH   8  14
ATOM     14  O   UNL     1      -6.471   6.434  -3.114  1.00  0.00    -0.504 OA
ATOM     15  H   UNL     1      -6.084   5.753  -3.756  1.00  0.00     0.293 HD
ENDBRANCH   8  14
TORSDOF 2
ENDMDL
MODEL 2
REMARK VINA RESULT:    -5.286      1.150      4.666
REMARK INTER + INTRA:          -5.595
REMARK INTER:                  -5.595
REMARK INTRA:                   0.000
REMARK UNBOUND:                 0.000
REMARK SMILES O=c1ccc2cc(O)c(O)cc2o1
REMARK SMILES IDX 4 1 3 2 2 3 1 4 13 5 12 6 11 7 9 8 7 9 6 10 5 11 8 12 10 14
REMARK H PARENT 8 13 10 15
REMARK Flexibility Score: inf
ROOT
ATOM      1  C   UNL     1      -8.947   4.735   0.087  1.00  0.00     0.019 A 
ATOM      2  C   UNL     1      -8.512   5.128  -1.178  1.00  0.00     0.094 A 
ATOM      3  C   UNL     1      -7.393   5.961  -1.282  1.00  0.00     0.336 A 
ATOM      4  O   UNL     1      -6.984   6.327  -2.415  1.00  0.00    -0.246 OA
ATOM      5  O   UNL     1      -6.756   6.372  -0.188  1.00  0.00    -0.423 OA
ATOM      6  C   UNL     1      -7.138   6.020   1.038  1.00  0.00     0.142 A 
ATOM      7  C   UNL     1      -6.429   6.483   2.151  1.00  0.00     0.098 A 
ATOM      8  C   UNL     1      -6.828   6.115   3.445  1.00  0.00     0.161 A 
ATOM      9  C   UNL     1      -7.941   5.281   3.625  1.00  0.00     0.158 A 
ATOM     10  C   UNL     1      -8.656   4.815   2.511  1.00  0.00     0.062 A 
ATOM     11  C   UNL     1      -8.258   5.181   1.219  1.00  0.00     0.022 A 
ENDROOT
BRANCH   9  12
ATOM     12  O   UNL     1      -8.331   4.921   4.913  1.00  0.00    -0.504 OA
ATOM     13  H   UNL     1      -7.664   4.569   5.590  1.00  0.00     0.293 HD
ENDBRANCH   9  12
BRANCH   8  14
ATOM     14  O   UNL     1      -6.123   6.574   4.555  1.00  0.00    -0.504 OA
ATOM     15  H   UNL     1      -5.238   7.059   4.459  1.00  0.00     0.293 HD
ENDBRANCH   8  14
TORSDOF 2
ENDMDL
MODEL 3
REMARK VINA RESULT:    -5.212      1.587      2.361
REMARK INTER + INTRA:          -5.517
REMARK INTER:                  -5.517
REMARK INTRA:                   0.000
REMARK UNBOUND:                 0.000
REMARK SMILES O=c1ccc2cc(O)c(O)cc2o1
REMARK SMILES IDX 4 1 3 2 2 3 1 4 13 5 12 6 11 7 9 8 7 9 6 10 5 11 8 12 10 14
REMARK H PARENT 8 13 10 15
REMARK Flexibility Score: inf
ROOT
ATOM      1  C   UNL     1      -8.274   5.129   4.322  1.00  0.00     0.019 A 
ATOM      2  C   UNL     1      -7.541   5.758   5.327  1.00  0.00     0.094 A 
ATOM      3  C   UNL     1      -6.451   6.559   4.972  1.00  0.00     0.336 A 
ATOM      4  O   UNL     1      -5.777   7.136   5.865  1.00  0.00    -0.246 OA
ATOM      5  O   UNL     1      -6.121   6.717   3.692  1.00  0.00    -0.423 OA
ATOM      6  C   UNL     1      -6.793   6.136   2.702  1.00  0.00     0.142 A 
ATOM      7  C   UNL     1      -6.399   6.339   1.376  1.00  0.00     0.098 A 
ATOM      8  C   UNL     1      -7.105   5.728   0.328  1.00  0.00     0.161 A 
ATOM      9  C   UNL     1      -8.209   4.910   0.610  1.00  0.00     0.158 A 
ATOM     10  C   UNL     1      -8.609   4.704   1.939  1.00  0.00     0.062 A 
ATOM     11  C   UNL     1      -7.905   5.314   2.986  1.00  0.00     0.022 A 
ENDROOT
BRANCH   9  12
ATOM     12  O   UNL     1      -8.905   4.308  -0.437  1.00  0.00    -0.504 OA
ATOM     13  H   UNL     1      -9.917   4.263  -0.446  1.00  0.00     0.293 HD
ENDBRANCH   9  12
BRANCH   8  14
ATOM     14  O   UNL     1      -6.714   5.929  -0.994  1.00  0.00    -0.504 OA
ATOM     15  H   UNL     1      -5.793   5.663  -1.322  1.00  0.00     0.293 HD
ENDBRANCH   8  14
TORSDOF 2
ENDMDL
MODEL 4
REMARK VINA RESULT:    -5.076      1.214      5.114
REMARK INTER + INTRA:          -5.372
REMARK INTER:                  -5.372
REMARK INTRA:                   0.000
REMARK UNBOUND:                 0.000
REMARK SMILES O=c1ccc2cc(O)c(O)cc2o1
REMARK SMILES IDX 4 1 3 2 2 3 1 4 13 5 12 6 11 7 9 8 7 9 6 10 5 11 8 12 10 14
REMARK H PARENT 8 13 10 15
REMARK Flexibility Score: inf
ROOT
ATOM      1  C   UNL     1      -6.312   6.237  -0.429  1.00  0.00     0.019 A 
ATOM      2  C   UNL     1      -7.061   5.955  -1.570  1.00  0.00     0.094 A 
ATOM      3  C   UNL     1      -8.329   5.385  -1.426  1.00  0.00     0.336 A 
ATOM      4  O   UNL     1      -9.022   5.122  -2.444  1.00  0.00    -0.246 OA
ATOM      5  O   UNL     1      -8.813   5.117  -0.214  1.00  0.00    -0.423 OA
ATOM      6  C   UNL     1      -8.131   5.371   0.900  1.00  0.00     0.142 A 
ATOM      7  C   UNL     1      -8.690   5.067   2.146  1.00  0.00     0.098 A 
ATOM      8  C   UNL     1      -7.976   5.333   3.324  1.00  0.00     0.161 A 
ATOM      9  C   UNL     1      -6.697   5.905   3.255  1.00  0.00     0.158 A 
ATOM     10  C   UNL     1      -6.132   6.211   2.008  1.00  0.00     0.062 A 
ATOM     11  C   UNL     1      -6.844   5.946   0.830  1.00  0.00     0.022 A 
ENDROOT
BRANCH   9  12
ATOM     12  O   UNL     1      -5.995   6.166   4.430  1.00  0.00    -0.504 OA
ATOM     13  H   UNL     1      -6.445   6.583   5.236  1.00  0.00     0.293 HD
ENDBRANCH   9  12
BRANCH   8  14
ATOM     14  O   UNL     1      -8.531   5.032   4.566  1.00  0.00    -0.504 OA
ATOM     15  H   UNL     1      -9.473   4.669   4.652  1.00  0.00     0.293 HD
ENDBRANCH   8  14
TORSDOF 2
ENDMDL
MODEL 5
REMARK VINA RESULT:    -4.978      2.261      3.627
REMARK INTER + INTRA:          -5.269
REMARK INTER:                  -5.269
REMARK INTRA:                   0.000
REMARK UNBOUND:                 0.000
REMARK SMILES O=c1ccc2cc(O)c(O)cc2o1
REMARK SMILES IDX 4 1 3 2 2 3 1 4 13 5 12 6 11 7 9 8 7 9 6 10 5 11 8 12 10 14
REMARK H PARENT 8 13 10 15
REMARK Flexibility Score: inf
ROOT
ATOM      1  C   UNL     1      -6.660   6.330  -0.650  1.00  0.00     0.019 A 
ATOM      2  C   UNL     1      -7.251   5.488   0.290  1.00  0.00     0.094 A 
ATOM      3  C   UNL     1      -8.357   4.720  -0.087  1.00  0.00     0.336 A 
ATOM      4  O   UNL     1      -8.905   3.953   0.747  1.00  0.00    -0.246 OA
ATOM      5  O   UNL     1      -8.837   4.794  -1.327  1.00  0.00    -0.423 OA
ATOM      6  C   UNL     1      -8.302   5.584  -2.255  1.00  0.00     0.142 A 
ATOM      7  C   UNL     1      -8.849   5.621  -3.541  1.00  0.00     0.098 A 
ATOM      8  C   UNL     1      -8.290   6.452  -4.523  1.00  0.00     0.161 A 
ATOM      9  C   UNL     1      -7.178   7.251  -4.216  1.00  0.00     0.158 A 
ATOM     10  C   UNL     1      -6.626   7.218  -2.927  1.00  0.00     0.062 A 
ATOM     11  C   UNL     1      -7.183   6.388  -1.945  1.00  0.00     0.022 A 
ENDROOT
BRANCH   9  12
ATOM     12  O   UNL     1      -6.628   8.073  -5.197  1.00  0.00    -0.504 OA
ATOM     13  H   UNL     1      -6.378   9.036  -5.004  1.00  0.00     0.293 HD
ENDBRANCH   9  12
BRANCH   8  14
ATOM     14  O   UNL     1      -8.832   6.490  -5.806  1.00  0.00    -0.504 OA
ATOM     15  H   UNL     1      -9.683   7.003  -6.007  1.00  0.00     0.293 HD
ENDBRANCH   8  14
TORSDOF 2
ENDMDL
MODEL 6
REMARK VINA RESULT:    -4.948      1.891      2.805
REMARK INTER + INTRA:          -5.238
REMARK INTER:                  -5.238
REMARK INTRA:                   0.000
REMARK UNBOUND:                 0.000
REMARK SMILES O=c1ccc2cc(O)c(O)cc2o1
REMARK SMILES IDX 4 1 3 2 2 3 1 4 13 5 12 6 11 7 9 8 7 9 6 10 5 11 8 12 10 14
REMARK H PARENT 8 13 10 15
REMARK Flexibility Score: inf
ROOT
ATOM      1  C   UNL     1      -8.722   5.015  -1.179  1.00  0.00     0.019 A 
ATOM      2  C   UNL     1      -8.067   5.068   0.051  1.00  0.00     0.094 A 
ATOM      3  C   UNL     1      -6.922   5.861   0.176  1.00  0.00     0.336 A 
ATOM      4  O   UNL     1      -6.316   5.923   1.278  1.00  0.00    -0.246 OA
ATOM      5  O   UNL     1      -6.467   6.555  -0.866  1.00  0.00    -0.423 OA
ATOM      6  C   UNL     1      -7.062   6.533  -2.056  1.00  0.00     0.142 A 
ATOM      7  C   UNL     1      -6.538   7.282  -3.113  1.00  0.00     0.098 A 
ATOM      8  C   UNL     1      -7.162   7.262  -4.370  1.00  0.00     0.161 A 
ATOM      9  C   UNL     1      -8.315   6.488  -4.568  1.00  0.00     0.158 A 
ATOM     10  C   UNL     1      -8.844   5.735  -3.511  1.00  0.00     0.062 A 
ATOM     11  C   UNL     1      -8.223   5.754  -2.255  1.00  0.00     0.022 A 
ENDROOT
BRANCH   9  12
ATOM     12  O   UNL     1      -8.928   6.474  -5.820  1.00  0.00    -0.504 OA
ATOM     13  H   UNL     1      -8.650   7.113  -6.555  1.00  0.00     0.293 HD
ENDBRANCH   9  12
BRANCH   8  14
ATOM     14  O   UNL     1      -6.642   8.008  -5.426  1.00  0.00    -0.504 OA
ATOM     15  H   UNL     1      -7.230   8.342  -6.180  1.00  0.00     0.293 HD
ENDBRANCH   8  14
TORSDOF 2
ENDMDL
MODEL 7
REMARK VINA RESULT:    -4.837      1.110      2.256
REMARK INTER + INTRA:          -5.119
REMARK INTER:                  -5.119
REMARK INTRA:                   0.000
REMARK UNBOUND:                 0.000
REMARK SMILES O=c1ccc2cc(O)c(O)cc2o1
REMARK SMILES IDX 4 1 3 2 2 3 1 4 13 5 12 6 11 7 9 8 7 9 6 10 5 11 8 12 10 14
REMARK H PARENT 8 13 10 15
REMARK Flexibility Score: inf
ROOT
ATOM      1  C   UNL     1      -6.015   6.201   1.954  1.00  0.00     0.019 A 
ATOM      2  C   UNL     1      -6.537   5.881   3.206  1.00  0.00     0.094 A 
ATOM      3  C   UNL     1      -7.809   5.305   3.284  1.00  0.00     0.336 A 
ATOM      4  O   UNL     1      -8.298   5.008   4.406  1.00  0.00    -0.246 OA
ATOM      5  O   UNL     1      -8.509   5.067   2.177  1.00  0.00    -0.423 OA
ATOM      6  C   UNL     1      -8.048   5.356   0.963  1.00  0.00     0.142 A 
ATOM      7  C   UNL     1      -8.829   5.083  -0.165  1.00  0.00     0.098 A 
ATOM      8  C   UNL     1      -8.348   5.387  -1.447  1.00  0.00     0.161 A 
ATOM      9  C   UNL     1      -7.079   5.966  -1.601  1.00  0.00     0.158 A 
ATOM     10  C   UNL     1      -6.292   6.242  -0.474  1.00  0.00     0.062 A 
ATOM     11  C   UNL     1      -6.771   5.939   0.808  1.00  0.00     0.022 A 
ENDROOT
BRANCH   9  12
ATOM     12  O   UNL     1      -6.609   6.265  -2.879  1.00  0.00    -0.504 OA
ATOM     13  H   UNL     1      -5.979   5.643  -3.371  1.00  0.00     0.293 HD
ENDBRANCH   9  12
BRANCH   8  14
ATOM     14  O   UNL     1      -9.123   5.116  -2.572  1.00  0.00    -0.504 OA
ATOM     15  H   UNL     1      -9.464   4.182  -2.769  1.00  0.00     0.293 HD
ENDBRANCH   8  14
TORSDOF 2
ENDMDL
MODEL 8
REMARK VINA RESULT:    -4.689      2.082      2.366
REMARK INTER + INTRA:          -4.963
REMARK INTER:                  -4.963
REMARK INTRA:                   0.000
REMARK UNBOUND:                 0.000
REMARK SMILES O=c1ccc2cc(O)c(O)cc2o1
REMARK SMILES IDX 4 1 3 2 2 3 1 4 13 5 12 6 11 7 9 8 7 9 6 10 5 11 8 12 10 14
REMARK H PARENT 8 13 10 15
REMARK Flexibility Score: inf
ROOT
ATOM      1  C   UNL     1      -8.694   4.320   0.010  1.00  0.00     0.019 A 
ATOM      2  C   UNL     1      -8.840   4.689   1.347  1.00  0.00     0.094 A 
ATOM      3  C   UNL     1      -8.986   6.042   1.666  1.00  0.00     0.336 A 
ATOM      4  O   UNL     1      -9.119   6.395   2.867  1.00  0.00    -0.246 OA
ATOM      5  O   UNL     1      -8.985   6.964   0.705  1.00  0.00    -0.423 OA
ATOM      6  C   UNL     1      -8.849   6.656  -0.582  1.00  0.00     0.142 A 
ATOM      7  C   UNL     1      -8.855   7.668  -1.547  1.00  0.00     0.098 A 
ATOM      8  C   UNL     1      -8.711   7.348  -2.906  1.00  0.00     0.161 A 
ATOM      9  C   UNL     1      -8.561   6.010  -3.300  1.00  0.00     0.158 A 
ATOM     10  C   UNL     1      -8.554   4.992  -2.335  1.00  0.00     0.062 A 
ATOM     11  C   UNL     1      -8.698   5.309  -0.978  1.00  0.00     0.022 A 
ENDROOT
BRANCH   9  12
ATOM     12  O   UNL     1      -8.419   5.701  -4.651  1.00  0.00    -0.504 OA
ATOM     13  H   UNL     1      -7.920   4.876  -4.958  1.00  0.00     0.293 HD
ENDBRANCH   9  12
BRANCH   8  14
ATOM     14  O   UNL     1      -8.717   8.354  -3.870  1.00  0.00    -0.504 OA
ATOM     15  H   UNL     1      -7.914   8.955  -4.015  1.00  0.00     0.293 HD
ENDBRANCH   8  14
TORSDOF 2
ENDMDL
MODEL 9
REMARK VINA RESULT:    -4.486      1.813      4.896
REMARK INTER + INTRA:          -4.748
REMARK INTER:                  -4.748
REMARK INTRA:                   0.000
REMARK UNBOUND:                 0.000
REMARK SMILES O=c1ccc2cc(O)c(O)cc2o1
REMARK SMILES IDX 4 1 3 2 2 3 1 4 13 5 12 6 11 7 9 8 7 9 6 10 5 11 8 12 10 14
REMARK H PARENT 8 13 10 15
REMARK Flexibility Score: inf
ROOT
ATOM      1  C   UNL     1      -9.292   5.503  -2.763  1.00  0.00     0.019 A 
ATOM      2  C   UNL     1      -9.177   6.307  -3.896  1.00  0.00     0.094 A 
ATOM      3  C   UNL     1      -8.447   7.497  -3.813  1.00  0.00     0.336 A 
ATOM      4  O   UNL     1      -8.332   8.237  -4.825  1.00  0.00    -0.246 OA
ATOM      5  O   UNL     1      -7.871   7.854  -2.667  1.00  0.00    -0.423 OA
ATOM      6  C   UNL     1      -7.955   7.116  -1.563  1.00  0.00     0.142 A 
ATOM      7  C   UNL     1      -7.329   7.543  -0.388  1.00  0.00     0.098 A 
ATOM      8  C   UNL     1      -7.415   6.769   0.780  1.00  0.00     0.161 A 
ATOM      9  C   UNL     1      -8.131   5.562   0.769  1.00  0.00     0.158 A 
ATOM     10  C   UNL     1      -8.761   5.130  -0.407  1.00  0.00     0.062 A 
ATOM     11  C   UNL     1      -8.676   5.902  -1.573  1.00  0.00     0.022 A 
ENDROOT
BRANCH   9  12
ATOM     12  O   UNL     1      -8.211   4.799   1.933  1.00  0.00    -0.504 OA
ATOM     13  H   UNL     1      -7.796   5.111   2.802  1.00  0.00     0.293 HD
ENDBRANCH   9  12
BRANCH   8  14
ATOM     14  O   UNL     1      -6.792   7.191   1.952  1.00  0.00    -0.504 OA
ATOM     15  H   UNL     1      -6.075   7.908   1.943  1.00  0.00     0.293 HD
ENDBRANCH   8  14
TORSDOF 2
ENDMDL
