MODEL 1
REMARK VINA RESULT:    -3.783      0.000      0.000
REMARK INTER + INTRA:         -10.166
REMARK INTER:                  -8.649
REMARK INTRA:                  -1.517
REMARK UNBOUND:                -1.517
REMARK SMILES CCCCCCCCCCCCCCCCCCCCCCCC(=O)[O-]
REMARK SMILES IDX 13 1 14 2 15 3 16 4 17 5 18 6 19 7 20 8 21 9 22 10 23 11
REMARK SMILES IDX 24 12 25 13 26 14 12 15 11 16 10 17 9 18 8 19 7 20 6 21 5 22
REMARK SMILES IDX 4 23 3 24 2 25 1 26
REMARK H PARENT
REMARK Flexibility Score: inf
ROOT
ATOM      1  C   UNL     1       6.255  10.403  33.461  1.00  0.00     0.000 C 
ENDROOT
BRANCH   1   2
ATOM      2  C   UNL     1       6.019   8.977  34.001  1.00  0.00     0.000 C 
BRANCH   2   3
ATOM      3  C   UNL     1       6.732   7.859  33.221  1.00  0.00     0.000 C 
BRANCH   3   4
ATOM      4  C   UNL     1       6.171   6.465  33.530  1.00  0.00     0.000 C 
BRANCH   4   5
ATOM      5  C   UNL     1       5.676   6.382  34.982  1.00  0.00     0.000 C 
BRANCH   5   6
ATOM      6  C   UNL     1       5.709   4.949  35.538  1.00  0.00     0.000 C 
BRANCH   6   7
ATOM      7  C   UNL     1       5.252   3.905  34.509  1.00  0.00     0.000 C 
BRANCH   7   8
ATOM      8  C   UNL     1       5.733   2.499  34.895  1.00  0.00     0.000 C 
BRANCH   8   9
ATOM      9  C   UNL     1       6.480   2.488  36.246  1.00  0.00     0.000 C 
BRANCH   9  10
ATOM     10  C   UNL     1       7.819   1.726  36.204  1.00  0.00     0.006 C 
BRANCH  10  11
ATOM     11  C   UNL     1       8.933   2.367  37.043  1.00  0.00     0.053 C 
BRANCH  11  12
ATOM     12  C   UNL     1       9.674   3.422  36.277  1.00  0.00     0.041 C 
ATOM     13  O   UNL     1      10.690   3.120  35.598  1.00  0.00    -0.550 OA
ATOM     14  O   UNL     1       9.243   4.742  36.318  1.00  0.00    -0.550 OA
ENDBRANCH  11  12
ENDBRANCH  10  11
ENDBRANCH   9  10
ENDBRANCH   8   9
ENDBRANCH   7   8
ENDBRANCH   6   7
ENDBRANCH   5   6
ENDBRANCH   4   5
ENDBRANCH   3   4
ENDBRANCH   2   3
ENDBRANCH   1   2
BRANCH   1  15
ATOM     15  C   UNL     1       5.000  11.296  33.396  1.00  0.00     0.000 C 
BRANCH  15  16
ATOM     16  C   UNL     1       5.256  12.792  33.652  1.00  0.00     0.000 C 
BRANCH  16  17
ATOM     17  C   UNL     1       5.330  13.137  35.150  1.00  0.00     0.000 C 
BRANCH  17  18
ATOM     18  C   UNL     1       5.464  14.649  35.409  1.00  0.00    -0.000 C 
BRANCH  18  19
ATOM     19  C   UNL     1       6.521  15.365  34.547  1.00  0.00    -0.000 C 
BRANCH  19  20
ATOM     20  C   UNL     1       6.521  16.901  34.651  1.00  0.00    -0.000 C 
BRANCH  20  21
ATOM     21  C   UNL     1       5.147  17.504  35.014  1.00  0.00    -0.000 C 
BRANCH  21  22
ATOM     22  C   UNL     1       5.262  18.900  35.652  1.00  0.00    -0.000 C 
BRANCH  22  23
ATOM     23  C   UNL     1       6.678  19.488  35.539  1.00  0.00    -0.000 C 
BRANCH  23  24
ATOM     24  C   UNL     1       6.713  20.789  34.719  1.00  0.00    -0.000 C 
BRANCH  24  25
ATOM     25  C   UNL     1       7.253  20.574  33.297  1.00  0.00    -0.003 C 
ATOM     26  C   UNL     1       6.227  19.931  32.363  1.00  0.00     0.004 C 
ENDBRANCH  24  25
ENDBRANCH  23  24
ENDBRANCH  22  23
ENDBRANCH  21  22
ENDBRANCH  20  21
ENDBRANCH  19  20
ENDBRANCH  18  19
ENDBRANCH  17  18
ENDBRANCH  16  17
ENDBRANCH  15  16
ENDBRANCH   1  15
TORSDOF 22
ENDMDL
MODEL 2
REMARK VINA RESULT:    -3.217      4.735     12.909
REMARK INTER + INTRA:          -8.871
REMARK INTER:                  -7.446
REMARK INTRA:                  -1.425
REMARK UNBOUND:                -1.517
REMARK SMILES CCCCCCCCCCCCCCCCCCCCCCCC(=O)[O-]
REMARK SMILES IDX 13 1 14 2 15 3 16 4 17 5 18 6 19 7 20 8 21 9 22 10 23 11
REMARK SMILES IDX 24 12 25 13 26 14 12 15 11 16 10 17 9 18 8 19 7 20 6 21 5 22
REMARK SMILES IDX 4 23 3 24 2 25 1 26
REMARK H PARENT
REMARK Flexibility Score: inf
ROOT
ATOM      1  C   UNL     1       6.286   8.504  34.458  1.00  0.00     0.000 C 
ENDROOT
BRANCH   1   2
ATOM      2  C   UNL     1       5.426   9.784  34.493  1.00  0.00     0.000 C 
BRANCH   2   3
ATOM      3  C   UNL     1       5.678  10.769  33.338  1.00  0.00     0.000 C 
BRANCH   3   4
ATOM      4  C   UNL     1       5.198  12.193  33.653  1.00  0.00     0.000 C 
BRANCH   4   5
ATOM      5  C   UNL     1       5.671  12.635  35.046  1.00  0.00     0.000 C 
BRANCH   5   6
ATOM      6  C   UNL     1       4.886  13.842  35.583  1.00  0.00     0.000 C 
BRANCH   6   7
ATOM      7  C   UNL     1       5.681  15.153  35.489  1.00  0.00     0.000 C 
BRANCH   7   8
ATOM      8  C   UNL     1       5.153  16.193  36.487  1.00  0.00     0.000 C 
BRANCH   8   9
ATOM      9  C   UNL     1       5.169  17.623  35.905  1.00  0.00     0.000 C 
BRANCH   9  10
ATOM     10  C   UNL     1       6.046  17.767  34.646  1.00  0.00     0.006 C 
BRANCH  10  11
ATOM     11  C   UNL     1       5.811  19.065  33.861  1.00  0.00     0.053 C 
BRANCH  11  12
ATOM     12  C   UNL     1       7.035  19.930  33.829  1.00  0.00     0.041 C 
ATOM     13  O   UNL     1       7.763  19.967  32.802  1.00  0.00    -0.550 OA
ATOM     14  O   UNL     1       7.374  20.694  34.939  1.00  0.00    -0.550 OA
ENDBRANCH  11  12
ENDBRANCH  10  11
ENDBRANCH   9  10
ENDBRANCH   8   9
ENDBRANCH   7   8
ENDBRANCH   6   7
ENDBRANCH   5   6
ENDBRANCH   4   5
ENDBRANCH   3   4
ENDBRANCH   2   3
ENDBRANCH   1   2
BRANCH   1  15
ATOM     15  C   UNL     1       5.497   7.180  34.525  1.00  0.00     0.000 C 
BRANCH  15  16
ATOM     16  C   UNL     1       5.700   6.243  33.321  1.00  0.00     0.000 C 
BRANCH  16  17
ATOM     17  C   UNL     1       4.885   4.944  33.432  1.00  0.00     0.000 C 
BRANCH  17  18
ATOM     18  C   UNL     1       5.608   3.851  34.241  1.00  0.00    -0.000 C 
BRANCH  18  19
ATOM     19  C   UNL     1       4.875   3.394  35.517  1.00  0.00    -0.000 C 
BRANCH  19  20
ATOM     20  C   UNL     1       5.548   3.800  36.841  1.00  0.00    -0.000 C 
BRANCH  20  21
ATOM     21  C   UNL     1       6.705   4.808  36.672  1.00  0.00    -0.000 C 
BRANCH  21  22
ATOM     22  C   UNL     1       8.089   4.147  36.802  1.00  0.00    -0.000 C 
BRANCH  22  23
ATOM     23  C   UNL     1       9.107   4.701  35.791  1.00  0.00    -0.000 C 
BRANCH  23  24
ATOM     24  C   UNL     1      10.273   3.730  35.536  1.00  0.00    -0.000 C 
BRANCH  24  25
ATOM     25  C   UNL     1      10.197   2.475  36.419  1.00  0.00    -0.003 C 
ATOM     26  C   UNL     1      11.517   2.165  37.125  1.00  0.00     0.004 C 
ENDBRANCH  24  25
ENDBRANCH  23  24
ENDBRANCH  22  23
ENDBRANCH  21  22
ENDBRANCH  20  21
ENDBRANCH  19  20
ENDBRANCH  18  19
ENDBRANCH  17  18
ENDBRANCH  16  17
ENDBRANCH  15  16
ENDBRANCH   1  15
TORSDOF 22
ENDMDL
MODEL 3
REMARK VINA RESULT:    -3.197      1.481      2.422
REMARK INTER + INTRA:          -8.825
REMARK INTER:                  -7.067
REMARK INTRA:                  -1.758
REMARK UNBOUND:                -1.517
REMARK SMILES CCCCCCCCCCCCCCCCCCCCCCCC(=O)[O-]
REMARK SMILES IDX 13 1 14 2 15 3 16 4 17 5 18 6 19 7 20 8 21 9 22 10 23 11
REMARK SMILES IDX 24 12 25 13 26 14 12 15 11 16 10 17 9 18 8 19 7 20 6 21 5 22
REMARK SMILES IDX 4 23 3 24 2 25 1 26
REMARK H PARENT
REMARK Flexibility Score: inf
ROOT
ATOM      1  C   UNL     1       7.320   8.405  34.557  1.00  0.00     0.000 C 
ENDROOT
BRANCH   1   2
ATOM      2  C   UNL     1       6.887   7.105  33.849  1.00  0.00     0.000 C 
BRANCH   2   3
ATOM      3  C   UNL     1       5.500   6.575  34.252  1.00  0.00     0.000 C 
BRANCH   3   4
ATOM      4  C   UNL     1       5.530   5.741  35.539  1.00  0.00     0.000 C 
BRANCH   4   5
ATOM      5  C   UNL     1       5.114   4.288  35.263  1.00  0.00     0.000 C 
BRANCH   5   6
ATOM      6  C   UNL     1       5.454   3.342  36.425  1.00  0.00     0.000 C 
BRANCH   6   7
ATOM      7  C   UNL     1       6.545   2.325  36.059  1.00  0.00     0.000 C 
BRANCH   7   8
ATOM      8  C   UNL     1       7.650   2.292  37.125  1.00  0.00     0.000 C 
BRANCH   8   9
ATOM      9  C   UNL     1       8.513   3.572  37.113  1.00  0.00     0.000 C 
BRANCH   9  10
ATOM     10  C   UNL     1       8.786   4.119  35.699  1.00  0.00     0.006 C 
BRANCH  10  11
ATOM     11  C   UNL     1       9.646   5.390  35.672  1.00  0.00     0.053 C 
BRANCH  11  12
ATOM     12  C   UNL     1      10.542   5.435  34.470  1.00  0.00     0.041 C 
ATOM     13  O   UNL     1      11.572   4.713  34.416  1.00  0.00    -0.550 OA
ATOM     14  O   UNL     1      10.238   6.280  33.409  1.00  0.00    -0.550 OA
ENDBRANCH  11  12
ENDBRANCH  10  11
ENDBRANCH   9  10
ENDBRANCH   8   9
ENDBRANCH   7   8
ENDBRANCH   6   7
ENDBRANCH   5   6
ENDBRANCH   4   5
ENDBRANCH   3   4
ENDBRANCH   2   3
ENDBRANCH   1   2
BRANCH   1  15
ATOM     15  C   UNL     1       6.459   9.644  34.236  1.00  0.00     0.000 C 
BRANCH  15  16
ATOM     16  C   UNL     1       5.815  10.320  35.460  1.00  0.00     0.000 C 
BRANCH  16  17
ATOM     17  C   UNL     1       4.875  11.476  35.078  1.00  0.00     0.000 C 
BRANCH  17  18
ATOM     18  C   UNL     1       5.507  12.453  34.070  1.00  0.00    -0.000 C 
BRANCH  18  19
ATOM     19  C   UNL     1       4.882  13.861  34.051  1.00  0.00    -0.000 C 
BRANCH  19  20
ATOM     20  C   UNL     1       5.098  14.692  35.329  1.00  0.00    -0.000 C 
BRANCH  20  21
ATOM     21  C   UNL     1       6.212  15.754  35.203  1.00  0.00    -0.000 C 
BRANCH  21  22
ATOM     22  C   UNL     1       6.005  16.945  36.157  1.00  0.00    -0.000 C 
BRANCH  22  23
ATOM     23  C   UNL     1       5.940  18.291  35.418  1.00  0.00    -0.000 C 
BRANCH  23  24
ATOM     24  C   UNL     1       6.393  18.181  33.951  1.00  0.00    -0.000 C 
BRANCH  24  25
ATOM     25  C   UNL     1       6.065  19.443  33.138  1.00  0.00    -0.003 C 
ATOM     26  C   UNL     1       7.266  20.376  32.980  1.00  0.00     0.004 C 
ENDBRANCH  24  25
ENDBRANCH  23  24
ENDBRANCH  22  23
ENDBRANCH  21  22
ENDBRANCH  20  21
ENDBRANCH  19  20
ENDBRANCH  18  19
ENDBRANCH  17  18
ENDBRANCH  16  17
ENDBRANCH  15  16
ENDBRANCH   1  15
TORSDOF 22
ENDMDL
MODEL 4
REMARK VINA RESULT:    -2.919      4.707     12.458
REMARK INTER + INTRA:          -8.190
REMARK INTER:                  -6.315
REMARK INTRA:                  -1.875
REMARK UNBOUND:                -1.517
REMARK SMILES CCCCCCCCCCCCCCCCCCCCCCCC(=O)[O-]
REMARK SMILES IDX 13 1 14 2 15 3 16 4 17 5 18 6 19 7 20 8 21 9 22 10 23 11
REMARK SMILES IDX 24 12 25 13 26 14 12 15 11 16 10 17 9 18 8 19 7 20 6 21 5 22
REMARK SMILES IDX 4 23 3 24 2 25 1 26
REMARK H PARENT
REMARK Flexibility Score: inf
ROOT
ATOM      1  C   UNL     1       7.349   8.196  33.675  1.00  0.00     0.000 C 
ENDROOT
BRANCH   1   2
ATOM      2  C   UNL     1       6.181   8.782  34.495  1.00  0.00     0.000 C 
BRANCH   2   3
ATOM      3  C   UNL     1       6.290   8.581  36.017  1.00  0.00     0.000 C 
BRANCH   3   4
ATOM      4  C   UNL     1       6.316   9.905  36.792  1.00  0.00     0.000 C 
BRANCH   4   5
ATOM      5  C   UNL     1       5.188  10.837  36.326  1.00  0.00     0.000 C 
BRANCH   5   6
ATOM      6  C   UNL     1       5.696  12.235  35.938  1.00  0.00     0.000 C 
BRANCH   6   7
ATOM      7  C   UNL     1       5.043  13.351  36.767  1.00  0.00     0.000 C 
BRANCH   7   8
ATOM      8  C   UNL     1       5.917  14.613  36.781  1.00  0.00     0.000 C 
BRANCH   8   9
ATOM      9  C   UNL     1       6.247  15.112  35.358  1.00  0.00     0.000 C 
BRANCH   9  10
ATOM     10  C   UNL     1       5.730  16.534  35.067  1.00  0.00     0.006 C 
BRANCH  10  11
ATOM     11  C   UNL     1       6.734  17.428  34.326  1.00  0.00     0.053 C 
BRANCH  11  12
ATOM     12  C   UNL     1       6.266  18.850  34.246  1.00  0.00     0.041 C 
ATOM     13  O   UNL     1       5.839  19.439  35.274  1.00  0.00    -0.550 OA
ATOM     14  O   UNL     1       6.298  19.525  33.032  1.00  0.00    -0.550 OA
ENDBRANCH  11  12
ENDBRANCH  10  11
ENDBRANCH   9  10
ENDBRANCH   8   9
ENDBRANCH   7   8
ENDBRANCH   6   7
ENDBRANCH   5   6
ENDBRANCH   4   5
ENDBRANCH   3   4
ENDBRANCH   2   3
ENDBRANCH   1   2
BRANCH   1  15
ATOM     15  C   UNL     1       7.706   6.731  33.994  1.00  0.00     0.000 C 
BRANCH  15  16
ATOM     16  C   UNL     1       9.063   6.532  34.692  1.00  0.00     0.000 C 
BRANCH  16  17
ATOM     17  C   UNL     1       9.402   5.050  34.927  1.00  0.00     0.000 C 
BRANCH  17  18
ATOM     18  C   UNL     1       9.041   4.571  36.345  1.00  0.00    -0.000 C 
BRANCH  18  19
ATOM     19  C   UNL     1       8.515   3.125  36.428  1.00  0.00    -0.000 C 
BRANCH  19  20
ATOM     20  C   UNL     1       7.077   2.980  36.959  1.00  0.00    -0.000 C 
BRANCH  20  21
ATOM     21  C   UNL     1       6.330   4.322  37.117  1.00  0.00    -0.000 C 
BRANCH  21  22
ATOM     22  C   UNL     1       5.505   4.691  35.870  1.00  0.00    -0.000 C 
BRANCH  22  23
ATOM     23  C   UNL     1       4.896   3.461  35.178  1.00  0.00    -0.000 C 
BRANCH  23  24
ATOM     24  C   UNL     1       5.400   3.286  33.735  1.00  0.00    -0.000 C 
BRANCH  24  25
ATOM     25  C   UNL     1       5.142   1.873  33.190  1.00  0.00    -0.003 C 
ATOM     26  C   UNL     1       5.165   1.813  31.662  1.00  0.00     0.004 C 
ENDBRANCH  24  25
ENDBRANCH  23  24
ENDBRANCH  22  23
ENDBRANCH  21  22
ENDBRANCH  20  21
ENDBRANCH  19  20
ENDBRANCH  18  19
ENDBRANCH  17  18
ENDBRANCH  16  17
ENDBRANCH  15  16
ENDBRANCH   1  15
TORSDOF 22
ENDMDL
MODEL 5
REMARK VINA RESULT:    -2.874      1.721      2.290
REMARK INTER + INTRA:          -8.087
REMARK INTER:                  -7.102
REMARK INTRA:                  -0.985
REMARK UNBOUND:                -1.517
REMARK SMILES CCCCCCCCCCCCCCCCCCCCCCCC(=O)[O-]
REMARK SMILES IDX 13 1 14 2 15 3 16 4 17 5 18 6 19 7 20 8 21 9 22 10 23 11
REMARK SMILES IDX 24 12 25 13 26 14 12 15 11 16 10 17 9 18 8 19 7 20 6 21 5 22
REMARK SMILES IDX 4 23 3 24 2 25 1 26
REMARK H PARENT
REMARK Flexibility Score: inf
ROOT
ATOM      1  C   UNL     1       5.956   9.802  33.716  1.00  0.00     0.000 C 
ENDROOT
BRANCH   1   2
ATOM      2  C   UNL     1       5.317   8.827  34.727  1.00  0.00     0.000 C 
BRANCH   2   3
ATOM      3  C   UNL     1       5.674   9.091  36.200  1.00  0.00     0.000 C 
BRANCH   3   4
ATOM      4  C   UNL     1       7.167   8.892  36.497  1.00  0.00     0.000 C 
BRANCH   4   5
ATOM      5  C   UNL     1       7.425   7.509  37.111  1.00  0.00     0.000 C 
BRANCH   5   6
ATOM      6  C   UNL     1       6.421   6.449  36.630  1.00  0.00     0.000 C 
BRANCH   6   7
ATOM      7  C   UNL     1       6.858   5.773  35.322  1.00  0.00     0.000 C 
BRANCH   7   8
ATOM      8  C   UNL     1       7.458   4.385  35.591  1.00  0.00     0.000 C 
BRANCH   8   9
ATOM      9  C   UNL     1       8.103   4.289  36.990  1.00  0.00     0.000 C 
BRANCH   9  10
ATOM     10  C   UNL     1       9.148   3.163  37.112  1.00  0.00     0.006 C 
BRANCH  10  11
ATOM     11  C   UNL     1      10.281   3.244  36.078  1.00  0.00     0.053 C 
BRANCH  11  12
ATOM     12  C   UNL     1      11.027   1.948  35.962  1.00  0.00     0.041 C 
ATOM     13  O   UNL     1      10.464   0.930  35.481  1.00  0.00    -0.550 OA
ATOM     14  O   UNL     1      12.346   1.866  36.390  1.00  0.00    -0.550 OA
ENDBRANCH  11  12
ENDBRANCH  10  11
ENDBRANCH   9  10
ENDBRANCH   8   9
ENDBRANCH   7   8
ENDBRANCH   6   7
ENDBRANCH   5   6
ENDBRANCH   4   5
ENDBRANCH   3   4
ENDBRANCH   2   3
ENDBRANCH   1   2
BRANCH   1  15
ATOM     15  C   UNL     1       5.092  11.025  33.347  1.00  0.00     0.000 C 
BRANCH  15  16
ATOM     16  C   UNL     1       5.869  12.345  33.201  1.00  0.00     0.000 C 
BRANCH  16  17
ATOM     17  C   UNL     1       5.293  13.476  34.071  1.00  0.00     0.000 C 
BRANCH  17  18
ATOM     18  C   UNL     1       5.664  13.335  35.559  1.00  0.00    -0.000 C 
BRANCH  18  19
ATOM     19  C   UNL     1       6.303  14.586  36.191  1.00  0.00    -0.000 C 
BRANCH  19  20
ATOM     20  C   UNL     1       5.310  15.590  36.806  1.00  0.00    -0.000 C 
BRANCH  20  21
ATOM     21  C   UNL     1       5.488  17.037  36.298  1.00  0.00    -0.000 C 
BRANCH  21  22
ATOM     22  C   UNL     1       4.920  17.241  34.882  1.00  0.00    -0.000 C 
BRANCH  22  23
ATOM     23  C   UNL     1       5.005  18.704  34.415  1.00  0.00    -0.000 C 
BRANCH  23  24
ATOM     24  C   UNL     1       5.166  18.828  32.890  1.00  0.00    -0.000 C 
BRANCH  24  25
ATOM     25  C   UNL     1       6.160  19.929  32.492  1.00  0.00    -0.003 C 
ATOM     26  C   UNL     1       7.269  20.130  33.525  1.00  0.00     0.004 C 
ENDBRANCH  24  25
ENDBRANCH  23  24
ENDBRANCH  22  23
ENDBRANCH  21  22
ENDBRANCH  20  21
ENDBRANCH  19  20
ENDBRANCH  18  19
ENDBRANCH  17  18
ENDBRANCH  16  17
ENDBRANCH  15  16
ENDBRANCH   1  15
TORSDOF 22
ENDMDL
MODEL 6
REMARK VINA RESULT:    -2.849      4.778     12.833
REMARK INTER + INTRA:          -8.029
REMARK INTER:                  -6.468
REMARK INTRA:                  -1.561
REMARK UNBOUND:                -1.517
REMARK SMILES CCCCCCCCCCCCCCCCCCCCCCCC(=O)[O-]
REMARK SMILES IDX 13 1 14 2 15 3 16 4 17 5 18 6 19 7 20 8 21 9 22 10 23 11
REMARK SMILES IDX 24 12 25 13 26 14 12 15 11 16 10 17 9 18 8 19 7 20 6 21 5 22
REMARK SMILES IDX 4 23 3 24 2 25 1 26
REMARK H PARENT
REMARK Flexibility Score: inf
ROOT
ATOM      1  C   UNL     1       6.580   8.200  35.549  1.00  0.00     0.000 C 
ENDROOT
BRANCH   1   2
ATOM      2  C   UNL     1       5.649   9.375  35.915  1.00  0.00     0.000 C 
BRANCH   2   3
ATOM      3  C   UNL     1       4.879   9.988  34.733  1.00  0.00     0.000 C 
BRANCH   3   4
ATOM      4  C   UNL     1       5.708  11.017  33.951  1.00  0.00     0.000 C 
BRANCH   4   5
ATOM      5  C   UNL     1       5.014  12.388  33.942  1.00  0.00     0.000 C 
BRANCH   5   6
ATOM      6  C   UNL     1       5.484  13.298  35.088  1.00  0.00     0.000 C 
BRANCH   6   7
ATOM      7  C   UNL     1       5.035  14.755  34.906  1.00  0.00     0.000 C 
BRANCH   7   8
ATOM      8  C   UNL     1       5.782  15.688  35.870  1.00  0.00     0.000 C 
BRANCH   8   9
ATOM      9  C   UNL     1       5.086  17.059  36.013  1.00  0.00     0.000 C 
BRANCH   9  10
ATOM     10  C   UNL     1       6.045  18.256  35.863  1.00  0.00     0.006 C 
BRANCH  10  11
ATOM     11  C   UNL     1       6.750  18.329  34.501  1.00  0.00     0.053 C 
BRANCH  11  12
ATOM     12  C   UNL     1       6.451  19.611  33.784  1.00  0.00     0.041 C 
ATOM     13  O   UNL     1       6.931  19.827  32.640  1.00  0.00    -0.550 OA
ATOM     14  O   UNL     1       5.643  20.570  34.382  1.00  0.00    -0.550 OA
ENDBRANCH  11  12
ENDBRANCH  10  11
ENDBRANCH   9  10
ENDBRANCH   8   9
ENDBRANCH   7   8
ENDBRANCH   6   7
ENDBRANCH   5   6
ENDBRANCH   4   5
ENDBRANCH   3   4
ENDBRANCH   2   3
ENDBRANCH   1   2
BRANCH   1  15
ATOM     15  C   UNL     1       6.584   7.029  36.551  1.00  0.00     0.000 C 
BRANCH  15  16
ATOM     16  C   UNL     1       5.979   5.718  36.019  1.00  0.00     0.000 C 
BRANCH  16  17
ATOM     17  C   UNL     1       5.860   4.632  37.102  1.00  0.00     0.000 C 
BRANCH  17  18
ATOM     18  C   UNL     1       5.765   3.211  36.516  1.00  0.00    -0.000 C 
BRANCH  18  19
ATOM     19  C   UNL     1       6.766   2.198  37.105  1.00  0.00    -0.000 C 
BRANCH  19  20
ATOM     20  C   UNL     1       7.919   1.794  36.168  1.00  0.00    -0.000 C 
BRANCH  20  21
ATOM     21  C   UNL     1       9.309   1.817  36.841  1.00  0.00    -0.000 C 
BRANCH  21  22
ATOM     22  C   UNL     1      10.168   3.010  36.386  1.00  0.00    -0.000 C 
BRANCH  22  23
ATOM     23  C   UNL     1       9.439   4.356  36.537  1.00  0.00    -0.000 C 
BRANCH  23  24
ATOM     24  C   UNL     1       9.725   5.315  35.368  1.00  0.00    -0.000 C 
BRANCH  24  25
ATOM     25  C   UNL     1      10.709   4.722  34.349  1.00  0.00    -0.003 C 
ATOM     26  C   UNL     1      11.530   5.790  33.625  1.00  0.00     0.004 C 
ENDBRANCH  24  25
ENDBRANCH  23  24
ENDBRANCH  22  23
ENDBRANCH  21  22
ENDBRANCH  20  21
ENDBRANCH  19  20
ENDBRANCH  18  19
ENDBRANCH  17  18
ENDBRANCH  16  17
ENDBRANCH  15  16
ENDBRANCH   1  15
TORSDOF 22
ENDMDL
MODEL 7
REMARK VINA RESULT:    -2.778      2.217      3.118
REMARK INTER + INTRA:          -7.867
REMARK INTER:                  -6.910
REMARK INTRA:                  -0.957
REMARK UNBOUND:                -1.517
REMARK SMILES CCCCCCCCCCCCCCCCCCCCCCCC(=O)[O-]
REMARK SMILES IDX 13 1 14 2 15 3 16 4 17 5 18 6 19 7 20 8 21 9 22 10 23 11
REMARK SMILES IDX 24 12 25 13 26 14 12 15 11 16 10 17 9 18 8 19 7 20 6 21 5 22
REMARK SMILES IDX 4 23 3 24 2 25 1 26
REMARK H PARENT
REMARK Flexibility Score: inf
ROOT
ATOM      1  C   UNL     1       5.714  10.695  33.528  1.00  0.00     0.000 C 
ENDROOT
BRANCH   1   2
ATOM      2  C   UNL     1       5.290   9.560  34.483  1.00  0.00     0.000 C 
BRANCH   2   3
ATOM      3  C   UNL     1       5.800   9.701  35.928  1.00  0.00     0.000 C 
BRANCH   3   4
ATOM      4  C   UNL     1       7.323   9.552  36.041  1.00  0.00     0.000 C 
BRANCH   4   5
ATOM      5  C   UNL     1       7.694   8.339  36.907  1.00  0.00     0.000 C 
BRANCH   5   6
ATOM      6  C   UNL     1       7.302   7.004  36.255  1.00  0.00     0.000 C 
BRANCH   6   7
ATOM      7  C   UNL     1       7.583   6.978  34.746  1.00  0.00     0.000 C 
BRANCH   7   8
ATOM      8  C   UNL     1       6.502   6.187  33.995  1.00  0.00     0.000 C 
BRANCH   8   9
ATOM      9  C   UNL     1       5.318   5.804  34.908  1.00  0.00     0.000 C 
BRANCH   9  10
ATOM     10  C   UNL     1       5.252   4.299  35.234  1.00  0.00     0.006 C 
BRANCH  10  11
ATOM     11  C   UNL     1       4.987   3.403  34.015  1.00  0.00     0.053 C 
BRANCH  11  12
ATOM     12  C   UNL     1       5.496   2.009  34.224  1.00  0.00     0.041 C 
ATOM     13  O   UNL     1       5.948   1.657  35.345  1.00  0.00    -0.550 OA
ATOM     14  O   UNL     1       5.473   1.097  33.176  1.00  0.00    -0.550 OA
ENDBRANCH  11  12
ENDBRANCH  10  11
ENDBRANCH   9  10
ENDBRANCH   8   9
ENDBRANCH   7   8
ENDBRANCH   6   7
ENDBRANCH   5   6
ENDBRANCH   4   5
ENDBRANCH   3   4
ENDBRANCH   2   3
ENDBRANCH   1   2
BRANCH   1  15
ATOM     15  C   UNL     1       4.877  11.986  33.631  1.00  0.00     0.000 C 
BRANCH  15  16
ATOM     16  C   UNL     1       5.698  13.286  33.693  1.00  0.00     0.000 C 
BRANCH  16  17
ATOM     17  C   UNL     1       5.101  14.324  34.658  1.00  0.00     0.000 C 
BRANCH  17  18
ATOM     18  C   UNL     1       5.365  13.987  36.137  1.00  0.00    -0.000 C 
BRANCH  18  19
ATOM     19  C   UNL     1       6.381  14.907  36.842  1.00  0.00    -0.000 C 
BRANCH  19  20
ATOM     20  C   UNL     1       6.110  16.416  36.698  1.00  0.00    -0.000 C 
BRANCH  20  21
ATOM     21  C   UNL     1       6.084  16.910  35.235  1.00  0.00    -0.000 C 
BRANCH  21  22
ATOM     22  C   UNL     1       4.955  17.922  34.972  1.00  0.00    -0.000 C 
BRANCH  22  23
ATOM     23  C   UNL     1       4.875  18.350  33.497  1.00  0.00    -0.000 C 
BRANCH  23  24
ATOM     24  C   UNL     1       5.499  19.735  33.250  1.00  0.00    -0.000 C 
BRANCH  24  25
ATOM     25  C   UNL     1       7.012  19.661  32.998  1.00  0.00    -0.003 C 
ATOM     26  C   UNL     1       7.587  20.965  32.445  1.00  0.00     0.004 C 
ENDBRANCH  24  25
ENDBRANCH  23  24
ENDBRANCH  22  23
ENDBRANCH  21  22
ENDBRANCH  20  21
ENDBRANCH  19  20
ENDBRANCH  18  19
ENDBRANCH  17  18
ENDBRANCH  16  17
ENDBRANCH  15  16
ENDBRANCH   1  15
TORSDOF 22
ENDMDL
MODEL 8
REMARK VINA RESULT:    -2.607      4.502     12.709
REMARK INTER + INTRA:          -7.476
REMARK INTER:                  -6.543
REMARK INTRA:                  -0.933
REMARK UNBOUND:                -1.517
REMARK SMILES CCCCCCCCCCCCCCCCCCCCCCCC(=O)[O-]
REMARK SMILES IDX 13 1 14 2 15 3 16 4 17 5 18 6 19 7 20 8 21 9 22 10 23 11
REMARK SMILES IDX 24 12 25 13 26 14 12 15 11 16 10 17 9 18 8 19 7 20 6 21 5 22
REMARK SMILES IDX 4 23 3 24 2 25 1 26
REMARK H PARENT
REMARK Flexibility Score: inf
ROOT
ATOM      1  C   UNL     1       7.972   8.134  33.671  1.00  0.00     0.000 C 
ENDROOT
BRANCH   1   2
ATOM      2  C   UNL     1       6.591   8.347  33.016  1.00  0.00     0.000 C 
BRANCH   2   3
ATOM      3  C   UNL     1       5.541   9.023  33.915  1.00  0.00     0.000 C 
BRANCH   3   4
ATOM      4  C   UNL     1       6.053  10.320  34.557  1.00  0.00     0.000 C 
BRANCH   4   5
ATOM      5  C   UNL     1       4.910  11.330  34.739  1.00  0.00     0.000 C 
BRANCH   5   6
ATOM      6  C   UNL     1       4.908  12.424  33.659  1.00  0.00     0.000 C 
BRANCH   6   7
ATOM      7  C   UNL     1       5.708  13.667  34.077  1.00  0.00     0.000 C 
BRANCH   7   8
ATOM      8  C   UNL     1       5.903  13.714  35.599  1.00  0.00     0.000 C 
BRANCH   8   9
ATOM      9  C   UNL     1       4.877  14.637  36.291  1.00  0.00     0.000 C 
BRANCH   9  10
ATOM     10  C   UNL     1       5.197  16.137  36.139  1.00  0.00     0.006 C 
BRANCH  10  11
ATOM     11  C   UNL     1       5.238  16.627  34.685  1.00  0.00     0.053 C 
BRANCH  11  12
ATOM     12  C   UNL     1       5.800  18.013  34.576  1.00  0.00     0.041 C 
ATOM     13  O   UNL     1       5.503  18.745  33.596  1.00  0.00    -0.550 OA
ATOM     14  O   UNL     1       6.656  18.494  35.559  1.00  0.00    -0.550 OA
ENDBRANCH  11  12
ENDBRANCH  10  11
ENDBRANCH   9  10
ENDBRANCH   8   9
ENDBRANCH   7   8
ENDBRANCH   6   7
ENDBRANCH   5   6
ENDBRANCH   4   5
ENDBRANCH   3   4
ENDBRANCH   2   3
ENDBRANCH   1   2
BRANCH   1  15
ATOM     15  C   UNL     1       8.104   6.854  34.520  1.00  0.00     0.000 C 
BRANCH  15  16
ATOM     16  C   UNL     1       7.693   7.010  35.995  1.00  0.00     0.000 C 
BRANCH  16  17
ATOM     17  C   UNL     1       7.838   5.705  36.797  1.00  0.00     0.000 C 
BRANCH  17  18
ATOM     18  C   UNL     1       6.582   4.817  36.727  1.00  0.00    -0.000 C 
BRANCH  18  19
ATOM     19  C   UNL     1       6.844   3.307  36.890  1.00  0.00    -0.000 C 
BRANCH  19  20
ATOM     20  C   UNL     1       7.273   2.574  35.605  1.00  0.00    -0.000 C 
BRANCH  20  21
ATOM     21  C   UNL     1       6.641   1.174  35.443  1.00  0.00    -0.000 C 
BRANCH  21  22
ATOM     22  C   UNL     1       5.155   1.237  35.046  1.00  0.00    -0.000 C 
BRANCH  22  23
ATOM     23  C   UNL     1       4.941   1.097  33.530  1.00  0.00    -0.000 C 
BRANCH  23  24
ATOM     24  C   UNL     1       4.875   2.459  32.816  1.00  0.00    -0.000 C 
BRANCH  24  25
ATOM     25  C   UNL     1       5.108   2.340  31.302  1.00  0.00    -0.003 C 
ATOM     26  C   UNL     1       4.939   0.910  30.786  1.00  0.00     0.004 C 
ENDBRANCH  24  25
ENDBRANCH  23  24
ENDBRANCH  22  23
ENDBRANCH  21  22
ENDBRANCH  20  21
ENDBRANCH  19  20
ENDBRANCH  18  19
ENDBRANCH  17  18
ENDBRANCH  16  17
ENDBRANCH  15  16
ENDBRANCH   1  15
TORSDOF 22
ENDMDL
