MODEL 1
REMARK VINA RESULT:    -2.377      0.000      0.000
REMARK INTER + INTRA:          -3.420
REMARK INTER:                  -3.766
REMARK INTRA:                   0.346
REMARK UNBOUND:                 0.346
REMARK SMILES CCCCCCCCCCCC(=O)[O-]
REMARK SMILES IDX 7 1 8 2 9 3 10 4 11 5 12 6 13 7 14 8 6 9 5 10 4 11 3 12 2 13
REMARK SMILES IDX 1 14
REMARK H PARENT
REMARK Flexibility Score: inf
ROOT
ATOM      1  C   UNL     1      31.792  24.453  32.798  1.00  0.00     0.000 C 
ENDROOT
BRANCH   1   2
ATOM      2  C   UNL     1      32.934  25.125  33.582  1.00  0.00     0.000 C 
BRANCH   2   3
ATOM      3  C   UNL     1      34.268  25.095  32.820  1.00  0.00     0.000 C 
BRANCH   3   4
ATOM      4  C   UNL     1      34.080  25.105  31.292  1.00  0.00     0.006 C 
BRANCH   4   5
ATOM      5  C   UNL     1      35.419  25.121  30.544  1.00  0.00     0.053 C 
BRANCH   5   6
ATOM      6  C   UNL     1      35.357  24.323  29.278  1.00  0.00     0.041 C 
ATOM      7  O   UNL     1      34.462  24.557  28.424  1.00  0.00    -0.550 OA
ATOM      8  O   UNL     1      36.268  23.298  29.057  1.00  0.00    -0.550 OA
ENDBRANCH   5   6
ENDBRANCH   4   5
ENDBRANCH   3   4
ENDBRANCH   2   3
ENDBRANCH   1   2
BRANCH   1   9
ATOM      9  C   UNL     1      30.410  25.004  33.182  1.00  0.00     0.000 C 
BRANCH   9  10
ATOM     10  C   UNL     1      29.332  24.692  32.127  1.00  0.00    -0.000 C 
BRANCH  10  11
ATOM     11  C   UNL     1      29.747  25.124  30.711  1.00  0.00    -0.000 C 
BRANCH  11  12
ATOM     12  C   UNL     1      31.036  24.430  30.237  1.00  0.00    -0.000 C 
BRANCH  12  13
ATOM     13  C   UNL     1      31.081  24.254  28.711  1.00  0.00    -0.003 C 
ATOM     14  C   UNL     1      31.350  22.810  28.288  1.00  0.00     0.004 C 
ENDBRANCH  12  13
ENDBRANCH  11  12
ENDBRANCH  10  11
ENDBRANCH   9  10
ENDBRANCH   1   9
TORSDOF 10
ENDMDL
MODEL 2
REMARK VINA RESULT:    -1.417      2.473      4.985
REMARK INTER + INTRA:          -1.898
REMARK INTER:                  -1.195
REMARK INTRA:                  -0.704
REMARK UNBOUND:                 0.346
REMARK SMILES CCCCCCCCCCCC(=O)[O-]
REMARK SMILES IDX 7 1 8 2 9 3 10 4 11 5 12 6 13 7 14 8 6 9 5 10 4 11 3 12 2 13
REMARK SMILES IDX 1 14
REMARK H PARENT
REMARK Flexibility Score: inf
ROOT
ATOM      1  C   UNL     1      34.796  24.308  33.738  1.00  0.00     0.000 C 
ENDROOT
BRANCH   1   2
ATOM      2  C   UNL     1      33.692  25.095  33.011  1.00  0.00     0.000 C 
BRANCH   2   3
ATOM      3  C   UNL     1      33.778  24.957  31.483  1.00  0.00     0.000 C 
BRANCH   3   4
ATOM      4  C   UNL     1      32.397  24.984  30.805  1.00  0.00     0.006 C 
BRANCH   4   5
ATOM      5  C   UNL     1      32.253  23.890  29.739  1.00  0.00     0.053 C 
BRANCH   5   6
ATOM      6  C   UNL     1      31.049  24.111  28.876  1.00  0.00     0.041 C 
ATOM      7  O   UNL     1      30.040  23.367  28.991  1.00  0.00    -0.550 OA
ATOM      8  O   UNL     1      31.054  25.121  27.922  1.00  0.00    -0.550 OA
ENDBRANCH   5   6
ENDBRANCH   4   5
ENDBRANCH   3   4
ENDBRANCH   2   3
ENDBRANCH   1   2
BRANCH   1   9
ATOM      9  C   UNL     1      36.112  25.094  33.839  1.00  0.00     0.000 C 
BRANCH   9  10
ATOM     10  C   UNL     1      36.894  25.117  32.512  1.00  0.00    -0.000 C 
BRANCH  10  11
ATOM     11  C   UNL     1      37.125  23.711  31.936  1.00  0.00    -0.000 C 
BRANCH  11  12
ATOM     12  C   UNL     1      36.837  23.639  30.426  1.00  0.00    -0.000 C 
BRANCH  12  13
ATOM     13  C   UNL     1      37.002  24.999  29.731  1.00  0.00    -0.003 C 
ATOM     14  C   UNL     1      36.164  25.119  28.457  1.00  0.00     0.004 C 
ENDBRANCH  12  13
ENDBRANCH  11  12
ENDBRANCH  10  11
ENDBRANCH   9  10
ENDBRANCH   1   9
TORSDOF 10
ENDMDL
MODEL 3
REMARK VINA RESULT:    -0.354     16.700     18.810
REMARK INTER + INTRA:          -0.215
REMARK INTER:                   0.242
REMARK INTRA:                  -0.457
REMARK UNBOUND:                 0.346
REMARK SMILES CCCCCCCCCCCC(=O)[O-]
REMARK SMILES IDX 7 1 8 2 9 3 10 4 11 5 12 6 13 7 14 8 6 9 5 10 4 11 3 12 2 13
REMARK SMILES IDX 1 14
REMARK H PARENT
REMARK Flexibility Score: inf
ROOT
ATOM      1  C   UNL     1      21.441  22.111  46.501  1.00  0.00     0.000 C 
ENDROOT
BRANCH   1   2
ATOM      2  C   UNL     1      22.565  22.914  45.823  1.00  0.00     0.000 C 
BRANCH   2   3
ATOM      3  C   UNL     1      23.962  22.499  46.312  1.00  0.00     0.000 C 
BRANCH   3   4
ATOM      4  C   UNL     1      25.064  23.473  45.856  1.00  0.00     0.006 C 
BRANCH   4   5
ATOM      5  C   UNL     1      26.467  22.975  46.229  1.00  0.00     0.053 C 
BRANCH   5   6
ATOM      6  C   UNL     1      27.520  23.987  45.897  1.00  0.00     0.041 C 
ATOM      7  O   UNL     1      27.194  25.124  45.464  1.00  0.00    -0.550 OA
ATOM      8  O   UNL     1      28.863  23.663  46.037  1.00  0.00    -0.550 OA
ENDBRANCH   5   6
ENDBRANCH   4   5
ENDBRANCH   3   4
ENDBRANCH   2   3
ENDBRANCH   1   2
BRANCH   1   9
ATOM      9  C   UNL     1      20.944  22.769  47.797  1.00  0.00     0.000 C 
BRANCH   9  10
ATOM     10  C   UNL     1      19.411  22.902  47.847  1.00  0.00    -0.000 C 
BRANCH  10  11
ATOM     11  C   UNL     1      18.923  24.297  47.424  1.00  0.00    -0.000 C 
BRANCH  11  12
ATOM     12  C   UNL     1      17.422  24.320  47.088  1.00  0.00    -0.000 C 
BRANCH  12  13
ATOM     13  C   UNL     1      17.158  24.566  45.594  1.00  0.00    -0.003 C 
ATOM     14  C   UNL     1      18.444  24.665  44.773  1.00  0.00     0.004 C 
ENDBRANCH  12  13
ENDBRANCH  11  12
ENDBRANCH  10  11
ENDBRANCH   9  10
ENDBRANCH   1   9
TORSDOF 10
ENDMDL
MODEL 4
REMARK VINA RESULT:    -0.353     17.365     19.923
REMARK INTER + INTRA:          -0.212
REMARK INTER:                   0.284
REMARK INTRA:                  -0.497
REMARK UNBOUND:                 0.346
REMARK SMILES CCCCCCCCCCCC(=O)[O-]
REMARK SMILES IDX 7 1 8 2 9 3 10 4 11 5 12 6 13 7 14 8 6 9 5 10 4 11 3 12 2 13
REMARK SMILES IDX 1 14
REMARK H PARENT
REMARK Flexibility Score: inf
ROOT
ATOM      1  C   UNL     1      20.941  22.117  46.581  1.00  0.00     0.000 C 
ENDROOT
BRANCH   1   2
ATOM      2  C   UNL     1      20.899  22.730  47.992  1.00  0.00     0.000 C 
BRANCH   2   3
ATOM      3  C   UNL     1      19.830  23.827  48.125  1.00  0.00     0.000 C 
BRANCH   3   4
ATOM      4  C   UNL     1      18.448  23.375  47.622  1.00  0.00     0.006 C 
BRANCH   4   5
ATOM      5  C   UNL     1      17.655  24.527  46.992  1.00  0.00     0.053 C 
BRANCH   5   6
ATOM      6  C   UNL     1      17.896  24.623  45.516  1.00  0.00     0.041 C 
ATOM      7  O   UNL     1      16.979  24.333  44.704  1.00  0.00    -0.550 OA
ATOM      8  O   UNL     1      19.144  25.002  45.039  1.00  0.00    -0.550 OA
ENDBRANCH   5   6
ENDBRANCH   4   5
ENDBRANCH   3   4
ENDBRANCH   2   3
ENDBRANCH   1   2
BRANCH   1   9
ATOM      9  C   UNL     1      22.088  22.680  45.727  1.00  0.00     0.000 C 
BRANCH   9  10
ATOM     10  C   UNL     1      23.376  22.910  46.539  1.00  0.00    -0.000 C 
BRANCH  10  11
ATOM     11  C   UNL     1      24.632  22.965  45.655  1.00  0.00    -0.000 C 
BRANCH  11  12
ATOM     12  C   UNL     1      25.914  23.220  46.467  1.00  0.00    -0.000 C 
BRANCH  12  13
ATOM     13  C   UNL     1      26.831  24.261  45.805  1.00  0.00    -0.003 C 
ATOM     14  C   UNL     1      28.295  23.822  45.766  1.00  0.00     0.004 C 
ENDBRANCH  12  13
ENDBRANCH  11  12
ENDBRANCH  10  11
ENDBRANCH   9  10
ENDBRANCH   1   9
TORSDOF 10
ENDMDL
MODEL 5
REMARK VINA RESULT:     0.012     17.377     19.591
REMARK INTER + INTRA:           0.366
REMARK INTER:                   1.043
REMARK INTRA:                  -0.677
REMARK UNBOUND:                 0.346
REMARK SMILES CCCCCCCCCCCC(=O)[O-]
REMARK SMILES IDX 7 1 8 2 9 3 10 4 11 5 12 6 13 7 14 8 6 9 5 10 4 11 3 12 2 13
REMARK SMILES IDX 1 14
REMARK H PARENT
REMARK Flexibility Score: inf
ROOT
ATOM      1  C   UNL     1      20.414  22.009  48.096  1.00  0.00     0.000 C 
ENDROOT
BRANCH   1   2
ATOM      2  C   UNL     1      21.367  21.635  46.946  1.00  0.00     0.000 C 
BRANCH   2   3
ATOM      3  C   UNL     1      21.351  22.669  45.809  1.00  0.00     0.000 C 
BRANCH   3   4
ATOM      4  C   UNL     1      22.765  23.051  45.334  1.00  0.00     0.006 C 
BRANCH   4   5
ATOM      5  C   UNL     1      23.761  23.142  46.497  1.00  0.00     0.053 C 
BRANCH   5   6
ATOM      6  C   UNL     1      25.175  22.978  46.030  1.00  0.00     0.041 C 
ATOM      7  O   UNL     1      25.607  21.841  45.704  1.00  0.00    -0.550 OA
ATOM      8  O   UNL     1      26.024  24.076  45.986  1.00  0.00    -0.550 OA
ENDBRANCH   5   6
ENDBRANCH   4   5
ENDBRANCH   3   4
ENDBRANCH   2   3
ENDBRANCH   1   2
BRANCH   1   9
ATOM      9  C   UNL     1      19.141  22.712  47.602  1.00  0.00     0.000 C 
BRANCH   9  10
ATOM     10  C   UNL     1      19.080  24.193  48.019  1.00  0.00    -0.000 C 
BRANCH  10  11
ATOM     11  C   UNL     1      18.689  25.120  46.856  1.00  0.00    -0.000 C 
BRANCH  11  12
ATOM     12  C   UNL     1      17.187  25.054  46.529  1.00  0.00    -0.000 C 
BRANCH  12  13
ATOM     13  C   UNL     1      16.900  24.260  45.245  1.00  0.00    -0.003 C 
ATOM     14  C   UNL     1      17.693  24.771  44.042  1.00  0.00     0.004 C 
ENDBRANCH  12  13
ENDBRANCH  11  12
ENDBRANCH  10  11
ENDBRANCH   9  10
ENDBRANCH   1   9
TORSDOF 10
ENDMDL
