MODEL 1
REMARK VINA RESULT:    -4.508      0.000      0.000
REMARK INTER + INTRA:         -15.582
REMARK INTER:                 -11.360
REMARK INTRA:                  -4.222
REMARK UNBOUND:                -4.222
REMARK SMILES CCCCCCCCCCCCCCCCCCCCCCCCCCCC(=O)[O-]
REMARK SMILES IDX 15 1 16 2 17 3 18 4 19 5 20 6 21 7 22 8 23 9 24 10 25 11
REMARK SMILES IDX 26 12 27 13 28 14 29 15 30 16 14 17 13 18 12 19 11 20 10 21
REMARK SMILES IDX 9 22 8 23 7 24 6 25 5 26 4 27 3 28 2 29 1 30
REMARK H PARENT
REMARK Flexibility Score: inf
ROOT
ATOM      1  C   UNL     1     -23.882 -12.596 -14.733  1.00  0.00     0.000 C 
ENDROOT
BRANCH   1   2
ATOM      2  C   UNL     1     -24.996 -13.401 -14.044  1.00  0.00     0.000 C 
BRANCH   2   3
ATOM      3  C   UNL     1     -24.582 -14.851 -13.753  1.00  0.00     0.000 C 
BRANCH   3   4
ATOM      4  C   UNL     1     -25.741 -15.821 -14.017  1.00  0.00     0.000 C 
BRANCH   4   5
ATOM      5  C   UNL     1     -25.217 -17.180 -14.506  1.00  0.00     0.000 C 
BRANCH   5   6
ATOM      6  C   UNL     1     -24.320 -17.067 -15.752  1.00  0.00     0.000 C 
BRANCH   6   7
ATOM      7  C   UNL     1     -22.819 -17.294 -15.498  1.00  0.00     0.000 C 
BRANCH   7   8
ATOM      8  C   UNL     1     -22.548 -18.285 -14.354  1.00  0.00     0.000 C 
BRANCH   8   9
ATOM      9  C   UNL     1     -21.732 -19.505 -14.813  1.00  0.00     0.000 C 
BRANCH   9  10
ATOM     10  C   UNL     1     -20.701 -19.954 -13.764  1.00  0.00     0.000 C 
BRANCH  10  11
ATOM     11  C   UNL     1     -21.238 -19.741 -12.341  1.00  0.00     0.000 C 
BRANCH  11  12
ATOM     12  C   UNL     1     -20.759 -20.812 -11.347  1.00  0.00     0.006 C 
BRANCH  12  13
ATOM     13  C   UNL     1     -20.131 -22.049 -12.014  1.00  0.00     0.053 C 
BRANCH  13  14
ATOM     14  C   UNL     1     -21.068 -23.218 -12.059  1.00  0.00     0.041 C 
ATOM     15  O   UNL     1     -20.703 -24.302 -12.583  1.00  0.00    -0.550 OA
ATOM     16  O   UNL     1     -22.359 -23.100 -11.556  1.00  0.00    -0.550 OA
ENDBRANCH  13  14
ENDBRANCH  12  13
ENDBRANCH  11  12
ENDBRANCH  10  11
ENDBRANCH   9  10
ENDBRANCH   8   9
ENDBRANCH   7   8
ENDBRANCH   6   7
ENDBRANCH   5   6
ENDBRANCH   4   5
ENDBRANCH   3   4
ENDBRANCH   2   3
ENDBRANCH   1   2
BRANCH   1  17
ATOM     17  C   UNL     1     -22.583 -13.405 -14.897  1.00  0.00     0.000 C 
BRANCH  17  18
ATOM     18  C   UNL     1     -22.256 -13.708 -16.368  1.00  0.00     0.000 C 
BRANCH  18  19
ATOM     19  C   UNL     1     -23.027 -12.800 -17.342  1.00  0.00     0.000 C 
BRANCH  19  20
ATOM     20  C   UNL     1     -22.389 -12.746 -18.739  1.00  0.00     0.000 C 
BRANCH  20  21
ATOM     21  C   UNL     1     -20.884 -12.427 -18.688  1.00  0.00     0.000 C 
BRANCH  21  22
ATOM     22  C   UNL     1     -20.139 -12.894 -19.949  1.00  0.00    -0.000 C 
BRANCH  22  23
ATOM     23  C   UNL     1     -18.866 -13.689 -19.623  1.00  0.00    -0.000 C 
BRANCH  23  24
ATOM     24  C   UNL     1     -18.738 -13.930 -18.112  1.00  0.00    -0.000 C 
BRANCH  24  25
ATOM     25  C   UNL     1     -18.465 -15.403 -17.757  1.00  0.00    -0.000 C 
BRANCH  25  26
ATOM     26  C   UNL     1     -19.709 -16.224 -17.365  1.00  0.00    -0.000 C 
BRANCH  26  27
ATOM     27  C   UNL     1     -20.251 -17.078 -18.524  1.00  0.00    -0.000 C 
BRANCH  27  28
ATOM     28  C   UNL     1     -21.358 -16.363 -19.315  1.00  0.00    -0.000 C 
BRANCH  28  29
ATOM     29  C   UNL     1     -22.727 -17.043 -19.163  1.00  0.00    -0.003 C 
ATOM     30  C   UNL     1     -23.850 -16.127 -19.640  1.00  0.00     0.004 C 
ENDBRANCH  28  29
ENDBRANCH  27  28
ENDBRANCH  26  27
ENDBRANCH  25  26
ENDBRANCH  24  25
ENDBRANCH  23  24
ENDBRANCH  22  23
ENDBRANCH  21  22
ENDBRANCH  20  21
ENDBRANCH  19  20
ENDBRANCH  18  19
ENDBRANCH  17  18
ENDBRANCH   1  17
TORSDOF 26
ENDMDL
MODEL 2
REMARK VINA RESULT:    -4.438      1.807      4.428
REMARK INTER + INTRA:         -15.405
REMARK INTER:                 -10.624
REMARK INTRA:                  -4.780
REMARK UNBOUND:                -4.222
REMARK SMILES CCCCCCCCCCCCCCCCCCCCCCCCCCCC(=O)[O-]
REMARK SMILES IDX 15 1 16 2 17 3 18 4 19 5 20 6 21 7 22 8 23 9 24 10 25 11
REMARK SMILES IDX 26 12 27 13 28 14 29 15 30 16 14 17 13 18 12 19 11 20 10 21
REMARK SMILES IDX 9 22 8 23 7 24 6 25 5 26 4 27 3 28 2 29 1 30
REMARK H PARENT
REMARK Flexibility Score: inf
ROOT
ATOM      1  C   UNL     1     -22.537 -13.206 -20.241  1.00  0.00     0.000 C 
ENDROOT
BRANCH   1   2
ATOM      2  C   UNL     1     -22.626 -12.268 -19.026  1.00  0.00     0.000 C 
BRANCH   2   3
ATOM      3  C   UNL     1     -23.001 -13.010 -17.734  1.00  0.00     0.000 C 
BRANCH   3   4
ATOM      4  C   UNL     1     -22.983 -12.064 -16.528  1.00  0.00     0.000 C 
BRANCH   4   5
ATOM      5  C   UNL     1     -22.888 -12.855 -15.214  1.00  0.00     0.000 C 
BRANCH   5   6
ATOM      6  C   UNL     1     -24.173 -12.775 -14.369  1.00  0.00     0.000 C 
BRANCH   6   7
ATOM      7  C   UNL     1     -24.860 -14.126 -14.097  1.00  0.00     0.000 C 
BRANCH   7   8
ATOM      8  C   UNL     1     -23.997 -15.331 -14.509  1.00  0.00     0.000 C 
BRANCH   8   9
ATOM      9  C   UNL     1     -24.738 -16.669 -14.350  1.00  0.00     0.000 C 
BRANCH   9  10
ATOM     10  C   UNL     1     -24.708 -17.516 -15.632  1.00  0.00     0.000 C 
BRANCH  10  11
ATOM     11  C   UNL     1     -23.865 -18.784 -15.432  1.00  0.00     0.000 C 
BRANCH  11  12
ATOM     12  C   UNL     1     -23.214 -18.864 -14.040  1.00  0.00     0.006 C 
BRANCH  12  13
ATOM     13  C   UNL     1     -21.693 -19.099 -14.074  1.00  0.00     0.053 C 
BRANCH  13  14
ATOM     14  C   UNL     1     -21.325 -20.532 -13.828  1.00  0.00     0.041 C 
ATOM     15  O   UNL     1     -20.495 -21.109 -14.577  1.00  0.00    -0.550 OA
ATOM     16  O   UNL     1     -21.927 -21.241 -12.795  1.00  0.00    -0.550 OA
ENDBRANCH  13  14
ENDBRANCH  12  13
ENDBRANCH  11  12
ENDBRANCH  10  11
ENDBRANCH   9  10
ENDBRANCH   8   9
ENDBRANCH   7   8
ENDBRANCH   6   7
ENDBRANCH   5   6
ENDBRANCH   4   5
ENDBRANCH   3   4
ENDBRANCH   2   3
ENDBRANCH   1   2
BRANCH   1  17
ATOM     17  C   UNL     1     -21.156 -13.166 -20.919  1.00  0.00     0.000 C 
BRANCH  17  18
ATOM     18  C   UNL     1     -20.112 -14.025 -20.189  1.00  0.00     0.000 C 
BRANCH  18  19
ATOM     19  C   UNL     1     -19.194 -13.189 -19.279  1.00  0.00     0.000 C 
BRANCH  19  20
ATOM     20  C   UNL     1     -19.179 -13.691 -17.826  1.00  0.00     0.000 C 
BRANCH  20  21
ATOM     21  C   UNL     1     -19.504 -15.191 -17.717  1.00  0.00     0.000 C 
BRANCH  21  22
ATOM     22  C   UNL     1     -20.810 -15.456 -16.950  1.00  0.00    -0.000 C 
BRANCH  22  23
ATOM     23  C   UNL     1     -21.302 -16.904 -17.101  1.00  0.00    -0.000 C 
BRANCH  23  24
ATOM     24  C   UNL     1     -21.686 -17.205 -18.558  1.00  0.00    -0.000 C 
BRANCH  24  25
ATOM     25  C   UNL     1     -23.038 -16.589 -18.964  1.00  0.00    -0.000 C 
BRANCH  25  26
ATOM     26  C   UNL     1     -23.489 -16.892 -20.406  1.00  0.00    -0.000 C 
BRANCH  26  27
ATOM     27  C   UNL     1     -22.344 -16.780 -21.427  1.00  0.00    -0.000 C 
BRANCH  27  28
ATOM     28  C   UNL     1     -22.756 -16.012 -22.692  1.00  0.00    -0.000 C 
BRANCH  28  29
ATOM     29  C   UNL     1     -21.614 -15.896 -23.712  1.00  0.00    -0.003 C 
ATOM     30  C   UNL     1     -20.395 -16.698 -23.265  1.00  0.00     0.004 C 
ENDBRANCH  28  29
ENDBRANCH  27  28
ENDBRANCH  26  27
ENDBRANCH  25  26
ENDBRANCH  24  25
ENDBRANCH  23  24
ENDBRANCH  22  23
ENDBRANCH  21  22
ENDBRANCH  20  21
ENDBRANCH  19  20
ENDBRANCH  18  19
ENDBRANCH  17  18
ENDBRANCH   1  17
TORSDOF 26
ENDMDL
MODEL 3
REMARK VINA RESULT:    -4.404      1.361      2.865
REMARK INTER + INTRA:         -15.319
REMARK INTER:                 -10.604
REMARK INTRA:                  -4.715
REMARK UNBOUND:                -4.222
REMARK SMILES CCCCCCCCCCCCCCCCCCCCCCCCCCCC(=O)[O-]
REMARK SMILES IDX 15 1 16 2 17 3 18 4 19 5 20 6 21 7 22 8 23 9 24 10 25 11
REMARK SMILES IDX 26 12 27 13 28 14 29 15 30 16 14 17 13 18 12 19 11 20 10 21
REMARK SMILES IDX 9 22 8 23 7 24 6 25 5 26 4 27 3 28 2 29 1 30
REMARK H PARENT
REMARK Flexibility Score: inf
ROOT
ATOM      1  C   UNL     1     -23.046 -14.604 -16.464  1.00  0.00     0.000 C 
ENDROOT
BRANCH   1   2
ATOM      2  C   UNL     1     -23.267 -14.868 -14.966  1.00  0.00     0.000 C 
BRANCH   2   3
ATOM      3  C   UNL     1     -24.262 -13.883 -14.334  1.00  0.00     0.000 C 
BRANCH   3   4
ATOM      4  C   UNL     1     -25.585 -14.577 -13.991  1.00  0.00     0.000 C 
BRANCH   4   5
ATOM      5  C   UNL     1     -25.344 -16.028 -13.547  1.00  0.00     0.000 C 
BRANCH   5   6
ATOM      6  C   UNL     1     -26.471 -16.985 -13.978  1.00  0.00     0.000 C 
BRANCH   6   7
ATOM      7  C   UNL     1     -26.004 -18.247 -14.727  1.00  0.00     0.000 C 
BRANCH   7   8
ATOM      8  C   UNL     1     -24.750 -18.005 -15.583  1.00  0.00     0.000 C 
BRANCH   8   9
ATOM      9  C   UNL     1     -23.610 -18.982 -15.248  1.00  0.00     0.000 C 
BRANCH   9  10
ATOM     10  C   UNL     1     -22.693 -18.458 -14.132  1.00  0.00     0.000 C 
BRANCH  10  11
ATOM     11  C   UNL     1     -22.905 -19.247 -12.832  1.00  0.00     0.000 C 
BRANCH  11  12
ATOM     12  C   UNL     1     -21.605 -19.847 -12.269  1.00  0.00     0.006 C 
BRANCH  12  13
ATOM     13  C   UNL     1     -21.675 -21.362 -12.011  1.00  0.00     0.053 C 
BRANCH  13  14
ATOM     14  C   UNL     1     -20.325 -21.970 -11.776  1.00  0.00     0.041 C 
ATOM     15  O   UNL     1     -19.826 -21.976 -10.621  1.00  0.00    -0.550 OA
ATOM     16  O   UNL     1     -19.601 -22.496 -12.839  1.00  0.00    -0.550 OA
ENDBRANCH  13  14
ENDBRANCH  12  13
ENDBRANCH  11  12
ENDBRANCH  10  11
ENDBRANCH   9  10
ENDBRANCH   8   9
ENDBRANCH   7   8
ENDBRANCH   6   7
ENDBRANCH   5   6
ENDBRANCH   4   5
ENDBRANCH   3   4
ENDBRANCH   2   3
ENDBRANCH   1   2
BRANCH   1  17
ATOM     17  C   UNL     1     -22.139 -13.388 -16.723  1.00  0.00     0.000 C 
BRANCH  17  18
ATOM     18  C   UNL     1     -22.683 -12.467 -17.827  1.00  0.00     0.000 C 
BRANCH  18  19
ATOM     19  C   UNL     1     -21.564 -11.877 -18.705  1.00  0.00     0.000 C 
BRANCH  19  20
ATOM     20  C   UNL     1     -21.731 -12.221 -20.193  1.00  0.00     0.000 C 
BRANCH  20  21
ATOM     21  C   UNL     1     -22.583 -13.483 -20.415  1.00  0.00     0.000 C 
BRANCH  21  22
ATOM     22  C   UNL     1     -21.768 -14.651 -20.995  1.00  0.00    -0.000 C 
BRANCH  22  23
ATOM     23  C   UNL     1     -22.515 -15.991 -20.915  1.00  0.00    -0.000 C 
BRANCH  23  24
ATOM     24  C   UNL     1     -23.232 -16.143 -19.565  1.00  0.00    -0.000 C 
BRANCH  24  25
ATOM     25  C   UNL     1     -22.899 -17.466 -18.852  1.00  0.00    -0.000 C 
BRANCH  25  26
ATOM     26  C   UNL     1     -21.399 -17.814 -18.782  1.00  0.00    -0.000 C 
BRANCH  26  27
ATOM     27  C   UNL     1     -20.845 -17.790 -17.347  1.00  0.00    -0.000 C 
BRANCH  27  28
ATOM     28  C   UNL     1     -20.053 -16.508 -17.043  1.00  0.00    -0.000 C 
BRANCH  28  29
ATOM     29  C   UNL     1     -19.487 -15.848 -18.308  1.00  0.00    -0.003 C 
ATOM     30  C   UNL     1     -18.900 -14.475 -17.995  1.00  0.00     0.004 C 
ENDBRANCH  28  29
ENDBRANCH  27  28
ENDBRANCH  26  27
ENDBRANCH  25  26
ENDBRANCH  24  25
ENDBRANCH  23  24
ENDBRANCH  22  23
ENDBRANCH  21  22
ENDBRANCH  20  21
ENDBRANCH  19  20
ENDBRANCH  18  19
ENDBRANCH  17  18
ENDBRANCH   1  17
TORSDOF 26
ENDMDL
MODEL 4
REMARK VINA RESULT:    -4.391      1.838      5.435
REMARK INTER + INTRA:         -15.286
REMARK INTER:                 -11.561
REMARK INTRA:                  -3.725
REMARK UNBOUND:                -4.222
REMARK SMILES CCCCCCCCCCCCCCCCCCCCCCCCCCCC(=O)[O-]
REMARK SMILES IDX 15 1 16 2 17 3 18 4 19 5 20 6 21 7 22 8 23 9 24 10 25 11
REMARK SMILES IDX 26 12 27 13 28 14 29 15 30 16 14 17 13 18 12 19 11 20 10 21
REMARK SMILES IDX 9 22 8 23 7 24 6 25 5 26 4 27 3 28 2 29 1 30
REMARK H PARENT
REMARK Flexibility Score: inf
ROOT
ATOM      1  C   UNL     1     -22.997 -13.404 -17.955  1.00  0.00     0.000 C 
ENDROOT
BRANCH   1   2
ATOM      2  C   UNL     1     -22.717 -12.316 -19.004  1.00  0.00     0.000 C 
BRANCH   2   3
ATOM      3  C   UNL     1     -22.189 -12.894 -20.326  1.00  0.00     0.000 C 
BRANCH   3   4
ATOM      4  C   UNL     1     -20.871 -12.227 -20.735  1.00  0.00     0.000 C 
BRANCH   4   5
ATOM      5  C   UNL     1     -19.891 -12.179 -19.553  1.00  0.00     0.000 C 
BRANCH   5   6
ATOM      6  C   UNL     1     -19.122 -13.498 -19.355  1.00  0.00     0.000 C 
BRANCH   6   7
ATOM      7  C   UNL     1     -18.990 -13.963 -17.893  1.00  0.00     0.000 C 
BRANCH   7   8
ATOM      8  C   UNL     1     -19.627 -15.341 -17.643  1.00  0.00     0.000 C 
BRANCH   8   9
ATOM      9  C   UNL     1     -18.620 -16.493 -17.804  1.00  0.00     0.000 C 
BRANCH   9  10
ATOM     10  C   UNL     1     -18.777 -17.569 -16.717  1.00  0.00     0.000 C 
BRANCH  10  11
ATOM     11  C   UNL     1     -20.250 -17.732 -16.315  1.00  0.00     0.000 C 
BRANCH  11  12
ATOM     12  C   UNL     1     -20.570 -19.124 -15.744  1.00  0.00     0.006 C 
BRANCH  12  13
ATOM     13  C   UNL     1     -21.761 -19.141 -14.769  1.00  0.00     0.053 C 
BRANCH  13  14
ATOM     14  C   UNL     1     -21.410 -19.741 -13.440  1.00  0.00     0.041 C 
ATOM     15  O   UNL     1     -20.374 -20.446 -13.318  1.00  0.00    -0.550 OA
ATOM     16  O   UNL     1     -22.245 -19.554 -12.346  1.00  0.00    -0.550 OA
ENDBRANCH  13  14
ENDBRANCH  12  13
ENDBRANCH  11  12
ENDBRANCH  10  11
ENDBRANCH   9  10
ENDBRANCH   8   9
ENDBRANCH   7   8
ENDBRANCH   6   7
ENDBRANCH   5   6
ENDBRANCH   4   5
ENDBRANCH   3   4
ENDBRANCH   2   3
ENDBRANCH   1   2
BRANCH   1  17
ATOM     17  C   UNL     1     -22.380 -13.077 -16.583  1.00  0.00     0.000 C 
BRANCH  17  18
ATOM     18  C   UNL     1     -23.343 -12.305 -15.668  1.00  0.00     0.000 C 
BRANCH  18  19
ATOM     19  C   UNL     1     -23.643 -13.059 -14.359  1.00  0.00     0.000 C 
BRANCH  19  20
ATOM     20  C   UNL     1     -25.113 -13.492 -14.245  1.00  0.00     0.000 C 
BRANCH  20  21
ATOM     21  C   UNL     1     -25.264 -14.978 -13.878  1.00  0.00     0.000 C 
BRANCH  21  22
ATOM     22  C   UNL     1     -24.072 -15.826 -14.349  1.00  0.00    -0.000 C 
BRANCH  22  23
ATOM     23  C   UNL     1     -24.447 -16.799 -15.478  1.00  0.00    -0.000 C 
BRANCH  23  24
ATOM     24  C   UNL     1     -23.541 -16.597 -16.702  1.00  0.00    -0.000 C 
BRANCH  24  25
ATOM     25  C   UNL     1     -23.770 -17.651 -17.801  1.00  0.00    -0.000 C 
BRANCH  25  26
ATOM     26  C   UNL     1     -23.158 -17.309 -19.174  1.00  0.00    -0.000 C 
BRANCH  26  27
ATOM     27  C   UNL     1     -24.215 -17.174 -20.283  1.00  0.00    -0.000 C 
BRANCH  27  28
ATOM     28  C   UNL     1     -25.092 -18.429 -20.416  1.00  0.00    -0.000 C 
BRANCH  28  29
ATOM     29  C   UNL     1     -25.715 -18.570 -21.813  1.00  0.00    -0.003 C 
ATOM     30  C   UNL     1     -27.223 -18.781 -21.722  1.00  0.00     0.004 C 
ENDBRANCH  28  29
ENDBRANCH  27  28
ENDBRANCH  26  27
ENDBRANCH  25  26
ENDBRANCH  24  25
ENDBRANCH  23  24
ENDBRANCH  22  23
ENDBRANCH  21  22
ENDBRANCH  20  21
ENDBRANCH  19  20
ENDBRANCH  18  19
ENDBRANCH  17  18
ENDBRANCH   1  17
TORSDOF 26
ENDMDL
MODEL 5
REMARK VINA RESULT:    -4.386      1.439      2.851
REMARK INTER + INTRA:         -15.273
REMARK INTER:                 -11.396
REMARK INTRA:                  -3.877
REMARK UNBOUND:                -4.222
REMARK SMILES CCCCCCCCCCCCCCCCCCCCCCCCCCCC(=O)[O-]
REMARK SMILES IDX 15 1 16 2 17 3 18 4 19 5 20 6 21 7 22 8 23 9 24 10 25 11
REMARK SMILES IDX 26 12 27 13 28 14 29 15 30 16 14 17 13 18 12 19 11 20 10 21
REMARK SMILES IDX 9 22 8 23 7 24 6 25 5 26 4 27 3 28 2 29 1 30
REMARK H PARENT
REMARK Flexibility Score: inf
ROOT
ATOM      1  C   UNL     1     -24.074 -13.117 -14.324  1.00  0.00     0.000 C 
ENDROOT
BRANCH   1   2
ATOM      2  C   UNL     1     -23.911 -14.592 -14.723  1.00  0.00     0.000 C 
BRANCH   2   3
ATOM      3  C   UNL     1     -25.142 -15.439 -14.366  1.00  0.00     0.000 C 
BRANCH   3   4
ATOM      4  C   UNL     1     -24.754 -16.899 -14.105  1.00  0.00     0.000 C 
BRANCH   4   5
ATOM      5  C   UNL     1     -23.258 -17.124 -14.374  1.00  0.00     0.000 C 
BRANCH   5   6
ATOM      6  C   UNL     1     -22.940 -18.553 -14.850  1.00  0.00     0.000 C 
BRANCH   6   7
ATOM      7  C   UNL     1     -21.665 -19.173 -14.249  1.00  0.00     0.000 C 
BRANCH   7   8
ATOM      8  C   UNL     1     -21.919 -19.881 -12.907  1.00  0.00     0.000 C 
BRANCH   8   9
ATOM      9  C   UNL     1     -20.719 -19.777 -11.950  1.00  0.00     0.000 C 
BRANCH   9  10
ATOM     10  C   UNL     1     -20.505 -21.060 -11.132  1.00  0.00     0.000 C 
BRANCH  10  11
ATOM     11  C   UNL     1     -21.387 -22.201 -11.659  1.00  0.00     0.000 C 
BRANCH  11  12
ATOM     12  C   UNL     1     -20.580 -23.424 -12.128  1.00  0.00     0.006 C 
BRANCH  12  13
ATOM     13  C   UNL     1     -19.280 -23.067 -12.871  1.00  0.00     0.053 C 
BRANCH  13  14
ATOM     14  C   UNL     1     -19.504 -22.798 -14.329  1.00  0.00     0.041 C 
ATOM     15  O   UNL     1     -19.235 -21.667 -14.812  1.00  0.00    -0.550 OA
ATOM     16  O   UNL     1     -20.046 -23.783 -15.146  1.00  0.00    -0.550 OA
ENDBRANCH  13  14
ENDBRANCH  12  13
ENDBRANCH  11  12
ENDBRANCH  10  11
ENDBRANCH   9  10
ENDBRANCH   8   9
ENDBRANCH   7   8
ENDBRANCH   6   7
ENDBRANCH   5   6
ENDBRANCH   4   5
ENDBRANCH   3   4
ENDBRANCH   2   3
ENDBRANCH   1   2
BRANCH   1  17
ATOM     17  C   UNL     1     -23.586 -12.151 -15.419  1.00  0.00     0.000 C 
BRANCH  17  18
ATOM     18  C   UNL     1     -22.841 -12.870 -16.554  1.00  0.00     0.000 C 
BRANCH  18  19
ATOM     19  C   UNL     1     -22.475 -11.922 -17.711  1.00  0.00     0.000 C 
BRANCH  19  20
ATOM     20  C   UNL     1     -21.239 -12.389 -18.495  1.00  0.00     0.000 C 
BRANCH  20  21
ATOM     21  C   UNL     1     -21.492 -12.457 -20.011  1.00  0.00     0.000 C 
BRANCH  21  22
ATOM     22  C   UNL     1     -22.621 -13.434 -20.377  1.00  0.00    -0.000 C 
BRANCH  22  23
ATOM     23  C   UNL     1     -22.101 -14.712 -21.053  1.00  0.00    -0.000 C 
BRANCH  23  24
ATOM     24  C   UNL     1     -22.620 -15.966 -20.333  1.00  0.00    -0.000 C 
BRANCH  24  25
ATOM     25  C   UNL     1     -22.995 -15.705 -18.862  1.00  0.00    -0.000 C 
BRANCH  25  26
ATOM     26  C   UNL     1     -22.286 -16.610 -17.836  1.00  0.00    -0.000 C 
BRANCH  26  27
ATOM     27  C   UNL     1     -21.107 -15.912 -17.137  1.00  0.00    -0.000 C 
BRANCH  27  28
ATOM     28  C   UNL     1     -19.774 -16.644 -17.360  1.00  0.00    -0.000 C 
BRANCH  28  29
ATOM     29  C   UNL     1     -18.886 -15.951 -18.404  1.00  0.00    -0.003 C 
ATOM     30  C   UNL     1     -18.542 -14.528 -17.974  1.00  0.00     0.004 C 
ENDBRANCH  28  29
ENDBRANCH  27  28
ENDBRANCH  26  27
ENDBRANCH  25  26
ENDBRANCH  24  25
ENDBRANCH  23  24
ENDBRANCH  22  23
ENDBRANCH  21  22
ENDBRANCH  20  21
ENDBRANCH  19  20
ENDBRANCH  18  19
ENDBRANCH  17  18
ENDBRANCH   1  17
TORSDOF 26
ENDMDL
MODEL 6
REMARK VINA RESULT:    -4.366      1.432      4.502
REMARK INTER + INTRA:         -15.223
REMARK INTER:                 -11.121
REMARK INTRA:                  -4.102
REMARK UNBOUND:                -4.222
REMARK SMILES CCCCCCCCCCCCCCCCCCCCCCCCCCCC(=O)[O-]
REMARK SMILES IDX 15 1 16 2 17 3 18 4 19 5 20 6 21 7 22 8 23 9 24 10 25 11
REMARK SMILES IDX 26 12 27 13 28 14 29 15 30 16 14 17 13 18 12 19 11 20 10 21
REMARK SMILES IDX 9 22 8 23 7 24 6 25 5 26 4 27 3 28 2 29 1 30
REMARK H PARENT
REMARK Flexibility Score: inf
ROOT
ATOM      1  C   UNL     1     -22.384 -16.403 -19.723  1.00  0.00     0.000 C 
ENDROOT
BRANCH   1   2
ATOM      2  C   UNL     1     -21.207 -17.116 -19.039  1.00  0.00     0.000 C 
BRANCH   2   3
ATOM      3  C   UNL     1     -19.997 -16.193 -18.834  1.00  0.00     0.000 C 
BRANCH   3   4
ATOM      4  C   UNL     1     -19.388 -16.379 -17.440  1.00  0.00     0.000 C 
BRANCH   4   5
ATOM      5  C   UNL     1     -20.158 -17.443 -16.643  1.00  0.00     0.000 C 
BRANCH   5   6
ATOM      6  C   UNL     1     -19.235 -18.416 -15.887  1.00  0.00     0.000 C 
BRANCH   6   7
ATOM      7  C   UNL     1     -19.939 -19.639 -15.271  1.00  0.00     0.000 C 
BRANCH   7   8
ATOM      8  C   UNL     1     -21.096 -19.254 -14.334  1.00  0.00     0.000 C 
BRANCH   8   9
ATOM      9  C   UNL     1     -21.371 -20.326 -13.266  1.00  0.00     0.000 C 
BRANCH   9  10
ATOM     10  C   UNL     1     -20.982 -19.864 -11.853  1.00  0.00     0.000 C 
BRANCH  10  11
ATOM     11  C   UNL     1     -20.207 -20.962 -11.111  1.00  0.00     0.000 C 
BRANCH  11  12
ATOM     12  C   UNL     1     -20.634 -22.384 -11.516  1.00  0.00     0.006 C 
BRANCH  12  13
ATOM     13  C   UNL     1     -19.494 -23.236 -12.102  1.00  0.00     0.053 C 
BRANCH  13  14
ATOM     14  C   UNL     1     -19.868 -23.884 -13.402  1.00  0.00     0.041 C 
ATOM     15  O   UNL     1     -19.554 -23.340 -14.492  1.00  0.00    -0.550 OA
ATOM     16  O   UNL     1     -20.595 -25.068 -13.409  1.00  0.00    -0.550 OA
ENDBRANCH  13  14
ENDBRANCH  12  13
ENDBRANCH  11  12
ENDBRANCH  10  11
ENDBRANCH   9  10
ENDBRANCH   8   9
ENDBRANCH   7   8
ENDBRANCH   6   7
ENDBRANCH   5   6
ENDBRANCH   4   5
ENDBRANCH   3   4
ENDBRANCH   2   3
ENDBRANCH   1   2
BRANCH   1  17
ATOM     17  C   UNL     1     -21.929 -15.239 -20.622  1.00  0.00     0.000 C 
BRANCH  17  18
ATOM     18  C   UNL     1     -22.913 -14.059 -20.607  1.00  0.00     0.000 C 
BRANCH  18  19
ATOM     19  C   UNL     1     -22.268 -12.762 -20.083  1.00  0.00     0.000 C 
BRANCH  19  20
ATOM     20  C   UNL     1     -22.563 -12.509 -18.596  1.00  0.00     0.000 C 
BRANCH  20  21
ATOM     21  C   UNL     1     -21.461 -13.060 -17.674  1.00  0.00     0.000 C 
BRANCH  21  22
ATOM     22  C   UNL     1     -22.019 -13.967 -16.565  1.00  0.00    -0.000 C 
BRANCH  22  23
ATOM     23  C   UNL     1     -23.135 -13.291 -15.753  1.00  0.00    -0.000 C 
BRANCH  23  24
ATOM     24  C   UNL     1     -23.255 -13.915 -14.355  1.00  0.00    -0.000 C 
BRANCH  24  25
ATOM     25  C   UNL     1     -24.477 -14.841 -14.211  1.00  0.00    -0.000 C 
BRANCH  25  26
ATOM     26  C   UNL     1     -24.151 -16.342 -14.085  1.00  0.00    -0.000 C 
BRANCH  26  27
ATOM     27  C   UNL     1     -24.780 -17.187 -15.206  1.00  0.00    -0.000 C 
BRANCH  27  28
ATOM     28  C   UNL     1     -23.851 -17.338 -16.421  1.00  0.00    -0.000 C 
BRANCH  28  29
ATOM     29  C   UNL     1     -24.263 -18.498 -17.340  1.00  0.00    -0.003 C 
ATOM     30  C   UNL     1     -23.274 -19.656 -17.238  1.00  0.00     0.004 C 
ENDBRANCH  28  29
ENDBRANCH  27  28
ENDBRANCH  26  27
ENDBRANCH  25  26
ENDBRANCH  24  25
ENDBRANCH  23  24
ENDBRANCH  22  23
ENDBRANCH  21  22
ENDBRANCH  20  21
ENDBRANCH  19  20
ENDBRANCH  18  19
ENDBRANCH  17  18
ENDBRANCH   1  17
TORSDOF 26
ENDMDL
MODEL 7
REMARK VINA RESULT:    -4.316      1.689      4.350
REMARK INTER + INTRA:         -15.099
REMARK INTER:                 -10.581
REMARK INTRA:                  -4.518
REMARK UNBOUND:                -4.222
REMARK SMILES CCCCCCCCCCCCCCCCCCCCCCCCCCCC(=O)[O-]
REMARK SMILES IDX 15 1 16 2 17 3 18 4 19 5 20 6 21 7 22 8 23 9 24 10 25 11
REMARK SMILES IDX 26 12 27 13 28 14 29 15 30 16 14 17 13 18 12 19 11 20 10 21
REMARK SMILES IDX 9 22 8 23 7 24 6 25 5 26 4 27 3 28 2 29 1 30
REMARK H PARENT
REMARK Flexibility Score: inf
ROOT
ATOM      1  C   UNL     1     -22.503 -13.342 -17.429  1.00  0.00     0.000 C 
ENDROOT
BRANCH   1   2
ATOM      2  C   UNL     1     -21.012 -13.284 -17.798  1.00  0.00     0.000 C 
BRANCH   2   3
ATOM      3  C   UNL     1     -20.208 -14.442 -17.187  1.00  0.00     0.000 C 
BRANCH   3   4
ATOM      4  C   UNL     1     -18.964 -14.756 -18.026  1.00  0.00     0.000 C 
BRANCH   4   5
ATOM      5  C   UNL     1     -18.431 -16.162 -17.711  1.00  0.00     0.000 C 
BRANCH   5   6
ATOM      6  C   UNL     1     -19.454 -17.042 -16.969  1.00  0.00     0.000 C 
BRANCH   6   7
ATOM      7  C   UNL     1     -18.846 -18.114 -16.047  1.00  0.00     0.000 C 
BRANCH   7   8
ATOM      8  C   UNL     1     -19.765 -19.334 -15.860  1.00  0.00     0.000 C 
BRANCH   8   9
ATOM      9  C   UNL     1     -20.379 -19.398 -14.452  1.00  0.00     0.000 C 
BRANCH   9  10
ATOM     10  C   UNL     1     -21.593 -20.339 -14.381  1.00  0.00     0.000 C 
BRANCH  10  11
ATOM     11  C   UNL     1     -21.152 -21.808 -14.434  1.00  0.00     0.000 C 
BRANCH  11  12
ATOM     12  C   UNL     1     -20.965 -22.436 -13.042  1.00  0.00     0.006 C 
BRANCH  12  13
ATOM     13  C   UNL     1     -21.460 -21.550 -11.885  1.00  0.00     0.053 C 
BRANCH  13  14
ATOM     14  C   UNL     1     -20.344 -21.085 -10.997  1.00  0.00     0.041 C 
ATOM     15  O   UNL     1     -20.016 -19.870 -10.977  1.00  0.00    -0.550 OA
ATOM     16  O   UNL     1     -19.642 -21.999 -10.221  1.00  0.00    -0.550 OA
ENDBRANCH  13  14
ENDBRANCH  12  13
ENDBRANCH  11  12
ENDBRANCH  10  11
ENDBRANCH   9  10
ENDBRANCH   8   9
ENDBRANCH   7   8
ENDBRANCH   6   7
ENDBRANCH   5   6
ENDBRANCH   4   5
ENDBRANCH   3   4
ENDBRANCH   2   3
ENDBRANCH   1   2
BRANCH   1  17
ATOM     17  C   UNL     1     -23.008 -12.032 -16.799  1.00  0.00     0.000 C 
BRANCH  17  18
ATOM     18  C   UNL     1     -23.444 -12.208 -15.336  1.00  0.00     0.000 C 
BRANCH  18  19
ATOM     19  C   UNL     1     -23.023 -13.571 -14.756  1.00  0.00     0.000 C 
BRANCH  19  20
ATOM     20  C   UNL     1     -24.213 -14.383 -14.219  1.00  0.00     0.000 C 
BRANCH  20  21
ATOM     21  C   UNL     1     -24.308 -15.781 -14.854  1.00  0.00     0.000 C 
BRANCH  21  22
ATOM     22  C   UNL     1     -23.006 -16.201 -15.554  1.00  0.00    -0.000 C 
BRANCH  22  23
ATOM     23  C   UNL     1     -23.128 -17.556 -16.267  1.00  0.00    -0.000 C 
BRANCH  23  24
ATOM     24  C   UNL     1     -23.195 -17.374 -17.790  1.00  0.00    -0.000 C 
BRANCH  24  25
ATOM     25  C   UNL     1     -22.576 -18.551 -18.566  1.00  0.00    -0.000 C 
BRANCH  25  26
ATOM     26  C   UNL     1     -21.558 -18.156 -19.653  1.00  0.00    -0.000 C 
BRANCH  26  27
ATOM     27  C   UNL     1     -22.007 -16.939 -20.480  1.00  0.00    -0.000 C 
BRANCH  27  28
ATOM     28  C   UNL     1     -20.827 -16.063 -20.928  1.00  0.00    -0.000 C 
BRANCH  28  29
ATOM     29  C   UNL     1     -21.246 -14.619 -21.241  1.00  0.00    -0.003 C 
ATOM     30  C   UNL     1     -22.718 -14.392 -20.910  1.00  0.00     0.004 C 
ENDBRANCH  28  29
ENDBRANCH  27  28
ENDBRANCH  26  27
ENDBRANCH  25  26
ENDBRANCH  24  25
ENDBRANCH  23  24
ENDBRANCH  22  23
ENDBRANCH  21  22
ENDBRANCH  20  21
ENDBRANCH  19  20
ENDBRANCH  18  19
ENDBRANCH  17  18
ENDBRANCH   1  17
TORSDOF 26
ENDMDL
MODEL 8
REMARK VINA RESULT:    -4.292      2.046      5.446
REMARK INTER + INTRA:         -15.037
REMARK INTER:                  -9.745
REMARK INTRA:                  -5.292
REMARK UNBOUND:                -4.222
REMARK SMILES CCCCCCCCCCCCCCCCCCCCCCCCCCCC(=O)[O-]
REMARK SMILES IDX 15 1 16 2 17 3 18 4 19 5 20 6 21 7 22 8 23 9 24 10 25 11
REMARK SMILES IDX 26 12 27 13 28 14 29 15 30 16 14 17 13 18 12 19 11 20 10 21
REMARK SMILES IDX 9 22 8 23 7 24 6 25 5 26 4 27 3 28 2 29 1 30
REMARK H PARENT
REMARK Flexibility Score: inf
ROOT
ATOM      1  C   UNL     1     -19.253 -13.727 -17.829  1.00  0.00     0.000 C 
ENDROOT
BRANCH   1   2
ATOM      2  C   UNL     1     -19.497 -12.959 -19.138  1.00  0.00     0.000 C 
BRANCH   2   3
ATOM      3  C   UNL     1     -20.654 -11.956 -19.027  1.00  0.00     0.000 C 
BRANCH   3   4
ATOM      4  C   UNL     1     -21.975 -12.580 -19.492  1.00  0.00     0.000 C 
BRANCH   4   5
ATOM      5  C   UNL     1     -22.992 -12.629 -18.342  1.00  0.00     0.000 C 
BRANCH   5   6
ATOM      6  C   UNL     1     -22.425 -12.099 -17.012  1.00  0.00     0.000 C 
BRANCH   6   7
ATOM      7  C   UNL     1     -23.362 -12.241 -15.799  1.00  0.00     0.000 C 
BRANCH   7   8
ATOM      8  C   UNL     1     -22.969 -13.405 -14.872  1.00  0.00     0.000 C 
BRANCH   8   9
ATOM      9  C   UNL     1     -24.123 -14.398 -14.652  1.00  0.00     0.000 C 
BRANCH   9  10
ATOM     10  C   UNL     1     -23.633 -15.846 -14.493  1.00  0.00     0.000 C 
BRANCH  10  11
ATOM     11  C   UNL     1     -24.471 -16.805 -15.350  1.00  0.00     0.000 C 
BRANCH  11  12
ATOM     12  C   UNL     1     -23.781 -18.159 -15.593  1.00  0.00     0.006 C 
BRANCH  12  13
ATOM     13  C   UNL     1     -22.381 -18.270 -14.963  1.00  0.00     0.053 C 
BRANCH  13  14
ATOM     14  C   UNL     1     -22.304 -19.339 -13.915  1.00  0.00     0.041 C 
ATOM     15  O   UNL     1     -22.172 -20.545 -14.250  1.00  0.00    -0.550 OA
ATOM     16  O   UNL     1     -22.415 -19.009 -12.570  1.00  0.00    -0.550 OA
ENDBRANCH  13  14
ENDBRANCH  12  13
ENDBRANCH  11  12
ENDBRANCH  10  11
ENDBRANCH   9  10
ENDBRANCH   8   9
ENDBRANCH   7   8
ENDBRANCH   6   7
ENDBRANCH   5   6
ENDBRANCH   4   5
ENDBRANCH   3   4
ENDBRANCH   2   3
ENDBRANCH   1   2
BRANCH   1  17
ATOM     17  C   UNL     1     -18.884 -15.202 -18.068  1.00  0.00     0.000 C 
BRANCH  17  18
ATOM     18  C   UNL     1     -19.851 -16.175 -17.377  1.00  0.00     0.000 C 
BRANCH  18  19
ATOM     19  C   UNL     1     -21.286 -15.622 -17.297  1.00  0.00     0.000 C 
BRANCH  19  20
ATOM     20  C   UNL     1     -22.218 -16.229 -18.358  1.00  0.00     0.000 C 
BRANCH  20  21
ATOM     21  C   UNL     1     -21.614 -17.473 -19.031  1.00  0.00     0.000 C 
BRANCH  21  22
ATOM     22  C   UNL     1     -21.310 -17.249 -20.521  1.00  0.00    -0.000 C 
BRANCH  22  23
ATOM     23  C   UNL     1     -22.532 -16.748 -21.306  1.00  0.00    -0.000 C 
BRANCH  23  24
ATOM     24  C   UNL     1     -22.168 -15.536 -22.176  1.00  0.00    -0.000 C 
BRANCH  24  25
ATOM     25  C   UNL     1     -20.799 -14.927 -21.821  1.00  0.00    -0.000 C 
BRANCH  25  26
ATOM     26  C   UNL     1     -19.883 -14.628 -23.024  1.00  0.00    -0.000 C 
BRANCH  26  27
ATOM     27  C   UNL     1     -18.389 -14.666 -22.662  1.00  0.00    -0.000 C 
BRANCH  27  28
ATOM     28  C   UNL     1     -18.044 -15.820 -21.707  1.00  0.00    -0.000 C 
BRANCH  28  29
ATOM     29  C   UNL     1     -16.690 -15.625 -21.008  1.00  0.00    -0.003 C 
ATOM     30  C   UNL     1     -16.395 -14.145 -20.787  1.00  0.00     0.004 C 
ENDBRANCH  28  29
ENDBRANCH  27  28
ENDBRANCH  26  27
ENDBRANCH  25  26
ENDBRANCH  24  25
ENDBRANCH  23  24
ENDBRANCH  22  23
ENDBRANCH  21  22
ENDBRANCH  20  21
ENDBRANCH  19  20
ENDBRANCH  18  19
ENDBRANCH  17  18
ENDBRANCH   1  17
TORSDOF 26
ENDMDL
MODEL 9
REMARK VINA RESULT:    -4.279      4.505      7.563
REMARK INTER + INTRA:         -15.005
REMARK INTER:                  -9.777
REMARK INTRA:                  -5.229
REMARK UNBOUND:                -4.222
REMARK SMILES CCCCCCCCCCCCCCCCCCCCCCCCCCCC(=O)[O-]
REMARK SMILES IDX 15 1 16 2 17 3 18 4 19 5 20 6 21 7 22 8 23 9 24 10 25 11
REMARK SMILES IDX 26 12 27 13 28 14 29 15 30 16 14 17 13 18 12 19 11 20 10 21
REMARK SMILES IDX 9 22 8 23 7 24 6 25 5 26 4 27 3 28 2 29 1 30
REMARK H PARENT
REMARK Flexibility Score: inf
ROOT
ATOM      1  C   UNL     1     -17.603 -16.852 -19.145  1.00  0.00     0.000 C 
ENDROOT
BRANCH   1   2
ATOM      2  C   UNL     1     -17.886 -15.851 -18.014  1.00  0.00     0.000 C 
BRANCH   2   3
ATOM      3  C   UNL     1     -19.318 -15.297 -18.061  1.00  0.00     0.000 C 
BRANCH   3   4
ATOM      4  C   UNL     1     -19.346 -13.804 -17.715  1.00  0.00     0.000 C 
BRANCH   4   5
ATOM      5  C   UNL     1     -19.019 -12.949 -18.949  1.00  0.00     0.000 C 
BRANCH   5   6
ATOM      6  C   UNL     1     -20.211 -12.099 -19.426  1.00  0.00     0.000 C 
BRANCH   6   7
ATOM      7  C   UNL     1     -21.079 -12.747 -20.521  1.00  0.00     0.000 C 
BRANCH   7   8
ATOM      8  C   UNL     1     -22.544 -12.933 -20.091  1.00  0.00     0.000 C 
BRANCH   8   9
ATOM      9  C   UNL     1     -22.832 -14.354 -19.581  1.00  0.00     0.000 C 
BRANCH   9  10
ATOM     10  C   UNL     1     -22.968 -14.417 -18.051  1.00  0.00     0.000 C 
BRANCH  10  11
ATOM     11  C   UNL     1     -23.015 -13.006 -17.447  1.00  0.00     0.000 C 
BRANCH  11  12
ATOM     12  C   UNL     1     -22.654 -12.976 -15.951  1.00  0.00     0.006 C 
BRANCH  12  13
ATOM     13  C   UNL     1     -23.031 -14.260 -15.191  1.00  0.00     0.053 C 
BRANCH  13  14
ATOM     14  C   UNL     1     -24.206 -14.067 -14.280  1.00  0.00     0.041 C 
ATOM     15  O   UNL     1     -24.565 -12.908 -13.948  1.00  0.00    -0.550 OA
ATOM     16  O   UNL     1     -24.882 -15.168 -13.769  1.00  0.00    -0.550 OA
ENDBRANCH  13  14
ENDBRANCH  12  13
ENDBRANCH  11  12
ENDBRANCH  10  11
ENDBRANCH   9  10
ENDBRANCH   8   9
ENDBRANCH   7   8
ENDBRANCH   6   7
ENDBRANCH   5   6
ENDBRANCH   4   5
ENDBRANCH   3   4
ENDBRANCH   2   3
ENDBRANCH   1   2
BRANCH   1  17
ATOM     17  C   UNL     1     -16.445 -16.405 -20.055  1.00  0.00     0.000 C 
BRANCH  17  18
ATOM     18  C   UNL     1     -16.358 -14.877 -20.196  1.00  0.00     0.000 C 
BRANCH  18  19
ATOM     19  C   UNL     1     -16.240 -14.426 -21.663  1.00  0.00     0.000 C 
BRANCH  19  20
ATOM     20  C   UNL     1     -16.790 -13.011 -21.897  1.00  0.00     0.000 C 
BRANCH  20  21
ATOM     21  C   UNL     1     -17.850 -12.966 -23.012  1.00  0.00     0.000 C 
BRANCH  21  22
ATOM     22  C   UNL     1     -17.345 -13.573 -24.331  1.00  0.00    -0.000 C 
BRANCH  22  23
ATOM     23  C   UNL     1     -18.430 -13.612 -25.418  1.00  0.00    -0.000 C 
BRANCH  23  24
ATOM     24  C   UNL     1     -19.833 -13.525 -24.799  1.00  0.00    -0.000 C 
BRANCH  24  25
ATOM     25  C   UNL     1     -20.797 -14.598 -25.338  1.00  0.00    -0.000 C 
BRANCH  25  26
ATOM     26  C   UNL     1     -21.227 -15.666 -24.313  1.00  0.00    -0.000 C 
BRANCH  26  27
ATOM     27  C   UNL     1     -20.139 -16.722 -24.057  1.00  0.00    -0.000 C 
BRANCH  27  28
ATOM     28  C   UNL     1     -19.282 -16.398 -22.823  1.00  0.00    -0.000 C 
BRANCH  28  29
ATOM     29  C   UNL     1     -20.125 -15.977 -21.611  1.00  0.00    -0.003 C 
ATOM     30  C   UNL     1     -20.813 -17.182 -20.976  1.00  0.00     0.004 C 
ENDBRANCH  28  29
ENDBRANCH  27  28
ENDBRANCH  26  27
ENDBRANCH  25  26
ENDBRANCH  24  25
ENDBRANCH  23  24
ENDBRANCH  22  23
ENDBRANCH  21  22
ENDBRANCH  20  21
ENDBRANCH  19  20
ENDBRANCH  18  19
ENDBRANCH  17  18
ENDBRANCH   1  17
TORSDOF 26
ENDMDL
