MODEL 1
REMARK VINA RESULT:    -5.224      0.000      0.000
REMARK INTER + INTRA:          -5.377
REMARK INTER:                  -5.377
REMARK INTRA:                   0.000
REMARK UNBOUND:                 0.000
REMARK SMILES CC1(C)[C@@H]2CC[C@@](C)(C2)[C@@H]1O
REMARK SMILES IDX 1 1 2 2 4 3 5 4 6 5 7 6 9 7 10 8 8 9 3 10 11 11
REMARK H PARENT 11 12
REMARK Flexibility Score: inf
ROOT
ATOM      1  C   UNL     1     118.097 118.620 120.851  1.00  0.00     0.014 C 
ATOM      2  C   UNL     1     118.561 117.829 119.601  1.00  0.00    -0.006 C 
ATOM      3  C   UNL     1     120.081 118.031 119.269  1.00  0.00    -0.002 C 
ATOM      4  C   UNL     1     120.456 119.528 119.262  1.00  0.00     0.005 C 
ATOM      5  C   UNL     1     119.706 120.061 118.030  1.00  0.00     0.010 C 
ATOM      6  C   UNL     1     119.090 118.777 117.424  1.00  0.00    -0.006 C 
ATOM      7  C   UNL     1     120.137 117.742 117.778  1.00  0.00     0.013 C 
ATOM      8  C   UNL     1     117.883 118.302 118.272  1.00  0.00     0.126 C 
ATOM      9  C   UNL     1     118.797 118.879 115.924  1.00  0.00     0.014 C 
ATOM     10  C   UNL     1     118.270 116.333 119.868  1.00  0.00     0.014 C 
ENDROOT
BRANCH   8  11
ATOM     11  O   UNL     1     116.947 119.336 118.450  1.00  0.00    -0.392 OA
ATOM     12  H   UNL     1     117.142 119.741 119.335  1.00  0.00     0.211 HD
ENDBRANCH   8  11
TORSDOF 1
ENDMDL
MODEL 2
REMARK VINA RESULT:    -5.208      1.350      2.082
REMARK INTER + INTRA:          -5.360
REMARK INTER:                  -5.360
REMARK INTRA:                   0.000
REMARK UNBOUND:                 0.000
REMARK SMILES CC1(C)[C@@H]2CC[C@@](C)(C2)[C@@H]1O
REMARK SMILES IDX 1 1 2 2 4 3 5 4 6 5 7 6 9 7 10 8 8 9 3 10 11 11
REMARK H PARENT 11 12
REMARK Flexibility Score: inf
ROOT
ATOM      1  C   UNL     1     118.644 119.531 120.837  1.00  0.00     0.014 C 
ATOM      2  C   UNL     1     117.850 119.080 119.583  1.00  0.00    -0.006 C 
ATOM      3  C   UNL     1     118.037 117.560 119.246  1.00  0.00    -0.002 C 
ATOM      4  C   UNL     1     119.529 117.169 119.240  1.00  0.00     0.005 C 
ATOM      5  C   UNL     1     120.073 117.918 118.012  1.00  0.00     0.010 C 
ATOM      6  C   UNL     1     118.796 118.550 117.406  1.00  0.00    -0.006 C 
ATOM      7  C   UNL     1     117.749 117.513 117.754  1.00  0.00     0.013 C 
ATOM      8  C   UNL     1     118.332 119.759 118.258  1.00  0.00     0.126 C 
ATOM      9  C   UNL     1     118.904 118.848 115.907  1.00  0.00     0.014 C 
ATOM     10  C   UNL     1     116.356 119.387 119.849  1.00  0.00     0.014 C 
ENDROOT
BRANCH   8  11
ATOM     11  O   UNL     1     119.376 120.683 118.442  1.00  0.00    -0.392 OA
ATOM     12  H   UNL     1     120.106 120.407 117.828  1.00  0.00     0.211 HD
ENDBRANCH   8  11
TORSDOF 1
ENDMDL
MODEL 3
REMARK VINA RESULT:    -5.206      1.343      2.061
REMARK INTER + INTRA:          -5.358
REMARK INTER:                  -5.358
REMARK INTRA:                   0.000
REMARK UNBOUND:                 0.000
REMARK SMILES CC1(C)[C@@H]2CC[C@@](C)(C2)[C@@H]1O
REMARK SMILES IDX 1 1 2 2 4 3 5 4 6 5 7 6 9 7 10 8 8 9 3 10 11 11
REMARK H PARENT 11 12
REMARK Flexibility Score: inf
ROOT
ATOM      1  C   UNL     1     118.980 118.096 120.856  1.00  0.00     0.014 C 
ATOM      2  C   UNL     1     119.766 118.543 119.595  1.00  0.00    -0.006 C 
ATOM      3  C   UNL     1     119.576 120.063 119.255  1.00  0.00    -0.002 C 
ATOM      4  C   UNL     1     118.083 120.452 119.256  1.00  0.00     0.005 C 
ATOM      5  C   UNL     1     117.532 119.699 118.035  1.00  0.00     0.010 C 
ATOM      6  C   UNL     1     118.806 119.066 117.423  1.00  0.00    -0.006 C 
ATOM      7  C   UNL     1     119.854 120.105 117.761  1.00  0.00     0.013 C 
ATOM      8  C   UNL     1     119.276 117.860 118.276  1.00  0.00     0.126 C 
ATOM      9  C   UNL     1     118.688 118.763 115.925  1.00  0.00     0.014 C 
ATOM     10  C   UNL     1     121.261 118.239 119.853  1.00  0.00     0.014 C 
ENDROOT
BRANCH   8  11
ATOM     11  O   UNL     1     118.234 116.936 118.469  1.00  0.00    -0.392 OA
ATOM     12  H   UNL     1     118.437 116.458 119.315  1.00  0.00     0.211 HD
ENDBRANCH   8  11
TORSDOF 1
ENDMDL
MODEL 4
REMARK VINA RESULT:    -5.200      1.724      2.930
REMARK INTER + INTRA:          -5.352
REMARK INTER:                  -5.352
REMARK INTRA:                   0.000
REMARK UNBOUND:                 0.000
REMARK SMILES CC1(C)[C@@H]2CC[C@@](C)(C2)[C@@H]1O
REMARK SMILES IDX 1 1 2 2 4 3 5 4 6 5 7 6 9 7 10 8 8 9 3 10 11 11
REMARK H PARENT 11 12
REMARK Flexibility Score: inf
ROOT
ATOM      1  C   UNL     1     119.492 118.987 120.870  1.00  0.00     0.014 C 
ATOM      2  C   UNL     1     119.036 119.768 119.610  1.00  0.00    -0.006 C 
ATOM      3  C   UNL     1     117.517 119.567 119.274  1.00  0.00    -0.002 C 
ATOM      4  C   UNL     1     117.138 118.071 119.277  1.00  0.00     0.005 C 
ATOM      5  C   UNL     1     117.892 117.526 118.054  1.00  0.00     0.010 C 
ATOM      6  C   UNL     1     118.514 118.803 117.440  1.00  0.00    -0.006 C 
ATOM      7  C   UNL     1     117.469 119.844 117.780  1.00  0.00     0.013 C 
ATOM      8  C   UNL     1     119.719 119.282 118.289  1.00  0.00     0.126 C 
ATOM      9  C   UNL     1     118.814 118.687 115.941  1.00  0.00     0.014 C 
ATOM     10  C   UNL     1     119.330 121.266 119.866  1.00  0.00     0.014 C 
ENDROOT
BRANCH   8  11
ATOM     11  O   UNL     1     120.651 118.247 118.480  1.00  0.00    -0.392 OA
ATOM     12  H   UNL     1     120.949 118.310 119.425  1.00  0.00     0.211 HD
ENDBRANCH   8  11
TORSDOF 1
ENDMDL
MODEL 5
REMARK VINA RESULT:    -5.117      1.622      2.658
REMARK INTER + INTRA:          -5.267
REMARK INTER:                  -5.267
REMARK INTRA:                   0.000
REMARK UNBOUND:                 0.000
REMARK SMILES CC1(C)[C@@H]2CC[C@@](C)(C2)[C@@H]1O
REMARK SMILES IDX 1 1 2 2 4 3 5 4 6 5 7 6 9 7 10 8 8 9 3 10 11 11
REMARK H PARENT 11 12
REMARK Flexibility Score: inf
ROOT
ATOM      1  C   UNL     1     118.490 116.366 119.702  1.00  0.00     0.014 C 
ATOM      2  C   UNL     1     117.832 117.754 119.493  1.00  0.00    -0.006 C 
ATOM      3  C   UNL     1     117.823 118.215 117.994  1.00  0.00    -0.002 C 
ATOM      4  C   UNL     1     119.218 118.060 117.354  1.00  0.00     0.005 C 
ATOM      5  C   UNL     1     120.051 119.121 118.091  1.00  0.00     0.010 C 
ATOM      6  C   UNL     1     118.997 119.826 118.977  1.00  0.00    -0.006 C 
ATOM      7  C   UNL     1     117.758 119.730 118.112  1.00  0.00     0.013 C 
ATOM      8  C   UNL     1     118.609 118.927 120.179  1.00  0.00     0.126 C 
ATOM      9  C   UNL     1     119.374 121.259 119.368  1.00  0.00     0.014 C 
ATOM     10  C   UNL     1     116.383 117.663 120.030  1.00  0.00     0.014 C 
ENDROOT
BRANCH   8  11
ATOM     11  O   UNL     1     119.746 118.512 120.893  1.00  0.00    -0.392 OA
ATOM     12  H   UNL     1     120.290 119.327 121.052  1.00  0.00     0.211 HD
ENDBRANCH   8  11
TORSDOF 1
ENDMDL
MODEL 6
REMARK VINA RESULT:    -5.093      1.506      2.467
REMARK INTER + INTRA:          -5.242
REMARK INTER:                  -5.242
REMARK INTRA:                   0.000
REMARK UNBOUND:                 0.000
REMARK SMILES CC1(C)[C@@H]2CC[C@@](C)(C2)[C@@H]1O
REMARK SMILES IDX 1 1 2 2 4 3 5 4 6 5 7 6 9 7 10 8 8 9 3 10 11 11
REMARK H PARENT 11 12
REMARK Flexibility Score: inf
ROOT
ATOM      1  C   UNL     1     121.254 118.452 119.710  1.00  0.00     0.014 C 
ATOM      2  C   UNL     1     119.864 117.798 119.498  1.00  0.00    -0.006 C 
ATOM      3  C   UNL     1     119.398 117.806 118.000  1.00  0.00    -0.002 C 
ATOM      4  C   UNL     1     119.554 119.208 117.375  1.00  0.00     0.005 C 
ATOM      5  C   UNL     1     118.497 120.035 118.124  1.00  0.00     0.010 C 
ATOM      6  C   UNL     1     117.792 118.972 119.001  1.00  0.00    -0.006 C 
ATOM      7  C   UNL     1     117.885 117.743 118.123  1.00  0.00     0.013 C 
ATOM      8  C   UNL     1     118.695 118.570 120.196  1.00  0.00     0.126 C 
ATOM      9  C   UNL     1     116.361 119.348 119.400  1.00  0.00     0.014 C 
ATOM     10  C   UNL     1     119.955 116.343 120.020  1.00  0.00     0.014 C 
ENDROOT
BRANCH   8  11
ATOM     11  O   UNL     1     119.114 119.699 120.921  1.00  0.00    -0.392 OA
ATOM     12  H   UNL     1     119.491 120.334 120.257  1.00  0.00     0.211 HD
ENDBRANCH   8  11
TORSDOF 1
ENDMDL
MODEL 7
REMARK VINA RESULT:    -5.084      1.750      3.030
REMARK INTER + INTRA:          -5.232
REMARK INTER:                  -5.232
REMARK INTRA:                   0.000
REMARK UNBOUND:                 0.000
REMARK SMILES CC1(C)[C@@H]2CC[C@@](C)(C2)[C@@H]1O
REMARK SMILES IDX 1 1 2 2 4 3 5 4 6 5 7 6 9 7 10 8 8 9 3 10 11 11
REMARK H PARENT 11 12
REMARK Flexibility Score: inf
ROOT
ATOM      1  C   UNL     1     116.377 119.152 119.701  1.00  0.00     0.014 C 
ATOM      2  C   UNL     1     117.771 119.798 119.490  1.00  0.00    -0.006 C 
ATOM      3  C   UNL     1     118.235 119.792 117.991  1.00  0.00    -0.002 C 
ATOM      4  C   UNL     1     118.069 118.393 117.361  1.00  0.00     0.005 C 
ATOM      5  C   UNL     1     119.122 117.557 118.106  1.00  0.00     0.010 C 
ATOM      6  C   UNL     1     119.835 118.613 118.986  1.00  0.00    -0.006 C 
ATOM      7  C   UNL     1     119.749 119.846 118.112  1.00  0.00     0.013 C 
ATOM      8  C   UNL     1     118.937 119.017 120.183  1.00  0.00     0.126 C 
ATOM      9  C   UNL     1     121.264 118.227 119.381  1.00  0.00     0.014 C 
ATOM     10  C   UNL     1     117.690 121.251 120.016  1.00  0.00     0.014 C 
ENDROOT
BRANCH   8  11
ATOM     11  O   UNL     1     118.511 117.888 120.905  1.00  0.00    -0.392 OA
ATOM     12  H   UNL     1     117.520 117.885 120.862  1.00  0.00     0.211 HD
ENDBRANCH   8  11
TORSDOF 1
ENDMDL
MODEL 8
REMARK VINA RESULT:    -5.078      1.246      2.867
REMARK INTER + INTRA:          -5.226
REMARK INTER:                  -5.226
REMARK INTRA:                   0.000
REMARK UNBOUND:                 0.000
REMARK SMILES CC1(C)[C@@H]2CC[C@@](C)(C2)[C@@H]1O
REMARK SMILES IDX 1 1 2 2 4 3 5 4 6 5 7 6 9 7 10 8 8 9 3 10 11 11
REMARK H PARENT 11 12
REMARK Flexibility Score: inf
ROOT
ATOM      1  C   UNL     1     119.161 121.245 119.684  1.00  0.00     0.014 C 
ATOM      2  C   UNL     1     119.795 119.841 119.501  1.00  0.00    -0.006 C 
ATOM      3  C   UNL     1     119.793 119.351 118.011  1.00  0.00    -0.002 C 
ATOM      4  C   UNL     1     118.399 119.517 117.371  1.00  0.00     0.005 C 
ATOM      5  C   UNL     1     117.550 118.486 118.130  1.00  0.00     0.010 C 
ATOM      6  C   UNL     1     118.594 117.780 119.028  1.00  0.00    -0.006 C 
ATOM      7  C   UNL     1     119.832 117.839 118.159  1.00  0.00     0.013 C 
ATOM      8  C   UNL     1     119.000 118.696 120.211  1.00  0.00     0.126 C 
ATOM      9  C   UNL     1     118.194 116.361 119.448  1.00  0.00     0.014 C 
ATOM     10  C   UNL     1     121.246 119.919 120.033  1.00  0.00     0.014 C 
ENDROOT
BRANCH   8  11
ATOM     11  O   UNL     1     117.871 119.144 120.919  1.00  0.00    -0.392 OA
ATOM     12  H   UNL     1     117.147 118.490 120.736  1.00  0.00     0.211 HD
ENDBRANCH   8  11
TORSDOF 1
ENDMDL
MODEL 9
REMARK VINA RESULT:    -5.018      1.740      2.794
REMARK INTER + INTRA:          -5.164
REMARK INTER:                  -5.164
REMARK INTRA:                   0.000
REMARK UNBOUND:                 0.000
REMARK SMILES CC1(C)[C@@H]2CC[C@@](C)(C2)[C@@H]1O
REMARK SMILES IDX 1 1 2 2 4 3 5 4 6 5 7 6 9 7 10 8 8 9 3 10 11 11
REMARK H PARENT 11 12
REMARK Flexibility Score: inf
ROOT
ATOM      1  C   UNL     1     121.257 118.884 119.986  1.00  0.00     0.014 C 
ATOM      2  C   UNL     1     120.063 118.723 119.010  1.00  0.00    -0.006 C 
ATOM      3  C   UNL     1     119.747 120.027 118.197  1.00  0.00    -0.002 C 
ATOM      4  C   UNL     1     119.660 121.256 119.127  1.00  0.00     0.005 C 
ATOM      5  C   UNL     1     118.387 120.977 119.941  1.00  0.00     0.010 C 
ATOM      6  C   UNL     1     117.845 119.680 119.293  1.00  0.00    -0.006 C 
ATOM      7  C   UNL     1     118.277 119.856 117.853  1.00  0.00     0.013 C 
ATOM      8  C   UNL     1     118.697 118.460 119.727  1.00  0.00     0.126 C 
ATOM      9  C   UNL     1     116.336 119.481 119.472  1.00  0.00     0.014 C 
ATOM     10  C   UNL     1     120.411 117.565 118.043  1.00  0.00     0.014 C 
ENDROOT
BRANCH   8  11
ATOM     11  O   UNL     1     118.799 118.381 121.127  1.00  0.00    -0.392 OA
ATOM     12  H   UNL     1     118.118 119.004 121.493  1.00  0.00     0.211 HD
ENDBRANCH   8  11
TORSDOF 1
ENDMDL
