MODEL 1
REMARK VINA RESULT:    -8.275      0.000      0.000
REMARK INTER + INTRA:          -9.245
REMARK INTER:                  -9.000
REMARK INTRA:                  -0.244
REMARK UNBOUND:                -0.244
REMARK SMILES CC1(C)CC[C@@]2(C(=O)[O-])CC[C@@]3(C)C(=CC[C@H]4[C@@]5(C)CC[C@@H](O)C(C)(C)[C@@H]5CC[C@@]43C)[C@H]2C1
REMARK SMILES IDX 6 1 5 2 10 3 32 4 4 5 11 6 14 7 33 8 2 9 12 10 15 11 1 12
REMARK SMILES IDX 3 13 13 14 30 15 16 16 17 17 29 18 31 19 18 20 28 21 27 22
REMARK SMILES IDX 20 23 19 24 24 25 21 26 22 27 25 28 26 29 7 30 8 31 9 32
REMARK SMILES IDX 23 33
REMARK H PARENT 23 34
REMARK Flexibility Score: inf
ROOT
ATOM      1  C   UNL     1     -37.250  36.365  45.998  1.00  0.00     0.017 C 
ATOM      2  C   UNL     1     -38.442  35.484  46.499  1.00  0.00     0.014 C 
ATOM      3  C   UNL     1     -37.109  36.193  44.449  1.00  0.00     0.014 C 
ATOM      4  C   UNL     1     -37.475  37.876  46.420  1.00  0.00     0.028 C 
ATOM      5  C   UNL     1     -38.903  35.897  47.903  1.00  0.00     0.007 C 
ATOM      6  C   UNL     1     -37.748  37.313  43.604  1.00  0.00     0.013 C 
ATOM      7  C   UNL     1     -36.874  38.861  45.408  1.00  0.00    -0.064 C 
ATOM      8  C   UNL     1     -38.957  38.190  46.734  1.00  0.00     0.015 C 
ATOM      9  C   UNL     1     -39.506  37.337  47.921  1.00  0.00    -0.035 C 
ATOM     10  C   UNL     1     -37.253  38.774  43.917  1.00  0.00    -0.006 C 
ATOM     11  C   UNL     1     -35.990  39.782  45.860  1.00  0.00    -0.027 C 
ATOM     12  C   UNL     1     -41.045  37.253  47.802  1.00  0.00     0.011 C 
ATOM     13  C   UNL     1     -39.170  38.018  49.267  1.00  0.00     0.011 C 
ATOM     14  C   UNL     1     -38.503  39.705  43.692  1.00  0.00     0.017 C 
ATOM     15  C   UNL     1     -36.002  39.216  42.992  1.00  0.00    -0.020 C 
ATOM     16  C   UNL     1     -35.025  40.540  44.984  1.00  0.00     0.032 C 
ATOM     17  C   UNL     1     -35.450  40.614  43.503  1.00  0.00     0.006 C 
ATOM     18  C   UNL     1     -36.427  39.298  41.465  1.00  0.00     0.008 C 
ATOM     19  C   UNL     1     -34.859  38.157  43.132  1.00  0.00     0.012 C 
ATOM     20  C   UNL     1     -34.433  41.432  42.562  1.00  0.00    -0.025 C 
ATOM     21  C   UNL     1     -35.928  40.539  40.699  1.00  0.00     0.005 C 
ATOM     22  C   UNL     1     -34.476  40.848  41.105  1.00  0.00     0.003 C 
ATOM     23  C   UNL     1     -32.949  41.371  43.035  1.00  0.00     0.010 C 
ATOM     24  C   UNL     1     -34.892  42.928  42.638  1.00  0.00     0.012 C 
ATOM     25  C   UNL     1     -33.546  41.537  40.034  1.00  0.00    -0.006 C 
ATOM     26  C   UNL     1     -31.964  42.067  42.064  1.00  0.00     0.033 C 
ATOM     27  C   UNL     1     -32.073  41.596  40.594  1.00  0.00     0.120 C 
ATOM     28  C   UNL     1     -33.527  40.691  38.725  1.00  0.00     0.014 C 
ATOM     29  C   UNL     1     -34.027  42.959  39.631  1.00  0.00     0.014 C 
ENDROOT
BRANCH   1  30
ATOM     30  C   UNL     1     -35.971  35.800  46.623  1.00  0.00     0.048 C 
ATOM     31  O   UNL     1     -35.230  36.494  47.371  1.00  0.00    -0.550 OA
ATOM     32  O   UNL     1     -35.597  34.486  46.350  1.00  0.00    -0.550 OA
ENDBRANCH   1  30
BRANCH  27  33
ATOM     33  O   UNL     1     -31.388  40.375  40.432  1.00  0.00    -0.393 OA
ATOM     34  H   UNL     1     -32.055  39.643  40.388  1.00  0.00     0.210 HD
ENDBRANCH  27  33
TORSDOF 2
ENDMDL
MODEL 2
REMARK VINA RESULT:    -7.831      1.231      8.263
REMARK INTER + INTRA:          -8.762
REMARK INTER:                  -8.527
REMARK INTRA:                  -0.235
REMARK UNBOUND:                -0.244
REMARK SMILES CC1(C)CC[C@@]2(C(=O)[O-])CC[C@@]3(C)C(=CC[C@H]4[C@@]5(C)CC[C@@H](O)C(C)(C)[C@@H]5CC[C@@]43C)[C@H]2C1
REMARK SMILES IDX 6 1 5 2 10 3 32 4 4 5 11 6 14 7 33 8 2 9 12 10 15 11 1 12
REMARK SMILES IDX 3 13 13 14 30 15 16 16 17 17 29 18 31 19 18 20 28 21 27 22
REMARK SMILES IDX 20 23 19 24 24 25 21 26 22 27 25 28 26 29 7 30 8 31 9 32
REMARK SMILES IDX 23 33
REMARK H PARENT 23 34
REMARK Flexibility Score: inf
ROOT
ATOM      1  C   UNL     1     -32.389  41.910  41.103  1.00  0.00     0.017 C 
ATOM      2  C   UNL     1     -31.668  43.202  40.595  1.00  0.00     0.014 C 
ATOM      3  C   UNL     1     -32.179  41.787  42.649  1.00  0.00     0.014 C 
ATOM      4  C   UNL     1     -33.922  41.948  40.704  1.00  0.00     0.028 C 
ATOM      5  C   UNL     1     -32.155  43.612  39.199  1.00  0.00     0.007 C 
ATOM      6  C   UNL     1     -33.356  42.281  43.513  1.00  0.00     0.013 C 
ATOM      7  C   UNL     1     -34.811  41.228  41.727  1.00  0.00    -0.064 C 
ATOM      8  C   UNL     1     -34.420  43.381  40.399  1.00  0.00     0.015 C 
ATOM      9  C   UNL     1     -33.658  44.033  39.203  1.00  0.00    -0.035 C 
ATOM     10  C   UNL     1     -34.750  41.612  43.217  1.00  0.00    -0.006 C 
ATOM     11  C   UNL     1     -35.623  40.239  41.283  1.00  0.00    -0.027 C 
ATOM     12  C   UNL     1     -33.763  45.571  39.327  1.00  0.00     0.011 C 
ATOM     13  C   UNL     1     -34.312  43.620  37.866  1.00  0.00     0.011 C 
ATOM     14  C   UNL     1     -35.824  42.737  43.461  1.00  0.00     0.017 C 
ATOM     15  C   UNL     1     -35.021  40.313  44.144  1.00  0.00    -0.020 C 
ATOM     16  C   UNL     1     -36.244  39.185  42.167  1.00  0.00     0.032 C 
ATOM     17  C   UNL     1     -36.348  39.595  43.650  1.00  0.00     0.006 C 
ATOM     18  C   UNL     1     -35.133  40.721  45.673  1.00  0.00     0.008 C 
ATOM     19  C   UNL     1     -33.833  39.310  43.985  1.00  0.00     0.012 C 
ATOM     20  C   UNL     1     -37.021  38.483  44.598  1.00  0.00    -0.025 C 
ATOM     21  C   UNL     1     -36.293  40.072  46.455  1.00  0.00     0.005 C 
ATOM     22  C   UNL     1     -36.426  38.594  46.047  1.00  0.00     0.003 C 
ATOM     23  C   UNL     1     -36.786  37.018  44.119  1.00  0.00     0.010 C 
ATOM     24  C   UNL     1     -38.564  38.754  44.545  1.00  0.00     0.012 C 
ATOM     25  C   UNL     1     -36.980  37.584  47.123  1.00  0.00    -0.006 C 
ATOM     26  C   UNL     1     -37.341  35.953  45.095  1.00  0.00     0.033 C 
ATOM     27  C   UNL     1     -36.866  36.116  46.558  1.00  0.00     0.120 C 
ATOM     28  C   UNL     1     -36.120  37.666  48.421  1.00  0.00     0.014 C 
ATOM     29  C   UNL     1     -38.445  37.885  47.549  1.00  0.00     0.014 C 
ENDROOT
BRANCH   1  30
ATOM     30  C   UNL     1     -31.679  40.711  40.466  1.00  0.00     0.048 C 
ATOM     31  O   UNL     1     -32.303  39.852  39.784  1.00  0.00    -0.550 OA
ATOM     32  O   UNL     1     -30.309  40.547  40.651  1.00  0.00    -0.550 OA
ENDBRANCH   1  30
BRANCH  27  33
ATOM     33  O   UNL     1     -35.567  35.587  46.702  1.00  0.00    -0.393 OA
ATOM     34  H   UNL     1     -35.516  34.736  46.195  1.00  0.00     0.210 HD
ENDBRANCH  27  33
TORSDOF 2
ENDMDL
MODEL 3
REMARK VINA RESULT:    -6.014      2.272      3.625
REMARK INTER + INTRA:          -6.786
REMARK INTER:                  -6.813
REMARK INTRA:                   0.027
REMARK UNBOUND:                -0.244
REMARK SMILES CC1(C)CC[C@@]2(C(=O)[O-])CC[C@@]3(C)C(=CC[C@H]4[C@@]5(C)CC[C@@H](O)C(C)(C)[C@@H]5CC[C@@]43C)[C@H]2C1
REMARK SMILES IDX 6 1 5 2 10 3 32 4 4 5 11 6 14 7 33 8 2 9 12 10 15 11 1 12
REMARK SMILES IDX 3 13 13 14 30 15 16 16 17 17 29 18 31 19 18 20 28 21 27 22
REMARK SMILES IDX 20 23 19 24 24 25 21 26 22 27 25 28 26 29 7 30 8 31 9 32
REMARK SMILES IDX 23 33
REMARK H PARENT 23 34
REMARK Flexibility Score: inf
ROOT
ATOM      1  C   UNL     1     -39.552  39.270  45.695  1.00  0.00     0.017 C 
ATOM      2  C   UNL     1     -40.366  39.369  47.028  1.00  0.00     0.014 C 
ATOM      3  C   UNL     1     -38.865  40.648  45.418  1.00  0.00     0.014 C 
ATOM      4  C   UNL     1     -38.508  38.081  45.782  1.00  0.00     0.028 C 
ATOM      5  C   UNL     1     -40.727  37.982  47.578  1.00  0.00     0.007 C 
ATOM      6  C   UNL     1     -37.382  40.737  45.831  1.00  0.00     0.013 C 
ATOM      7  C   UNL     1     -37.236  38.359  44.969  1.00  0.00    -0.064 C 
ATOM      8  C   UNL     1     -38.193  37.673  47.241  1.00  0.00     0.015 C 
ATOM      9  C   UNL     1     -39.461  37.175  48.005  1.00  0.00    -0.035 C 
ATOM     10  C   UNL     1     -36.431  39.652  45.202  1.00  0.00    -0.006 C 
ATOM     11  C   UNL     1     -36.865  37.453  44.034  1.00  0.00    -0.027 C 
ATOM     12  C   UNL     1     -39.226  37.350  49.523  1.00  0.00     0.011 C 
ATOM     13  C   UNL     1     -39.692  35.672  47.731  1.00  0.00     0.011 C 
ATOM     14  C   UNL     1     -35.349  39.343  46.304  1.00  0.00     0.017 C 
ATOM     15  C   UNL     1     -35.754  40.149  43.819  1.00  0.00    -0.020 C 
ATOM     16  C   UNL     1     -35.910  37.739  42.901  1.00  0.00     0.032 C 
ATOM     17  C   UNL     1     -34.971  38.934  43.162  1.00  0.00     0.006 C 
ATOM     18  C   UNL     1     -34.782  41.378  44.074  1.00  0.00     0.008 C 
ATOM     19  C   UNL     1     -36.876  40.602  42.829  1.00  0.00     0.012 C 
ATOM     20  C   UNL     1     -33.940  39.238  41.964  1.00  0.00    -0.025 C 
ATOM     21  C   UNL     1     -33.419  41.311  43.357  1.00  0.00     0.005 C 
ATOM     22  C   UNL     1     -33.613  40.774  41.927  1.00  0.00     0.003 C 
ATOM     23  C   UNL     1     -34.479  38.852  40.554  1.00  0.00     0.010 C 
ATOM     24  C   UNL     1     -32.682  38.349  42.249  1.00  0.00     0.012 C 
ATOM     25  C   UNL     1     -32.603  41.260  40.818  1.00  0.00    -0.006 C 
ATOM     26  C   UNL     1     -33.528  39.250  39.400  1.00  0.00     0.033 C 
ATOM     27  C   UNL     1     -33.090  40.734  39.413  1.00  0.00     0.120 C 
ATOM     28  C   UNL     1     -32.582  42.818  40.765  1.00  0.00     0.014 C 
ATOM     29  C   UNL     1     -31.140  40.810  41.084  1.00  0.00     0.014 C 
ENDROOT
BRANCH   1  30
ATOM     30  C   UNL     1     -40.557  39.043  44.562  1.00  0.00     0.048 C 
ATOM     31  O   UNL     1     -40.235  39.169  43.349  1.00  0.00    -0.550 OA
ATOM     32  O   UNL     1     -41.873  38.703  44.869  1.00  0.00    -0.550 OA
ENDBRANCH   1  30
BRANCH  27  33
ATOM     33  O   UNL     1     -34.110  41.538  38.865  1.00  0.00    -0.393 OA
ATOM     34  H   UNL     1     -34.691  41.858  39.602  1.00  0.00     0.210 HD
ENDBRANCH  27  33
TORSDOF 2
ENDMDL
MODEL 4
REMARK VINA RESULT:    -5.739      2.341      8.198
REMARK INTER + INTRA:          -6.486
REMARK INTER:                  -6.498
REMARK INTRA:                   0.012
REMARK UNBOUND:                -0.244
REMARK SMILES CC1(C)CC[C@@]2(C(=O)[O-])CC[C@@]3(C)C(=CC[C@H]4[C@@]5(C)CC[C@@H](O)C(C)(C)[C@@H]5CC[C@@]43C)[C@H]2C1
REMARK SMILES IDX 6 1 5 2 10 3 32 4 4 5 11 6 14 7 33 8 2 9 12 10 15 11 1 12
REMARK SMILES IDX 3 13 13 14 30 15 16 16 17 17 29 18 31 19 18 20 28 21 27 22
REMARK SMILES IDX 20 23 19 24 24 25 21 26 22 27 25 28 26 29 7 30 8 31 9 32
REMARK SMILES IDX 23 33
REMARK H PARENT 23 34
REMARK Flexibility Score: inf
ROOT
ATOM      1  C   UNL     1     -35.595  43.865  41.668  1.00  0.00     0.017 C 
ATOM      2  C   UNL     1     -35.823  44.724  40.381  1.00  0.00     0.014 C 
ATOM      3  C   UNL     1     -36.907  43.074  41.988  1.00  0.00     0.014 C 
ATOM      4  C   UNL     1     -34.346  42.909  41.471  1.00  0.00     0.028 C 
ATOM      5  C   UNL     1     -34.497  45.201  39.774  1.00  0.00     0.007 C 
ATOM      6  C   UNL     1     -36.921  41.607  41.516  1.00  0.00     0.013 C 
ATOM      7  C   UNL     1     -34.494  41.589  42.241  1.00  0.00    -0.064 C 
ATOM      8  C   UNL     1     -34.002  42.683  39.980  1.00  0.00     0.015 C 
ATOM      9  C   UNL     1     -33.633  44.012  39.248  1.00  0.00    -0.035 C 
ATOM     10  C   UNL     1     -35.741  40.707  42.042  1.00  0.00    -0.006 C 
ATOM     11  C   UNL     1     -33.513  41.243  43.109  1.00  0.00    -0.027 C 
ATOM     12  C   UNL     1     -33.878  43.827  37.732  1.00  0.00     0.011 C 
ATOM     13  C   UNL     1     -32.136  44.334  39.451  1.00  0.00     0.011 C 
ATOM     14  C   UNL     1     -35.425  39.695  40.878  1.00  0.00     0.017 C 
ATOM     15  C   UNL     1     -36.113  39.942  43.418  1.00  0.00    -0.020 C 
ATOM     16  C   UNL     1     -33.671  40.225  44.211  1.00  0.00     0.032 C 
ATOM     17  C   UNL     1     -34.815  39.218  43.974  1.00  0.00     0.006 C 
ATOM     18  C   UNL     1     -37.288  38.900  43.187  1.00  0.00     0.008 C 
ATOM     19  C   UNL     1     -36.583  40.989  44.480  1.00  0.00     0.012 C 
ATOM     20  C   UNL     1     -34.981  38.121  45.138  1.00  0.00    -0.025 C 
ATOM     21  C   UNL     1     -37.090  37.516  43.838  1.00  0.00     0.005 C 
ATOM     22  C   UNL     1     -36.487  37.688  45.244  1.00  0.00     0.003 C 
ATOM     23  C   UNL     1     -34.552  38.627  46.549  1.00  0.00     0.010 C 
ATOM     24  C   UNL     1     -34.029  36.939  44.751  1.00  0.00     0.012 C 
ATOM     25  C   UNL     1     -36.842  36.603  46.331  1.00  0.00    -0.006 C 
ATOM     26  C   UNL     1     -34.821  37.604  47.679  1.00  0.00     0.033 C 
ATOM     27  C   UNL     1     -36.271  37.066  47.726  1.00  0.00     0.120 C 
ATOM     28  C   UNL     1     -38.390  36.472  46.466  1.00  0.00     0.014 C 
ATOM     29  C   UNL     1     -36.312  35.185  45.976  1.00  0.00     0.014 C 
ENDROOT
BRANCH   1  30
ATOM     30  C   UNL     1     -35.372  44.836  42.832  1.00  0.00     0.048 C 
ATOM     31  O   UNL     1     -35.355  44.448  44.032  1.00  0.00    -0.550 OA
ATOM     32  O   UNL     1     -35.196  46.193  42.569  1.00  0.00    -0.550 OA
ENDBRANCH   1  30
BRANCH  27  33
ATOM     33  O   UNL     1     -37.108  38.006  48.362  1.00  0.00    -0.393 OA
ATOM     34  H   UNL     1     -37.036  38.869  47.881  1.00  0.00     0.210 HD
ENDBRANCH  27  33
TORSDOF 2
ENDMDL
MODEL 5
REMARK VINA RESULT:    -5.583      2.320      8.115
REMARK INTER + INTRA:          -6.317
REMARK INTER:                  -6.057
REMARK INTRA:                  -0.259
REMARK UNBOUND:                -0.244
REMARK SMILES CC1(C)CC[C@@]2(C(=O)[O-])CC[C@@]3(C)C(=CC[C@H]4[C@@]5(C)CC[C@@H](O)C(C)(C)[C@@H]5CC[C@@]43C)[C@H]2C1
REMARK SMILES IDX 6 1 5 2 10 3 32 4 4 5 11 6 14 7 33 8 2 9 12 10 15 11 1 12
REMARK SMILES IDX 3 13 13 14 30 15 16 16 17 17 29 18 31 19 18 20 28 21 27 22
REMARK SMILES IDX 20 23 19 24 24 25 21 26 22 27 25 28 26 29 7 30 8 31 9 32
REMARK SMILES IDX 23 33
REMARK H PARENT 23 34
REMARK Flexibility Score: inf
ROOT
ATOM      1  C   UNL     1     -34.567  39.634  41.755  1.00  0.00     0.017 C 
ATOM      2  C   UNL     1     -33.457  39.428  40.673  1.00  0.00     0.014 C 
ATOM      3  C   UNL     1     -35.529  38.400  41.735  1.00  0.00     0.014 C 
ATOM      4  C   UNL     1     -33.907  39.861  43.178  1.00  0.00     0.028 C 
ATOM      5  C   UNL     1     -32.264  40.368  40.897  1.00  0.00     0.007 C 
ATOM      6  C   UNL     1     -35.256  37.337  42.817  1.00  0.00     0.013 C 
ATOM      7  C   UNL     1     -34.777  39.319  44.320  1.00  0.00    -0.064 C 
ATOM      8  C   UNL     1     -32.453  39.335  43.247  1.00  0.00     0.015 C 
ATOM      9  C   UNL     1     -31.513  40.052  42.228  1.00  0.00    -0.035 C 
ATOM     10  C   UNL     1     -35.260  37.857  44.303  1.00  0.00    -0.006 C 
ATOM     11  C   UNL     1     -35.122  40.167  45.318  1.00  0.00    -0.027 C 
ATOM     12  C   UNL     1     -30.306  39.132  41.934  1.00  0.00     0.011 C 
ATOM     13  C   UNL     1     -30.970  41.365  42.836  1.00  0.00     0.011 C 
ATOM     14  C   UNL     1     -34.182  36.993  45.060  1.00  0.00     0.017 C 
ATOM     15  C   UNL     1     -36.717  37.738  44.997  1.00  0.00    -0.020 C 
ATOM     16  C   UNL     1     -36.262  39.935  46.278  1.00  0.00     0.032 C 
ATOM     17  C   UNL     1     -36.675  38.455  46.412  1.00  0.00     0.006 C 
ATOM     18  C   UNL     1     -37.153  36.219  45.143  1.00  0.00     0.008 C 
ATOM     19  C   UNL     1     -37.772  38.472  44.106  1.00  0.00     0.012 C 
ATOM     20  C   UNL     1     -37.882  38.197  47.444  1.00  0.00    -0.025 C 
ATOM     21  C   UNL     1     -37.765  35.829  46.503  1.00  0.00     0.005 C 
ATOM     22  C   UNL     1     -38.711  36.945  46.983  1.00  0.00     0.003 C 
ATOM     23  C   UNL     1     -38.881  39.388  47.559  1.00  0.00     0.010 C 
ATOM     24  C   UNL     1     -37.211  38.006  48.847  1.00  0.00     0.012 C 
ATOM     25  C   UNL     1     -39.936  36.530  47.886  1.00  0.00    -0.006 C 
ATOM     26  C   UNL     1     -40.097  39.087  48.467  1.00  0.00     0.033 C 
ATOM     27  C   UNL     1     -40.858  37.788  48.110  1.00  0.00     0.120 C 
ATOM     28  C   UNL     1     -40.782  35.438  47.164  1.00  0.00     0.014 C 
ATOM     29  C   UNL     1     -39.510  35.923  49.252  1.00  0.00     0.014 C 
ENDROOT
BRANCH   1  30
ATOM     30  C   UNL     1     -35.399  40.848  41.330  1.00  0.00     0.048 C 
ATOM     31  O   UNL     1     -36.260  40.778  40.411  1.00  0.00    -0.550 OA
ATOM     32  O   UNL     1     -35.197  42.074  41.960  1.00  0.00    -0.550 OA
ENDBRANCH   1  30
BRANCH  27  33
ATOM     33  O   UNL     1     -41.718  38.023  47.018  1.00  0.00    -0.393 OA
ATOM     34  H   UNL     1     -41.199  38.461  46.296  1.00  0.00     0.210 HD
ENDBRANCH  27  33
TORSDOF 2
ENDMDL
