MODEL 1
REMARK VINA RESULT:    -0.978      0.000      0.000
REMARK INTER + INTRA:          -2.463
REMARK INTER:                  -1.778
REMARK INTRA:                  -0.685
REMARK UNBOUND:                -0.685
REMARK SMILES CCCCCCCCCCCCCCCC(=O)[O-]
REMARK SMILES IDX 9 1 10 2 11 3 12 4 13 5 14 6 15 7 16 8 17 9 18 10 8 11 7 12
REMARK SMILES IDX 6 13 5 14 4 15 3 16 2 17 1 18
REMARK H PARENT
REMARK Flexibility Score: inf
ROOT
ATOM      1  C   UNL     1     -10.599 -10.635  -2.681  1.00  0.00     0.000 C 
ENDROOT
BRANCH   1   2
ATOM      2  C   UNL     1     -11.067  -9.231  -3.107  1.00  0.00     0.000 C 
BRANCH   2   3
ATOM      3  C   UNL     1     -10.522  -8.124  -2.190  1.00  0.00     0.000 C 
BRANCH   3   4
ATOM      4  C   UNL     1      -9.886  -8.676  -0.905  1.00  0.00     0.000 C 
BRANCH   4   5
ATOM      5  C   UNL     1      -9.048  -7.600  -0.203  1.00  0.00     0.000 C 
BRANCH   5   6
ATOM      6  C   UNL     1      -7.577  -8.032  -0.092  1.00  0.00     0.006 C 
BRANCH   6   7
ATOM      7  C   UNL     1      -7.121  -8.853  -1.305  1.00  0.00     0.053 C 
BRANCH   7   8
ATOM      8  C   UNL     1      -5.629  -8.949  -1.383  1.00  0.00     0.041 C 
ATOM      9  O   UNL     1      -5.087  -9.908  -1.993  1.00  0.00    -0.550 OA
ATOM     10  O   UNL     1      -4.836  -7.998  -0.753  1.00  0.00    -0.550 OA
ENDBRANCH   7   8
ENDBRANCH   6   7
ENDBRANCH   5   6
ENDBRANCH   4   5
ENDBRANCH   3   4
ENDBRANCH   2   3
ENDBRANCH   1   2
BRANCH   1  11
ATOM     11  C   UNL     1     -10.984 -11.717  -3.703  1.00  0.00     0.000 C 
BRANCH  11  12
ATOM     12  C   UNL     1     -11.125 -11.158  -5.129  1.00  0.00    -0.000 C 
BRANCH  12  13
ATOM     13  C   UNL     1     -10.342 -11.975  -6.174  1.00  0.00    -0.000 C 
BRANCH  13  14
ATOM     14  C   UNL     1     -11.020 -12.099  -7.550  1.00  0.00    -0.000 C 
BRANCH  14  15
ATOM     15  C   UNL     1     -10.554 -11.027  -8.547  1.00  0.00    -0.000 C 
BRANCH  15  16
ATOM     16  C   UNL     1      -9.712 -11.651  -9.669  1.00  0.00    -0.000 C 
BRANCH  16  17
ATOM     17  C   UNL     1     -10.384 -11.537 -11.046  1.00  0.00    -0.003 C 
ATOM     18  C   UNL     1      -9.430 -11.852 -12.199  1.00  0.00     0.004 C 
ENDBRANCH  16  17
ENDBRANCH  15  16
ENDBRANCH  14  15
ENDBRANCH  13  14
ENDBRANCH  12  13
ENDBRANCH  11  12
ENDBRANCH   1  11
TORSDOF 14
ENDMDL
MODEL 2
REMARK VINA RESULT:     1.779     11.755     15.084
REMARK INTER + INTRA:           2.551
REMARK INTER:                   2.946
REMARK INTRA:                  -0.396
REMARK UNBOUND:                -0.685
REMARK SMILES CCCCCCCCCCCCCCCC(=O)[O-]
REMARK SMILES IDX 9 1 10 2 11 3 12 4 13 5 14 6 15 7 16 8 17 9 18 10 8 11 7 12
REMARK SMILES IDX 6 13 5 14 4 15 3 16 2 17 1 18
REMARK H PARENT
REMARK Flexibility Score: inf
ROOT
ATOM      1  C   UNL     1      -1.789  -5.259 -12.968  1.00  0.00     0.000 C 
ENDROOT
BRANCH   1   2
ATOM      2  C   UNL     1      -2.433  -6.350 -13.842  1.00  0.00     0.000 C 
BRANCH   2   3
ATOM      3  C   UNL     1      -3.754  -6.874 -13.256  1.00  0.00     0.000 C 
BRANCH   3   4
ATOM      4  C   UNL     1      -4.398  -7.965 -14.125  1.00  0.00     0.000 C 
BRANCH   4   5
ATOM      5  C   UNL     1      -4.652  -9.238 -13.307  1.00  0.00     0.000 C 
BRANCH   5   6
ATOM      6  C   UNL     1      -5.978  -9.899 -13.715  1.00  0.00     0.006 C 
BRANCH   6   7
ATOM      7  C   UNL     1      -6.878 -10.189 -12.507  1.00  0.00     0.053 C 
BRANCH   7   8
ATOM      8  C   UNL     1      -8.258 -10.593 -12.924  1.00  0.00     0.041 C 
ATOM      9  O   UNL     1      -9.258 -10.208 -12.263  1.00  0.00    -0.550 OA
ATOM     10  O   UNL     1      -8.438 -11.424 -14.023  1.00  0.00    -0.550 OA
ENDBRANCH   7   8
ENDBRANCH   6   7
ENDBRANCH   5   6
ENDBRANCH   4   5
ENDBRANCH   3   4
ENDBRANCH   2   3
ENDBRANCH   1   2
BRANCH   1  11
ATOM     11  C   UNL     1      -1.153  -4.136 -13.802  1.00  0.00     0.000 C 
BRANCH  11  12
ATOM     12  C   UNL     1       0.327  -4.406 -14.125  1.00  0.00    -0.000 C 
BRANCH  12  13
ATOM     13  C   UNL     1       1.269  -3.322 -13.571  1.00  0.00    -0.000 C 
BRANCH  13  14
ATOM     14  C   UNL     1       2.753  -3.491 -13.943  1.00  0.00    -0.000 C 
BRANCH  14  15
ATOM     15  C   UNL     1       3.634  -2.337 -13.442  1.00  0.00    -0.000 C 
BRANCH  15  16
ATOM     16  C   UNL     1       5.122  -2.707 -13.522  1.00  0.00    -0.000 C 
BRANCH  16  17
ATOM     17  C   UNL     1       5.351  -4.112 -14.099  1.00  0.00    -0.003 C 
ATOM     18  C   UNL     1       6.809  -4.562 -14.003  1.00  0.00     0.004 C 
ENDBRANCH  16  17
ENDBRANCH  15  16
ENDBRANCH  14  15
ENDBRANCH  13  14
ENDBRANCH  12  13
ENDBRANCH  11  12
ENDBRANCH   1  11
TORSDOF 14
ENDMDL
