MODEL 1
REMARK VINA RESULT:    -3.253      0.000      0.000
REMARK INTER + INTRA:         -10.282
REMARK INTER:                  -7.056
REMARK INTRA:                  -3.227
REMARK UNBOUND:                -3.227
REMARK SMILES CCCCCCCCCCCCCCCCCCCCCC(=O)[O-]
REMARK SMILES IDX 12 1 11 2 10 3 9 4 8 5 7 6 6 7 5 8 4 9 3 10 2 11 1 12 13 13
REMARK SMILES IDX 14 14 15 15 16 16 17 17 18 18 19 19 20 20 21 21 22 22 23 23
REMARK SMILES IDX 24 24
REMARK H PARENT
REMARK Flexibility Score: inf
ROOT
ATOM      1  C   UNL     1       0.002   1.570  59.156  1.00  0.00     0.000 C 
ENDROOT
BRANCH   1   2
ATOM      2  C   UNL     1       1.043   1.371  58.036  1.00  0.00     0.000 C 
BRANCH   2   3
ATOM      3  C   UNL     1       1.632  -0.050  57.934  1.00  0.00     0.000 C 
BRANCH   3   4
ATOM      4  C   UNL     1       0.769  -1.057  57.150  1.00  0.00    -0.000 C 
BRANCH   4   5
ATOM      5  C   UNL     1       0.102  -2.102  58.056  1.00  0.00    -0.000 C 
BRANCH   5   6
ATOM      6  C   UNL     1      -1.380  -1.770  58.279  1.00  0.00    -0.000 C 
BRANCH   6   7
ATOM      7  C   UNL     1      -1.964  -0.886  57.165  1.00  0.00    -0.000 C 
BRANCH   7   8
ATOM      8  C   UNL     1      -3.501  -0.880  57.157  1.00  0.00    -0.000 C 
BRANCH   8   9
ATOM      9  C   UNL     1      -4.059  -2.196  57.716  1.00  0.00    -0.000 C 
BRANCH   9  10
ATOM     10  C   UNL     1      -4.501  -3.174  56.614  1.00  0.00    -0.000 C 
BRANCH  10  11
ATOM     11  C   UNL     1      -5.652  -4.109  57.040  1.00  0.00    -0.003 C 
ATOM     12  C   UNL     1      -6.188  -3.779  58.435  1.00  0.00     0.004 C 
ENDBRANCH  10  11
ENDBRANCH   9  10
ENDBRANCH   8   9
ENDBRANCH   7   8
ENDBRANCH   6   7
ENDBRANCH   5   6
ENDBRANCH   4   5
ENDBRANCH   3   4
ENDBRANCH   2   3
ENDBRANCH   1   2
BRANCH   1  13
ATOM     13  C   UNL     1      -1.123   2.571  58.831  1.00  0.00     0.000 C 
BRANCH  13  14
ATOM     14  C   UNL     1      -2.457   2.205  59.504  1.00  0.00     0.000 C 
BRANCH  14  15
ATOM     15  C   UNL     1      -2.312   1.070  60.532  1.00  0.00     0.000 C 
BRANCH  15  16
ATOM     16  C   UNL     1      -3.553   0.162  60.592  1.00  0.00     0.000 C 
BRANCH  16  17
ATOM     17  C   UNL     1      -3.483  -0.851  61.747  1.00  0.00     0.000 C 
BRANCH  17  18
ATOM     18  C   UNL     1      -4.138  -2.195  61.397  1.00  0.00     0.000 C 
BRANCH  18  19
ATOM     19  C   UNL     1      -3.089  -3.313  61.314  1.00  0.00     0.000 C 
BRANCH  19  20
ATOM     20  C   UNL     1      -3.494  -4.582  62.085  1.00  0.00     0.006 C 
BRANCH  20  21
ATOM     21  C   UNL     1      -2.800  -4.732  63.451  1.00  0.00     0.053 C 
BRANCH  21  22
ATOM     22  C   UNL     1      -3.421  -3.875  64.512  1.00  0.00     0.041 C 
ATOM     23  O   UNL     1      -2.777  -2.915  65.012  1.00  0.00    -0.550 OA
ATOM     24  O   UNL     1      -4.723  -4.119  64.929  1.00  0.00    -0.550 OA
ENDBRANCH  21  22
ENDBRANCH  20  21
ENDBRANCH  19  20
ENDBRANCH  18  19
ENDBRANCH  17  18
ENDBRANCH  16  17
ENDBRANCH  15  16
ENDBRANCH  14  15
ENDBRANCH  13  14
ENDBRANCH   1  13
TORSDOF 20
ENDMDL
MODEL 2
REMARK VINA RESULT:    -3.234      7.136     11.752
REMARK INTER + INTRA:         -10.241
REMARK INTER:                  -6.713
REMARK INTRA:                  -3.528
REMARK UNBOUND:                -3.227
REMARK SMILES CCCCCCCCCCCCCCCCCCCCCC(=O)[O-]
REMARK SMILES IDX 12 1 11 2 10 3 9 4 8 5 7 6 6 7 5 8 4 9 3 10 2 11 1 12 13 13
REMARK SMILES IDX 14 14 15 15 16 16 17 17 18 18 19 19 20 20 21 21 22 22 23 23
REMARK SMILES IDX 24 24
REMARK H PARENT
REMARK Flexibility Score: inf
ROOT
ATOM      1  C   UNL     1      -4.217  -9.648  64.992  1.00  0.00     0.000 C 
ENDROOT
BRANCH   1   2
ATOM      2  C   UNL     1      -3.692 -10.974  64.406  1.00  0.00     0.000 C 
BRANCH   2   3
ATOM      3  C   UNL     1      -4.773 -12.031  64.103  1.00  0.00     0.000 C 
BRANCH   3   4
ATOM      4  C   UNL     1      -4.289 -13.492  64.162  1.00  0.00    -0.000 C 
BRANCH   4   5
ATOM      5  C   UNL     1      -4.796 -14.237  65.406  1.00  0.00    -0.000 C 
BRANCH   5   6
ATOM      6  C   UNL     1      -6.320 -14.113  65.538  1.00  0.00    -0.000 C 
BRANCH   6   7
ATOM      7  C   UNL     1      -6.765 -13.751  66.965  1.00  0.00    -0.000 C 
BRANCH   7   8
ATOM      8  C   UNL     1      -6.564 -12.262  67.288  1.00  0.00    -0.000 C 
BRANCH   8   9
ATOM      9  C   UNL     1      -5.633 -12.082  68.495  1.00  0.00    -0.000 C 
BRANCH   9  10
ATOM     10  C   UNL     1      -4.713 -10.857  68.365  1.00  0.00    -0.000 C 
BRANCH  10  11
ATOM     11  C   UNL     1      -3.233 -11.215  68.125  1.00  0.00    -0.003 C 
ATOM     12  C   UNL     1      -2.983 -12.725  68.157  1.00  0.00     0.004 C 
ENDBRANCH  10  11
ENDBRANCH   9  10
ENDBRANCH   8   9
ENDBRANCH   7   8
ENDBRANCH   6   7
ENDBRANCH   5   6
ENDBRANCH   4   5
ENDBRANCH   3   4
ENDBRANCH   2   3
ENDBRANCH   1   2
BRANCH   1  13
ATOM     13  C   UNL     1      -5.732  -9.420  64.836  1.00  0.00     0.000 C 
BRANCH  13  14
ATOM     14  C   UNL     1      -6.312  -8.507  65.931  1.00  0.00     0.000 C 
BRANCH  14  15
ATOM     15  C   UNL     1      -7.043  -7.282  65.357  1.00  0.00     0.000 C 
BRANCH  15  16
ATOM     16  C   UNL     1      -6.321  -6.675  64.141  1.00  0.00     0.000 C 
BRANCH  16  17
ATOM     17  C   UNL     1      -5.163  -5.749  64.549  1.00  0.00     0.000 C 
BRANCH  17  18
ATOM     18  C   UNL     1      -3.941  -5.888  63.628  1.00  0.00     0.000 C 
BRANCH  18  19
ATOM     19  C   UNL     1      -2.725  -6.412  64.405  1.00  0.00     0.000 C 
BRANCH  19  20
ATOM     20  C   UNL     1      -2.160  -5.388  65.405  1.00  0.00     0.006 C 
BRANCH  20  21
ATOM     21  C   UNL     1      -1.869  -5.971  66.800  1.00  0.00     0.053 C 
BRANCH  21  22
ATOM     22  C   UNL     1      -3.111  -6.416  67.511  1.00  0.00     0.041 C 
ATOM     23  O   UNL     1      -3.303  -7.637  67.753  1.00  0.00    -0.550 OA
ATOM     24  O   UNL     1      -4.044  -5.478  67.933  1.00  0.00    -0.550 OA
ENDBRANCH  21  22
ENDBRANCH  20  21
ENDBRANCH  19  20
ENDBRANCH  18  19
ENDBRANCH  17  18
ENDBRANCH  16  17
ENDBRANCH  15  16
ENDBRANCH  14  15
ENDBRANCH  13  14
ENDBRANCH   1  13
TORSDOF 20
ENDMDL
MODEL 3
REMARK VINA RESULT:    -3.209      7.741     12.325
REMARK INTER + INTRA:         -10.187
REMARK INTER:                  -6.642
REMARK INTRA:                  -3.545
REMARK UNBOUND:                -3.227
REMARK SMILES CCCCCCCCCCCCCCCCCCCCCC(=O)[O-]
REMARK SMILES IDX 12 1 11 2 10 3 9 4 8 5 7 6 6 7 5 8 4 9 3 10 2 11 1 12 13 13
REMARK SMILES IDX 14 14 15 15 16 16 17 17 18 18 19 19 20 20 21 21 22 22 23 23
REMARK SMILES IDX 24 24
REMARK H PARENT
REMARK Flexibility Score: inf
ROOT
ATOM      1  C   UNL     1      -4.850 -12.951  63.543  1.00  0.00     0.000 C 
ENDROOT
BRANCH   1   2
ATOM      2  C   UNL     1      -4.137 -11.886  64.402  1.00  0.00     0.000 C 
BRANCH   2   3
ATOM      3  C   UNL     1      -4.721 -10.463  64.300  1.00  0.00     0.000 C 
BRANCH   3   4
ATOM      4  C   UNL     1      -3.873  -9.363  64.966  1.00  0.00    -0.000 C 
BRANCH   4   5
ATOM      5  C   UNL     1      -4.702  -8.435  65.867  1.00  0.00    -0.000 C 
BRANCH   5   6
ATOM      6  C   UNL     1      -6.203  -8.722  65.717  1.00  0.00    -0.000 C 
BRANCH   6   7
ATOM      7  C   UNL     1      -6.950  -7.603  64.972  1.00  0.00    -0.000 C 
BRANCH   7   8
ATOM      8  C   UNL     1      -6.143  -6.297  64.900  1.00  0.00    -0.000 C 
BRANCH   8   9
ATOM      9  C   UNL     1      -6.019  -5.806  63.451  1.00  0.00    -0.000 C 
BRANCH   9  10
ATOM     10  C   UNL     1      -4.678  -5.108  63.169  1.00  0.00    -0.000 C 
BRANCH  10  11
ATOM     11  C   UNL     1      -3.454  -6.037  63.309  1.00  0.00    -0.003 C 
ATOM     12  C   UNL     1      -2.480  -5.561  64.389  1.00  0.00     0.004 C 
ENDBRANCH  10  11
ENDBRANCH   9  10
ENDBRANCH   8   9
ENDBRANCH   7   8
ENDBRANCH   6   7
ENDBRANCH   5   6
ENDBRANCH   4   5
ENDBRANCH   3   4
ENDBRANCH   2   3
ENDBRANCH   1   2
BRANCH   1  13
ATOM     13  C   UNL     1      -4.903 -14.360  64.162  1.00  0.00     0.000 C 
BRANCH  13  14
ATOM     14  C   UNL     1      -4.149 -14.452  65.500  1.00  0.00     0.000 C 
BRANCH  14  15
ATOM     15  C   UNL     1      -5.081 -14.740  66.688  1.00  0.00     0.000 C 
BRANCH  15  16
ATOM     16  C   UNL     1      -6.477 -14.116  66.513  1.00  0.00     0.000 C 
BRANCH  16  17
ATOM     17  C   UNL     1      -6.556 -12.687  67.074  1.00  0.00     0.000 C 
BRANCH  17  18
ATOM     18  C   UNL     1      -5.708 -12.501  68.342  1.00  0.00     0.000 C 
BRANCH  18  19
ATOM     19  C   UNL     1      -4.819 -11.254  68.229  1.00  0.00     0.000 C 
BRANCH  19  20
ATOM     20  C   UNL     1      -3.359 -11.584  67.869  1.00  0.00     0.006 C 
BRANCH  20  21
ATOM     21  C   UNL     1      -2.710 -12.636  68.786  1.00  0.00     0.053 C 
BRANCH  21  22
ATOM     22  C   UNL     1      -2.494 -12.132  70.181  1.00  0.00     0.041 C 
ATOM     23  O   UNL     1      -3.047 -12.704  71.157  1.00  0.00    -0.550 OA
ATOM     24  O   UNL     1      -1.657 -11.047  70.407  1.00  0.00    -0.550 OA
ENDBRANCH  21  22
ENDBRANCH  20  21
ENDBRANCH  19  20
ENDBRANCH  18  19
ENDBRANCH  17  18
ENDBRANCH  16  17
ENDBRANCH  15  16
ENDBRANCH  14  15
ENDBRANCH  13  14
ENDBRANCH   1  13
TORSDOF 20
ENDMDL
MODEL 4
REMARK VINA RESULT:    -3.189     12.527     16.324
REMARK INTER + INTRA:         -10.143
REMARK INTER:                  -7.458
REMARK INTRA:                  -2.685
REMARK UNBOUND:                -3.227
REMARK SMILES CCCCCCCCCCCCCCCCCCCCCC(=O)[O-]
REMARK SMILES IDX 12 1 11 2 10 3 9 4 8 5 7 6 6 7 5 8 4 9 3 10 2 11 1 12 13 13
REMARK SMILES IDX 14 14 15 15 16 16 17 17 18 18 19 19 20 20 21 21 22 22 23 23
REMARK SMILES IDX 24 24
REMARK H PARENT
REMARK Flexibility Score: inf
ROOT
ATOM      1  C   UNL     1       7.879  -7.318  70.746  1.00  0.00     0.000 C 
ENDROOT
BRANCH   1   2
ATOM      2  C   UNL     1       8.580  -6.901  72.055  1.00  0.00     0.000 C 
BRANCH   2   3
ATOM      3  C   UNL     1       9.223  -8.054  72.851  1.00  0.00     0.000 C 
BRANCH   3   4
ATOM      4  C   UNL     1       8.284  -8.764  73.843  1.00  0.00    -0.000 C 
BRANCH   4   5
ATOM      5  C   UNL     1       8.050 -10.240  73.489  1.00  0.00    -0.000 C 
BRANCH   5   6
ATOM      6  C   UNL     1       6.659 -10.444  72.872  1.00  0.00    -0.000 C 
BRANCH   6   7
ATOM      7  C   UNL     1       6.695 -10.515  71.336  1.00  0.00    -0.000 C 
BRANCH   7   8
ATOM      8  C   UNL     1       7.805 -11.440  70.812  1.00  0.00    -0.000 C 
BRANCH   8   9
ATOM      9  C   UNL     1       8.843 -10.649  70.003  1.00  0.00    -0.000 C 
BRANCH   9  10
ATOM     10  C   UNL     1      10.183 -11.390  69.862  1.00  0.00    -0.000 C 
BRANCH  10  11
ATOM     11  C   UNL     1      10.708 -11.981  71.186  1.00  0.00    -0.003 C 
ATOM     12  C   UNL     1      11.431 -10.941  72.044  1.00  0.00     0.004 C 
ENDBRANCH  10  11
ENDBRANCH   9  10
ENDBRANCH   8   9
ENDBRANCH   7   8
ENDBRANCH   6   7
ENDBRANCH   5   6
ENDBRANCH   4   5
ENDBRANCH   3   4
ENDBRANCH   2   3
ENDBRANCH   1   2
BRANCH   1  13
ATOM     13  C   UNL     1       6.404  -6.890  70.629  1.00  0.00     0.000 C 
BRANCH  13  14
ATOM     14  C   UNL     1       5.733  -6.690  71.999  1.00  0.00     0.000 C 
BRANCH  14  15
ATOM     15  C   UNL     1       4.912  -5.392  72.073  1.00  0.00     0.000 C 
BRANCH  15  16
ATOM     16  C   UNL     1       4.912  -4.612  70.746  1.00  0.00     0.000 C 
BRANCH  16  17
ATOM     17  C   UNL     1       4.173  -3.268  70.855  1.00  0.00     0.000 C 
BRANCH  17  18
ATOM     18  C   UNL     1       3.884  -2.638  69.484  1.00  0.00     0.000 C 
BRANCH  18  19
ATOM     19  C   UNL     1       4.286  -3.589  68.348  1.00  0.00     0.000 C 
BRANCH  19  20
ATOM     20  C   UNL     1       4.228  -2.929  66.958  1.00  0.00     0.006 C 
BRANCH  20  21
ATOM     21  C   UNL     1       3.048  -3.403  66.090  1.00  0.00     0.053 C 
BRANCH  21  22
ATOM     22  C   UNL     1       1.731  -2.862  66.558  1.00  0.00     0.041 C 
ATOM     23  O   UNL     1       0.757  -3.636  66.749  1.00  0.00    -0.550 OA
ATOM     24  O   UNL     1       1.589  -1.504  66.812  1.00  0.00    -0.550 OA
ENDBRANCH  21  22
ENDBRANCH  20  21
ENDBRANCH  19  20
ENDBRANCH  18  19
ENDBRANCH  17  18
ENDBRANCH  16  17
ENDBRANCH  15  16
ENDBRANCH  14  15
ENDBRANCH  13  14
ENDBRANCH   1  13
TORSDOF 20
ENDMDL
MODEL 5
REMARK VINA RESULT:    -3.179      6.548     10.677
REMARK INTER + INTRA:         -10.122
REMARK INTER:                  -7.380
REMARK INTRA:                  -2.742
REMARK UNBOUND:                -3.227
REMARK SMILES CCCCCCCCCCCCCCCCCCCCCC(=O)[O-]
REMARK SMILES IDX 12 1 11 2 10 3 9 4 8 5 7 6 6 7 5 8 4 9 3 10 2 11 1 12 13 13
REMARK SMILES IDX 14 14 15 15 16 16 17 17 18 18 19 19 20 20 21 21 22 22 23 23
REMARK SMILES IDX 24 24
REMARK H PARENT
REMARK Flexibility Score: inf
ROOT
ATOM      1  C   UNL     1      -3.798  -9.889  65.169  1.00  0.00     0.000 C 
ENDROOT
BRANCH   1   2
ATOM      2  C   UNL     1      -3.427  -8.531  64.542  1.00  0.00     0.000 C 
BRANCH   2   3
ATOM      3  C   UNL     1      -3.372  -7.346  65.527  1.00  0.00     0.000 C 
BRANCH   3   4
ATOM      4  C   UNL     1      -4.688  -6.558  65.671  1.00  0.00    -0.000 C 
BRANCH   4   5
ATOM      5  C   UNL     1      -5.546  -6.592  64.398  1.00  0.00    -0.000 C 
BRANCH   5   6
ATOM      6  C   UNL     1      -5.159  -5.451  63.445  1.00  0.00    -0.000 C 
BRANCH   6   7
ATOM      7  C   UNL     1      -4.415  -4.310  64.157  1.00  0.00    -0.000 C 
BRANCH   7   8
ATOM      8  C   UNL     1      -2.995  -4.094  63.609  1.00  0.00    -0.000 C 
BRANCH   8   9
ATOM      9  C   UNL     1      -3.015  -3.923  62.083  1.00  0.00    -0.000 C 
BRANCH   9  10
ATOM     10  C   UNL     1      -3.388  -2.497  61.646  1.00  0.00    -0.000 C 
BRANCH  10  11
ATOM     11  C   UNL     1      -4.667  -2.427  60.787  1.00  0.00    -0.003 C 
ATOM     12  C   UNL     1      -4.368  -2.481  59.287  1.00  0.00     0.004 C 
ENDBRANCH  10  11
ENDBRANCH   9  10
ENDBRANCH   8   9
ENDBRANCH   7   8
ENDBRANCH   6   7
ENDBRANCH   5   6
ENDBRANCH   4   5
ENDBRANCH   3   4
ENDBRANCH   2   3
ENDBRANCH   1   2
BRANCH   1  13
ATOM     13  C   UNL     1      -5.292 -10.258  65.093  1.00  0.00     0.000 C 
BRANCH  13  14
ATOM     14  C   UNL     1      -6.008 -10.126  66.448  1.00  0.00     0.000 C 
BRANCH  14  15
ATOM     15  C   UNL     1      -5.030  -9.967  67.623  1.00  0.00     0.000 C 
BRANCH  15  16
ATOM     16  C   UNL     1      -4.823 -11.277  68.405  1.00  0.00     0.000 C 
BRANCH  16  17
ATOM     17  C   UNL     1      -3.392 -11.823  68.268  1.00  0.00     0.000 C 
BRANCH  17  18
ATOM     18  C   UNL     1      -3.262 -12.869  67.150  1.00  0.00     0.000 C 
BRANCH  18  19
ATOM     19  C   UNL     1      -4.553 -13.689  67.013  1.00  0.00     0.000 C 
BRANCH  19  20
ATOM     20  C   UNL     1      -4.568 -14.588  65.763  1.00  0.00     0.006 C 
BRANCH  20  21
ATOM     21  C   UNL     1      -5.444 -14.050  64.617  1.00  0.00     0.053 C 
BRANCH  21  22
ATOM     22  C   UNL     1      -4.651 -13.736  63.383  1.00  0.00     0.041 C 
ATOM     23  O   UNL     1      -3.604 -13.041  63.460  1.00  0.00    -0.550 OA
ATOM     24  O   UNL     1      -5.054 -14.236  62.152  1.00  0.00    -0.550 OA
ENDBRANCH  21  22
ENDBRANCH  20  21
ENDBRANCH  19  20
ENDBRANCH  18  19
ENDBRANCH  17  18
ENDBRANCH  16  17
ENDBRANCH  15  16
ENDBRANCH  14  15
ENDBRANCH  13  14
ENDBRANCH   1  13
TORSDOF 20
ENDMDL
MODEL 6
REMARK VINA RESULT:    -3.173      7.457     10.940
REMARK INTER + INTRA:         -10.109
REMARK INTER:                  -6.726
REMARK INTRA:                  -3.383
REMARK UNBOUND:                -3.227
REMARK SMILES CCCCCCCCCCCCCCCCCCCCCC(=O)[O-]
REMARK SMILES IDX 12 1 11 2 10 3 9 4 8 5 7 6 6 7 5 8 4 9 3 10 2 11 1 12 13 13
REMARK SMILES IDX 14 14 15 15 16 16 17 17 18 18 19 19 20 20 21 21 22 22 23 23
REMARK SMILES IDX 24 24
REMARK H PARENT
REMARK Flexibility Score: inf
ROOT
ATOM      1  C   UNL     1      -5.183  -5.052  64.780  1.00  0.00     0.000 C 
ENDROOT
BRANCH   1   2
ATOM      2  C   UNL     1      -4.129  -5.492  63.743  1.00  0.00     0.000 C 
BRANCH   2   3
ATOM      3  C   UNL     1      -2.696  -5.650  64.290  1.00  0.00     0.000 C 
BRANCH   3   4
ATOM      4  C   UNL     1      -2.218  -4.506  65.203  1.00  0.00    -0.000 C 
BRANCH   4   5
ATOM      5  C   UNL     1      -1.480  -5.009  66.452  1.00  0.00    -0.000 C 
BRANCH   5   6
ATOM      6  C   UNL     1      -2.261  -6.142  67.133  1.00  0.00    -0.000 C 
BRANCH   6   7
ATOM      7  C   UNL     1      -3.406  -5.624  68.020  1.00  0.00    -0.000 C 
BRANCH   7   8
ATOM      8  C   UNL     1      -3.972  -6.708  68.950  1.00  0.00    -0.000 C 
BRANCH   8   9
ATOM      9  C   UNL     1      -2.943  -7.111  70.016  1.00  0.00    -0.000 C 
BRANCH   9  10
ATOM     10  C   UNL     1      -2.823  -8.634  70.188  1.00  0.00    -0.000 C 
BRANCH  10  11
ATOM     11  C   UNL     1      -3.311  -9.436  68.964  1.00  0.00    -0.003 C 
ATOM     12  C   UNL     1      -4.423 -10.424  69.317  1.00  0.00     0.004 C 
ENDBRANCH  10  11
ENDBRANCH   9  10
ENDBRANCH   8   9
ENDBRANCH   7   8
ENDBRANCH   6   7
ENDBRANCH   5   6
ENDBRANCH   4   5
ENDBRANCH   3   4
ENDBRANCH   2   3
ENDBRANCH   1   2
BRANCH   1  13
ATOM     13  C   UNL     1      -5.952  -6.202  65.457  1.00  0.00     0.000 C 
BRANCH  13  14
ATOM     14  C   UNL     1      -6.372  -7.302  64.466  1.00  0.00     0.000 C 
BRANCH  14  15
ATOM     15  C   UNL     1      -5.899  -8.700  64.896  1.00  0.00     0.000 C 
BRANCH  15  16
ATOM     16  C   UNL     1      -4.534  -8.674  65.606  1.00  0.00     0.000 C 
BRANCH  16  17
ATOM     17  C   UNL     1      -3.388  -9.139  64.692  1.00  0.00     0.000 C 
BRANCH  17  18
ATOM     18  C   UNL     1      -3.390 -10.659  64.467  1.00  0.00     0.000 C 
BRANCH  18  19
ATOM     19  C   UNL     1      -3.597 -11.410  65.791  1.00  0.00     0.000 C 
BRANCH  19  20
ATOM     20  C   UNL     1      -4.226 -12.802  65.604  1.00  0.00     0.006 C 
BRANCH  20  21
ATOM     21  C   UNL     1      -5.340 -12.848  64.543  1.00  0.00     0.053 C 
BRANCH  21  22
ATOM     22  C   UNL     1      -5.056 -13.832  63.448  1.00  0.00     0.041 C 
ATOM     23  O   UNL     1      -5.528 -13.654  62.294  1.00  0.00    -0.550 OA
ATOM     24  O   UNL     1      -4.245 -14.932  63.696  1.00  0.00    -0.550 OA
ENDBRANCH  21  22
ENDBRANCH  20  21
ENDBRANCH  19  20
ENDBRANCH  18  19
ENDBRANCH  17  18
ENDBRANCH  16  17
ENDBRANCH  15  16
ENDBRANCH  14  15
ENDBRANCH  13  14
ENDBRANCH   1  13
TORSDOF 20
ENDMDL
MODEL 7
REMARK VINA RESULT:    -3.140      1.663      2.610
REMARK INTER + INTRA:         -10.038
REMARK INTER:                  -6.594
REMARK INTRA:                  -3.443
REMARK UNBOUND:                -3.227
REMARK SMILES CCCCCCCCCCCCCCCCCCCCCC(=O)[O-]
REMARK SMILES IDX 12 1 11 2 10 3 9 4 8 5 7 6 6 7 5 8 4 9 3 10 2 11 1 12 13 13
REMARK SMILES IDX 14 14 15 15 16 16 17 17 18 18 19 19 20 20 21 21 22 22 23 23
REMARK SMILES IDX 24 24
REMARK H PARENT
REMARK Flexibility Score: inf
ROOT
ATOM      1  C   UNL     1      -0.716   1.575  59.649  1.00  0.00     0.000 C 
ENDROOT
BRANCH   1   2
ATOM      2  C   UNL     1       0.385   2.189  58.761  1.00  0.00     0.000 C 
BRANCH   2   3
ATOM      3  C   UNL     1       0.784   1.345  57.533  1.00  0.00     0.000 C 
BRANCH   3   4
ATOM      4  C   UNL     1       1.379  -0.038  57.859  1.00  0.00    -0.000 C 
BRANCH   4   5
ATOM      5  C   UNL     1       0.591  -1.191  57.221  1.00  0.00    -0.000 C 
BRANCH   5   6
ATOM      6  C   UNL     1      -0.052  -2.079  58.297  1.00  0.00    -0.000 C 
BRANCH   6   7
ATOM      7  C   UNL     1      -1.534  -1.745  58.533  1.00  0.00    -0.000 C 
BRANCH   7   8
ATOM      8  C   UNL     1      -2.395  -1.941  57.275  1.00  0.00    -0.000 C 
BRANCH   8   9
ATOM      9  C   UNL     1      -3.561  -0.944  57.245  1.00  0.00    -0.000 C 
BRANCH   9  10
ATOM     10  C   UNL     1      -3.622  -0.133  55.940  1.00  0.00    -0.000 C 
BRANCH  10  11
ATOM     11  C   UNL     1      -2.514   0.933  55.820  1.00  0.00    -0.003 C 
ATOM     12  C   UNL     1      -1.484   0.589  54.742  1.00  0.00     0.004 C 
ENDBRANCH  10  11
ENDBRANCH   9  10
ENDBRANCH   8   9
ENDBRANCH   7   8
ENDBRANCH   6   7
ENDBRANCH   5   6
ENDBRANCH   4   5
ENDBRANCH   3   4
ENDBRANCH   2   3
ENDBRANCH   1   2
BRANCH   1  13
ATOM     13  C   UNL     1      -2.152   2.012  59.305  1.00  0.00     0.000 C 
BRANCH  13  14
ATOM     14  C   UNL     1      -3.218   1.215  60.076  1.00  0.00     0.000 C 
BRANCH  14  15
ATOM     15  C   UNL     1      -2.765   0.839  61.496  1.00  0.00     0.000 C 
BRANCH  15  16
ATOM     16  C   UNL     1      -3.333  -0.513  61.963  1.00  0.00     0.000 C 
BRANCH  16  17
ATOM     17  C   UNL     1      -4.213  -1.181  60.894  1.00  0.00     0.000 C 
BRANCH  17  18
ATOM     18  C   UNL     1      -4.167  -2.715  60.962  1.00  0.00     0.000 C 
BRANCH  18  19
ATOM     19  C   UNL     1      -3.010  -3.190  61.852  1.00  0.00     0.000 C 
BRANCH  19  20
ATOM     20  C   UNL     1      -3.482  -3.962  63.097  1.00  0.00     0.006 C 
BRANCH  20  21
ATOM     21  C   UNL     1      -2.604  -5.175  63.452  1.00  0.00     0.053 C 
BRANCH  21  22
ATOM     22  C   UNL     1      -3.285  -6.128  64.387  1.00  0.00     0.041 C 
ATOM     23  O   UNL     1      -4.497  -6.428  64.219  1.00  0.00    -0.550 OA
ATOM     24  O   UNL     1      -2.573  -6.708  65.429  1.00  0.00    -0.550 OA
ENDBRANCH  21  22
ENDBRANCH  20  21
ENDBRANCH  19  20
ENDBRANCH  18  19
ENDBRANCH  17  18
ENDBRANCH  16  17
ENDBRANCH  15  16
ENDBRANCH  14  15
ENDBRANCH  13  14
ENDBRANCH   1  13
TORSDOF 20
ENDMDL
MODEL 8
REMARK VINA RESULT:    -3.128      8.620     14.087
REMARK INTER + INTRA:         -10.011
REMARK INTER:                  -5.981
REMARK INTRA:                  -4.030
REMARK UNBOUND:                -3.227
REMARK SMILES CCCCCCCCCCCCCCCCCCCCCC(=O)[O-]
REMARK SMILES IDX 12 1 11 2 10 3 9 4 8 5 7 6 6 7 5 8 4 9 3 10 2 11 1 12 13 13
REMARK SMILES IDX 14 14 15 15 16 16 17 17 18 18 19 19 20 20 21 21 22 22 23 23
REMARK SMILES IDX 24 24
REMARK H PARENT
REMARK Flexibility Score: inf
ROOT
ATOM      1  C   UNL     1      -4.889 -14.882  66.297  1.00  0.00     0.000 C 
ENDROOT
BRANCH   1   2
ATOM      2  C   UNL     1      -6.385 -14.535  66.440  1.00  0.00     0.000 C 
BRANCH   2   3
ATOM      3  C   UNL     1      -6.719 -13.516  67.548  1.00  0.00     0.000 C 
BRANCH   3   4
ATOM      4  C   UNL     1      -6.214 -12.084  67.289  1.00  0.00    -0.000 C 
BRANCH   4   5
ATOM      5  C   UNL     1      -5.457 -11.494  68.488  1.00  0.00    -0.000 C 
BRANCH   5   6
ATOM      6  C   UNL     1      -3.991 -11.212  68.127  1.00  0.00    -0.000 C 
BRANCH   6   7
ATOM      7  C   UNL     1      -3.112 -12.472  68.191  1.00  0.00    -0.000 C 
BRANCH   7   8
ATOM      8  C   UNL     1      -2.265 -12.540  69.472  1.00  0.00    -0.000 C 
BRANCH   8   9
ATOM      9  C   UNL     1      -2.717 -13.701  70.369  1.00  0.00    -0.000 C 
BRANCH   9  10
ATOM     10  C   UNL     1      -3.790 -14.584  69.710  1.00  0.00    -0.000 C 
BRANCH  10  11
ATOM     11  C   UNL     1      -5.091 -14.695  70.531  1.00  0.00    -0.003 C 
ATOM     12  C   UNL     1      -4.947 -14.110  71.937  1.00  0.00     0.004 C 
ENDBRANCH  10  11
ENDBRANCH   9  10
ENDBRANCH   8   9
ENDBRANCH   7   8
ENDBRANCH   6   7
ENDBRANCH   5   6
ENDBRANCH   4   5
ENDBRANCH   3   4
ENDBRANCH   2   3
ENDBRANCH   1   2
BRANCH   1  13
ATOM     13  C   UNL     1      -4.249 -14.472  64.958  1.00  0.00     0.000 C 
BRANCH  13  14
ATOM     14  C   UNL     1      -5.277 -13.936  63.946  1.00  0.00     0.000 C 
BRANCH  14  15
ATOM     15  C   UNL     1      -5.120 -12.430  63.682  1.00  0.00     0.000 C 
BRANCH  15  16
ATOM     16  C   UNL     1      -3.916 -11.819  64.421  1.00  0.00     0.000 C 
BRANCH  16  17
ATOM     17  C   UNL     1      -4.012 -10.289  64.535  1.00  0.00     0.000 C 
BRANCH  17  18
ATOM     18  C   UNL     1      -5.461  -9.794  64.662  1.00  0.00     0.000 C 
BRANCH  18  19
ATOM     19  C   UNL     1      -5.557  -8.629  65.658  1.00  0.00     0.000 C 
BRANCH  19  20
ATOM     20  C   UNL     1      -4.182  -8.106  66.111  1.00  0.00     0.006 C 
BRANCH  20  21
ATOM     21  C   UNL     1      -3.918  -6.636  65.739  1.00  0.00     0.053 C 
BRANCH  21  22
ATOM     22  C   UNL     1      -3.760  -6.433  64.262  1.00  0.00     0.041 C 
ATOM     23  O   UNL     1      -2.767  -6.916  63.656  1.00  0.00    -0.550 OA
ATOM     24  O   UNL     1      -4.725  -5.734  63.549  1.00  0.00    -0.550 OA
ENDBRANCH  21  22
ENDBRANCH  20  21
ENDBRANCH  19  20
ENDBRANCH  18  19
ENDBRANCH  17  18
ENDBRANCH  16  17
ENDBRANCH  15  16
ENDBRANCH  14  15
ENDBRANCH  13  14
ENDBRANCH   1  13
TORSDOF 20
ENDMDL
MODEL 9
REMARK VINA RESULT:    -3.119      6.755     12.316
REMARK INTER + INTRA:          -9.993
REMARK INTER:                  -6.524
REMARK INTRA:                  -3.469
REMARK UNBOUND:                -3.227
REMARK SMILES CCCCCCCCCCCCCCCCCCCCCC(=O)[O-]
REMARK SMILES IDX 12 1 11 2 10 3 9 4 8 5 7 6 6 7 5 8 4 9 3 10 2 11 1 12 13 13
REMARK SMILES IDX 14 14 15 15 16 16 17 17 18 18 19 19 20 20 21 21 22 22 23 23
REMARK SMILES IDX 24 24
REMARK H PARENT
REMARK Flexibility Score: inf
ROOT
ATOM      1  C   UNL     1      -4.606 -12.038  63.998  1.00  0.00     0.000 C 
ENDROOT
BRANCH   1   2
ATOM      2  C   UNL     1      -4.170 -13.511  63.866  1.00  0.00     0.000 C 
BRANCH   2   3
ATOM      3  C   UNL     1      -4.675 -14.446  64.983  1.00  0.00     0.000 C 
BRANCH   3   4
ATOM      4  C   UNL     1      -6.050 -14.077  65.570  1.00  0.00    -0.000 C 
BRANCH   4   5
ATOM      5  C   UNL     1      -5.978 -13.676  67.051  1.00  0.00    -0.000 C 
BRANCH   5   6
ATOM      6  C   UNL     1      -6.444 -12.227  67.252  1.00  0.00    -0.000 C 
BRANCH   6   7
ATOM      7  C   UNL     1      -5.394 -11.358  67.962  1.00  0.00    -0.000 C 
BRANCH   7   8
ATOM      8  C   UNL     1      -3.977 -11.945  67.868  1.00  0.00    -0.000 C 
BRANCH   8   9
ATOM      9  C   UNL     1      -2.952 -11.021  68.541  1.00  0.00    -0.000 C 
BRANCH   9  10
ATOM     10  C   UNL     1      -3.606  -9.955  69.437  1.00  0.00    -0.000 C 
BRANCH  10  11
ATOM     11  C   UNL     1      -2.913  -8.579  69.368  1.00  0.00    -0.003 C 
ATOM     12  C   UNL     1      -1.567  -8.564  70.094  1.00  0.00     0.004 C 
ENDBRANCH  10  11
ENDBRANCH   9  10
ENDBRANCH   8   9
ENDBRANCH   7   8
ENDBRANCH   6   7
ENDBRANCH   5   6
ENDBRANCH   4   5
ENDBRANCH   3   4
ENDBRANCH   2   3
ENDBRANCH   1   2
BRANCH   1  13
ATOM     13  C   UNL     1      -3.490 -11.061  64.413  1.00  0.00     0.000 C 
BRANCH  13  14
ATOM     14  C   UNL     1      -4.032  -9.692  64.861  1.00  0.00     0.000 C 
BRANCH  14  15
ATOM     15  C   UNL     1      -5.564  -9.601  64.764  1.00  0.00     0.000 C 
BRANCH  15  16
ATOM     16  C   UNL     1      -6.125  -8.324  65.414  1.00  0.00     0.000 C 
BRANCH  16  17
ATOM     17  C   UNL     1      -5.273  -7.847  66.602  1.00  0.00     0.000 C 
BRANCH  17  18
ATOM     18  C   UNL     1      -4.747  -6.415  66.415  1.00  0.00     0.000 C 
BRANCH  18  19
ATOM     19  C   UNL     1      -3.213  -6.383  66.466  1.00  0.00     0.000 C 
BRANCH  19  20
ATOM     20  C   UNL     1      -2.561  -6.447  65.073  1.00  0.00     0.006 C 
BRANCH  20  21
ATOM     21  C   UNL     1      -2.292  -5.068  64.444  1.00  0.00     0.053 C 
BRANCH  21  22
ATOM     22  C   UNL     1      -3.164  -4.795  63.256  1.00  0.00     0.041 C 
ATOM     23  O   UNL     1      -4.170  -5.518  63.025  1.00  0.00    -0.550 OA
ATOM     24  O   UNL     1      -2.883  -3.724  62.418  1.00  0.00    -0.550 OA
ENDBRANCH  21  22
ENDBRANCH  20  21
ENDBRANCH  19  20
ENDBRANCH  18  19
ENDBRANCH  17  18
ENDBRANCH  16  17
ENDBRANCH  15  16
ENDBRANCH  14  15
ENDBRANCH  13  14
ENDBRANCH   1  13
TORSDOF 20
ENDMDL
