MODEL 1
REMARK VINA RESULT:    -4.902      0.000      0.000
REMARK INTER + INTRA:         -17.531
REMARK INTER:                 -12.925
REMARK INTRA:                  -4.606
REMARK UNBOUND:                -4.606
REMARK SMILES CCCCCCCCCCCCCCCCCCCCCCCCCCCCCC(=O)[O-]
REMARK SMILES IDX 16 1 17 2 18 3 19 4 20 5 21 6 22 7 23 8 24 9 25 10 26 11
REMARK SMILES IDX 27 12 28 13 29 14 30 15 31 16 32 17 15 18 14 19 13 20 12 21
REMARK SMILES IDX 11 22 10 23 9 24 8 25 7 26 6 27 5 28 4 29 3 30 2 31 1 32
REMARK H PARENT
REMARK Flexibility Score: inf
ROOT
ATOM      1  C   UNL     1      58.203  -4.314  20.444  1.00  0.00     0.000 C 
ENDROOT
BRANCH   1   2
ATOM      2  C   UNL     1      57.779  -3.101  21.293  1.00  0.00     0.000 C 
BRANCH   2   3
ATOM      3  C   UNL     1      56.419  -2.484  20.921  1.00  0.00     0.000 C 
BRANCH   3   4
ATOM      4  C   UNL     1      56.103  -1.202  21.705  1.00  0.00     0.000 C 
BRANCH   4   5
ATOM      5  C   UNL     1      57.281  -0.801  22.602  1.00  0.00     0.000 C 
BRANCH   5   6
ATOM      6  C   UNL     1      57.898   0.525  22.134  1.00  0.00     0.000 C 
BRANCH   6   7
ATOM      7  C   UNL     1      59.113   0.317  21.215  1.00  0.00     0.000 C 
BRANCH   7   8
ATOM      8  C   UNL     1      58.814   0.684  19.751  1.00  0.00     0.000 C 
BRANCH   8   9
ATOM      9  C   UNL     1      58.725  -0.554  18.843  1.00  0.00     0.000 C 
BRANCH   9  10
ATOM     10  C   UNL     1      57.482  -0.533  17.938  1.00  0.00     0.000 C 
BRANCH  10  11
ATOM     11  C   UNL     1      57.667  -1.401  16.673  1.00  0.00     0.000 C 
BRANCH  11  12
ATOM     12  C   UNL     1      57.447  -0.626  15.359  1.00  0.00     0.000 C 
BRANCH  12  13
ATOM     13  C   UNL     1      56.049  -0.816  14.730  1.00  0.00     0.006 C 
BRANCH  13  14
ATOM     14  C   UNL     1      55.496  -2.247  14.863  1.00  0.00     0.053 C 
BRANCH  14  15
ATOM     15  C   UNL     1      55.904  -3.131  13.725  1.00  0.00     0.041 C 
ATOM     16  O   UNL     1      56.988  -3.771  13.775  1.00  0.00    -0.550 OA
ATOM     17  O   UNL     1      55.084  -3.251  12.609  1.00  0.00    -0.550 OA
ENDBRANCH  14  15
ENDBRANCH  13  14
ENDBRANCH  12  13
ENDBRANCH  11  12
ENDBRANCH  10  11
ENDBRANCH   9  10
ENDBRANCH   8   9
ENDBRANCH   7   8
ENDBRANCH   6   7
ENDBRANCH   5   6
ENDBRANCH   4   5
ENDBRANCH   3   4
ENDBRANCH   2   3
ENDBRANCH   1   2
BRANCH   1  18
ATOM     18  C   UNL     1      59.573  -4.128  19.770  1.00  0.00     0.000 C 
BRANCH  18  19
ATOM     19  C   UNL     1      60.606  -3.486  20.711  1.00  0.00     0.000 C 
BRANCH  19  20
ATOM     20  C   UNL     1      61.758  -4.440  21.061  1.00  0.00     0.000 C 
BRANCH  20  21
ATOM     21  C   UNL     1      63.094  -3.911  20.518  1.00  0.00     0.000 C 
BRANCH  21  22
ATOM     22  C   UNL     1      64.183  -3.809  21.602  1.00  0.00     0.000 C 
BRANCH  22  23
ATOM     23  C   UNL     1      63.861  -4.547  22.914  1.00  0.00     0.000 C 
BRANCH  23  24
ATOM     24  C   UNL     1      64.320  -6.016  22.903  1.00  0.00    -0.000 C 
BRANCH  24  25
ATOM     25  C   UNL     1      63.933  -6.762  24.197  1.00  0.00    -0.000 C 
BRANCH  25  26
ATOM     26  C   UNL     1      63.310  -5.860  25.281  1.00  0.00    -0.000 C 
BRANCH  26  27
ATOM     27  C   UNL     1      61.772  -5.942  25.363  1.00  0.00    -0.000 C 
BRANCH  27  28
ATOM     28  C   UNL     1      61.123  -4.569  25.601  1.00  0.00    -0.000 C 
BRANCH  28  29
ATOM     29  C   UNL     1      60.430  -4.061  24.328  1.00  0.00    -0.000 C 
BRANCH  29  30
ATOM     30  C   UNL     1      60.188  -2.544  24.355  1.00  0.00    -0.000 C 
BRANCH  30  31
ATOM     31  C   UNL     1      61.322  -1.754  23.684  1.00  0.00    -0.003 C 
ATOM     32  C   UNL     1      61.339  -0.306  24.161  1.00  0.00     0.004 C 
ENDBRANCH  30  31
ENDBRANCH  29  30
ENDBRANCH  28  29
ENDBRANCH  27  28
ENDBRANCH  26  27
ENDBRANCH  25  26
ENDBRANCH  24  25
ENDBRANCH  23  24
ENDBRANCH  22  23
ENDBRANCH  21  22
ENDBRANCH  20  21
ENDBRANCH  19  20
ENDBRANCH  18  19
ENDBRANCH   1  18
TORSDOF 28
ENDMDL
MODEL 2
REMARK VINA RESULT:    -4.775      1.127      2.747
REMARK INTER + INTRA:         -17.196
REMARK INTER:                 -12.935
REMARK INTRA:                  -4.260
REMARK UNBOUND:                -4.606
REMARK SMILES CCCCCCCCCCCCCCCCCCCCCCCCCCCCCC(=O)[O-]
REMARK SMILES IDX 16 1 17 2 18 3 19 4 20 5 21 6 22 7 23 8 24 9 25 10 26 11
REMARK SMILES IDX 27 12 28 13 29 14 30 15 31 16 32 17 15 18 14 19 13 20 12 21
REMARK SMILES IDX 11 22 10 23 9 24 8 25 7 26 6 27 5 28 4 29 3 30 2 31 1 32
REMARK H PARENT
REMARK Flexibility Score: inf
ROOT
ATOM      1  C   UNL     1      61.686  -4.344  21.285  1.00  0.00     0.000 C 
ENDROOT
BRANCH   1   2
ATOM      2  C   UNL     1      60.508  -3.471  20.814  1.00  0.00     0.000 C 
BRANCH   2   3
ATOM      3  C   UNL     1      59.443  -4.204  19.978  1.00  0.00     0.000 C 
BRANCH   3   4
ATOM      4  C   UNL     1      58.067  -4.253  20.661  1.00  0.00     0.000 C 
BRANCH   4   5
ATOM      5  C   UNL     1      57.708  -2.893  21.272  1.00  0.00     0.000 C 
BRANCH   5   6
ATOM      6  C   UNL     1      56.223  -2.569  21.054  1.00  0.00     0.000 C 
BRANCH   6   7
ATOM      7  C   UNL     1      55.946  -1.057  21.040  1.00  0.00     0.000 C 
BRANCH   7   8
ATOM      8  C   UNL     1      57.237  -0.222  20.997  1.00  0.00     0.000 C 
BRANCH   8   9
ATOM      9  C   UNL     1      57.212   0.840  19.886  1.00  0.00     0.000 C 
BRANCH   9  10
ATOM     10  C   UNL     1      58.359   0.665  18.876  1.00  0.00     0.000 C 
BRANCH  10  11
ATOM     11  C   UNL     1      58.842  -0.800  18.791  1.00  0.00     0.000 C 
BRANCH  11  12
ATOM     12  C   UNL     1      58.178  -1.600  17.652  1.00  0.00     0.000 C 
BRANCH  12  13
ATOM     13  C   UNL     1      57.428  -0.736  16.615  1.00  0.00     0.006 C 
BRANCH  13  14
ATOM     14  C   UNL     1      57.415  -1.337  15.198  1.00  0.00     0.053 C 
BRANCH  14  15
ATOM     15  C   UNL     1      56.061  -1.832  14.793  1.00  0.00     0.041 C 
ATOM     16  O   UNL     1      55.923  -2.996  14.330  1.00  0.00    -0.550 OA
ATOM     17  O   UNL     1      54.949  -1.009  14.930  1.00  0.00    -0.550 OA
ENDBRANCH  14  15
ENDBRANCH  13  14
ENDBRANCH  12  13
ENDBRANCH  11  12
ENDBRANCH  10  11
ENDBRANCH   9  10
ENDBRANCH   8   9
ENDBRANCH   7   8
ENDBRANCH   6   7
ENDBRANCH   5   6
ENDBRANCH   4   5
ENDBRANCH   3   4
ENDBRANCH   2   3
ENDBRANCH   1   2
BRANCH   1  18
ATOM     18  C   UNL     1      63.022  -3.955  20.630  1.00  0.00     0.000 C 
BRANCH  18  19
ATOM     19  C   UNL     1      64.208  -4.081  21.599  1.00  0.00     0.000 C 
BRANCH  19  20
ATOM     20  C   UNL     1      63.894  -4.980  22.804  1.00  0.00     0.000 C 
BRANCH  20  21
ATOM     21  C   UNL     1      64.302  -6.434  22.527  1.00  0.00     0.000 C 
BRANCH  21  22
ATOM     22  C   UNL     1      64.711  -7.196  23.800  1.00  0.00     0.000 C 
BRANCH  22  23
ATOM     23  C   UNL     1      63.860  -6.880  25.044  1.00  0.00     0.000 C 
BRANCH  23  24
ATOM     24  C   UNL     1      62.899  -8.022  25.416  1.00  0.00    -0.000 C 
BRANCH  24  25
ATOM     25  C   UNL     1      61.544  -7.502  25.939  1.00  0.00    -0.000 C 
BRANCH  25  26
ATOM     26  C   UNL     1      61.385  -5.970  25.863  1.00  0.00    -0.000 C 
BRANCH  26  27
ATOM     27  C   UNL     1      60.609  -5.476  24.625  1.00  0.00    -0.000 C 
BRANCH  27  28
ATOM     28  C   UNL     1      60.267  -3.980  24.705  1.00  0.00    -0.000 C 
BRANCH  28  29
ATOM     29  C   UNL     1      61.539  -3.135  24.875  1.00  0.00    -0.000 C 
BRANCH  29  30
ATOM     30  C   UNL     1      61.240  -1.630  24.958  1.00  0.00    -0.000 C 
BRANCH  30  31
ATOM     31  C   UNL     1      61.368  -0.928  23.598  1.00  0.00    -0.003 C 
ATOM     32  C   UNL     1      60.214   0.042  23.369  1.00  0.00     0.004 C 
ENDBRANCH  30  31
ENDBRANCH  29  30
ENDBRANCH  28  29
ENDBRANCH  27  28
ENDBRANCH  26  27
ENDBRANCH  25  26
ENDBRANCH  24  25
ENDBRANCH  23  24
ENDBRANCH  22  23
ENDBRANCH  21  22
ENDBRANCH  20  21
ENDBRANCH  19  20
ENDBRANCH  18  19
ENDBRANCH   1  18
TORSDOF 28
ENDMDL
MODEL 3
REMARK VINA RESULT:    -4.706      2.247      5.409
REMARK INTER + INTRA:         -17.014
REMARK INTER:                 -13.273
REMARK INTRA:                  -3.741
REMARK UNBOUND:                -4.606
REMARK SMILES CCCCCCCCCCCCCCCCCCCCCCCCCCCCCC(=O)[O-]
REMARK SMILES IDX 16 1 17 2 18 3 19 4 20 5 21 6 22 7 23 8 24 9 25 10 26 11
REMARK SMILES IDX 27 12 28 13 29 14 30 15 31 16 32 17 15 18 14 19 13 20 12 21
REMARK SMILES IDX 11 22 10 23 9 24 8 25 7 26 6 27 5 28 4 29 3 30 2 31 1 32
REMARK H PARENT
REMARK Flexibility Score: inf
ROOT
ATOM      1  C   UNL     1      58.756  -3.117  19.775  1.00  0.00     0.000 C 
ENDROOT
BRANCH   1   2
ATOM      2  C   UNL     1      58.792  -1.683  19.216  1.00  0.00     0.000 C 
BRANCH   2   3
ATOM      3  C   UNL     1      58.137  -1.501  17.835  1.00  0.00     0.000 C 
BRANCH   3   4
ATOM      4  C   UNL     1      57.205  -0.281  17.764  1.00  0.00     0.000 C 
BRANCH   4   5
ATOM      5  C   UNL     1      55.757  -0.676  18.083  1.00  0.00     0.000 C 
BRANCH   5   6
ATOM      6  C   UNL     1      54.955  -0.900  16.793  1.00  0.00     0.000 C 
BRANCH   6   7
ATOM      7  C   UNL     1      55.583  -0.197  15.579  1.00  0.00     0.000 C 
BRANCH   7   8
ATOM      8  C   UNL     1      55.345  -0.964  14.266  1.00  0.00     0.000 C 
BRANCH   8   9
ATOM      9  C   UNL     1      55.985  -2.361  14.278  1.00  0.00     0.000 C 
BRANCH   9  10
ATOM     10  C   UNL     1      55.021  -3.456  13.792  1.00  0.00     0.000 C 
BRANCH  10  11
ATOM     11  C   UNL     1      53.814  -2.871  13.025  1.00  0.00     0.000 C 
BRANCH  11  12
ATOM     12  C   UNL     1      52.671  -3.885  12.814  1.00  0.00     0.000 C 
BRANCH  12  13
ATOM     13  C   UNL     1      52.597  -4.480  11.391  1.00  0.00     0.006 C 
BRANCH  13  14
ATOM     14  C   UNL     1      53.307  -3.628  10.323  1.00  0.00     0.053 C 
BRANCH  14  15
ATOM     15  C   UNL     1      53.300  -4.273   8.972  1.00  0.00     0.041 C 
ATOM     16  O   UNL     1      54.379  -4.447   8.345  1.00  0.00    -0.550 OA
ATOM     17  O   UNL     1      52.100  -4.686   8.404  1.00  0.00    -0.550 OA
ENDBRANCH  14  15
ENDBRANCH  13  14
ENDBRANCH  12  13
ENDBRANCH  11  12
ENDBRANCH  10  11
ENDBRANCH   9  10
ENDBRANCH   8   9
ENDBRANCH   7   8
ENDBRANCH   6   7
ENDBRANCH   5   6
ENDBRANCH   4   5
ENDBRANCH   3   4
ENDBRANCH   2   3
ENDBRANCH   1   2
BRANCH   1  18
ATOM     18  C   UNL     1      57.928  -3.239  21.065  1.00  0.00     0.000 C 
BRANCH  18  19
ATOM     19  C   UNL     1      56.487  -2.733  20.887  1.00  0.00     0.000 C 
BRANCH  19  20
ATOM     20  C   UNL     1      56.188  -1.491  21.740  1.00  0.00     0.000 C 
BRANCH  20  21
ATOM     21  C   UNL     1      57.372  -1.159  22.661  1.00  0.00     0.000 C 
BRANCH  21  22
ATOM     22  C   UNL     1      58.005   0.210  22.353  1.00  0.00     0.000 C 
BRANCH  22  23
ATOM     23  C   UNL     1      59.545   0.222  22.344  1.00  0.00     0.000 C 
BRANCH  23  24
ATOM     24  C   UNL     1      60.150   0.408  23.747  1.00  0.00    -0.000 C 
BRANCH  24  25
ATOM     25  C   UNL     1      61.129  -0.724  24.119  1.00  0.00    -0.000 C 
BRANCH  25  26
ATOM     26  C   UNL     1      61.133  -1.905  23.127  1.00  0.00    -0.000 C 
BRANCH  26  27
ATOM     27  C   UNL     1      60.507  -3.199  23.683  1.00  0.00    -0.000 C 
BRANCH  27  28
ATOM     28  C   UNL     1      60.918  -4.443  22.880  1.00  0.00    -0.000 C 
BRANCH  28  29
ATOM     29  C   UNL     1      61.936  -4.079  21.787  1.00  0.00    -0.000 C 
BRANCH  29  30
ATOM     30  C   UNL     1      63.191  -4.964  21.833  1.00  0.00    -0.000 C 
BRANCH  30  31
ATOM     31  C   UNL     1      63.593  -5.342  23.266  1.00  0.00    -0.003 C 
ATOM     32  C   UNL     1      64.468  -6.592  23.279  1.00  0.00     0.004 C 
ENDBRANCH  30  31
ENDBRANCH  29  30
ENDBRANCH  28  29
ENDBRANCH  27  28
ENDBRANCH  26  27
ENDBRANCH  25  26
ENDBRANCH  24  25
ENDBRANCH  23  24
ENDBRANCH  22  23
ENDBRANCH  21  22
ENDBRANCH  20  21
ENDBRANCH  19  20
ENDBRANCH  18  19
ENDBRANCH   1  18
TORSDOF 28
ENDMDL
MODEL 4
REMARK VINA RESULT:    -4.667      4.044     11.388
REMARK INTER + INTRA:         -16.912
REMARK INTER:                 -13.159
REMARK INTRA:                  -3.753
REMARK UNBOUND:                -4.606
REMARK SMILES CCCCCCCCCCCCCCCCCCCCCCCCCCCCCC(=O)[O-]
REMARK SMILES IDX 16 1 17 2 18 3 19 4 20 5 21 6 22 7 23 8 24 9 25 10 26 11
REMARK SMILES IDX 27 12 28 13 29 14 30 15 31 16 32 17 15 18 14 19 13 20 12 21
REMARK SMILES IDX 11 22 10 23 9 24 8 25 7 26 6 27 5 28 4 29 3 30 2 31 1 32
REMARK H PARENT
REMARK Flexibility Score: inf
ROOT
ATOM      1  C   UNL     1      56.861  -2.360  14.506  1.00  0.00     0.000 C 
ENDROOT
BRANCH   1   2
ATOM      2  C   UNL     1      56.021  -1.089  14.734  1.00  0.00     0.000 C 
BRANCH   2   3
ATOM      3  C   UNL     1      56.831   0.197  14.980  1.00  0.00     0.000 C 
BRANCH   3   4
ATOM      4  C   UNL     1      56.181   1.131  16.013  1.00  0.00     0.000 C 
BRANCH   4   5
ATOM      5  C   UNL     1      54.950   0.474  16.651  1.00  0.00     0.000 C 
BRANCH   5   6
ATOM      6  C   UNL     1      55.162   0.263  18.157  1.00  0.00     0.000 C 
BRANCH   6   7
ATOM      7  C   UNL     1      55.938  -1.028  18.467  1.00  0.00     0.000 C 
BRANCH   7   8
ATOM      8  C   UNL     1      57.410  -0.760  18.824  1.00  0.00     0.000 C 
BRANCH   8   9
ATOM      9  C   UNL     1      58.152  -2.037  19.250  1.00  0.00     0.000 C 
BRANCH   9  10
ATOM     10  C   UNL     1      57.534  -2.691  20.497  1.00  0.00     0.000 C 
BRANCH  10  11
ATOM     11  C   UNL     1      58.189  -4.051  20.828  1.00  0.00     0.000 C 
BRANCH  11  12
ATOM     12  C   UNL     1      59.562  -4.251  20.155  1.00  0.00     0.000 C 
BRANCH  12  13
ATOM     13  C   UNL     1      60.746  -3.609  20.910  1.00  0.00     0.006 C 
BRANCH  13  14
ATOM     14  C   UNL     1      62.110  -4.242  20.581  1.00  0.00     0.053 C 
BRANCH  14  15
ATOM     15  C   UNL     1      63.028  -4.281  21.763  1.00  0.00     0.041 C 
ATOM     16  O   UNL     1      62.751  -5.001  22.759  1.00  0.00    -0.550 OA
ATOM     17  O   UNL     1      64.194  -3.524  21.765  1.00  0.00    -0.550 OA
ENDBRANCH  14  15
ENDBRANCH  13  14
ENDBRANCH  12  13
ENDBRANCH  11  12
ENDBRANCH  10  11
ENDBRANCH   9  10
ENDBRANCH   8   9
ENDBRANCH   7   8
ENDBRANCH   6   7
ENDBRANCH   5   6
ENDBRANCH   4   5
ENDBRANCH   3   4
ENDBRANCH   2   3
ENDBRANCH   1   2
BRANCH   1  18
ATOM     18  C   UNL     1      56.033  -3.542  13.976  1.00  0.00     0.000 C 
BRANCH  18  19
ATOM     19  C   UNL     1      54.992  -3.107  12.932  1.00  0.00     0.000 C 
BRANCH  19  20
ATOM     20  C   UNL     1      53.574  -3.587  13.276  1.00  0.00     0.000 C 
BRANCH  20  21
ATOM     21  C   UNL     1      52.846  -4.094  12.021  1.00  0.00     0.000 C 
BRANCH  21  22
ATOM     22  C   UNL     1      53.170  -3.265  10.765  1.00  0.00     0.000 C 
BRANCH  22  23
ATOM     23  C   UNL     1      52.046  -2.317  10.309  1.00  0.00     0.000 C 
BRANCH  23  24
ATOM     24  C   UNL     1      52.391  -0.833  10.527  1.00  0.00    -0.000 C 
BRANCH  24  25
ATOM     25  C   UNL     1      52.081  -0.362  11.963  1.00  0.00    -0.000 C 
BRANCH  25  26
ATOM     26  C   UNL     1      53.280   0.280  12.689  1.00  0.00    -0.000 C 
BRANCH  26  27
ATOM     27  C   UNL     1      52.891   1.362  13.717  1.00  0.00    -0.000 C 
BRANCH  27  28
ATOM     28  C   UNL     1      53.840   2.571  13.685  1.00  0.00    -0.000 C 
BRANCH  28  29
ATOM     29  C   UNL     1      53.719   3.329  12.354  1.00  0.00    -0.000 C 
BRANCH  29  30
ATOM     30  C   UNL     1      55.085   3.735  11.781  1.00  0.00    -0.000 C 
BRANCH  30  31
ATOM     31  C   UNL     1      56.131   2.616  11.903  1.00  0.00    -0.003 C 
ATOM     32  C   UNL     1      57.356   3.092  12.677  1.00  0.00     0.004 C 
ENDBRANCH  30  31
ENDBRANCH  29  30
ENDBRANCH  28  29
ENDBRANCH  27  28
ENDBRANCH  26  27
ENDBRANCH  25  26
ENDBRANCH  24  25
ENDBRANCH  23  24
ENDBRANCH  22  23
ENDBRANCH  21  22
ENDBRANCH  20  21
ENDBRANCH  19  20
ENDBRANCH  18  19
ENDBRANCH   1  18
TORSDOF 28
ENDMDL
MODEL 5
REMARK VINA RESULT:    -4.623      6.823     13.224
REMARK INTER + INTRA:         -16.797
REMARK INTER:                 -12.069
REMARK INTRA:                  -4.728
REMARK UNBOUND:                -4.606
REMARK SMILES CCCCCCCCCCCCCCCCCCCCCCCCCCCCCC(=O)[O-]
REMARK SMILES IDX 16 1 17 2 18 3 19 4 20 5 21 6 22 7 23 8 24 9 25 10 26 11
REMARK SMILES IDX 27 12 28 13 29 14 30 15 31 16 32 17 15 18 14 19 13 20 12 21
REMARK SMILES IDX 11 22 10 23 9 24 8 25 7 26 6 27 5 28 4 29 3 30 2 31 1 32
REMARK H PARENT
REMARK Flexibility Score: inf
ROOT
ATOM      1  C   UNL     1      51.384  -3.470   6.523  1.00  0.00     0.000 C 
ENDROOT
BRANCH   1   2
ATOM      2  C   UNL     1      52.227  -4.653   7.035  1.00  0.00     0.000 C 
BRANCH   2   3
ATOM      3  C   UNL     1      53.751  -4.440   6.990  1.00  0.00     0.000 C 
BRANCH   3   4
ATOM      4  C   UNL     1      54.372  -4.227   8.379  1.00  0.00     0.000 C 
BRANCH   4   5
ATOM      5  C   UNL     1      53.379  -4.594   9.488  1.00  0.00     0.000 C 
BRANCH   5   6
ATOM      6  C   UNL     1      53.402  -3.548  10.612  1.00  0.00     0.000 C 
BRANCH   6   7
ATOM      7  C   UNL     1      52.298  -3.782  11.656  1.00  0.00     0.000 C 
BRANCH   7   8
ATOM      8  C   UNL     1      52.785  -3.533  13.095  1.00  0.00     0.000 C 
BRANCH   8   9
ATOM      9  C   UNL     1      54.273  -3.872  13.277  1.00  0.00     0.000 C 
BRANCH   9  10
ATOM     10  C   UNL     1      55.069  -2.715  13.904  1.00  0.00     0.000 C 
BRANCH  10  11
ATOM     11  C   UNL     1      56.568  -3.055  14.058  1.00  0.00     0.000 C 
BRANCH  11  12
ATOM     12  C   UNL     1      57.372  -1.967  14.797  1.00  0.00     0.000 C 
BRANCH  12  13
ATOM     13  C   UNL     1      56.514  -1.004  15.648  1.00  0.00     0.006 C 
BRANCH  13  14
ATOM     14  C   UNL     1      57.101  -0.715  17.042  1.00  0.00     0.053 C 
BRANCH  14  15
ATOM     15  C   UNL     1      56.904   0.707  17.467  1.00  0.00     0.041 C 
ATOM     16  O   UNL     1      55.771   1.106  17.847  1.00  0.00    -0.550 OA
ATOM     17  O   UNL     1      57.975   1.594  17.447  1.00  0.00    -0.550 OA
ENDBRANCH  14  15
ENDBRANCH  13  14
ENDBRANCH  12  13
ENDBRANCH  11  12
ENDBRANCH  10  11
ENDBRANCH   9  10
ENDBRANCH   8   9
ENDBRANCH   7   8
ENDBRANCH   6   7
ENDBRANCH   5   6
ENDBRANCH   4   5
ENDBRANCH   3   4
ENDBRANCH   2   3
ENDBRANCH   1   2
BRANCH   1  18
ATOM     18  C   UNL     1      50.743  -2.653   7.657  1.00  0.00     0.000 C 
BRANCH  18  19
ATOM     19  C   UNL     1      51.698  -1.591   8.226  1.00  0.00     0.000 C 
BRANCH  19  20
ATOM     20  C   UNL     1      51.226  -0.158   7.937  1.00  0.00     0.000 C 
BRANCH  20  21
ATOM     21  C   UNL     1      51.497   0.762   9.138  1.00  0.00     0.000 C 
BRANCH  21  22
ATOM     22  C   UNL     1      52.422   0.121  10.188  1.00  0.00     0.000 C 
BRANCH  22  23
ATOM     23  C   UNL     1      51.930   0.239  11.642  1.00  0.00     0.000 C 
BRANCH  23  24
ATOM     24  C   UNL     1      53.071   0.143  12.669  1.00  0.00    -0.000 C 
BRANCH  24  25
ATOM     25  C   UNL     1      53.067   1.322  13.663  1.00  0.00    -0.000 C 
BRANCH  25  26
ATOM     26  C   UNL     1      54.329   1.407  14.546  1.00  0.00    -0.000 C 
BRANCH  26  27
ATOM     27  C   UNL     1      55.214   2.638  14.266  1.00  0.00    -0.000 C 
BRANCH  27  28
ATOM     28  C   UNL     1      56.346   2.334  13.272  1.00  0.00    -0.000 C 
BRANCH  28  29
ATOM     29  C   UNL     1      56.200   3.180  11.997  1.00  0.00    -0.000 C 
BRANCH  29  30
ATOM     30  C   UNL     1      55.453   2.437  10.879  1.00  0.00    -0.000 C 
BRANCH  30  31
ATOM     31  C   UNL     1      54.426   3.328  10.164  1.00  0.00    -0.003 C 
ATOM     32  C   UNL     1      53.512   4.025  11.166  1.00  0.00     0.004 C 
ENDBRANCH  30  31
ENDBRANCH  29  30
ENDBRANCH  28  29
ENDBRANCH  27  28
ENDBRANCH  26  27
ENDBRANCH  25  26
ENDBRANCH  24  25
ENDBRANCH  23  24
ENDBRANCH  22  23
ENDBRANCH  21  22
ENDBRANCH  20  21
ENDBRANCH  19  20
ENDBRANCH  18  19
ENDBRANCH   1  18
TORSDOF 28
ENDMDL
MODEL 6
REMARK VINA RESULT:    -4.598      3.217      8.064
REMARK INTER + INTRA:         -16.730
REMARK INTER:                 -13.022
REMARK INTRA:                  -3.707
REMARK UNBOUND:                -4.606
REMARK SMILES CCCCCCCCCCCCCCCCCCCCCCCCCCCCCC(=O)[O-]
REMARK SMILES IDX 16 1 17 2 18 3 19 4 20 5 21 6 22 7 23 8 24 9 25 10 26 11
REMARK SMILES IDX 27 12 28 13 29 14 30 15 31 16 32 17 15 18 14 19 13 20 12 21
REMARK SMILES IDX 11 22 10 23 9 24 8 25 7 26 6 27 5 28 4 29 3 30 2 31 1 32
REMARK H PARENT
REMARK Flexibility Score: inf
ROOT
ATOM      1  C   UNL     1      57.096  -2.011  14.705  1.00  0.00     0.000 C 
ENDROOT
BRANCH   1   2
ATOM      2  C   UNL     1      55.597  -2.210  14.417  1.00  0.00     0.000 C 
BRANCH   2   3
ATOM      3  C   UNL     1      55.239  -3.510  13.673  1.00  0.00     0.000 C 
BRANCH   3   4
ATOM      4  C   UNL     1      54.180  -3.307  12.578  1.00  0.00     0.000 C 
BRANCH   4   5
ATOM      5  C   UNL     1      52.788  -3.716  13.077  1.00  0.00     0.000 C 
BRANCH   5   6
ATOM      6  C   UNL     1      51.902  -4.175  11.910  1.00  0.00     0.000 C 
BRANCH   6   7
ATOM      7  C   UNL     1      52.694  -4.354  10.605  1.00  0.00     0.000 C 
BRANCH   7   8
ATOM      8  C   UNL     1      51.892  -3.923   9.364  1.00  0.00     0.000 C 
BRANCH   8   9
ATOM      9  C   UNL     1      51.440  -2.455   9.439  1.00  0.00     0.000 C 
BRANCH   9  10
ATOM     10  C   UNL     1      52.617  -1.484   9.627  1.00  0.00     0.000 C 
BRANCH  10  11
ATOM     11  C   UNL     1      52.201  -0.201  10.380  1.00  0.00     0.000 C 
BRANCH  11  12
ATOM     12  C   UNL     1      51.928  -0.430  11.879  1.00  0.00     0.000 C 
BRANCH  12  13
ATOM     13  C   UNL     1      52.454   0.689  12.805  1.00  0.00     0.006 C 
BRANCH  13  14
ATOM     14  C   UNL     1      53.927   0.516  13.216  1.00  0.00     0.053 C 
BRANCH  14  15
ATOM     15  C   UNL     1      54.320   1.413  14.348  1.00  0.00     0.041 C 
ATOM     16  O   UNL     1      55.458   1.954  14.365  1.00  0.00    -0.550 OA
ATOM     17  O   UNL     1      53.428   1.655  15.387  1.00  0.00    -0.550 OA
ENDBRANCH  14  15
ENDBRANCH  13  14
ENDBRANCH  12  13
ENDBRANCH  11  12
ENDBRANCH  10  11
ENDBRANCH   9  10
ENDBRANCH   8   9
ENDBRANCH   7   8
ENDBRANCH   6   7
ENDBRANCH   5   6
ENDBRANCH   4   5
ENDBRANCH   3   4
ENDBRANCH   2   3
ENDBRANCH   1   2
BRANCH   1  18
ATOM     18  C   UNL     1      57.376  -0.832  15.651  1.00  0.00     0.000 C 
BRANCH  18  19
ATOM     19  C   UNL     1      57.943  -1.288  17.006  1.00  0.00     0.000 C 
BRANCH  19  20
ATOM     20  C   UNL     1      57.176  -0.695  18.197  1.00  0.00     0.000 C 
BRANCH  20  21
ATOM     21  C   UNL     1      57.541   0.783  18.403  1.00  0.00     0.000 C 
BRANCH  21  22
ATOM     22  C   UNL     1      58.866   0.973  19.163  1.00  0.00     0.000 C 
BRANCH  22  23
ATOM     23  C   UNL     1      58.826   0.559  20.645  1.00  0.00     0.000 C 
BRANCH  23  24
ATOM     24  C   UNL     1      57.593   1.106  21.386  1.00  0.00    -0.000 C 
BRANCH  24  25
ATOM     25  C   UNL     1      57.437   0.497  22.795  1.00  0.00    -0.000 C 
BRANCH  25  26
ATOM     26  C   UNL     1      56.827  -0.919  22.805  1.00  0.00    -0.000 C 
BRANCH  26  27
ATOM     27  C   UNL     1      55.988  -1.255  21.555  1.00  0.00    -0.000 C 
BRANCH  27  28
ATOM     28  C   UNL     1      56.367  -2.612  20.940  1.00  0.00    -0.000 C 
BRANCH  28  29
ATOM     29  C   UNL     1      57.816  -2.987  21.289  1.00  0.00    -0.000 C 
BRANCH  29  30
ATOM     30  C   UNL     1      58.510  -3.765  20.161  1.00  0.00    -0.000 C 
BRANCH  30  31
ATOM     31  C   UNL     1      60.022  -3.909  20.389  1.00  0.00    -0.003 C 
ATOM     32  C   UNL     1      60.459  -3.172  21.651  1.00  0.00     0.004 C 
ENDBRANCH  30  31
ENDBRANCH  29  30
ENDBRANCH  28  29
ENDBRANCH  27  28
ENDBRANCH  26  27
ENDBRANCH  25  26
ENDBRANCH  24  25
ENDBRANCH  23  24
ENDBRANCH  22  23
ENDBRANCH  21  22
ENDBRANCH  20  21
ENDBRANCH  19  20
ENDBRANCH  18  19
ENDBRANCH   1  18
TORSDOF 28
ENDMDL
MODEL 7
REMARK VINA RESULT:    -4.562      3.828      9.444
REMARK INTER + INTRA:         -16.636
REMARK INTER:                 -12.381
REMARK INTRA:                  -4.255
REMARK UNBOUND:                -4.606
REMARK SMILES CCCCCCCCCCCCCCCCCCCCCCCCCCCCCC(=O)[O-]
REMARK SMILES IDX 16 1 17 2 18 3 19 4 20 5 21 6 22 7 23 8 24 9 25 10 26 11
REMARK SMILES IDX 27 12 28 13 29 14 30 15 31 16 32 17 15 18 14 19 13 20 12 21
REMARK SMILES IDX 11 22 10 23 9 24 8 25 7 26 6 27 5 28 4 29 3 30 2 31 1 32
REMARK H PARENT
REMARK Flexibility Score: inf
ROOT
ATOM      1  C   UNL     1      52.626  -3.786  12.991  1.00  0.00     0.000 C 
ENDROOT
BRANCH   1   2
ATOM      2  C   UNL     1      51.877  -4.215  11.716  1.00  0.00     0.000 C 
BRANCH   2   3
ATOM      3  C   UNL     1      52.724  -4.983  10.685  1.00  0.00     0.000 C 
BRANCH   3   4
ATOM      4  C   UNL     1      52.637  -4.390   9.270  1.00  0.00     0.000 C 
BRANCH   4   5
ATOM      5  C   UNL     1      53.340  -3.029   9.200  1.00  0.00     0.000 C 
BRANCH   5   6
ATOM      6  C   UNL     1      52.390  -1.949   8.661  1.00  0.00     0.000 C 
BRANCH   6   7
ATOM      7  C   UNL     1      51.729  -1.133   9.784  1.00  0.00     0.000 C 
BRANCH   7   8
ATOM      8  C   UNL     1      52.749  -0.322  10.603  1.00  0.00     0.000 C 
BRANCH   8   9
ATOM      9  C   UNL     1      52.365  -0.227  12.088  1.00  0.00     0.000 C 
BRANCH   9  10
ATOM     10  C   UNL     1      53.559   0.145  12.983  1.00  0.00     0.000 C 
BRANCH  10  11
ATOM     11  C   UNL     1      53.264   1.376  13.868  1.00  0.00     0.000 C 
BRANCH  11  12
ATOM     12  C   UNL     1      54.531   2.145  14.291  1.00  0.00     0.000 C 
BRANCH  12  13
ATOM     13  C   UNL     1      55.847   1.577  13.716  1.00  0.00     0.006 C 
BRANCH  13  14
ATOM     14  C   UNL     1      56.671   2.604  12.917  1.00  0.00     0.053 C 
BRANCH  14  15
ATOM     15  C   UNL     1      55.867   3.290  11.857  1.00  0.00     0.041 C 
ATOM     16  O   UNL     1      55.669   4.533  11.914  1.00  0.00    -0.550 OA
ATOM     17  O   UNL     1      55.337   2.557  10.801  1.00  0.00    -0.550 OA
ENDBRANCH  14  15
ENDBRANCH  13  14
ENDBRANCH  12  13
ENDBRANCH  11  12
ENDBRANCH  10  11
ENDBRANCH   9  10
ENDBRANCH   8   9
ENDBRANCH   7   8
ENDBRANCH   6   7
ENDBRANCH   5   6
ENDBRANCH   4   5
ENDBRANCH   3   4
ENDBRANCH   2   3
ENDBRANCH   1   2
BRANCH   1  18
ATOM     18  C   UNL     1      54.110  -3.474  12.741  1.00  0.00     0.000 C 
BRANCH  18  19
ATOM     19  C   UNL     1      55.037  -4.193  13.735  1.00  0.00     0.000 C 
BRANCH  19  20
ATOM     20  C   UNL     1      56.417  -3.529  13.842  1.00  0.00     0.000 C 
BRANCH  20  21
ATOM     21  C   UNL     1      56.287  -2.056  14.258  1.00  0.00     0.000 C 
BRANCH  21  22
ATOM     22  C   UNL     1      57.562  -1.505  14.921  1.00  0.00     0.000 C 
BRANCH  22  23
ATOM     23  C   UNL     1      57.328  -0.740  16.236  1.00  0.00     0.000 C 
BRANCH  23  24
ATOM     24  C   UNL     1      55.892  -0.890  16.768  1.00  0.00    -0.000 C 
BRANCH  24  25
ATOM     25  C   UNL     1      55.438   0.336  17.587  1.00  0.00    -0.000 C 
BRANCH  25  26
ATOM     26  C   UNL     1      55.933   0.336  19.047  1.00  0.00    -0.000 C 
BRANCH  26  27
ATOM     27  C   UNL     1      57.270   1.074  19.260  1.00  0.00    -0.000 C 
BRANCH  27  28
ATOM     28  C   UNL     1      58.403   0.125  19.685  1.00  0.00    -0.000 C 
BRANCH  28  29
ATOM     29  C   UNL     1      57.904  -1.326  19.759  1.00  0.00    -0.000 C 
BRANCH  29  30
ATOM     30  C   UNL     1      59.037  -2.348  19.574  1.00  0.00    -0.000 C 
BRANCH  30  31
ATOM     31  C   UNL     1      59.227  -3.246  20.805  1.00  0.00    -0.003 C 
ATOM     32  C   UNL     1      58.145  -4.319  20.874  1.00  0.00     0.004 C 
ENDBRANCH  30  31
ENDBRANCH  29  30
ENDBRANCH  28  29
ENDBRANCH  27  28
ENDBRANCH  26  27
ENDBRANCH  25  26
ENDBRANCH  24  25
ENDBRANCH  23  24
ENDBRANCH  22  23
ENDBRANCH  21  22
ENDBRANCH  20  21
ENDBRANCH  19  20
ENDBRANCH  18  19
ENDBRANCH   1  18
TORSDOF 28
ENDMDL
MODEL 8
REMARK VINA RESULT:    -4.554      3.582      9.347
REMARK INTER + INTRA:         -16.613
REMARK INTER:                 -11.114
REMARK INTRA:                  -5.499
REMARK UNBOUND:                -4.606
REMARK SMILES CCCCCCCCCCCCCCCCCCCCCCCCCCCCCC(=O)[O-]
REMARK SMILES IDX 16 1 17 2 18 3 19 4 20 5 21 6 22 7 23 8 24 9 25 10 26 11
REMARK SMILES IDX 27 12 28 13 29 14 30 15 31 16 32 17 15 18 14 19 13 20 12 21
REMARK SMILES IDX 11 22 10 23 9 24 8 25 7 26 6 27 5 28 4 29 3 30 2 31 1 32
REMARK H PARENT
REMARK Flexibility Score: inf
ROOT
ATOM      1  C   UNL     1      57.080   2.897  19.046  1.00  0.00     0.000 C 
ENDROOT
BRANCH   1   2
ATOM      2  C   UNL     1      57.506   3.078  20.514  1.00  0.00     0.000 C 
BRANCH   2   3
ATOM      3  C   UNL     1      56.367   2.974  21.545  1.00  0.00     0.000 C 
BRANCH   3   4
ATOM      4  C   UNL     1      55.049   2.466  20.939  1.00  0.00     0.000 C 
BRANCH   4   5
ATOM      5  C   UNL     1      54.696   1.074  21.479  1.00  0.00     0.000 C 
BRANCH   5   6
ATOM      6  C   UNL     1      55.597   0.703  22.666  1.00  0.00     0.000 C 
BRANCH   6   7
ATOM      7  C   UNL     1      56.381  -0.597  22.426  1.00  0.00     0.000 C 
BRANCH   7   8
ATOM      8  C   UNL     1      57.878  -0.451  22.748  1.00  0.00     0.000 C 
BRANCH   8   9
ATOM      9  C   UNL     1      58.729  -1.552  22.095  1.00  0.00     0.000 C 
BRANCH   9  10
ATOM     10  C   UNL     1      57.877  -2.705  21.540  1.00  0.00     0.000 C 
BRANCH  10  11
ATOM     11  C   UNL     1      58.735  -3.770  20.821  1.00  0.00     0.000 C 
BRANCH  11  12
ATOM     12  C   UNL     1      60.212  -3.360  20.658  1.00  0.00     0.000 C 
BRANCH  12  13
ATOM     13  C   UNL     1      61.215  -4.271  21.400  1.00  0.00     0.006 C 
BRANCH  13  14
ATOM     14  C   UNL     1      62.529  -4.505  20.631  1.00  0.00     0.053 C 
BRANCH  14  15
ATOM     15  C   UNL     1      63.733  -4.047  21.394  1.00  0.00     0.041 C 
ATOM     16  O   UNL     1      64.716  -3.544  20.787  1.00  0.00    -0.550 OA
ATOM     17  O   UNL     1      63.770  -4.173  22.778  1.00  0.00    -0.550 OA
ENDBRANCH  14  15
ENDBRANCH  13  14
ENDBRANCH  12  13
ENDBRANCH  11  12
ENDBRANCH  10  11
ENDBRANCH   9  10
ENDBRANCH   8   9
ENDBRANCH   7   8
ENDBRANCH   6   7
ENDBRANCH   5   6
ENDBRANCH   4   5
ENDBRANCH   3   4
ENDBRANCH   2   3
ENDBRANCH   1   2
BRANCH   1  18
ATOM     18  C   UNL     1      57.927   1.854  18.298  1.00  0.00     0.000 C 
BRANCH  18  19
ATOM     19  C   UNL     1      58.099   0.554  19.101  1.00  0.00     0.000 C 
BRANCH  19  20
ATOM     20  C   UNL     1      57.535  -0.672  18.367  1.00  0.00     0.000 C 
BRANCH  20  21
ATOM     21  C   UNL     1      56.140  -1.036  18.897  1.00  0.00     0.000 C 
BRANCH  21  22
ATOM     22  C   UNL     1      55.034  -0.872  17.838  1.00  0.00     0.000 C 
BRANCH  22  23
ATOM     23  C   UNL     1      54.347   0.505  17.829  1.00  0.00     0.000 C 
BRANCH  23  24
ATOM     24  C   UNL     1      53.994   0.988  16.411  1.00  0.00    -0.000 C 
BRANCH  24  25
ATOM     25  C   UNL     1      54.773   2.258  16.012  1.00  0.00    -0.000 C 
BRANCH  25  26
ATOM     26  C   UNL     1      55.712   2.068  14.805  1.00  0.00    -0.000 C 
BRANCH  26  27
ATOM     27  C   UNL     1      55.934   0.596  14.402  1.00  0.00    -0.000 C 
BRANCH  27  28
ATOM     28  C   UNL     1      57.264   0.036  14.929  1.00  0.00    -0.000 C 
BRANCH  28  29
ATOM     29  C   UNL     1      57.287  -1.498  14.843  1.00  0.00    -0.000 C 
BRANCH  29  30
ATOM     30  C   UNL     1      55.887  -2.097  14.641  1.00  0.00    -0.000 C 
BRANCH  30  31
ATOM     31  C   UNL     1      55.926  -3.459  13.932  1.00  0.00    -0.003 C 
ATOM     32  C   UNL     1      54.549  -3.838  13.396  1.00  0.00     0.004 C 
ENDBRANCH  30  31
ENDBRANCH  29  30
ENDBRANCH  28  29
ENDBRANCH  27  28
ENDBRANCH  26  27
ENDBRANCH  25  26
ENDBRANCH  24  25
ENDBRANCH  23  24
ENDBRANCH  22  23
ENDBRANCH  21  22
ENDBRANCH  20  21
ENDBRANCH  19  20
ENDBRANCH  18  19
ENDBRANCH   1  18
TORSDOF 28
ENDMDL
MODEL 9
REMARK VINA RESULT:    -4.518      4.014      8.310
REMARK INTER + INTRA:         -16.518
REMARK INTER:                 -11.448
REMARK INTRA:                  -5.070
REMARK UNBOUND:                -4.606
REMARK SMILES CCCCCCCCCCCCCCCCCCCCCCCCCCCCCC(=O)[O-]
REMARK SMILES IDX 16 1 17 2 18 3 19 4 20 5 21 6 22 7 23 8 24 9 25 10 26 11
REMARK SMILES IDX 27 12 28 13 29 14 30 15 31 16 32 17 15 18 14 19 13 20 12 21
REMARK SMILES IDX 11 22 10 23 9 24 8 25 7 26 6 27 5 28 4 29 3 30 2 31 1 32
REMARK H PARENT
REMARK Flexibility Score: inf
ROOT
ATOM      1  C   UNL     1      54.776  -3.347  13.676  1.00  0.00     0.000 C 
ENDROOT
BRANCH   1   2
ATOM      2  C   UNL     1      53.763  -3.707  12.574  1.00  0.00     0.000 C 
BRANCH   2   3
ATOM      3  C   UNL     1      52.283  -3.564  12.973  1.00  0.00     0.000 C 
BRANCH   3   4
ATOM      4  C   UNL     1      51.510  -2.580  12.081  1.00  0.00     0.000 C 
BRANCH   4   5
ATOM      5  C   UNL     1      52.397  -2.053  10.946  1.00  0.00     0.000 C 
BRANCH   5   6
ATOM      6  C   UNL     1      52.369  -0.518  10.898  1.00  0.00     0.000 C 
BRANCH   6   7
ATOM      7  C   UNL     1      52.060   0.108  12.267  1.00  0.00     0.000 C 
BRANCH   7   8
ATOM      8  C   UNL     1      53.148   1.095  12.724  1.00  0.00     0.000 C 
BRANCH   8   9
ATOM      9  C   UNL     1      53.890   1.738  11.542  1.00  0.00     0.000 C 
BRANCH   9  10
ATOM     10  C   UNL     1      54.767   2.926  11.971  1.00  0.00     0.000 C 
BRANCH  10  11
ATOM     11  C   UNL     1      56.236   2.759  11.524  1.00  0.00     0.000 C 
BRANCH  11  12
ATOM     12  C   UNL     1      57.245   2.845  12.687  1.00  0.00     0.000 C 
BRANCH  12  13
ATOM     13  C   UNL     1      57.123   1.710  13.726  1.00  0.00     0.006 C 
BRANCH  13  14
ATOM     14  C   UNL     1      57.063   2.205  15.184  1.00  0.00     0.053 C 
BRANCH  14  15
ATOM     15  C   UNL     1      55.720   2.753  15.553  1.00  0.00     0.041 C 
ATOM     16  O   UNL     1      54.768   1.973  15.823  1.00  0.00    -0.550 OA
ATOM     17  O   UNL     1      55.519   4.128  15.601  1.00  0.00    -0.550 OA
ENDBRANCH  14  15
ENDBRANCH  13  14
ENDBRANCH  12  13
ENDBRANCH  11  12
ENDBRANCH  10  11
ENDBRANCH   9  10
ENDBRANCH   8   9
ENDBRANCH   7   8
ENDBRANCH   6   7
ENDBRANCH   5   6
ENDBRANCH   4   5
ENDBRANCH   3   4
ENDBRANCH   2   3
ENDBRANCH   1   2
BRANCH   1  18
ATOM     18  C   UNL     1      55.006  -1.832  13.810  1.00  0.00     0.000 C 
BRANCH  18  19
ATOM     19  C   UNL     1      55.572  -1.445  15.186  1.00  0.00     0.000 C 
BRANCH  19  20
ATOM     20  C   UNL     1      57.092  -1.643  15.276  1.00  0.00     0.000 C 
BRANCH  20  21
ATOM     21  C   UNL     1      57.621  -1.219  16.655  1.00  0.00     0.000 C 
BRANCH  21  22
ATOM     22  C   UNL     1      56.498  -0.829  17.633  1.00  0.00     0.000 C 
BRANCH  22  23
ATOM     23  C   UNL     1      56.748   0.471  18.419  1.00  0.00     0.000 C 
BRANCH  23  24
ATOM     24  C   UNL     1      58.244   0.798  18.573  1.00  0.00    -0.000 C 
BRANCH  24  25
ATOM     25  C   UNL     1      58.720   0.697  20.037  1.00  0.00    -0.000 C 
BRANCH  25  26
ATOM     26  C   UNL     1      57.717   1.257  21.065  1.00  0.00    -0.000 C 
BRANCH  26  27
ATOM     27  C   UNL     1      57.251   0.231  22.117  1.00  0.00    -0.000 C 
BRANCH  27  28
ATOM     28  C   UNL     1      55.890  -0.392  21.766  1.00  0.00    -0.000 C 
BRANCH  28  29
ATOM     29  C   UNL     1      56.059  -1.834  21.263  1.00  0.00    -0.000 C 
BRANCH  29  30
ATOM     30  C   UNL     1      57.462  -2.395  21.544  1.00  0.00    -0.000 C 
BRANCH  30  31
ATOM     31  C   UNL     1      57.854  -3.514  20.569  1.00  0.00    -0.003 C 
ATOM     32  C   UNL     1      58.983  -3.067  19.646  1.00  0.00     0.004 C 
ENDBRANCH  30  31
ENDBRANCH  29  30
ENDBRANCH  28  29
ENDBRANCH  27  28
ENDBRANCH  26  27
ENDBRANCH  25  26
ENDBRANCH  24  25
ENDBRANCH  23  24
ENDBRANCH  22  23
ENDBRANCH  21  22
ENDBRANCH  20  21
ENDBRANCH  19  20
ENDBRANCH  18  19
ENDBRANCH   1  18
TORSDOF 28
ENDMDL
