MODEL 1
REMARK VINA RESULT:    -3.825      0.000      0.000
REMARK INTER + INTRA:          -4.683
REMARK INTER:                  -4.384
REMARK INTRA:                  -0.298
REMARK UNBOUND:                -0.298
REMARK SMILES O=C([O-])C=Cc1ccc(O)cc1
REMARK SMILES IDX 6 1 7 2 12 3 8 4 11 5 9 6 5 7 4 8 2 9 1 10 3 11 10 12
REMARK H PARENT 10 13
REMARK Flexibility Score: inf
ROOT
ATOM      1  C   UNL     1       7.046  11.941   7.748  1.00  0.00    -0.025 A 
ATOM      2  C   UNL     1       6.828  13.324   7.677  1.00  0.00     0.012 A 
ATOM      3  C   UNL     1       5.941  11.071   7.757  1.00  0.00     0.012 A 
ATOM      4  C   UNL     1       5.526  13.835   7.668  1.00  0.00     0.047 A 
ATOM      5  C   UNL     1       4.640  11.583   7.748  1.00  0.00     0.047 A 
ATOM      6  C   UNL     1       4.430  12.968   7.706  1.00  0.00     0.115 A 
ENDROOT
BRANCH   1   7
ATOM      7  C   UNL     1       8.429  11.423   7.703  1.00  0.00     0.010 C 
ATOM      8  C   UNL     1       9.152  11.041   8.767  1.00  0.00     0.025 C 
BRANCH   8   9
ATOM      9  C   UNL     1       8.773  11.234  10.182  1.00  0.00     0.064 C 
ATOM     10  O   UNL     1       8.205  10.325  10.841  1.00  0.00    -0.545 OA
ATOM     11  O   UNL     1       8.987  12.471  10.776  1.00  0.00    -0.545 OA
ENDBRANCH   8   9
ENDBRANCH   1   7
BRANCH   6  12
ATOM     12  O   UNL     1       3.138  13.490   7.699  1.00  0.00    -0.508 OA
ATOM     13  H   UNL     1       2.872  14.253   8.309  1.00  0.00     0.293 HD
ENDBRANCH   6  12
TORSDOF 3
ENDMDL
MODEL 2
REMARK VINA RESULT:    -3.778      0.207      1.413
REMARK INTER + INTRA:          -4.629
REMARK INTER:                  -4.335
REMARK INTRA:                  -0.294
REMARK UNBOUND:                -0.298
REMARK SMILES O=C([O-])C=Cc1ccc(O)cc1
REMARK SMILES IDX 6 1 7 2 12 3 8 4 11 5 9 6 5 7 4 8 2 9 1 10 3 11 10 12
REMARK H PARENT 10 13
REMARK Flexibility Score: inf
ROOT
ATOM      1  C   UNL     1       7.176  11.939   7.750  1.00  0.00    -0.025 A 
ATOM      2  C   UNL     1       6.049  11.104   7.770  1.00  0.00     0.012 A 
ATOM      3  C   UNL     1       6.997  13.334   7.738  1.00  0.00     0.012 A 
ATOM      4  C   UNL     1       4.763  11.651   7.723  1.00  0.00     0.047 A 
ATOM      5  C   UNL     1       5.710  13.879   7.692  1.00  0.00     0.047 A 
ATOM      6  C   UNL     1       4.590  13.038   7.681  1.00  0.00     0.115 A 
ENDROOT
BRANCH   1   7
ATOM      7  C   UNL     1       8.522  11.341   7.854  1.00  0.00     0.010 C 
ATOM      8  C   UNL     1       9.138  11.003   8.998  1.00  0.00     0.025 C 
BRANCH   8   9
ATOM      9  C   UNL     1       8.667  11.328  10.359  1.00  0.00     0.064 C 
ATOM     10  O   UNL     1       7.918  10.546  11.001  1.00  0.00    -0.545 OA
ATOM     11  O   UNL     1       9.003  12.555  10.916  1.00  0.00    -0.545 OA
ENDBRANCH   8   9
ENDBRANCH   1   7
BRANCH   6  12
ATOM     12  O   UNL     1       3.303  13.570   7.633  1.00  0.00    -0.508 OA
ATOM     13  H   UNL     1       2.654  13.456   8.403  1.00  0.00     0.293 HD
ENDBRANCH   6  12
TORSDOF 3
ENDMDL
MODEL 3
REMARK VINA RESULT:    -3.644      3.325      5.265
REMARK INTER + INTRA:          -4.475
REMARK INTER:                  -4.343
REMARK INTRA:                  -0.132
REMARK UNBOUND:                -0.298
REMARK SMILES O=C([O-])C=Cc1ccc(O)cc1
REMARK SMILES IDX 6 1 7 2 12 3 8 4 11 5 9 6 5 7 4 8 2 9 1 10 3 11 10 12
REMARK H PARENT 10 13
REMARK Flexibility Score: inf
ROOT
ATOM      1  C   UNL     1       9.065   9.185   7.855  1.00  0.00    -0.025 A 
ATOM      2  C   UNL     1      10.062   8.203   7.763  1.00  0.00     0.012 A 
ATOM      3  C   UNL     1       8.911  10.108   6.805  1.00  0.00     0.012 A 
ATOM      4  C   UNL     1      10.928   8.176   6.665  1.00  0.00     0.047 A 
ATOM      5  C   UNL     1       9.777  10.079   5.708  1.00  0.00     0.047 A 
ATOM      6  C   UNL     1      10.790   9.113   5.637  1.00  0.00     0.115 A 
ENDROOT
BRANCH   1   7
ATOM      7  C   UNL     1       8.130   9.161   8.998  1.00  0.00     0.010 C 
ATOM      8  C   UNL     1       7.932  10.169   9.863  1.00  0.00     0.025 C 
BRANCH   8   9
ATOM      9  C   UNL     1       8.733  11.407   9.942  1.00  0.00     0.064 C 
ATOM     10  O   UNL     1       9.767  11.477  10.656  1.00  0.00    -0.545 OA
ATOM     11  O   UNL     1       8.296  12.540   9.268  1.00  0.00    -0.545 OA
ENDBRANCH   8   9
ENDBRANCH   1   7
BRANCH   6  12
ATOM     12  O   UNL     1      11.660   9.076   4.550  1.00  0.00    -0.508 OA
ATOM     13  H   UNL     1      11.501   9.642   3.725  1.00  0.00     0.293 HD
ENDBRANCH   6  12
TORSDOF 3
ENDMDL
MODEL 4
REMARK VINA RESULT:    -3.579      2.486      2.899
REMARK INTER + INTRA:          -4.400
REMARK INTER:                  -4.116
REMARK INTRA:                  -0.285
REMARK UNBOUND:                -0.298
REMARK SMILES O=C([O-])C=Cc1ccc(O)cc1
REMARK SMILES IDX 6 1 7 2 12 3 8 4 11 5 9 6 5 7 4 8 2 9 1 10 3 11 10 12
REMARK H PARENT 10 13
REMARK Flexibility Score: inf
ROOT
ATOM      1  C   UNL     1       7.508  11.455   8.297  1.00  0.00    -0.025 A 
ATOM      2  C   UNL     1       7.937  12.770   8.068  1.00  0.00     0.012 A 
ATOM      3  C   UNL     1       6.159  11.124   8.072  1.00  0.00     0.012 A 
ATOM      4  C   UNL     1       7.024  13.753   7.673  1.00  0.00     0.047 A 
ATOM      5  C   UNL     1       5.248  12.108   7.677  1.00  0.00     0.047 A 
ATOM      6  C   UNL     1       5.679  13.427   7.479  1.00  0.00     0.115 A 
ENDROOT
BRANCH   1   7
ATOM      7  C   UNL     1       8.499  10.423   8.662  1.00  0.00     0.010 C 
ATOM      8  C   UNL     1       9.310   9.785   7.804  1.00  0.00     0.025 C 
BRANCH   8   9
ATOM      9  C   UNL     1       9.238   9.861   6.331  1.00  0.00     0.064 C 
ATOM     10  O   UNL     1       9.889  10.722   5.684  1.00  0.00    -0.545 OA
ATOM     11  O   UNL     1       8.380   9.007   5.650  1.00  0.00    -0.545 OA
ENDBRANCH   8   9
ENDBRANCH   1   7
BRANCH   6  12
ATOM     12  O   UNL     1       4.779  14.416   7.087  1.00  0.00    -0.508 OA
ATOM     13  H   UNL     1       4.832  14.848   6.172  1.00  0.00     0.293 HD
ENDBRANCH   6  12
TORSDOF 3
ENDMDL
MODEL 5
REMARK VINA RESULT:    -3.554      2.726      5.185
REMARK INTER + INTRA:          -4.372
REMARK INTER:                  -4.090
REMARK INTRA:                  -0.281
REMARK UNBOUND:                -0.298
REMARK SMILES O=C([O-])C=Cc1ccc(O)cc1
REMARK SMILES IDX 6 1 7 2 12 3 8 4 11 5 9 6 5 7 4 8 2 9 1 10 3 11 10 12
REMARK H PARENT 10 13
REMARK Flexibility Score: inf
ROOT
ATOM      1  C   UNL     1       7.928   9.847   7.545  1.00  0.00    -0.025 A 
ATOM      2  C   UNL     1       8.256   9.029   8.636  1.00  0.00     0.012 A 
ATOM      3  C   UNL     1       8.731   9.807   6.390  1.00  0.00     0.012 A 
ATOM      4  C   UNL     1       9.398   8.223   8.596  1.00  0.00     0.047 A 
ATOM      5  C   UNL     1       9.872   9.000   6.352  1.00  0.00     0.047 A 
ATOM      6  C   UNL     1      10.210   8.208   7.458  1.00  0.00     0.115 A 
ENDROOT
BRANCH   1   7
ATOM      7  C   UNL     1       6.689  10.650   7.589  1.00  0.00     0.010 C 
ATOM      8  C   UNL     1       6.624  11.968   7.835  1.00  0.00     0.025 C 
BRANCH   8   9
ATOM      9  C   UNL     1       7.746  12.818   8.282  1.00  0.00     0.064 C 
ATOM     10  O   UNL     1       8.061  12.908   9.497  1.00  0.00    -0.545 OA
ATOM     11  O   UNL     1       8.424  13.589   7.347  1.00  0.00    -0.545 OA
ENDBRANCH   8   9
ENDBRANCH   1   7
BRANCH   6  12
ATOM     12  O   UNL     1      11.346   7.401   7.432  1.00  0.00    -0.508 OA
ATOM     13  H   UNL     1      11.872   7.200   8.274  1.00  0.00     0.293 HD
ENDBRANCH   6  12
TORSDOF 3
ENDMDL
MODEL 6
REMARK VINA RESULT:    -3.505      3.178      4.690
REMARK INTER + INTRA:          -4.316
REMARK INTER:                  -4.119
REMARK INTRA:                  -0.196
REMARK UNBOUND:                -0.298
REMARK SMILES O=C([O-])C=Cc1ccc(O)cc1
REMARK SMILES IDX 6 1 7 2 12 3 8 4 11 5 9 6 5 7 4 8 2 9 1 10 3 11 10 12
REMARK H PARENT 10 13
REMARK Flexibility Score: inf
ROOT
ATOM      1  C   UNL     1       8.477  10.359   7.639  1.00  0.00    -0.025 A 
ATOM      2  C   UNL     1       9.584  10.593   6.810  1.00  0.00     0.012 A 
ATOM      3  C   UNL     1       7.597   9.306   7.329  1.00  0.00     0.012 A 
ATOM      4  C   UNL     1       9.780   9.823   5.660  1.00  0.00     0.047 A 
ATOM      5  C   UNL     1       7.795   8.537   6.179  1.00  0.00     0.047 A 
ATOM      6  C   UNL     1       8.887   8.796   5.339  1.00  0.00     0.115 A 
ENDROOT
BRANCH   1   7
ATOM      7  C   UNL     1       8.319  11.150   8.876  1.00  0.00     0.010 C 
ATOM      8  C   UNL     1       7.820  12.394   8.946  1.00  0.00     0.025 C 
BRANCH   8   9
ATOM      9  C   UNL     1       7.506  13.264   7.794  1.00  0.00     0.064 C 
ATOM     10  O   UNL     1       6.326  13.411   7.382  1.00  0.00    -0.545 OA
ATOM     11  O   UNL     1       8.546  13.878   7.108  1.00  0.00    -0.545 OA
ENDBRANCH   8   9
ENDBRANCH   1   7
BRANCH   6  12
ATOM     12  O   UNL     1       9.094   8.037   4.189  1.00  0.00    -0.508 OA
ATOM     13  H   UNL     1       8.776   8.355   3.281  1.00  0.00     0.293 HD
ENDBRANCH   6  12
TORSDOF 3
ENDMDL
MODEL 7
REMARK VINA RESULT:    -3.482      2.358      3.433
REMARK INTER + INTRA:          -4.290
REMARK INTER:                  -3.999
REMARK INTRA:                  -0.291
REMARK UNBOUND:                -0.298
REMARK SMILES O=C([O-])C=Cc1ccc(O)cc1
REMARK SMILES IDX 6 1 7 2 12 3 8 4 11 5 9 6 5 7 4 8 2 9 1 10 3 11 10 12
REMARK H PARENT 10 13
REMARK Flexibility Score: inf
ROOT
ATOM      1  C   UNL     1       7.010  10.991   7.826  1.00  0.00    -0.025 A 
ATOM      2  C   UNL     1       6.636  12.342   7.844  1.00  0.00     0.012 A 
ATOM      3  C   UNL     1       8.327  10.646   7.473  1.00  0.00     0.012 A 
ATOM      4  C   UNL     1       7.548  13.332   7.463  1.00  0.00     0.047 A 
ATOM      5  C   UNL     1       9.237  11.637   7.093  1.00  0.00     0.047 A 
ATOM      6  C   UNL     1       8.848  12.984   7.085  1.00  0.00     0.115 A 
ENDROOT
BRANCH   1   7
ATOM      7  C   UNL     1       6.047   9.968   8.283  1.00  0.00     0.010 C 
ATOM      8  C   UNL     1       5.848   9.600   9.558  1.00  0.00     0.025 C 
BRANCH   8   9
ATOM      9  C   UNL     1       6.671  10.013  10.713  1.00  0.00     0.064 C 
ATOM     10  O   UNL     1       6.301  10.931  11.491  1.00  0.00    -0.545 OA
ATOM     11  O   UNL     1       7.914   9.423  10.903  1.00  0.00    -0.545 OA
ENDBRANCH   8   9
ENDBRANCH   1   7
BRANCH   6  12
ATOM     12  O   UNL     1       9.745  13.980   6.706  1.00  0.00    -0.508 OA
ATOM     13  H   UNL     1      10.698  13.992   7.049  1.00  0.00     0.293 HD
ENDBRANCH   6  12
TORSDOF 3
ENDMDL
MODEL 8
REMARK VINA RESULT:    -3.323      2.229      4.057
REMARK INTER + INTRA:          -4.108
REMARK INTER:                  -3.817
REMARK INTRA:                  -0.291
REMARK UNBOUND:                -0.298
REMARK SMILES O=C([O-])C=Cc1ccc(O)cc1
REMARK SMILES IDX 6 1 7 2 12 3 8 4 11 5 9 6 5 7 4 8 2 9 1 10 3 11 10 12
REMARK H PARENT 10 13
REMARK Flexibility Score: inf
ROOT
ATOM      1  C   UNL     1       7.656  11.346   7.638  1.00  0.00    -0.025 A 
ATOM      2  C   UNL     1       6.748  10.278   7.633  1.00  0.00     0.012 A 
ATOM      3  C   UNL     1       8.976  11.128   7.203  1.00  0.00     0.012 A 
ATOM      4  C   UNL     1       7.163   8.999   7.251  1.00  0.00     0.047 A 
ATOM      5  C   UNL     1       9.390   9.848   6.822  1.00  0.00     0.047 A 
ATOM      6  C   UNL     1       8.484   8.779   6.848  1.00  0.00     0.115 A 
ENDROOT
BRANCH   1   7
ATOM      7  C   UNL     1       7.181  12.699   7.994  1.00  0.00     0.010 C 
ATOM      8  C   UNL     1       7.248  13.251   9.216  1.00  0.00     0.025 C 
BRANCH   8   9
ATOM      9  C   UNL     1       7.638  12.552  10.457  1.00  0.00     0.064 C 
ATOM     10  O   UNL     1       6.781  12.033  11.218  1.00  0.00    -0.545 OA
ATOM     11  O   UNL     1       8.977  12.529  10.828  1.00  0.00    -0.545 OA
ENDBRANCH   8   9
ENDBRANCH   1   7
BRANCH   6  12
ATOM     12  O   UNL     1       8.886   7.499   6.472  1.00  0.00    -0.508 OA
ATOM     13  H   UNL     1       8.212   6.779   6.242  1.00  0.00     0.293 HD
ENDBRANCH   6  12
TORSDOF 3
ENDMDL
MODEL 9
REMARK VINA RESULT:    -3.283      2.120      2.634
REMARK INTER + INTRA:          -4.061
REMARK INTER:                  -3.779
REMARK INTRA:                  -0.282
REMARK UNBOUND:                -0.298
REMARK SMILES O=C([O-])C=Cc1ccc(O)cc1
REMARK SMILES IDX 6 1 7 2 12 3 8 4 11 5 9 6 5 7 4 8 2 9 1 10 3 11 10 12
REMARK H PARENT 10 13
REMARK Flexibility Score: inf
ROOT
ATOM      1  C   UNL     1       6.052  12.204   8.288  1.00  0.00    -0.025 A 
ATOM      2  C   UNL     1       5.967  12.246   9.687  1.00  0.00     0.012 A 
ATOM      3  C   UNL     1       5.746  13.360   7.546  1.00  0.00     0.012 A 
ATOM      4  C   UNL     1       5.531  13.407  10.334  1.00  0.00     0.047 A 
ATOM      5  C   UNL     1       5.310  14.519   8.195  1.00  0.00     0.047 A 
ATOM      6  C   UNL     1       5.199  14.544   9.592  1.00  0.00     0.115 A 
ENDROOT
BRANCH   1   7
ATOM      7  C   UNL     1       6.566  10.986   7.631  1.00  0.00     0.010 C 
ATOM      8  C   UNL     1       7.860  10.643   7.528  1.00  0.00     0.025 C 
BRANCH   8   9
ATOM      9  C   UNL     1       9.009  11.498   7.889  1.00  0.00     0.064 C 
ATOM     10  O   UNL     1       9.538  11.443   9.030  1.00  0.00    -0.545 OA
ATOM     11  O   UNL     1       9.473  12.430   6.970  1.00  0.00    -0.545 OA
ENDBRANCH   8   9
ENDBRANCH   1   7
BRANCH   6  12
ATOM     12  O   UNL     1       4.764  15.693  10.249  1.00  0.00    -0.508 OA
ATOM     13  H   UNL     1       5.416  16.394  10.577  1.00  0.00     0.293 HD
ENDBRANCH   6  12
TORSDOF 3
ENDMDL
