MODEL 1
REMARK VINA RESULT:    -4.548      0.000      0.000
REMARK INTER + INTRA:         -15.926
REMARK INTER:                 -11.461
REMARK INTRA:                  -4.465
REMARK UNBOUND:                -4.465
REMARK SMILES CCCCCCCCCCCCCCCCCCCCCCCCCCCC(=O)[O-]
REMARK SMILES IDX 15 1 16 2 17 3 18 4 19 5 20 6 21 7 22 8 23 9 24 10 25 11
REMARK SMILES IDX 26 12 27 13 28 14 29 15 30 16 14 17 13 18 12 19 11 20 10 21
REMARK SMILES IDX 9 22 8 23 7 24 6 25 5 26 4 27 3 28 2 29 1 30
REMARK H PARENT
REMARK Flexibility Score: inf
ROOT
ATOM      1  C   UNL     1      95.035  86.435  83.818  1.00  0.00     0.000 C 
ENDROOT
BRANCH   1   2
ATOM      2  C   UNL     1      95.632  85.681  85.021  1.00  0.00     0.000 C 
BRANCH   2   3
ATOM      3  C   UNL     1      96.936  84.914  84.732  1.00  0.00     0.000 C 
BRANCH   3   4
ATOM      4  C   UNL     1      97.536  85.248  83.356  1.00  0.00     0.000 C 
BRANCH   4   5
ATOM      5  C   UNL     1      97.580  84.034  82.410  1.00  0.00     0.000 C 
BRANCH   5   6
ATOM      6  C   UNL     1      98.982  83.652  81.892  1.00  0.00     0.000 C 
BRANCH   6   7
ATOM      7  C   UNL     1     100.079  83.564  82.972  1.00  0.00     0.000 C 
BRANCH   7   8
ATOM      8  C   UNL     1     101.405  84.256  82.611  1.00  0.00     0.000 C 
BRANCH   8   9
ATOM      9  C   UNL     1     101.926  85.166  83.736  1.00  0.00     0.000 C 
BRANCH   9  10
ATOM     10  C   UNL     1     101.128  86.476  83.864  1.00  0.00     0.000 C 
BRANCH  10  11
ATOM     11  C   UNL     1     101.457  87.334  85.102  1.00  0.00     0.000 C 
BRANCH  11  12
ATOM     12  C   UNL     1     100.520  87.132  86.306  1.00  0.00     0.006 C 
BRANCH  12  13
ATOM     13  C   UNL     1     100.991  86.015  87.246  1.00  0.00     0.053 C 
BRANCH  13  14
ATOM     14  C   UNL     1     100.089  84.826  87.139  1.00  0.00     0.041 C 
ATOM     15  O   UNL     1      98.901  84.892  87.547  1.00  0.00    -0.550 OA
ATOM     16  O   UNL     1     100.579  83.626  86.636  1.00  0.00    -0.550 OA
ENDBRANCH  13  14
ENDBRANCH  12  13
ENDBRANCH  11  12
ENDBRANCH  10  11
ENDBRANCH   9  10
ENDBRANCH   8   9
ENDBRANCH   7   8
ENDBRANCH   6   7
ENDBRANCH   5   6
ENDBRANCH   4   5
ENDBRANCH   3   4
ENDBRANCH   2   3
ENDBRANCH   1   2
BRANCH   1  17
ATOM     17  C   UNL     1      93.576  86.044  83.534  1.00  0.00     0.000 C 
BRANCH  17  18
ATOM     18  C   UNL     1      92.874  87.030  82.588  1.00  0.00     0.000 C 
BRANCH  18  19
ATOM     19  C   UNL     1      91.524  86.497  82.080  1.00  0.00     0.000 C 
BRANCH  19  20
ATOM     20  C   UNL     1      91.273  85.031  82.474  1.00  0.00     0.000 C 
BRANCH  20  21
ATOM     21  C   UNL     1      91.057  84.090  81.268  1.00  0.00     0.000 C 
BRANCH  21  22
ATOM     22  C   UNL     1      91.119  84.792  79.899  1.00  0.00    -0.000 C 
BRANCH  22  23
ATOM     23  C   UNL     1      92.434  84.514  79.149  1.00  0.00    -0.000 C 
BRANCH  23  24
ATOM     24  C   UNL     1      93.433  83.687  79.979  1.00  0.00    -0.000 C 
BRANCH  24  25
ATOM     25  C   UNL     1      94.883  84.213  79.975  1.00  0.00    -0.000 C 
BRANCH  25  26
ATOM     26  C   UNL     1      94.985  85.753  79.941  1.00  0.00    -0.000 C 
BRANCH  26  27
ATOM     27  C   UNL     1      96.417  86.229  79.650  1.00  0.00    -0.000 C 
BRANCH  27  28
ATOM     28  C   UNL     1      96.803  87.405  80.557  1.00  0.00    -0.000 C 
BRANCH  28  29
ATOM     29  C   UNL     1      98.323  87.529  80.752  1.00  0.00    -0.003 C 
ATOM     30  C   UNL     1      98.702  88.510  81.861  1.00  0.00     0.004 C 
ENDBRANCH  28  29
ENDBRANCH  27  28
ENDBRANCH  26  27
ENDBRANCH  25  26
ENDBRANCH  24  25
ENDBRANCH  23  24
ENDBRANCH  22  23
ENDBRANCH  21  22
ENDBRANCH  20  21
ENDBRANCH  19  20
ENDBRANCH  18  19
ENDBRANCH  17  18
ENDBRANCH   1  17
TORSDOF 26
ENDMDL
MODEL 2
REMARK VINA RESULT:    -4.487      1.361      3.578
REMARK INTER + INTRA:         -15.772
REMARK INTER:                 -11.195
REMARK INTRA:                  -4.577
REMARK UNBOUND:                -4.465
REMARK SMILES CCCCCCCCCCCCCCCCCCCCCCCCCCCC(=O)[O-]
REMARK SMILES IDX 15 1 16 2 17 3 18 4 19 5 20 6 21 7 22 8 23 9 24 10 25 11
REMARK SMILES IDX 26 12 27 13 28 14 29 15 30 16 14 17 13 18 12 19 11 20 10 21
REMARK SMILES IDX 9 22 8 23 7 24 6 25 5 26 4 27 3 28 2 29 1 30
REMARK H PARENT
REMARK Flexibility Score: inf
ROOT
ATOM      1  C   UNL     1      96.650  87.470  80.496  1.00  0.00     0.000 C 
ENDROOT
BRANCH   1   2
ATOM      2  C   UNL     1      95.958  87.333  81.865  1.00  0.00     0.000 C 
BRANCH   2   3
ATOM      3  C   UNL     1      96.903  87.353  83.081  1.00  0.00     0.000 C 
BRANCH   3   4
ATOM      4  C   UNL     1      97.970  86.246  83.030  1.00  0.00     0.000 C 
BRANCH   4   5
ATOM      5  C   UNL     1      97.367  84.830  83.027  1.00  0.00     0.000 C 
BRANCH   5   6
ATOM      6  C   UNL     1      98.128  83.791  82.178  1.00  0.00     0.000 C 
BRANCH   6   7
ATOM      7  C   UNL     1      99.469  84.277  81.593  1.00  0.00     0.000 C 
BRANCH   7   8
ATOM      8  C   UNL     1     100.724  83.721  82.289  1.00  0.00     0.000 C 
BRANCH   8   9
ATOM      9  C   UNL     1     101.206  84.612  83.446  1.00  0.00     0.000 C 
BRANCH   9  10
ATOM     10  C   UNL     1     100.692  84.143  84.818  1.00  0.00     0.000 C 
BRANCH  10  11
ATOM     11  C   UNL     1     100.839  85.164  85.966  1.00  0.00     0.000 C 
BRANCH  11  12
ATOM     12  C   UNL     1      99.574  85.982  86.280  1.00  0.00     0.006 C 
BRANCH  12  13
ATOM     13  C   UNL     1      98.427  85.119  86.822  1.00  0.00     0.053 C 
BRANCH  13  14
ATOM     14  C   UNL     1      98.022  85.585  88.185  1.00  0.00     0.041 C 
ATOM     15  O   UNL     1      96.925  86.178  88.354  1.00  0.00    -0.550 OA
ATOM     16  O   UNL     1      98.882  85.409  89.263  1.00  0.00    -0.550 OA
ENDBRANCH  13  14
ENDBRANCH  12  13
ENDBRANCH  11  12
ENDBRANCH  10  11
ENDBRANCH   9  10
ENDBRANCH   8   9
ENDBRANCH   7   8
ENDBRANCH   6   7
ENDBRANCH   5   6
ENDBRANCH   4   5
ENDBRANCH   3   4
ENDBRANCH   2   3
ENDBRANCH   1   2
BRANCH   1  17
ATOM     17  C   UNL     1      96.522  86.203  79.634  1.00  0.00     0.000 C 
BRANCH  17  18
ATOM     18  C   UNL     1      95.066  85.741  79.476  1.00  0.00     0.000 C 
BRANCH  18  19
ATOM     19  C   UNL     1      94.827  84.342  80.067  1.00  0.00     0.000 C 
BRANCH  19  20
ATOM     20  C   UNL     1      93.522  83.697  79.569  1.00  0.00     0.000 C 
BRANCH  20  21
ATOM     21  C   UNL     1      92.503  84.709  79.000  1.00  0.00     0.000 C 
BRANCH  21  22
ATOM     22  C   UNL     1      91.089  84.584  79.597  1.00  0.00    -0.000 C 
BRANCH  22  23
ATOM     23  C   UNL     1      91.092  83.963  81.006  1.00  0.00    -0.000 C 
BRANCH  23  24
ATOM     24  C   UNL     1      90.709  84.972  82.105  1.00  0.00    -0.000 C 
BRANCH  24  25
ATOM     25  C   UNL     1      91.217  86.411  81.880  1.00  0.00    -0.000 C 
BRANCH  25  26
ATOM     26  C   UNL     1      92.562  86.711  82.574  1.00  0.00    -0.000 C 
BRANCH  26  27
ATOM     27  C   UNL     1      92.794  85.809  83.797  1.00  0.00    -0.000 C 
BRANCH  27  28
ATOM     28  C   UNL     1      92.605  86.591  85.104  1.00  0.00    -0.000 C 
BRANCH  28  29
ATOM     29  C   UNL     1      93.850  86.548  86.005  1.00  0.00    -0.003 C 
ATOM     30  C   UNL     1      94.874  85.507  85.553  1.00  0.00     0.004 C 
ENDBRANCH  28  29
ENDBRANCH  27  28
ENDBRANCH  26  27
ENDBRANCH  25  26
ENDBRANCH  24  25
ENDBRANCH  23  24
ENDBRANCH  22  23
ENDBRANCH  21  22
ENDBRANCH  20  21
ENDBRANCH  19  20
ENDBRANCH  18  19
ENDBRANCH  17  18
ENDBRANCH   1  17
TORSDOF 26
ENDMDL
MODEL 3
REMARK VINA RESULT:    -4.485      2.304      8.023
REMARK INTER + INTRA:         -15.767
REMARK INTER:                 -11.048
REMARK INTRA:                  -4.719
REMARK UNBOUND:                -4.465
REMARK SMILES CCCCCCCCCCCCCCCCCCCCCCCCCCCC(=O)[O-]
REMARK SMILES IDX 15 1 16 2 17 3 18 4 19 5 20 6 21 7 22 8 23 9 24 10 25 11
REMARK SMILES IDX 26 12 27 13 28 14 29 15 30 16 14 17 13 18 12 19 11 20 10 21
REMARK SMILES IDX 9 22 8 23 7 24 6 25 5 26 4 27 3 28 2 29 1 30
REMARK H PARENT
REMARK Flexibility Score: inf
ROOT
ATOM      1  C   UNL     1      97.805  84.467  81.696  1.00  0.00     0.000 C 
ENDROOT
BRANCH   1   2
ATOM      2  C   UNL     1      98.403  85.605  80.848  1.00  0.00     0.000 C 
BRANCH   2   3
ATOM      3  C   UNL     1      97.729  86.978  81.028  1.00  0.00     0.000 C 
BRANCH   3   4
ATOM      4  C   UNL     1      96.711  87.297  79.920  1.00  0.00     0.000 C 
BRANCH   4   5
ATOM      5  C   UNL     1      95.350  86.613  80.142  1.00  0.00     0.000 C 
BRANCH   5   6
ATOM      6  C   UNL     1      95.026  85.459  79.171  1.00  0.00     0.000 C 
BRANCH   6   7
ATOM      7  C   UNL     1      94.595  84.139  79.839  1.00  0.00     0.000 C 
BRANCH   7   8
ATOM      8  C   UNL     1      93.199  83.630  79.437  1.00  0.00     0.000 C 
BRANCH   8   9
ATOM      9  C   UNL     1      92.267  84.759  78.968  1.00  0.00     0.000 C 
BRANCH   9  10
ATOM     10  C   UNL     1      91.043  84.944  79.883  1.00  0.00     0.000 C 
BRANCH  10  11
ATOM     11  C   UNL     1      91.009  84.042  81.135  1.00  0.00     0.000 C 
BRANCH  11  12
ATOM     12  C   UNL     1      91.047  84.788  82.480  1.00  0.00     0.006 C 
BRANCH  12  13
ATOM     13  C   UNL     1      92.389  85.485  82.735  1.00  0.00     0.053 C 
BRANCH  13  14
ATOM     14  C   UNL     1      92.395  86.129  84.086  1.00  0.00     0.041 C 
ATOM     15  O   UNL     1      92.450  85.423  85.126  1.00  0.00    -0.550 OA
ATOM     16  O   UNL     1      92.287  87.511  84.197  1.00  0.00    -0.550 OA
ENDBRANCH  13  14
ENDBRANCH  12  13
ENDBRANCH  11  12
ENDBRANCH  10  11
ENDBRANCH   9  10
ENDBRANCH   8   9
ENDBRANCH   7   8
ENDBRANCH   6   7
ENDBRANCH   5   6
ENDBRANCH   4   5
ENDBRANCH   3   4
ENDBRANCH   2   3
ENDBRANCH   1   2
BRANCH   1  17
ATOM     17  C   UNL     1      98.876  83.524  82.269  1.00  0.00     0.000 C 
BRANCH  17  18
ATOM     18  C   UNL     1     100.301  83.935  81.868  1.00  0.00     0.000 C 
BRANCH  18  19
ATOM     19  C   UNL     1     101.155  84.348  83.077  1.00  0.00     0.000 C 
BRANCH  19  20
ATOM     20  C   UNL     1     100.491  84.008  84.423  1.00  0.00     0.000 C 
BRANCH  20  21
ATOM     21  C   UNL     1     100.444  85.194  85.412  1.00  0.00     0.000 C 
BRANCH  21  22
ATOM     22  C   UNL     1     100.294  86.571  84.741  1.00  0.00    -0.000 C 
BRANCH  22  23
ATOM     23  C   UNL     1      99.953  87.687  85.746  1.00  0.00    -0.000 C 
BRANCH  23  24
ATOM     24  C   UNL     1      98.582  88.336  85.477  1.00  0.00    -0.000 C 
BRANCH  24  25
ATOM     25  C   UNL     1      97.768  87.698  84.333  1.00  0.00    -0.000 C 
BRANCH  25  26
ATOM     26  C   UNL     1      96.346  87.265  84.749  1.00  0.00    -0.000 C 
BRANCH  26  27
ATOM     27  C   UNL     1      96.092  85.775  84.472  1.00  0.00    -0.000 C 
BRANCH  27  28
ATOM     28  C   UNL     1      96.693  84.897  85.578  1.00  0.00    -0.000 C 
BRANCH  28  29
ATOM     29  C   UNL     1      96.442  85.461  86.985  1.00  0.00    -0.003 C 
ATOM     30  C   UNL     1      97.707  85.505  87.842  1.00  0.00     0.004 C 
ENDBRANCH  28  29
ENDBRANCH  27  28
ENDBRANCH  26  27
ENDBRANCH  25  26
ENDBRANCH  24  25
ENDBRANCH  23  24
ENDBRANCH  22  23
ENDBRANCH  21  22
ENDBRANCH  20  21
ENDBRANCH  19  20
ENDBRANCH  18  19
ENDBRANCH  17  18
ENDBRANCH   1  17
TORSDOF 26
ENDMDL
MODEL 4
REMARK VINA RESULT:    -4.387      1.018      5.978
REMARK INTER + INTRA:         -15.521
REMARK INTER:                 -11.111
REMARK INTRA:                  -4.410
REMARK UNBOUND:                -4.465
REMARK SMILES CCCCCCCCCCCCCCCCCCCCCCCCCCCC(=O)[O-]
REMARK SMILES IDX 15 1 16 2 17 3 18 4 19 5 20 6 21 7 22 8 23 9 24 10 25 11
REMARK SMILES IDX 26 12 27 13 28 14 29 15 30 16 14 17 13 18 12 19 11 20 10 21
REMARK SMILES IDX 9 22 8 23 7 24 6 25 5 26 4 27 3 28 2 29 1 30
REMARK H PARENT
REMARK Flexibility Score: inf
ROOT
ATOM      1  C   UNL     1      94.031  83.946  79.946  1.00  0.00     0.000 C 
ENDROOT
BRANCH   1   2
ATOM      2  C   UNL     1      93.109  84.723  78.988  1.00  0.00     0.000 C 
BRANCH   2   3
ATOM      3  C   UNL     1      91.614  84.700  79.356  1.00  0.00     0.000 C 
BRANCH   3   4
ATOM      4  C   UNL     1      91.350  84.130  80.760  1.00  0.00     0.000 C 
BRANCH   4   5
ATOM      5  C   UNL     1      90.968  85.213  81.785  1.00  0.00     0.000 C 
BRANCH   5   6
ATOM      6  C   UNL     1      91.734  86.545  81.653  1.00  0.00     0.000 C 
BRANCH   6   7
ATOM      7  C   UNL     1      92.532  86.970  82.901  1.00  0.00     0.000 C 
BRANCH   7   8
ATOM      8  C   UNL     1      93.427  85.875  83.508  1.00  0.00     0.000 C 
BRANCH   8   9
ATOM      9  C   UNL     1      94.679  86.443  84.196  1.00  0.00     0.000 C 
BRANCH   9  10
ATOM     10  C   UNL     1      95.044  85.692  85.489  1.00  0.00     0.000 C 
BRANCH  10  11
ATOM     11  C   UNL     1      96.546  85.396  85.682  1.00  0.00     0.000 C 
BRANCH  11  12
ATOM     12  C   UNL     1      97.081  85.627  87.106  1.00  0.00     0.006 C 
BRANCH  12  13
ATOM     13  C   UNL     1      98.547  86.079  87.125  1.00  0.00     0.053 C 
BRANCH  13  14
ATOM     14  C   UNL     1      99.357  85.188  88.014  1.00  0.00     0.041 C 
ATOM     15  O   UNL     1      99.259  85.281  89.265  1.00  0.00    -0.550 OA
ATOM     16  O   UNL     1     100.261  84.290  87.459  1.00  0.00    -0.550 OA
ENDBRANCH  13  14
ENDBRANCH  12  13
ENDBRANCH  11  12
ENDBRANCH  10  11
ENDBRANCH   9  10
ENDBRANCH   8   9
ENDBRANCH   7   8
ENDBRANCH   6   7
ENDBRANCH   5   6
ENDBRANCH   4   5
ENDBRANCH   3   4
ENDBRANCH   2   3
ENDBRANCH   1   2
BRANCH   1  17
ATOM     17  C   UNL     1      95.316  84.716  80.292  1.00  0.00     0.000 C 
BRANCH  17  18
ATOM     18  C   UNL     1      95.220  86.211  79.950  1.00  0.00     0.000 C 
BRANCH  18  19
ATOM     19  C   UNL     1      96.109  87.079  80.854  1.00  0.00     0.000 C 
BRANCH  19  20
ATOM     20  C   UNL     1      97.556  87.191  80.342  1.00  0.00     0.000 C 
BRANCH  20  21
ATOM     21  C   UNL     1      98.553  86.277  81.087  1.00  0.00     0.000 C 
BRANCH  21  22
ATOM     22  C   UNL     1      98.087  85.843  82.489  1.00  0.00    -0.000 C 
BRANCH  22  23
ATOM     23  C   UNL     1      97.901  84.318  82.607  1.00  0.00    -0.000 C 
BRANCH  23  24
ATOM     24  C   UNL     1      99.152  83.528  82.178  1.00  0.00    -0.000 C 
BRANCH  24  25
ATOM     25  C   UNL     1     100.346  83.613  83.151  1.00  0.00    -0.000 C 
BRANCH  25  26
ATOM     26  C   UNL     1     101.661  84.067  82.482  1.00  0.00    -0.000 C 
BRANCH  26  27
ATOM     27  C   UNL     1     102.340  85.206  83.259  1.00  0.00    -0.000 C 
BRANCH  27  28
ATOM     28  C   UNL     1     101.526  85.588  84.504  1.00  0.00    -0.000 C 
BRANCH  28  29
ATOM     29  C   UNL     1     100.928  87.000  84.410  1.00  0.00    -0.003 C 
ATOM     30  C   UNL     1     101.378  87.755  83.159  1.00  0.00     0.004 C 
ENDBRANCH  28  29
ENDBRANCH  27  28
ENDBRANCH  26  27
ENDBRANCH  25  26
ENDBRANCH  24  25
ENDBRANCH  23  24
ENDBRANCH  22  23
ENDBRANCH  21  22
ENDBRANCH  20  21
ENDBRANCH  19  20
ENDBRANCH  18  19
ENDBRANCH  17  18
ENDBRANCH   1  17
TORSDOF 26
ENDMDL
MODEL 5
REMARK VINA RESULT:    -4.344      2.450      6.593
REMARK INTER + INTRA:         -15.412
REMARK INTER:                 -11.026
REMARK INTRA:                  -4.386
REMARK UNBOUND:                -4.465
REMARK SMILES CCCCCCCCCCCCCCCCCCCCCCCCCCCC(=O)[O-]
REMARK SMILES IDX 15 1 16 2 17 3 18 4 19 5 20 6 21 7 22 8 23 9 24 10 25 11
REMARK SMILES IDX 26 12 27 13 28 14 29 15 30 16 14 17 13 18 12 19 11 20 10 21
REMARK SMILES IDX 9 22 8 23 7 24 6 25 5 26 4 27 3 28 2 29 1 30
REMARK H PARENT
REMARK Flexibility Score: inf
ROOT
ATOM      1  C   UNL     1     100.881  83.945  83.284  1.00  0.00     0.000 C 
ENDROOT
BRANCH   1   2
ATOM      2  C   UNL     1     101.918  85.080  83.366  1.00  0.00     0.000 C 
BRANCH   2   3
ATOM      3  C   UNL     1     101.335  86.504  83.317  1.00  0.00     0.000 C 
BRANCH   3   4
ATOM      4  C   UNL     1     100.968  87.051  84.708  1.00  0.00     0.000 C 
BRANCH   4   5
ATOM      5  C   UNL     1      99.487  86.833  85.067  1.00  0.00     0.000 C 
BRANCH   5   6
ATOM      6  C   UNL     1      99.220  85.746  86.128  1.00  0.00     0.000 C 
BRANCH   6   7
ATOM      7  C   UNL     1      97.828  85.088  86.058  1.00  0.00     0.000 C 
BRANCH   7   8
ATOM      8  C   UNL     1      96.737  85.778  86.895  1.00  0.00     0.000 C 
BRANCH   8   9
ATOM      9  C   UNL     1      95.745  86.579  86.036  1.00  0.00     0.000 C 
BRANCH   9  10
ATOM     10  C   UNL     1      95.281  85.812  84.785  1.00  0.00     0.000 C 
BRANCH  10  11
ATOM     11  C   UNL     1      94.850  86.689  83.591  1.00  0.00     0.000 C 
BRANCH  11  12
ATOM     12  C   UNL     1      93.665  86.146  82.774  1.00  0.00     0.006 C 
BRANCH  12  13
ATOM     13  C   UNL     1      92.306  86.596  83.326  1.00  0.00     0.053 C 
BRANCH  13  14
ATOM     14  C   UNL     1      91.693  85.513  84.157  1.00  0.00     0.041 C 
ATOM     15  O   UNL     1      91.125  84.535  83.606  1.00  0.00    -0.550 OA
ATOM     16  O   UNL     1      91.704  85.612  85.543  1.00  0.00    -0.550 OA
ENDBRANCH  13  14
ENDBRANCH  12  13
ENDBRANCH  11  12
ENDBRANCH  10  11
ENDBRANCH   9  10
ENDBRANCH   8   9
ENDBRANCH   7   8
ENDBRANCH   6   7
ENDBRANCH   5   6
ENDBRANCH   4   5
ENDBRANCH   3   4
ENDBRANCH   2   3
ENDBRANCH   1   2
BRANCH   1  17
ATOM     17  C   UNL     1     100.100  83.943  81.959  1.00  0.00     0.000 C 
BRANCH  17  18
ATOM     18  C   UNL     1      98.645  83.480  82.131  1.00  0.00     0.000 C 
BRANCH  18  19
ATOM     19  C   UNL     1      97.678  84.654  82.354  1.00  0.00     0.000 C 
BRANCH  19  20
ATOM     20  C   UNL     1      98.190  85.973  81.751  1.00  0.00     0.000 C 
BRANCH  20  21
ATOM     21  C   UNL     1      97.724  86.217  80.298  1.00  0.00     0.000 C 
BRANCH  21  22
ATOM     22  C   UNL     1      96.224  86.535  80.160  1.00  0.00    -0.000 C 
BRANCH  22  23
ATOM     23  C   UNL     1      95.491  85.548  79.232  1.00  0.00    -0.000 C 
BRANCH  23  24
ATOM     24  C   UNL     1      95.018  84.278  79.963  1.00  0.00    -0.000 C 
BRANCH  24  25
ATOM     25  C   UNL     1      93.710  83.662  79.426  1.00  0.00    -0.000 C 
BRANCH  25  26
ATOM     26  C   UNL     1      92.520  83.780  80.402  1.00  0.00    -0.000 C 
BRANCH  26  27
ATOM     27  C   UNL     1      91.395  84.661  79.836  1.00  0.00    -0.000 C 
BRANCH  27  28
ATOM     28  C   UNL     1      90.028  84.237  80.392  1.00  0.00    -0.000 C 
BRANCH  28  29
ATOM     29  C   UNL     1      88.965  85.337  80.251  1.00  0.00    -0.003 C 
ATOM     30  C   UNL     1      89.244  86.550  81.139  1.00  0.00     0.004 C 
ENDBRANCH  28  29
ENDBRANCH  27  28
ENDBRANCH  26  27
ENDBRANCH  25  26
ENDBRANCH  24  25
ENDBRANCH  23  24
ENDBRANCH  22  23
ENDBRANCH  21  22
ENDBRANCH  20  21
ENDBRANCH  19  20
ENDBRANCH  18  19
ENDBRANCH  17  18
ENDBRANCH   1  17
TORSDOF 26
ENDMDL
MODEL 6
REMARK VINA RESULT:    -4.341      2.576      5.229
REMARK INTER + INTRA:         -15.405
REMARK INTER:                 -10.447
REMARK INTRA:                  -4.958
REMARK UNBOUND:                -4.465
REMARK SMILES CCCCCCCCCCCCCCCCCCCCCCCCCCCC(=O)[O-]
REMARK SMILES IDX 15 1 16 2 17 3 18 4 19 5 20 6 21 7 22 8 23 9 24 10 25 11
REMARK SMILES IDX 26 12 27 13 28 14 29 15 30 16 14 17 13 18 12 19 11 20 10 21
REMARK SMILES IDX 9 22 8 23 7 24 6 25 5 26 4 27 3 28 2 29 1 30
REMARK H PARENT
REMARK Flexibility Score: inf
ROOT
ATOM      1  C   UNL     1      96.199  85.166  85.268  1.00  0.00     0.000 C 
ENDROOT
BRANCH   1   2
ATOM      2  C   UNL     1      97.463  86.019  85.053  1.00  0.00     0.000 C 
BRANCH   2   3
ATOM      3  C   UNL     1      98.788  85.334  85.437  1.00  0.00     0.000 C 
BRANCH   3   4
ATOM      4  C   UNL     1      99.898  85.549  84.394  1.00  0.00     0.000 C 
BRANCH   4   5
ATOM      5  C   UNL     1     100.655  84.253  84.049  1.00  0.00     0.000 C 
BRANCH   5   6
ATOM      6  C   UNL     1     100.769  83.938  82.543  1.00  0.00     0.000 C 
BRANCH   6   7
ATOM      7  C   UNL     1      99.491  84.194  81.720  1.00  0.00     0.000 C 
BRANCH   7   8
ATOM      8  C   UNL     1      98.333  83.217  81.994  1.00  0.00     0.000 C 
BRANCH   8   9
ATOM      9  C   UNL     1      96.951  83.867  81.812  1.00  0.00     0.000 C 
BRANCH   9  10
ATOM     10  C   UNL     1      97.034  85.372  81.500  1.00  0.00     0.000 C 
BRANCH  10  11
ATOM     11  C   UNL     1      96.326  85.820  80.205  1.00  0.00     0.000 C 
BRANCH  11  12
ATOM     12  C   UNL     1      96.581  87.281  79.792  1.00  0.00     0.006 C 
BRANCH  12  13
ATOM     13  C   UNL     1      97.778  87.904  80.521  1.00  0.00     0.053 C 
BRANCH  13  14
ATOM     14  C   UNL     1      97.433  89.274  81.016  1.00  0.00     0.041 C 
ATOM     15  O   UNL     1      96.419  89.450  81.740  1.00  0.00    -0.550 OA
ATOM     16  O   UNL     1      98.204  90.365  80.633  1.00  0.00    -0.550 OA
ENDBRANCH  13  14
ENDBRANCH  12  13
ENDBRANCH  11  12
ENDBRANCH  10  11
ENDBRANCH   9  10
ENDBRANCH   8   9
ENDBRANCH   7   8
ENDBRANCH   6   7
ENDBRANCH   5   6
ENDBRANCH   4   5
ENDBRANCH   3   4
ENDBRANCH   2   3
ENDBRANCH   1   2
BRANCH   1  17
ATOM     17  C   UNL     1      94.908  85.902  84.871  1.00  0.00     0.000 C 
BRANCH  17  18
ATOM     18  C   UNL     1      95.182  87.272  84.230  1.00  0.00     0.000 C 
BRANCH  18  19
ATOM     19  C   UNL     1      93.921  87.890  83.605  1.00  0.00     0.000 C 
BRANCH  19  20
ATOM     20  C   UNL     1      92.626  87.199  84.063  1.00  0.00     0.000 C 
BRANCH  20  21
ATOM     21  C   UNL     1      91.734  86.712  82.900  1.00  0.00     0.000 C 
BRANCH  21  22
ATOM     22  C   UNL     1      92.012  85.265  82.454  1.00  0.00    -0.000 C 
BRANCH  22  23
ATOM     23  C   UNL     1      93.195  85.164  81.472  1.00  0.00    -0.000 C 
BRANCH  23  24
ATOM     24  C   UNL     1      93.049  83.996  80.479  1.00  0.00    -0.000 C 
BRANCH  24  25
ATOM     25  C   UNL     1      92.926  84.407  78.997  1.00  0.00    -0.000 C 
BRANCH  25  26
ATOM     26  C   UNL     1      92.797  85.930  78.783  1.00  0.00    -0.000 C 
BRANCH  26  27
ATOM     27  C   UNL     1      91.415  86.320  78.236  1.00  0.00    -0.000 C 
BRANCH  27  28
ATOM     28  C   UNL     1      90.376  86.399  79.363  1.00  0.00    -0.000 C 
BRANCH  28  29
ATOM     29  C   UNL     1      89.231  85.388  79.185  1.00  0.00    -0.003 C 
ATOM     30  C   UNL     1      89.295  84.236  80.188  1.00  0.00     0.004 C 
ENDBRANCH  28  29
ENDBRANCH  27  28
ENDBRANCH  26  27
ENDBRANCH  25  26
ENDBRANCH  24  25
ENDBRANCH  23  24
ENDBRANCH  22  23
ENDBRANCH  21  22
ENDBRANCH  20  21
ENDBRANCH  19  20
ENDBRANCH  18  19
ENDBRANCH  17  18
ENDBRANCH   1  17
TORSDOF 26
ENDMDL
MODEL 7
REMARK VINA RESULT:    -4.265      3.164      8.383
REMARK INTER + INTRA:         -15.214
REMARK INTER:                 -10.501
REMARK INTRA:                  -4.713
REMARK UNBOUND:                -4.465
REMARK SMILES CCCCCCCCCCCCCCCCCCCCCCCCCCCC(=O)[O-]
REMARK SMILES IDX 15 1 16 2 17 3 18 4 19 5 20 6 21 7 22 8 23 9 24 10 25 11
REMARK SMILES IDX 26 12 27 13 28 14 29 15 30 16 14 17 13 18 12 19 11 20 10 21
REMARK SMILES IDX 9 22 8 23 7 24 6 25 5 26 4 27 3 28 2 29 1 30
REMARK H PARENT
REMARK Flexibility Score: inf
ROOT
ATOM      1  C   UNL     1      97.211  85.862  87.267  1.00  0.00     0.000 C 
ENDROOT
BRANCH   1   2
ATOM      2  C   UNL     1      97.384  85.118  85.930  1.00  0.00     0.000 C 
BRANCH   2   3
ATOM      3  C   UNL     1      96.601  85.711  84.744  1.00  0.00     0.000 C 
BRANCH   3   4
ATOM      4  C   UNL     1      97.137  87.081  84.296  1.00  0.00     0.000 C 
BRANCH   4   5
ATOM      5  C   UNL     1      98.583  87.018  83.772  1.00  0.00     0.000 C 
BRANCH   5   6
ATOM      6  C   UNL     1      98.735  87.144  82.242  1.00  0.00     0.000 C 
BRANCH   6   7
ATOM      7  C   UNL     1      97.442  87.492  81.480  1.00  0.00     0.000 C 
BRANCH   7   8
ATOM      8  C   UNL     1      96.901  86.376  80.569  1.00  0.00     0.000 C 
BRANCH   8   9
ATOM      9  C   UNL     1      95.752  85.585  81.216  1.00  0.00     0.000 C 
BRANCH   9  10
ATOM     10  C   UNL     1      95.327  84.360  80.387  1.00  0.00     0.000 C 
BRANCH  10  11
ATOM     11  C   UNL     1      94.490  84.669  79.128  1.00  0.00     0.000 C 
BRANCH  11  12
ATOM     12  C   UNL     1      93.018  84.223  79.196  1.00  0.00     0.006 C 
BRANCH  12  13
ATOM     13  C   UNL     1      92.443  84.283  80.617  1.00  0.00     0.053 C 
BRANCH  13  14
ATOM     14  C   UNL     1      90.970  84.540  80.574  1.00  0.00     0.041 C 
ATOM     15  O   UNL     1      90.318  84.327  79.519  1.00  0.00    -0.550 OA
ATOM     16  O   UNL     1      90.324  85.066  81.687  1.00  0.00    -0.550 OA
ENDBRANCH  13  14
ENDBRANCH  12  13
ENDBRANCH  11  12
ENDBRANCH  10  11
ENDBRANCH   9  10
ENDBRANCH   8   9
ENDBRANCH   7   8
ENDBRANCH   6   7
ENDBRANCH   5   6
ENDBRANCH   4   5
ENDBRANCH   3   4
ENDBRANCH   2   3
ENDBRANCH   1   2
BRANCH   1  17
ATOM     17  C   UNL     1      98.325  85.542  88.277  1.00  0.00     0.000 C 
BRANCH  17  18
ATOM     18  C   UNL     1      99.635  85.114  87.597  1.00  0.00     0.000 C 
BRANCH  18  19
ATOM     19  C   UNL     1     100.876  85.503  88.416  1.00  0.00     0.000 C 
BRANCH  19  20
ATOM     20  C   UNL     1     101.629  86.708  87.826  1.00  0.00     0.000 C 
BRANCH  20  21
ATOM     21  C   UNL     1     100.706  87.769  87.187  1.00  0.00     0.000 C 
BRANCH  21  22
ATOM     22  C   UNL     1     101.214  88.321  85.842  1.00  0.00    -0.000 C 
BRANCH  22  23
ATOM     23  C   UNL     1     102.467  87.584  85.334  1.00  0.00    -0.000 C 
BRANCH  23  24
ATOM     24  C   UNL     1     102.304  87.046  83.900  1.00  0.00    -0.000 C 
BRANCH  24  25
ATOM     25  C   UNL     1     102.452  85.518  83.752  1.00  0.00    -0.000 C 
BRANCH  25  26
ATOM     26  C   UNL     1     101.519  84.711  84.680  1.00  0.00    -0.000 C 
BRANCH  26  27
ATOM     27  C   UNL     1     100.371  84.044  83.906  1.00  0.00    -0.000 C 
BRANCH  27  28
ATOM     28  C   UNL     1     100.700  83.941  82.410  1.00  0.00    -0.000 C 
BRANCH  28  29
ATOM     29  C   UNL     1      99.459  83.655  81.550  1.00  0.00    -0.003 C 
ATOM     30  C   UNL     1      98.249  83.221  82.377  1.00  0.00     0.004 C 
ENDBRANCH  28  29
ENDBRANCH  27  28
ENDBRANCH  26  27
ENDBRANCH  25  26
ENDBRANCH  24  25
ENDBRANCH  23  24
ENDBRANCH  22  23
ENDBRANCH  21  22
ENDBRANCH  20  21
ENDBRANCH  19  20
ENDBRANCH  18  19
ENDBRANCH  17  18
ENDBRANCH   1  17
TORSDOF 26
ENDMDL
MODEL 8
REMARK VINA RESULT:    -4.259      1.974      7.458
REMARK INTER + INTRA:         -15.197
REMARK INTER:                 -10.742
REMARK INTRA:                  -4.455
REMARK UNBOUND:                -4.465
REMARK SMILES CCCCCCCCCCCCCCCCCCCCCCCCCCCC(=O)[O-]
REMARK SMILES IDX 15 1 16 2 17 3 18 4 19 5 20 6 21 7 22 8 23 9 24 10 25 11
REMARK SMILES IDX 26 12 27 13 28 14 29 15 30 16 14 17 13 18 12 19 11 20 10 21
REMARK SMILES IDX 9 22 8 23 7 24 6 25 5 26 4 27 3 28 2 29 1 30
REMARK H PARENT
REMARK Flexibility Score: inf
ROOT
ATOM      1  C   UNL     1      97.552  85.574  80.710  1.00  0.00     0.000 C 
ENDROOT
BRANCH   1   2
ATOM      2  C   UNL     1      96.242  86.256  80.275  1.00  0.00     0.000 C 
BRANCH   2   3
ATOM      3  C   UNL     1      95.409  85.476  79.242  1.00  0.00     0.000 C 
BRANCH   3   4
ATOM      4  C   UNL     1      94.666  84.275  79.852  1.00  0.00     0.000 C 
BRANCH   4   5
ATOM      5  C   UNL     1      93.388  83.905  79.078  1.00  0.00     0.000 C 
BRANCH   5   6
ATOM      6  C   UNL     1      92.369  85.049  78.902  1.00  0.00     0.000 C 
BRANCH   6   7
ATOM      7  C   UNL     1      90.916  84.700  79.282  1.00  0.00     0.000 C 
BRANCH   7   8
ATOM      8  C   UNL     1      90.735  84.102  80.688  1.00  0.00     0.000 C 
BRANCH   8   9
ATOM      9  C   UNL     1      90.020  85.061  81.655  1.00  0.00     0.000 C 
BRANCH   9  10
ATOM     10  C   UNL     1      90.935  85.568  82.783  1.00  0.00     0.000 C 
BRANCH  10  11
ATOM     11  C   UNL     1      92.026  86.570  82.351  1.00  0.00     0.000 C 
BRANCH  11  12
ATOM     12  C   UNL     1      93.472  86.121  82.627  1.00  0.00     0.006 C 
BRANCH  12  13
ATOM     13  C   UNL     1      94.081  86.801  83.860  1.00  0.00     0.053 C 
BRANCH  13  14
ATOM     14  C   UNL     1      94.074  85.867  85.029  1.00  0.00     0.041 C 
ATOM     15  O   UNL     1      92.997  85.599  85.621  1.00  0.00    -0.550 OA
ATOM     16  O   UNL     1      95.269  85.333  85.498  1.00  0.00    -0.550 OA
ENDBRANCH  13  14
ENDBRANCH  12  13
ENDBRANCH  11  12
ENDBRANCH  10  11
ENDBRANCH   9  10
ENDBRANCH   8   9
ENDBRANCH   7   8
ENDBRANCH   6   7
ENDBRANCH   5   6
ENDBRANCH   4   5
ENDBRANCH   3   4
ENDBRANCH   2   3
ENDBRANCH   1   2
BRANCH   1  17
ATOM     17  C   UNL     1      97.379  84.684  81.951  1.00  0.00     0.000 C 
BRANCH  17  18
ATOM     18  C   UNL     1      98.386  83.524  81.992  1.00  0.00     0.000 C 
BRANCH  18  19
ATOM     19  C   UNL     1      99.835  83.997  81.798  1.00  0.00     0.000 C 
BRANCH  19  20
ATOM     20  C   UNL     1     100.645  83.996  83.106  1.00  0.00     0.000 C 
BRANCH  20  21
ATOM     21  C   UNL     1     101.181  85.388  83.509  1.00  0.00     0.000 C 
BRANCH  21  22
ATOM     22  C   UNL     1     100.337  86.565  82.986  1.00  0.00    -0.000 C 
BRANCH  22  23
ATOM     23  C   UNL     1      99.746  87.421  84.122  1.00  0.00    -0.000 C 
BRANCH  23  24
ATOM     24  C   UNL     1      98.285  87.059  84.446  1.00  0.00    -0.000 C 
BRANCH  24  25
ATOM     25  C   UNL     1      97.379  88.253  84.811  1.00  0.00    -0.000 C 
BRANCH  25  26
ATOM     26  C   UNL     1      97.404  89.393  83.772  1.00  0.00    -0.000 C 
BRANCH  26  27
ATOM     27  C   UNL     1      96.781  88.968  82.433  1.00  0.00    -0.000 C 
BRANCH  27  28
ATOM     28  C   UNL     1      97.301  89.837  81.280  1.00  0.00    -0.000 C 
BRANCH  28  29
ATOM     29  C   UNL     1      98.514  89.215  80.570  1.00  0.00    -0.003 C 
ATOM     30  C   UNL     1      98.840  89.898  79.242  1.00  0.00     0.004 C 
ENDBRANCH  28  29
ENDBRANCH  27  28
ENDBRANCH  26  27
ENDBRANCH  25  26
ENDBRANCH  24  25
ENDBRANCH  23  24
ENDBRANCH  22  23
ENDBRANCH  21  22
ENDBRANCH  20  21
ENDBRANCH  19  20
ENDBRANCH  18  19
ENDBRANCH  17  18
ENDBRANCH   1  17
TORSDOF 26
ENDMDL
MODEL 9
REMARK VINA RESULT:    -4.243      2.768      4.841
REMARK INTER + INTRA:         -15.158
REMARK INTER:                 -10.934
REMARK INTRA:                  -4.224
REMARK UNBOUND:                -4.465
REMARK SMILES CCCCCCCCCCCCCCCCCCCCCCCCCCCC(=O)[O-]
REMARK SMILES IDX 15 1 16 2 17 3 18 4 19 5 20 6 21 7 22 8 23 9 24 10 25 11
REMARK SMILES IDX 26 12 27 13 28 14 29 15 30 16 14 17 13 18 12 19 11 20 10 21
REMARK SMILES IDX 9 22 8 23 7 24 6 25 5 26 4 27 3 28 2 29 1 30
REMARK H PARENT
REMARK Flexibility Score: inf
ROOT
ATOM      1  C   UNL     1      96.061  86.482  79.234  1.00  0.00     0.000 C 
ENDROOT
BRANCH   1   2
ATOM      2  C   UNL     1      96.730  86.551  80.619  1.00  0.00     0.000 C 
BRANCH   2   3
ATOM      3  C   UNL     1      97.837  85.509  80.864  1.00  0.00     0.000 C 
BRANCH   3   4
ATOM      4  C   UNL     1      97.417  84.407  81.850  1.00  0.00     0.000 C 
BRANCH   4   5
ATOM      5  C   UNL     1      98.573  83.459  82.219  1.00  0.00     0.000 C 
BRANCH   5   6
ATOM      6  C   UNL     1      99.988  84.029  81.998  1.00  0.00     0.000 C 
BRANCH   6   7
ATOM      7  C   UNL     1     100.904  84.012  83.238  1.00  0.00     0.000 C 
BRANCH   7   8
ATOM      8  C   UNL     1     101.334  85.399  83.749  1.00  0.00     0.000 C 
BRANCH   8   9
ATOM      9  C   UNL     1     100.640  86.550  83.003  1.00  0.00     0.000 C 
BRANCH   9  10
ATOM     10  C   UNL     1     101.481  87.838  82.973  1.00  0.00     0.000 C 
BRANCH  10  11
ATOM     11  C   UNL     1     101.115  88.844  81.863  1.00  0.00     0.000 C 
BRANCH  11  12
ATOM     12  C   UNL     1      99.730  88.636  81.224  1.00  0.00     0.006 C 
BRANCH  12  13
ATOM     13  C   UNL     1      99.445  89.627  80.088  1.00  0.00     0.053 C 
BRANCH  13  14
ATOM     14  C   UNL     1      99.588  91.035  80.573  1.00  0.00     0.041 C 
ATOM     15  O   UNL     1     100.493  91.778  80.113  1.00  0.00    -0.550 OA
ATOM     16  O   UNL     1      98.751  91.512  81.576  1.00  0.00    -0.550 OA
ENDBRANCH  13  14
ENDBRANCH  12  13
ENDBRANCH  11  12
ENDBRANCH  10  11
ENDBRANCH   9  10
ENDBRANCH   8   9
ENDBRANCH   7   8
ENDBRANCH   6   7
ENDBRANCH   5   6
ENDBRANCH   4   5
ENDBRANCH   3   4
ENDBRANCH   2   3
ENDBRANCH   1   2
BRANCH   1  17
ATOM     17  C   UNL     1      94.639  85.899  79.286  1.00  0.00     0.000 C 
BRANCH  17  18
ATOM     18  C   UNL     1      94.632  84.365  79.377  1.00  0.00     0.000 C 
BRANCH  18  19
ATOM     19  C   UNL     1      93.210  83.782  79.361  1.00  0.00     0.000 C 
BRANCH  19  20
ATOM     20  C   UNL     1      92.142  84.821  78.977  1.00  0.00     0.000 C 
BRANCH  20  21
ATOM     21  C   UNL     1      90.845  84.720  79.810  1.00  0.00     0.000 C 
BRANCH  21  22
ATOM     22  C   UNL     1      91.074  84.389  81.296  1.00  0.00    -0.000 C 
BRANCH  22  23
ATOM     23  C   UNL     1      91.455  85.628  82.128  1.00  0.00    -0.000 C 
BRANCH  23  24
ATOM     24  C   UNL     1      92.894  85.564  82.672  1.00  0.00    -0.000 C 
BRANCH  24  25
ATOM     25  C   UNL     1      93.681  86.888  82.601  1.00  0.00    -0.000 C 
BRANCH  25  26
ATOM     26  C   UNL     1      94.661  87.093  83.776  1.00  0.00    -0.000 C 
BRANCH  26  27
ATOM     27  C   UNL     1      94.496  86.015  84.859  1.00  0.00    -0.000 C 
BRANCH  27  28
ATOM     28  C   UNL     1      95.802  85.236  85.067  1.00  0.00    -0.000 C 
BRANCH  28  29
ATOM     29  C   UNL     1      96.833  86.020  85.895  1.00  0.00    -0.003 C 
ATOM     30  C   UNL     1      98.262  85.513  85.698  1.00  0.00     0.004 C 
ENDBRANCH  28  29
ENDBRANCH  27  28
ENDBRANCH  26  27
ENDBRANCH  25  26
ENDBRANCH  24  25
ENDBRANCH  23  24
ENDBRANCH  22  23
ENDBRANCH  21  22
ENDBRANCH  20  21
ENDBRANCH  19  20
ENDBRANCH  18  19
ENDBRANCH  17  18
ENDBRANCH   1  17
TORSDOF 26
ENDMDL
