MODEL 1
REMARK VINA RESULT:    -3.646      0.000      0.000
REMARK INTER + INTRA:          -7.148
REMARK INTER:                  -5.778
REMARK INTRA:                  -1.370
REMARK UNBOUND:                -1.370
REMARK SMILES CCCCCCCCCCCC(=O)[O-]
REMARK SMILES IDX 7 1 8 2 9 3 10 4 11 5 12 6 13 7 14 8 6 9 5 10 4 11 3 12 2 13
REMARK SMILES IDX 1 14
REMARK H PARENT
REMARK Flexibility Score: inf
ROOT
ATOM      1  C   UNL     1      22.901  34.837  11.728  1.00  0.00     0.000 C 
ENDROOT
BRANCH   1   2
ATOM      2  C   UNL     1      22.508  34.353  13.135  1.00  0.00     0.000 C 
BRANCH   2   3
ATOM      3  C   UNL     1      22.590  35.472  14.186  1.00  0.00     0.000 C 
BRANCH   3   4
ATOM      4  C   UNL     1      23.660  36.524  13.847  1.00  0.00     0.006 C 
BRANCH   4   5
ATOM      5  C   UNL     1      23.704  37.658  14.879  1.00  0.00     0.053 C 
BRANCH   5   6
ATOM      6  C   UNL     1      24.237  38.926  14.285  1.00  0.00     0.041 C 
ATOM      7  O   UNL     1      24.091  39.162  13.057  1.00  0.00    -0.550 OA
ATOM      8  O   UNL     1      24.925  39.832  15.083  1.00  0.00    -0.550 OA
ENDBRANCH   5   6
ENDBRANCH   4   5
ENDBRANCH   3   4
ENDBRANCH   2   3
ENDBRANCH   1   2
BRANCH   1   9
ATOM      9  C   UNL     1      23.712  33.790  10.946  1.00  0.00     0.000 C 
BRANCH   9  10
ATOM     10  C   UNL     1      24.656  32.980  11.851  1.00  0.00    -0.000 C 
BRANCH  10  11
ATOM     11  C   UNL     1      26.123  33.427  11.725  1.00  0.00    -0.000 C 
BRANCH  11  12
ATOM     12  C   UNL     1      26.587  34.270  12.926  1.00  0.00    -0.000 C 
BRANCH  12  13
ATOM     13  C   UNL     1      26.089  33.706  14.267  1.00  0.00    -0.003 C 
ATOM     14  C   UNL     1      26.438  34.604  15.454  1.00  0.00     0.004 C 
ENDBRANCH  12  13
ENDBRANCH  11  12
ENDBRANCH  10  11
ENDBRANCH   9  10
ENDBRANCH   1   9
TORSDOF 10
ENDMDL
MODEL 2
REMARK VINA RESULT:    -3.631      0.855      1.718
REMARK INTER + INTRA:          -7.123
REMARK INTER:                  -6.172
REMARK INTRA:                  -0.951
REMARK UNBOUND:                -1.370
REMARK SMILES CCCCCCCCCCCC(=O)[O-]
REMARK SMILES IDX 7 1 8 2 9 3 10 4 11 5 12 6 13 7 14 8 6 9 5 10 4 11 3 12 2 13
REMARK SMILES IDX 1 14
REMARK H PARENT
REMARK Flexibility Score: inf
ROOT
ATOM      1  C   UNL     1      22.538  34.570  12.735  1.00  0.00     0.000 C 
ENDROOT
BRANCH   1   2
ATOM      2  C   UNL     1      23.227  35.753  13.438  1.00  0.00     0.000 C 
BRANCH   2   3
ATOM      3  C   UNL     1      22.743  35.940  14.885  1.00  0.00     0.000 C 
BRANCH   3   4
ATOM      4  C   UNL     1      22.716  37.418  15.313  1.00  0.00     0.006 C 
BRANCH   4   5
ATOM      5  C   UNL     1      24.113  37.942  15.669  1.00  0.00     0.053 C 
BRANCH   5   6
ATOM      6  C   UNL     1      24.462  39.168  14.882  1.00  0.00     0.041 C 
ATOM      7  O   UNL     1      25.184  40.065  15.392  1.00  0.00    -0.550 OA
ATOM      8  O   UNL     1      23.961  39.335  13.597  1.00  0.00    -0.550 OA
ENDBRANCH   5   6
ENDBRANCH   4   5
ENDBRANCH   3   4
ENDBRANCH   2   3
ENDBRANCH   1   2
BRANCH   1   9
ATOM      9  C   UNL     1      22.792  34.551  11.219  1.00  0.00     0.000 C 
BRANCH   9  10
ATOM     10  C   UNL     1      24.037  33.731  10.840  1.00  0.00    -0.000 C 
BRANCH  10  11
ATOM     11  C   UNL     1      24.286  32.556  11.801  1.00  0.00    -0.000 C 
BRANCH  11  12
ATOM     12  C   UNL     1      25.778  32.372  12.132  1.00  0.00    -0.000 C 
BRANCH  12  13
ATOM     13  C   UNL     1      26.540  33.706  12.171  1.00  0.00    -0.003 C 
ATOM     14  C   UNL     1      26.530  34.356  13.555  1.00  0.00     0.004 C 
ENDBRANCH  12  13
ENDBRANCH  11  12
ENDBRANCH  10  11
ENDBRANCH   9  10
ENDBRANCH   1   9
TORSDOF 10
ENDMDL
MODEL 3
REMARK VINA RESULT:    -3.549      0.853      2.832
REMARK INTER + INTRA:          -6.994
REMARK INTER:                  -5.814
REMARK INTRA:                  -1.180
REMARK UNBOUND:                -1.370
REMARK SMILES CCCCCCCCCCCC(=O)[O-]
REMARK SMILES IDX 7 1 8 2 9 3 10 4 11 5 12 6 13 7 14 8 6 9 5 10 4 11 3 12 2 13
REMARK SMILES IDX 1 14
REMARK H PARENT
REMARK Flexibility Score: inf
ROOT
ATOM      1  C   UNL     1      26.652  34.622  13.210  1.00  0.00     0.000 C 
ENDROOT
BRANCH   1   2
ATOM      2  C   UNL     1      26.054  34.164  14.551  1.00  0.00     0.000 C 
BRANCH   2   3
ATOM      3  C   UNL     1      24.958  35.114  15.062  1.00  0.00     0.000 C 
BRANCH   3   4
ATOM      4  C   UNL     1      24.830  36.384  14.204  1.00  0.00     0.006 C 
BRANCH   4   5
ATOM      5  C   UNL     1      24.042  37.489  14.919  1.00  0.00     0.053 C 
BRANCH   5   6
ATOM      6  C   UNL     1      24.340  38.841  14.347  1.00  0.00     0.041 C 
ATOM      7  O   UNL     1      24.198  39.052  13.113  1.00  0.00    -0.550 OA
ATOM      8  O   UNL     1      24.806  39.858  15.171  1.00  0.00    -0.550 OA
ENDBRANCH   5   6
ENDBRANCH   4   5
ENDBRANCH   3   4
ENDBRANCH   2   3
ENDBRANCH   1   2
BRANCH   1   9
ATOM      9  C   UNL     1      26.599  33.528  12.132  1.00  0.00     0.000 C 
BRANCH   9  10
ATOM     10  C   UNL     1      25.693  32.350  12.532  1.00  0.00    -0.000 C 
BRANCH  10  11
ATOM     11  C   UNL     1      24.322  32.396  11.837  1.00  0.00    -0.000 C 
BRANCH  11  12
ATOM     12  C   UNL     1      24.238  33.504  10.772  1.00  0.00    -0.000 C 
BRANCH  12  13
ATOM     13  C   UNL     1      22.973  34.364  10.918  1.00  0.00    -0.003 C 
ATOM     14  C   UNL     1      22.508  34.497  12.368  1.00  0.00     0.004 C 
ENDBRANCH  12  13
ENDBRANCH  11  12
ENDBRANCH  10  11
ENDBRANCH   9  10
ENDBRANCH   1   9
TORSDOF 10
ENDMDL
MODEL 4
REMARK VINA RESULT:    -3.486      2.887      5.616
REMARK INTER + INTRA:          -6.894
REMARK INTER:                  -6.008
REMARK INTRA:                  -0.886
REMARK UNBOUND:                -1.370
REMARK SMILES CCCCCCCCCCCC(=O)[O-]
REMARK SMILES IDX 7 1 8 2 9 3 10 4 11 5 12 6 13 7 14 8 6 9 5 10 4 11 3 12 2 13
REMARK SMILES IDX 1 14
REMARK H PARENT
REMARK Flexibility Score: inf
ROOT
ATOM      1  C   UNL     1      23.838  35.468  13.489  1.00  0.00     0.000 C 
ENDROOT
BRANCH   1   2
ATOM      2  C   UNL     1      24.791  34.361  13.973  1.00  0.00     0.000 C 
BRANCH   2   3
ATOM      3  C   UNL     1      26.235  34.575  13.491  1.00  0.00     0.000 C 
BRANCH   3   4
ATOM      4  C   UNL     1      26.524  33.866  12.156  1.00  0.00     0.006 C 
BRANCH   4   5
ATOM      5  C   UNL     1      25.667  32.607  11.973  1.00  0.00     0.053 C 
BRANCH   5   6
ATOM      6  C   UNL     1      24.880  32.654  10.698  1.00  0.00     0.041 C 
ATOM      7  O   UNL     1      25.054  31.774   9.813  1.00  0.00    -0.550 OA
ATOM      8  O   UNL     1      23.980  33.688  10.474  1.00  0.00    -0.550 OA
ENDBRANCH   5   6
ENDBRANCH   4   5
ENDBRANCH   3   4
ENDBRANCH   2   3
ENDBRANCH   1   2
BRANCH   1   9
ATOM      9  C   UNL     1      22.476  35.431  14.201  1.00  0.00     0.000 C 
BRANCH   9  10
ATOM     10  C   UNL     1      22.490  36.189  15.540  1.00  0.00    -0.000 C 
BRANCH  10  11
ATOM     11  C   UNL     1      22.644  37.709  15.356  1.00  0.00    -0.000 C 
BRANCH  11  12
ATOM     12  C   UNL     1      24.022  38.221  15.813  1.00  0.00    -0.000 C 
BRANCH  12  13
ATOM     13  C   UNL     1      24.582  39.309  14.882  1.00  0.00    -0.003 C 
ATOM     14  C   UNL     1      24.063  39.189  13.449  1.00  0.00     0.004 C 
ENDBRANCH  12  13
ENDBRANCH  11  12
ENDBRANCH  10  11
ENDBRANCH   9  10
ENDBRANCH   1   9
TORSDOF 10
ENDMDL
MODEL 5
REMARK VINA RESULT:    -3.452      1.159      1.651
REMARK INTER + INTRA:          -6.840
REMARK INTER:                  -5.439
REMARK INTRA:                  -1.401
REMARK UNBOUND:                -1.370
REMARK SMILES CCCCCCCCCCCC(=O)[O-]
REMARK SMILES IDX 7 1 8 2 9 3 10 4 11 5 12 6 13 7 14 8 6 9 5 10 4 11 3 12 2 13
REMARK SMILES IDX 1 14
REMARK H PARENT
REMARK Flexibility Score: inf
ROOT
ATOM      1  C   UNL     1      23.858  33.698  10.875  1.00  0.00     0.000 C 
ENDROOT
BRANCH   1   2
ATOM      2  C   UNL     1      22.872  34.631  11.598  1.00  0.00     0.000 C 
BRANCH   2   3
ATOM      3  C   UNL     1      22.632  34.217  13.059  1.00  0.00     0.000 C 
BRANCH   3   4
ATOM      4  C   UNL     1      22.468  35.426  13.997  1.00  0.00     0.006 C 
BRANCH   4   5
ATOM      5  C   UNL     1      23.617  36.432  13.851  1.00  0.00     0.053 C 
BRANCH   5   6
ATOM      6  C   UNL     1      23.426  37.623  14.739  1.00  0.00     0.041 C 
ATOM      7  O   UNL     1      24.191  38.618  14.638  1.00  0.00    -0.550 OA
ATOM      8  O   UNL     1      22.424  37.620  15.701  1.00  0.00    -0.550 OA
ENDBRANCH   5   6
ENDBRANCH   4   5
ENDBRANCH   3   4
ENDBRANCH   2   3
ENDBRANCH   1   2
BRANCH   1   9
ATOM      9  C   UNL     1      24.312  32.520  11.752  1.00  0.00     0.000 C 
BRANCH   9  10
ATOM     10  C   UNL     1      25.841  32.460  11.914  1.00  0.00    -0.000 C 
BRANCH  10  11
ATOM     11  C   UNL     1      26.473  33.854  12.069  1.00  0.00    -0.000 C 
BRANCH  11  12
ATOM     12  C   UNL     1      26.567  34.299  13.539  1.00  0.00    -0.000 C 
BRANCH  12  13
ATOM     13  C   UNL     1      26.215  33.167  14.519  1.00  0.00    -0.003 C 
ATOM     14  C   UNL     1      25.330  33.635  15.674  1.00  0.00     0.004 C 
ENDBRANCH  12  13
ENDBRANCH  11  12
ENDBRANCH  10  11
ENDBRANCH   9  10
ENDBRANCH   1   9
TORSDOF 10
ENDMDL
MODEL 6
REMARK VINA RESULT:    -3.358      2.398      4.849
REMARK INTER + INTRA:          -6.690
REMARK INTER:                  -5.732
REMARK INTRA:                  -0.958
REMARK UNBOUND:                -1.370
REMARK SMILES CCCCCCCCCCCC(=O)[O-]
REMARK SMILES IDX 7 1 8 2 9 3 10 4 11 5 12 6 13 7 14 8 6 9 5 10 4 11 3 12 2 13
REMARK SMILES IDX 1 14
REMARK H PARENT
REMARK Flexibility Score: inf
ROOT
ATOM      1  C   UNL     1      23.023  35.396  12.673  1.00  0.00     0.000 C 
ENDROOT
BRANCH   1   2
ATOM      2  C   UNL     1      22.769  34.461  11.477  1.00  0.00     0.000 C 
BRANCH   2   3
ATOM      3  C   UNL     1      24.030  33.689  11.055  1.00  0.00     0.000 C 
BRANCH   3   4
ATOM      4  C   UNL     1      24.404  32.579  12.053  1.00  0.00     0.006 C 
BRANCH   4   5
ATOM      5  C   UNL     1      25.922  32.452  12.233  1.00  0.00     0.053 C 
BRANCH   5   6
ATOM      6  C   UNL     1      26.546  33.759  12.616  1.00  0.00     0.041 C 
ATOM      7  O   UNL     1      27.414  34.289  11.874  1.00  0.00    -0.550 OA
ATOM      8  O   UNL     1      26.192  34.375  13.810  1.00  0.00    -0.550 OA
ENDBRANCH   5   6
ENDBRANCH   4   5
ENDBRANCH   3   4
ENDBRANCH   2   3
ENDBRANCH   1   2
BRANCH   1   9
ATOM      9  C   UNL     1      22.201  35.009  13.912  1.00  0.00     0.000 C 
BRANCH   9  10
ATOM     10  C   UNL     1      22.186  36.119  14.979  1.00  0.00    -0.000 C 
BRANCH  10  11
ATOM     11  C   UNL     1      23.467  36.137  15.830  1.00  0.00    -0.000 C 
BRANCH  11  12
ATOM     12  C   UNL     1      24.313  37.400  15.595  1.00  0.00    -0.000 C 
BRANCH  12  13
ATOM     13  C   UNL     1      23.562  38.467  14.781  1.00  0.00    -0.003 C 
ATOM     14  C   UNL     1      24.338  38.927  13.547  1.00  0.00     0.004 C 
ENDBRANCH  12  13
ENDBRANCH  11  12
ENDBRANCH  10  11
ENDBRANCH   9  10
ENDBRANCH   1   9
TORSDOF 10
ENDMDL
MODEL 7
REMARK VINA RESULT:    -3.258      1.277      3.154
REMARK INTER + INTRA:          -6.533
REMARK INTER:                  -5.760
REMARK INTRA:                  -0.773
REMARK UNBOUND:                -1.370
REMARK SMILES CCCCCCCCCCCC(=O)[O-]
REMARK SMILES IDX 7 1 8 2 9 3 10 4 11 5 12 6 13 7 14 8 6 9 5 10 4 11 3 12 2 13
REMARK SMILES IDX 1 14
REMARK H PARENT
REMARK Flexibility Score: inf
ROOT
ATOM      1  C   UNL     1      25.976  34.735  14.091  1.00  0.00     0.000 C 
ENDROOT
BRANCH   1   2
ATOM      2  C   UNL     1      24.768  35.160  14.944  1.00  0.00     0.000 C 
BRANCH   2   3
ATOM      3  C   UNL     1      23.628  35.750  14.098  1.00  0.00     0.000 C 
BRANCH   3   4
ATOM      4  C   UNL     1      23.039  37.032  14.712  1.00  0.00     0.006 C 
BRANCH   4   5
ATOM      5  C   UNL     1      24.099  37.860  15.449  1.00  0.00     0.053 C 
BRANCH   5   6
ATOM      6  C   UNL     1      24.468  39.095  14.684  1.00  0.00     0.041 C 
ATOM      7  O   UNL     1      25.086  40.033  15.253  1.00  0.00    -0.550 OA
ATOM      8  O   UNL     1      24.098  39.224  13.351  1.00  0.00    -0.550 OA
ENDBRANCH   5   6
ENDBRANCH   4   5
ENDBRANCH   3   4
ENDBRANCH   2   3
ENDBRANCH   1   2
BRANCH   1   9
ATOM      9  C   UNL     1      26.197  33.213  14.092  1.00  0.00     0.000 C 
BRANCH   9  10
ATOM     10  C   UNL     1      26.317  32.635  12.671  1.00  0.00    -0.000 C 
BRANCH  10  11
ATOM     11  C   UNL     1      25.918  33.648  11.585  1.00  0.00    -0.000 C 
BRANCH  11  12
ATOM     12  C   UNL     1      24.654  33.222  10.817  1.00  0.00    -0.000 C 
BRANCH  12  13
ATOM     13  C   UNL     1      24.519  31.694  10.710  1.00  0.00    -0.003 C 
ATOM     14  C   UNL     1      24.727  31.178   9.286  1.00  0.00     0.004 C 
ENDBRANCH  12  13
ENDBRANCH  11  12
ENDBRANCH  10  11
ENDBRANCH   9  10
ENDBRANCH   1   9
TORSDOF 10
ENDMDL
MODEL 8
REMARK VINA RESULT:    -3.022      2.993      5.010
REMARK INTER + INTRA:          -6.159
REMARK INTER:                  -5.151
REMARK INTRA:                  -1.008
REMARK UNBOUND:                -1.370
REMARK SMILES CCCCCCCCCCCC(=O)[O-]
REMARK SMILES IDX 7 1 8 2 9 3 10 4 11 5 12 6 13 7 14 8 6 9 5 10 4 11 3 12 2 13
REMARK SMILES IDX 1 14
REMARK H PARENT
REMARK Flexibility Score: inf
ROOT
ATOM      1  C   UNL     1      23.178  34.284  11.278  1.00  0.00     0.000 C 
ENDROOT
BRANCH   1   2
ATOM      2  C   UNL     1      24.101  33.137  11.726  1.00  0.00     0.000 C 
BRANCH   2   3
ATOM      3  C   UNL     1      25.548  33.321  11.240  1.00  0.00     0.000 C 
BRANCH   3   4
ATOM      4  C   UNL     1      26.577  33.157  12.372  1.00  0.00     0.006 C 
BRANCH   4   5
ATOM      5  C   UNL     1      26.286  31.929  13.244  1.00  0.00     0.053 C 
BRANCH   5   6
ATOM      6  C   UNL     1      26.099  32.303  14.683  1.00  0.00     0.041 C 
ATOM      7  O   UNL     1      26.685  33.312  15.157  1.00  0.00    -0.550 OA
ATOM      8  O   UNL     1      25.304  31.517  15.508  1.00  0.00    -0.550 OA
ENDBRANCH   5   6
ENDBRANCH   4   5
ENDBRANCH   3   4
ENDBRANCH   2   3
ENDBRANCH   1   2
BRANCH   1   9
ATOM      9  C   UNL     1      22.834  35.251  12.422  1.00  0.00     0.000 C 
BRANCH   9  10
ATOM     10  C   UNL     1      23.584  34.913  13.723  1.00  0.00    -0.000 C 
BRANCH  10  11
ATOM     11  C   UNL     1      24.695  35.928  14.045  1.00  0.00    -0.000 C 
BRANCH  11  12
ATOM     12  C   UNL     1      24.311  36.879  15.191  1.00  0.00    -0.000 C 
BRANCH  12  13
ATOM     13  C   UNL     1      23.593  38.143  14.691  1.00  0.00    -0.003 C 
ATOM     14  C   UNL     1      24.364  38.865  13.586  1.00  0.00     0.004 C 
ENDBRANCH  12  13
ENDBRANCH  11  12
ENDBRANCH  10  11
ENDBRANCH   9  10
ENDBRANCH   1   9
TORSDOF 10
ENDMDL
MODEL 9
REMARK VINA RESULT:    -2.993      3.651      5.207
REMARK INTER + INTRA:          -6.113
REMARK INTER:                  -4.807
REMARK INTRA:                  -1.305
REMARK UNBOUND:                -1.370
REMARK SMILES CCCCCCCCCCCC(=O)[O-]
REMARK SMILES IDX 7 1 8 2 9 3 10 4 11 5 12 6 13 7 14 8 6 9 5 10 4 11 3 12 2 13
REMARK SMILES IDX 1 14
REMARK H PARENT
REMARK Flexibility Score: inf
ROOT
ATOM      1  C   UNL     1      21.859  34.546  13.987  1.00  0.00     0.000 C 
ENDROOT
BRANCH   1   2
ATOM      2  C   UNL     1      22.727  33.845  12.927  1.00  0.00     0.000 C 
BRANCH   2   3
ATOM      3  C   UNL     1      22.837  34.656  11.626  1.00  0.00     0.000 C 
BRANCH   3   4
ATOM      4  C   UNL     1      23.600  33.902  10.523  1.00  0.00     0.006 C 
BRANCH   4   5
ATOM      5  C   UNL     1      24.907  33.288  11.039  1.00  0.00     0.053 C 
BRANCH   5   6
ATOM      6  C   UNL     1      25.068  31.868  10.591  1.00  0.00     0.041 C 
ATOM      7  O   UNL     1      25.672  31.037  11.320  1.00  0.00    -0.550 OA
ATOM      8  O   UNL     1      24.580  31.470   9.352  1.00  0.00    -0.550 OA
ENDBRANCH   5   6
ENDBRANCH   4   5
ENDBRANCH   3   4
ENDBRANCH   2   3
ENDBRANCH   1   2
BRANCH   1   9
ATOM      9  C   UNL     1      22.614  34.797  15.301  1.00  0.00     0.000 C 
BRANCH   9  10
ATOM     10  C   UNL     1      23.385  36.130  15.293  1.00  0.00    -0.000 C 
BRANCH  10  11
ATOM     11  C   UNL     1      24.905  35.934  15.417  1.00  0.00    -0.000 C 
BRANCH  11  12
ATOM     12  C   UNL     1      25.569  35.607  14.067  1.00  0.00    -0.000 C 
BRANCH  12  13
ATOM     13  C   UNL     1      26.582  34.455  14.175  1.00  0.00    -0.003 C 
ATOM     14  C   UNL     1      25.949  33.151  14.659  1.00  0.00     0.004 C 
ENDBRANCH  12  13
ENDBRANCH  11  12
ENDBRANCH  10  11
ENDBRANCH   9  10
ENDBRANCH   1   9
TORSDOF 10
ENDMDL
