MODEL 1
REMARK VINA RESULT:     4.330      0.000      0.000
REMARK INTER + INTRA:           9.620
REMARK INTER:                   9.899
REMARK INTRA:                  -0.279
REMARK UNBOUND:                -0.279
REMARK SMILES CCCCCCCCCCCCCCCCCCCCCCCC(=O)[O-]
REMARK SMILES IDX 13 1 14 2 15 3 16 4 17 5 18 6 19 7 20 8 21 9 22 10 23 11
REMARK SMILES IDX 24 12 25 13 26 14 12 15 11 16 10 17 9 18 8 19 7 20 6 21 5 22
REMARK SMILES IDX 4 23 3 24 2 25 1 26
REMARK H PARENT
REMARK Flexibility Score: inf
ROOT
ATOM      1  C   UNL     1       2.338  62.254  -6.489  1.00  0.00     0.000 C 
ENDROOT
BRANCH   1   2
ATOM      2  C   UNL     1       2.745  63.464  -7.356  1.00  0.00     0.000 C 
BRANCH   2   3
ATOM      3  C   UNL     1       2.434  64.845  -6.745  1.00  0.00     0.000 C 
BRANCH   3   4
ATOM      4  C   UNL     1       3.662  65.613  -6.222  1.00  0.00     0.000 C 
BRANCH   4   5
ATOM      5  C   UNL     1       3.310  66.607  -5.105  1.00  0.00     0.000 C 
BRANCH   5   6
ATOM      6  C   UNL     1       2.706  67.894  -5.690  1.00  0.00     0.000 C 
BRANCH   6   7
ATOM      7  C   UNL     1       1.185  67.982  -5.477  1.00  0.00     0.000 C 
BRANCH   7   8
ATOM      8  C   UNL     1       0.421  68.211  -6.794  1.00  0.00     0.000 C 
BRANCH   8   9
ATOM      9  C   UNL     1      -0.670  69.292  -6.676  1.00  0.00     0.000 C 
BRANCH   9  10
ATOM     10  C   UNL     1      -1.980  68.830  -6.012  1.00  0.00     0.006 C 
BRANCH  10  11
ATOM     11  C   UNL     1      -2.739  69.972  -5.323  1.00  0.00     0.053 C 
BRANCH  11  12
ATOM     12  C   UNL     1      -3.882  70.435  -6.173  1.00  0.00     0.041 C 
ATOM     13  O   UNL     1      -4.663  69.596  -6.693  1.00  0.00    -0.550 OA
ATOM     14  O   UNL     1      -4.069  71.792  -6.410  1.00  0.00    -0.550 OA
ENDBRANCH  11  12
ENDBRANCH  10  11
ENDBRANCH   9  10
ENDBRANCH   8   9
ENDBRANCH   7   8
ENDBRANCH   6   7
ENDBRANCH   5   6
ENDBRANCH   4   5
ENDBRANCH   3   4
ENDBRANCH   2   3
ENDBRANCH   1   2
BRANCH   1  15
ATOM     15  C   UNL     1       3.136  60.964  -6.754  1.00  0.00     0.000 C 
BRANCH  15  16
ATOM     16  C   UNL     1       2.235  59.752  -7.033  1.00  0.00     0.000 C 
BRANCH  16  17
ATOM     17  C   UNL     1       1.430  59.367  -5.786  1.00  0.00     0.000 C 
BRANCH  17  18
ATOM     18  C   UNL     1       0.874  60.616  -5.083  1.00  0.00    -0.000 C 
BRANCH  18  19
ATOM     19  C   UNL     1       0.722  60.425  -3.565  1.00  0.00    -0.000 C 
BRANCH  19  20
ATOM     20  C   UNL     1      -0.747  60.447  -3.110  1.00  0.00    -0.000 C 
BRANCH  20  21
ATOM     21  C   UNL     1      -1.729  60.322  -4.286  1.00  0.00    -0.000 C 
BRANCH  21  22
ATOM     22  C   UNL     1      -2.999  59.532  -3.919  1.00  0.00    -0.000 C 
BRANCH  22  23
ATOM     23  C   UNL     1      -4.092  59.641  -4.995  1.00  0.00    -0.000 C 
BRANCH  23  24
ATOM     24  C   UNL     1      -4.110  61.014  -5.682  1.00  0.00    -0.000 C 
BRANCH  24  25
ATOM     25  C   UNL     1      -4.237  60.865  -7.203  1.00  0.00    -0.003 C 
ATOM     26  C   UNL     1      -3.694  59.517  -7.670  1.00  0.00     0.004 C 
ENDBRANCH  24  25
ENDBRANCH  23  24
ENDBRANCH  22  23
ENDBRANCH  21  22
ENDBRANCH  20  21
ENDBRANCH  19  20
ENDBRANCH  18  19
ENDBRANCH  17  18
ENDBRANCH  16  17
ENDBRANCH  15  16
ENDBRANCH   1  15
TORSDOF 22
ENDMDL
MODEL 2
REMARK VINA RESULT:     5.091      2.858      8.466
REMARK INTER + INTRA:          11.360
REMARK INTER:                  12.672
REMARK INTRA:                  -1.312
REMARK UNBOUND:                -0.279
REMARK SMILES CCCCCCCCCCCCCCCCCCCCCCCC(=O)[O-]
REMARK SMILES IDX 13 1 14 2 15 3 16 4 17 5 18 6 19 7 20 8 21 9 22 10 23 11
REMARK SMILES IDX 24 12 25 13 26 14 12 15 11 16 10 17 9 18 8 19 7 20 6 21 5 22
REMARK SMILES IDX 4 23 3 24 2 25 1 26
REMARK H PARENT
REMARK Flexibility Score: inf
ROOT
ATOM      1  C   UNL     1       2.752  63.747  -6.378  1.00  0.00     0.000 C 
ENDROOT
BRANCH   1   2
ATOM      2  C   UNL     1       2.429  62.864  -7.602  1.00  0.00     0.000 C 
BRANCH   2   3
ATOM      3  C   UNL     1       3.165  61.510  -7.649  1.00  0.00     0.000 C 
BRANCH   3   4
ATOM      4  C   UNL     1       2.354  60.314  -7.116  1.00  0.00     0.000 C 
BRANCH   4   5
ATOM      5  C   UNL     1       2.380  60.213  -5.584  1.00  0.00     0.000 C 
BRANCH   5   6
ATOM      6  C   UNL     1       0.959  60.047  -5.023  1.00  0.00     0.000 C 
BRANCH   6   7
ATOM      7  C   UNL     1       0.077  59.147  -5.906  1.00  0.00     0.000 C 
BRANCH   7   8
ATOM      8  C   UNL     1      -1.382  59.094  -5.416  1.00  0.00     0.000 C 
BRANCH   8   9
ATOM      9  C   UNL     1      -1.705  60.174  -4.368  1.00  0.00     0.000 C 
BRANCH   9  10
ATOM     10  C   UNL     1      -3.120  60.775  -4.462  1.00  0.00     0.006 C 
BRANCH  10  11
ATOM     11  C   UNL     1      -4.191  59.736  -4.820  1.00  0.00     0.053 C 
BRANCH  11  12
ATOM     12  C   UNL     1      -4.601  59.872  -6.253  1.00  0.00     0.041 C 
ATOM     13  O   UNL     1      -4.555  58.875  -7.021  1.00  0.00    -0.550 OA
ATOM     14  O   UNL     1      -5.013  61.105  -6.746  1.00  0.00    -0.550 OA
ENDBRANCH  11  12
ENDBRANCH  10  11
ENDBRANCH   9  10
ENDBRANCH   8   9
ENDBRANCH   7   8
ENDBRANCH   6   7
ENDBRANCH   5   6
ENDBRANCH   4   5
ENDBRANCH   3   4
ENDBRANCH   2   3
ENDBRANCH   1   2
BRANCH   1  15
ATOM     15  C   UNL     1       3.269  65.158  -6.710  1.00  0.00     0.000 C 
BRANCH  15  16
ATOM     16  C   UNL     1       4.093  65.776  -5.571  1.00  0.00     0.000 C 
BRANCH  16  17
ATOM     17  C   UNL     1       3.567  67.170  -5.205  1.00  0.00     0.000 C 
BRANCH  17  18
ATOM     18  C   UNL     1       2.031  67.191  -5.190  1.00  0.00    -0.000 C 
BRANCH  18  19
ATOM     19  C   UNL     1       1.444  68.358  -6.000  1.00  0.00    -0.000 C 
BRANCH  19  20
ATOM     20  C   UNL     1       0.234  67.940  -6.852  1.00  0.00    -0.000 C 
BRANCH  20  21
ATOM     21  C   UNL     1      -0.685  69.125  -7.188  1.00  0.00    -0.000 C 
BRANCH  21  22
ATOM     22  C   UNL     1      -1.141  69.898  -5.936  1.00  0.00    -0.000 C 
BRANCH  22  23
ATOM     23  C   UNL     1      -2.231  69.154  -5.149  1.00  0.00    -0.000 C 
BRANCH  23  24
ATOM     24  C   UNL     1      -3.640  69.697  -5.432  1.00  0.00    -0.000 C 
BRANCH  24  25
ATOM     25  C   UNL     1      -3.581  70.919  -6.357  1.00  0.00    -0.003 C 
ATOM     26  C   UNL     1      -4.912  71.666  -6.365  1.00  0.00     0.004 C 
ENDBRANCH  24  25
ENDBRANCH  23  24
ENDBRANCH  22  23
ENDBRANCH  21  22
ENDBRANCH  20  21
ENDBRANCH  19  20
ENDBRANCH  18  19
ENDBRANCH  17  18
ENDBRANCH  16  17
ENDBRANCH  15  16
ENDBRANCH   1  15
TORSDOF 22
ENDMDL
MODEL 3
REMARK VINA RESULT:     5.353      5.481      8.716
REMARK INTER + INTRA:          11.959
REMARK INTER:                   9.445
REMARK INTRA:                   2.514
REMARK UNBOUND:                -0.279
REMARK SMILES CCCCCCCCCCCCCCCCCCCCCCCC(=O)[O-]
REMARK SMILES IDX 13 1 14 2 15 3 16 4 17 5 18 6 19 7 20 8 21 9 22 10 23 11
REMARK SMILES IDX 24 12 25 13 26 14 12 15 11 16 10 17 9 18 8 19 7 20 6 21 5 22
REMARK SMILES IDX 4 23 3 24 2 25 1 26
REMARK H PARENT
REMARK Flexibility Score: inf
ROOT
ATOM      1  C   UNL     1      -0.084  61.023  -3.558  1.00  0.00     0.000 C 
ENDROOT
BRANCH   1   2
ATOM      2  C   UNL     1       1.184  61.285  -2.718  1.00  0.00     0.000 C 
BRANCH   2   3
ATOM      3  C   UNL     1       0.931  61.828  -1.297  1.00  0.00     0.000 C 
BRANCH   3   4
ATOM      4  C   UNL     1       0.373  60.796  -0.299  1.00  0.00     0.000 C 
BRANCH   4   5
ATOM      5  C   UNL     1      -0.120  59.513  -0.983  1.00  0.00     0.000 C 
BRANCH   5   6
ATOM      6  C   UNL     1      -1.636  59.343  -0.794  1.00  0.00     0.000 C 
BRANCH   6   7
ATOM      7  C   UNL     1      -2.343  58.876  -2.078  1.00  0.00     0.000 C 
BRANCH   7   8
ATOM      8  C   UNL     1      -3.825  59.292  -2.116  1.00  0.00     0.000 C 
BRANCH   8   9
ATOM      9  C   UNL     1      -4.481  59.056  -3.489  1.00  0.00     0.000 C 
BRANCH   9  10
ATOM     10  C   UNL     1      -3.568  59.311  -4.703  1.00  0.00     0.006 C 
BRANCH  10  11
ATOM     11  C   UNL     1      -4.300  59.174  -6.044  1.00  0.00     0.053 C 
BRANCH  11  12
ATOM     12  C   UNL     1      -3.619  59.983  -7.104  1.00  0.00     0.041 C 
ATOM     13  O   UNL     1      -2.595  59.531  -7.682  1.00  0.00    -0.550 OA
ATOM     14  O   UNL     1      -4.100  61.244  -7.436  1.00  0.00    -0.550 OA
ENDBRANCH  11  12
ENDBRANCH  10  11
ENDBRANCH   9  10
ENDBRANCH   8   9
ENDBRANCH   7   8
ENDBRANCH   6   7
ENDBRANCH   5   6
ENDBRANCH   4   5
ENDBRANCH   3   4
ENDBRANCH   2   3
ENDBRANCH   1   2
BRANCH   1  15
ATOM     15  C   UNL     1       0.102  60.043  -4.731  1.00  0.00     0.000 C 
BRANCH  15  16
ATOM     16  C   UNL     1       1.537  59.507  -4.839  1.00  0.00     0.000 C 
BRANCH  16  17
ATOM     17  C   UNL     1       1.902  59.206  -6.298  1.00  0.00     0.000 C 
BRANCH  17  18
ATOM     18  C   UNL     1       0.800  59.692  -7.253  1.00  0.00    -0.000 C 
BRANCH  18  19
ATOM     19  C   UNL     1       1.249  60.876  -8.125  1.00  0.00    -0.000 C 
BRANCH  19  20
ATOM     20  C   UNL     1       2.707  61.288  -7.861  1.00  0.00    -0.000 C 
BRANCH  20  21
ATOM     21  C   UNL     1       3.455  60.269  -6.985  1.00  0.00    -0.000 C 
BRANCH  21  22
ATOM     22  C   UNL     1       4.168  59.184  -7.813  1.00  0.00    -0.000 C 
BRANCH  22  23
ATOM     23  C   UNL     1       5.580  58.875  -7.289  1.00  0.00    -0.000 C 
BRANCH  23  24
ATOM     24  C   UNL     1       6.681  59.545  -8.124  1.00  0.00    -0.000 C 
BRANCH  24  25
ATOM     25  C   UNL     1       8.073  59.135  -7.627  1.00  0.00    -0.003 C 
ATOM     26  C   UNL     1       9.121  60.179  -8.005  1.00  0.00     0.004 C 
ENDBRANCH  24  25
ENDBRANCH  23  24
ENDBRANCH  22  23
ENDBRANCH  21  22
ENDBRANCH  20  21
ENDBRANCH  19  20
ENDBRANCH  18  19
ENDBRANCH  17  18
ENDBRANCH  16  17
ENDBRANCH  15  16
ENDBRANCH   1  15
TORSDOF 22
ENDMDL
MODEL 4
REMARK VINA RESULT:     5.394      1.331      2.182
REMARK INTER + INTRA:          12.053
REMARK INTER:                  13.053
REMARK INTRA:                  -1.000
REMARK UNBOUND:                -0.279
REMARK SMILES CCCCCCCCCCCCCCCCCCCCCCCC(=O)[O-]
REMARK SMILES IDX 13 1 14 2 15 3 16 4 17 5 18 6 19 7 20 8 21 9 22 10 23 11
REMARK SMILES IDX 24 12 25 13 26 14 12 15 11 16 10 17 9 18 8 19 7 20 6 21 5 22
REMARK SMILES IDX 4 23 3 24 2 25 1 26
REMARK H PARENT
REMARK Flexibility Score: inf
ROOT
ATOM      1  C   UNL     1       2.338  63.215  -6.818  1.00  0.00     0.000 C 
ENDROOT
BRANCH   1   2
ATOM      2  C   UNL     1       2.190  64.537  -7.600  1.00  0.00     0.000 C 
BRANCH   2   3
ATOM      3  C   UNL     1       1.876  65.778  -6.740  1.00  0.00     0.000 C 
BRANCH   3   4
ATOM      4  C   UNL     1       1.053  66.868  -7.453  1.00  0.00     0.000 C 
BRANCH   4   5
ATOM      5  C   UNL     1       0.896  68.141  -6.610  1.00  0.00     0.000 C 
BRANCH   5   6
ATOM      6  C   UNL     1      -0.342  68.938  -7.050  1.00  0.00     0.000 C 
BRANCH   6   7
ATOM      7  C   UNL     1      -1.151  69.479  -5.859  1.00  0.00     0.000 C 
BRANCH   7   8
ATOM      8  C   UNL     1      -2.539  68.822  -5.744  1.00  0.00     0.000 C 
BRANCH   8   9
ATOM      9  C   UNL     1      -3.555  69.382  -6.756  1.00  0.00     0.000 C 
BRANCH   9  10
ATOM     10  C   UNL     1      -4.770  70.096  -6.136  1.00  0.00     0.006 C 
BRANCH  10  11
ATOM     11  C   UNL     1      -5.124  71.408  -6.849  1.00  0.00     0.053 C 
BRANCH  11  12
ATOM     12  C   UNL     1      -4.254  72.525  -6.364  1.00  0.00     0.041 C 
ATOM     13  O   UNL     1      -3.127  72.275  -5.861  1.00  0.00    -0.550 OA
ATOM     14  O   UNL     1      -4.697  73.840  -6.446  1.00  0.00    -0.550 OA
ENDBRANCH  11  12
ENDBRANCH  10  11
ENDBRANCH   9  10
ENDBRANCH   8   9
ENDBRANCH   7   8
ENDBRANCH   6   7
ENDBRANCH   5   6
ENDBRANCH   4   5
ENDBRANCH   3   4
ENDBRANCH   2   3
ENDBRANCH   1   2
BRANCH   1  15
ATOM     15  C   UNL     1       3.101  62.101  -7.559  1.00  0.00     0.000 C 
BRANCH  15  16
ATOM     16  C   UNL     1       2.388  60.742  -7.490  1.00  0.00     0.000 C 
BRANCH  16  17
ATOM     17  C   UNL     1       2.002  60.396  -6.047  1.00  0.00     0.000 C 
BRANCH  17  18
ATOM     18  C   UNL     1       1.035  59.202  -6.007  1.00  0.00    -0.000 C 
BRANCH  18  19
ATOM     19  C   UNL     1      -0.403  59.613  -5.651  1.00  0.00    -0.000 C 
BRANCH  19  20
ATOM     20  C   UNL     1      -0.477  60.459  -4.369  1.00  0.00    -0.000 C 
BRANCH  20  21
ATOM     21  C   UNL     1      -1.673  60.076  -3.482  1.00  0.00    -0.000 C 
BRANCH  21  22
ATOM     22  C   UNL     1      -2.621  59.072  -4.163  1.00  0.00    -0.000 C 
BRANCH  22  23
ATOM     23  C   UNL     1      -3.974  59.700  -4.536  1.00  0.00    -0.000 C 
BRANCH  23  24
ATOM     24  C   UNL     1      -4.568  59.106  -5.821  1.00  0.00    -0.000 C 
BRANCH  24  25
ATOM     25  C   UNL     1      -4.131  59.911  -7.051  1.00  0.00    -0.003 C 
ATOM     26  C   UNL     1      -2.990  59.214  -7.787  1.00  0.00     0.004 C 
ENDBRANCH  24  25
ENDBRANCH  23  24
ENDBRANCH  22  23
ENDBRANCH  21  22
ENDBRANCH  20  21
ENDBRANCH  19  20
ENDBRANCH  18  19
ENDBRANCH  17  18
ENDBRANCH  16  17
ENDBRANCH  15  16
ENDBRANCH   1  15
TORSDOF 22
ENDMDL
MODEL 5
REMARK VINA RESULT:     5.571      3.042      8.918
REMARK INTER + INTRA:          12.458
REMARK INTER:                  13.752
REMARK INTRA:                  -1.293
REMARK UNBOUND:                -0.279
REMARK SMILES CCCCCCCCCCCCCCCCCCCCCCCC(=O)[O-]
REMARK SMILES IDX 13 1 14 2 15 3 16 4 17 5 18 6 19 7 20 8 21 9 22 10 23 11
REMARK SMILES IDX 24 12 25 13 26 14 12 15 11 16 10 17 9 18 8 19 7 20 6 21 5 22
REMARK SMILES IDX 4 23 3 24 2 25 1 26
REMARK H PARENT
REMARK Flexibility Score: inf
ROOT
ATOM      1  C   UNL     1       3.351  65.028  -5.626  1.00  0.00     0.000 C 
ENDROOT
BRANCH   1   2
ATOM      2  C   UNL     1       2.856  64.615  -7.028  1.00  0.00     0.000 C 
BRANCH   2   3
ATOM      3  C   UNL     1       2.540  63.115  -7.198  1.00  0.00     0.000 C 
BRANCH   3   4
ATOM      4  C   UNL     1       2.831  62.248  -5.959  1.00  0.00     0.000 C 
BRANCH   4   5
ATOM      5  C   UNL     1       1.777  61.153  -5.738  1.00  0.00     0.000 C 
BRANCH   5   6
ATOM      6  C   UNL     1       1.832  60.108  -6.864  1.00  0.00     0.000 C 
BRANCH   6   7
ATOM      7  C   UNL     1       0.735  59.038  -6.731  1.00  0.00     0.000 C 
BRANCH   7   8
ATOM      8  C   UNL     1      -0.463  59.526  -5.896  1.00  0.00     0.000 C 
BRANCH   8   9
ATOM      9  C   UNL     1      -1.794  58.875  -6.316  1.00  0.00     0.000 C 
BRANCH   9  10
ATOM     10  C   UNL     1      -2.318  59.294  -7.702  1.00  0.00     0.006 C 
BRANCH  10  11
ATOM     11  C   UNL     1      -3.827  59.065  -7.867  1.00  0.00     0.053 C 
BRANCH  11  12
ATOM     12  C   UNL     1      -4.583  59.682  -6.732  1.00  0.00     0.041 C 
ATOM     13  O   UNL     1      -4.849  59.002  -5.706  1.00  0.00    -0.550 OA
ATOM     14  O   UNL     1      -5.015  61.001  -6.817  1.00  0.00    -0.550 OA
ENDBRANCH  11  12
ENDBRANCH  10  11
ENDBRANCH   9  10
ENDBRANCH   8   9
ENDBRANCH   7   8
ENDBRANCH   6   7
ENDBRANCH   5   6
ENDBRANCH   4   5
ENDBRANCH   3   4
ENDBRANCH   2   3
ENDBRANCH   1   2
BRANCH   1  15
ATOM     15  C   UNL     1       3.730  66.513  -5.480  1.00  0.00     0.000 C 
BRANCH  15  16
ATOM     16  C   UNL     1       2.636  67.344  -4.794  1.00  0.00     0.000 C 
BRANCH  16  17
ATOM     17  C   UNL     1       1.959  68.293  -5.791  1.00  0.00     0.000 C 
BRANCH  17  18
ATOM     18  C   UNL     1       0.483  67.916  -5.993  1.00  0.00    -0.000 C 
BRANCH  18  19
ATOM     19  C   UNL     1      -0.098  68.470  -7.304  1.00  0.00    -0.000 C 
BRANCH  19  20
ATOM     20  C   UNL     1      -1.394  69.270  -7.087  1.00  0.00    -0.000 C 
BRANCH  20  21
ATOM     21  C   UNL     1      -1.339  70.145  -5.824  1.00  0.00    -0.000 C 
BRANCH  21  22
ATOM     22  C   UNL     1      -2.717  70.318  -5.160  1.00  0.00    -0.000 C 
BRANCH  22  23
ATOM     23  C   UNL     1      -3.837  69.603  -5.933  1.00  0.00    -0.000 C 
BRANCH  23  24
ATOM     24  C   UNL     1      -5.120  70.444  -6.028  1.00  0.00    -0.000 C 
BRANCH  24  25
ATOM     25  C   UNL     1      -4.949  71.595  -7.027  1.00  0.00    -0.003 C 
ATOM     26  C   UNL     1      -5.034  72.948  -6.326  1.00  0.00     0.004 C 
ENDBRANCH  24  25
ENDBRANCH  23  24
ENDBRANCH  22  23
ENDBRANCH  21  22
ENDBRANCH  20  21
ENDBRANCH  19  20
ENDBRANCH  18  19
ENDBRANCH  17  18
ENDBRANCH  16  17
ENDBRANCH  15  16
ENDBRANCH   1  15
TORSDOF 22
ENDMDL
MODEL 6
REMARK VINA RESULT:     5.739      1.148      2.991
REMARK INTER + INTRA:          12.841
REMARK INTER:                  13.242
REMARK INTRA:                  -0.401
REMARK UNBOUND:                -0.279
REMARK SMILES CCCCCCCCCCCCCCCCCCCCCCCC(=O)[O-]
REMARK SMILES IDX 13 1 14 2 15 3 16 4 17 5 18 6 19 7 20 8 21 9 22 10 23 11
REMARK SMILES IDX 24 12 25 13 26 14 12 15 11 16 10 17 9 18 8 19 7 20 6 21 5 22
REMARK SMILES IDX 4 23 3 24 2 25 1 26
REMARK H PARENT
REMARK Flexibility Score: inf
ROOT
ATOM      1  C   UNL     1       1.749  60.882  -5.903  1.00  0.00     0.000 C 
ENDROOT
BRANCH   1   2
ATOM      2  C   UNL     1       2.830  61.299  -6.922  1.00  0.00     0.000 C 
BRANCH   2   3
ATOM      3  C   UNL     1       2.722  62.747  -7.439  1.00  0.00     0.000 C 
BRANCH   3   4
ATOM      4  C   UNL     1       2.816  63.832  -6.350  1.00  0.00     0.000 C 
BRANCH   4   5
ATOM      5  C   UNL     1       2.404  65.222  -6.857  1.00  0.00     0.000 C 
BRANCH   5   6
ATOM      6  C   UNL     1       2.800  66.311  -5.848  1.00  0.00     0.000 C 
BRANCH   6   7
ATOM      7  C   UNL     1       2.113  67.658  -6.130  1.00  0.00     0.000 C 
BRANCH   7   8
ATOM      8  C   UNL     1       0.712  67.484  -6.744  1.00  0.00     0.000 C 
BRANCH   8   9
ATOM      9  C   UNL     1      -0.148  68.758  -6.653  1.00  0.00     0.000 C 
BRANCH   9  10
ATOM     10  C   UNL     1      -0.909  68.940  -5.326  1.00  0.00     0.006 C 
BRANCH  10  11
ATOM     11  C   UNL     1      -2.431  68.835  -5.488  1.00  0.00     0.053 C 
BRANCH  11  12
ATOM     12  C   UNL     1      -3.008  70.143  -5.932  1.00  0.00     0.041 C 
ATOM     13  O   UNL     1      -3.979  70.166  -6.733  1.00  0.00    -0.550 OA
ATOM     14  O   UNL     1      -2.458  71.337  -5.478  1.00  0.00    -0.550 OA
ENDBRANCH  11  12
ENDBRANCH  10  11
ENDBRANCH   9  10
ENDBRANCH   8   9
ENDBRANCH   7   8
ENDBRANCH   6   7
ENDBRANCH   5   6
ENDBRANCH   4   5
ENDBRANCH   3   4
ENDBRANCH   2   3
ENDBRANCH   1   2
BRANCH   1  15
ATOM     15  C   UNL     1       1.236  59.437  -6.050  1.00  0.00     0.000 C 
BRANCH  15  16
ATOM     16  C   UNL     1      -0.267  59.365  -6.357  1.00  0.00     0.000 C 
BRANCH  16  17
ATOM     17  C   UNL     1      -0.512  58.889  -7.794  1.00  0.00     0.000 C 
BRANCH  17  18
ATOM     18  C   UNL     1      -2.014  58.875  -8.121  1.00  0.00    -0.000 C 
BRANCH  18  19
ATOM     19  C   UNL     1      -2.896  58.995  -6.868  1.00  0.00    -0.000 C 
BRANCH  19  20
ATOM     20  C   UNL     1      -3.631  60.344  -6.787  1.00  0.00    -0.000 C 
BRANCH  20  21
ATOM     21  C   UNL     1      -3.945  60.755  -5.339  1.00  0.00    -0.000 C 
BRANCH  21  22
ATOM     22  C   UNL     1      -3.672  59.626  -4.328  1.00  0.00    -0.000 C 
BRANCH  22  23
ATOM     23  C   UNL     1      -2.171  59.374  -4.117  1.00  0.00    -0.000 C 
BRANCH  23  24
ATOM     24  C   UNL     1      -1.413  60.640  -3.690  1.00  0.00    -0.000 C 
BRANCH  24  25
ATOM     25  C   UNL     1      -0.677  60.418  -2.363  1.00  0.00    -0.003 C 
ATOM     26  C   UNL     1       0.827  60.621  -2.529  1.00  0.00     0.004 C 
ENDBRANCH  24  25
ENDBRANCH  23  24
ENDBRANCH  22  23
ENDBRANCH  21  22
ENDBRANCH  20  21
ENDBRANCH  19  20
ENDBRANCH  18  19
ENDBRANCH  17  18
ENDBRANCH  16  17
ENDBRANCH  15  16
ENDBRANCH   1  15
TORSDOF 22
ENDMDL
MODEL 7
REMARK VINA RESULT:     6.054      1.110      2.632
REMARK INTER + INTRA:          13.561
REMARK INTER:                  14.917
REMARK INTRA:                  -1.355
REMARK UNBOUND:                -0.279
REMARK SMILES CCCCCCCCCCCCCCCCCCCCCCCC(=O)[O-]
REMARK SMILES IDX 13 1 14 2 15 3 16 4 17 5 18 6 19 7 20 8 21 9 22 10 23 11
REMARK SMILES IDX 24 12 25 13 26 14 12 15 11 16 10 17 9 18 8 19 7 20 6 21 5 22
REMARK SMILES IDX 4 23 3 24 2 25 1 26
REMARK H PARENT
REMARK Flexibility Score: inf
ROOT
ATOM      1  C   UNL     1       1.956  61.255  -6.002  1.00  0.00     0.000 C 
ENDROOT
BRANCH   1   2
ATOM      2  C   UNL     1       2.120  62.789  -6.051  1.00  0.00     0.000 C 
BRANCH   2   3
ATOM      3  C   UNL     1       2.463  63.369  -7.438  1.00  0.00     0.000 C 
BRANCH   3   4
ATOM      4  C   UNL     1       2.781  64.876  -7.449  1.00  0.00     0.000 C 
BRANCH   4   5
ATOM      5  C   UNL     1       1.650  65.727  -6.853  1.00  0.00     0.000 C 
BRANCH   5   6
ATOM      6  C   UNL     1       2.205  67.025  -6.246  1.00  0.00     0.000 C 
BRANCH   6   7
ATOM      7  C   UNL     1       1.199  68.187  -6.313  1.00  0.00     0.000 C 
BRANCH   7   8
ATOM      8  C   UNL     1      -0.255  67.715  -6.135  1.00  0.00     0.000 C 
BRANCH   8   9
ATOM      9  C   UNL     1      -1.288  68.803  -6.483  1.00  0.00     0.000 C 
BRANCH   9  10
ATOM     10  C   UNL     1      -1.829  69.599  -5.281  1.00  0.00     0.006 C 
BRANCH  10  11
ATOM     11  C   UNL     1      -2.372  70.980  -5.671  1.00  0.00     0.053 C 
BRANCH  11  12
ATOM     12  C   UNL     1      -3.764  70.868  -6.212  1.00  0.00     0.041 C 
ATOM     13  O   UNL     1      -4.239  69.738  -6.503  1.00  0.00    -0.550 OA
ATOM     14  O   UNL     1      -4.527  72.012  -6.418  1.00  0.00    -0.550 OA
ENDBRANCH  11  12
ENDBRANCH  10  11
ENDBRANCH   9  10
ENDBRANCH   8   9
ENDBRANCH   7   8
ENDBRANCH   6   7
ENDBRANCH   5   6
ENDBRANCH   4   5
ENDBRANCH   3   4
ENDBRANCH   2   3
ENDBRANCH   1   2
BRANCH   1  15
ATOM     15  C   UNL     1       2.942  60.466  -6.882  1.00  0.00     0.000 C 
BRANCH  15  16
ATOM     16  C   UNL     1       2.449  59.048  -7.208  1.00  0.00     0.000 C 
BRANCH  16  17
ATOM     17  C   UNL     1       1.160  59.092  -8.036  1.00  0.00     0.000 C 
BRANCH  17  18
ATOM     18  C   UNL     1      -0.078  58.935  -7.138  1.00  0.00    -0.000 C 
BRANCH  18  19
ATOM     19  C   UNL     1      -1.394  59.181  -7.891  1.00  0.00    -0.000 C 
BRANCH  19  20
ATOM     20  C   UNL     1      -2.634  58.878  -7.033  1.00  0.00    -0.000 C 
BRANCH  20  21
ATOM     21  C   UNL     1      -3.397  60.151  -6.632  1.00  0.00    -0.000 C 
BRANCH  21  22
ATOM     22  C   UNL     1      -3.002  60.666  -5.236  1.00  0.00    -0.000 C 
BRANCH  22  23
ATOM     23  C   UNL     1      -2.843  59.531  -4.212  1.00  0.00    -0.000 C 
BRANCH  23  24
ATOM     24  C   UNL     1      -1.799  59.850  -3.132  1.00  0.00    -0.000 C 
BRANCH  24  25
ATOM     25  C   UNL     1      -0.487  60.334  -3.763  1.00  0.00    -0.003 C 
ATOM     26  C   UNL     1       0.525  60.729  -2.690  1.00  0.00     0.004 C 
ENDBRANCH  24  25
ENDBRANCH  23  24
ENDBRANCH  22  23
ENDBRANCH  21  22
ENDBRANCH  20  21
ENDBRANCH  19  20
ENDBRANCH  18  19
ENDBRANCH  17  18
ENDBRANCH  16  17
ENDBRANCH  15  16
ENDBRANCH   1  15
TORSDOF 22
ENDMDL
MODEL 8
REMARK VINA RESULT:     6.459      3.055      9.045
REMARK INTER + INTRA:          14.488
REMARK INTER:                  15.543
REMARK INTRA:                  -1.055
REMARK UNBOUND:                -0.279
REMARK SMILES CCCCCCCCCCCCCCCCCCCCCCCC(=O)[O-]
REMARK SMILES IDX 13 1 14 2 15 3 16 4 17 5 18 6 19 7 20 8 21 9 22 10 23 11
REMARK SMILES IDX 24 12 25 13 26 14 12 15 11 16 10 17 9 18 8 19 7 20 6 21 5 22
REMARK SMILES IDX 4 23 3 24 2 25 1 26
REMARK H PARENT
REMARK Flexibility Score: inf
ROOT
ATOM      1  C   UNL     1       3.853  66.216  -5.158  1.00  0.00     0.000 C 
ENDROOT
BRANCH   1   2
ATOM      2  C   UNL     1       3.572  65.519  -6.506  1.00  0.00     0.000 C 
BRANCH   2   3
ATOM      3  C   UNL     1       2.285  64.672  -6.553  1.00  0.00     0.000 C 
BRANCH   3   4
ATOM      4  C   UNL     1       2.431  63.312  -7.261  1.00  0.00     0.000 C 
BRANCH   4   5
ATOM      5  C   UNL     1       2.962  62.211  -6.332  1.00  0.00     0.000 C 
BRANCH   5   6
ATOM      6  C   UNL     1       2.585  60.819  -6.864  1.00  0.00     0.000 C 
BRANCH   6   7
ATOM      7  C   UNL     1       2.731  59.719  -5.799  1.00  0.00     0.000 C 
BRANCH   7   8
ATOM      8  C   UNL     1       1.388  59.043  -5.465  1.00  0.00     0.000 C 
BRANCH   8   9
ATOM      9  C   UNL     1       0.171  59.846  -5.960  1.00  0.00     0.000 C 
BRANCH   9  10
ATOM     10  C   UNL     1      -1.199  59.222  -5.637  1.00  0.00     0.006 C 
BRANCH  10  11
ATOM     11  C   UNL     1      -1.795  59.732  -4.319  1.00  0.00     0.053 C 
BRANCH  11  12
ATOM     12  C   UNL     1      -3.255  60.023  -4.477  1.00  0.00     0.041 C 
ATOM     13  O   UNL     1      -3.638  60.916  -5.278  1.00  0.00    -0.550 OA
ATOM     14  O   UNL     1      -4.191  59.326  -3.722  1.00  0.00    -0.550 OA
ENDBRANCH  11  12
ENDBRANCH  10  11
ENDBRANCH   9  10
ENDBRANCH   8   9
ENDBRANCH   7   8
ENDBRANCH   6   7
ENDBRANCH   5   6
ENDBRANCH   4   5
ENDBRANCH   3   4
ENDBRANCH   2   3
ENDBRANCH   1   2
BRANCH   1  15
ATOM     15  C   UNL     1       3.035  67.495  -4.902  1.00  0.00     0.000 C 
BRANCH  15  16
ATOM     16  C   UNL     1       2.149  67.886  -6.094  1.00  0.00     0.000 C 
BRANCH  16  17
ATOM     17  C   UNL     1       0.696  68.099  -5.652  1.00  0.00     0.000 C 
BRANCH  17  18
ATOM     18  C   UNL     1      -0.067  68.964  -6.668  1.00  0.00    -0.000 C 
BRANCH  18  19
ATOM     19  C   UNL     1      -0.801  70.144  -6.011  1.00  0.00    -0.000 C 
BRANCH  19  20
ATOM     20  C   UNL     1      -1.414  69.776  -4.649  1.00  0.00    -0.000 C 
BRANCH  20  21
ATOM     21  C   UNL     1      -2.896  69.384  -4.758  1.00  0.00    -0.000 C 
BRANCH  21  22
ATOM     22  C   UNL     1      -3.399  69.362  -6.214  1.00  0.00    -0.000 C 
BRANCH  22  23
ATOM     23  C   UNL     1      -4.691  70.174  -6.403  1.00  0.00    -0.000 C 
BRANCH  23  24
ATOM     24  C   UNL     1      -4.438  71.549  -7.039  1.00  0.00    -0.000 C 
BRANCH  24  25
ATOM     25  C   UNL     1      -5.125  72.660  -6.235  1.00  0.00    -0.003 C 
ATOM     26  C   UNL     1      -4.535  74.027  -6.573  1.00  0.00     0.004 C 
ENDBRANCH  24  25
ENDBRANCH  23  24
ENDBRANCH  22  23
ENDBRANCH  21  22
ENDBRANCH  20  21
ENDBRANCH  19  20
ENDBRANCH  18  19
ENDBRANCH  17  18
ENDBRANCH  16  17
ENDBRANCH  15  16
ENDBRANCH   1  15
TORSDOF 22
ENDMDL
