MODEL 1
REMARK VINA RESULT:    -5.208      0.000      0.000
REMARK INTER + INTRA:         -10.352
REMARK INTER:                  -8.861
REMARK INTRA:                  -1.491
REMARK UNBOUND:                -1.491
REMARK SMILES CCCCCCCCCCCCCC(=O)[O-]
REMARK SMILES IDX 8 1 9 2 10 3 11 4 12 5 13 6 14 7 15 8 16 9 7 10 6 11 5 12
REMARK SMILES IDX 4 13 3 14 2 15 1 16
REMARK H PARENT
REMARK Flexibility Score: inf
ROOT
ATOM      1  C   UNL     1       7.816  22.598  -5.026  1.00  0.00     0.000 C 
ENDROOT
BRANCH   1   2
ATOM      2  C   UNL     1       8.935  21.671  -5.524  1.00  0.00     0.000 C 
BRANCH   2   3
ATOM      3  C   UNL     1       9.717  22.273  -6.707  1.00  0.00     0.000 C 
BRANCH   3   4
ATOM      4  C   UNL     1      10.067  21.225  -7.775  1.00  0.00     0.000 C 
BRANCH   4   5
ATOM      5  C   UNL     1      10.733  21.842  -9.017  1.00  0.00     0.006 C 
BRANCH   5   6
ATOM      6  C   UNL     1      10.609  23.372  -9.040  1.00  0.00     0.053 C 
BRANCH   6   7
ATOM      7  C   UNL     1      11.940  24.035  -9.220  1.00  0.00     0.041 C 
ATOM      8  O   UNL     1      12.146  24.783 -10.213  1.00  0.00    -0.550 OA
ATOM      9  O   UNL     1      12.941  23.857  -8.273  1.00  0.00    -0.550 OA
ENDBRANCH   6   7
ENDBRANCH   5   6
ENDBRANCH   4   5
ENDBRANCH   3   4
ENDBRANCH   2   3
ENDBRANCH   1   2
BRANCH   1  10
ATOM     10  C   UNL     1       6.826  22.986  -6.139  1.00  0.00     0.000 C 
BRANCH  10  11
ATOM     11  C   UNL     1       6.891  24.480  -6.491  1.00  0.00    -0.000 C 
BRANCH  11  12
ATOM     12  C   UNL     1       7.210  24.727  -7.976  1.00  0.00    -0.000 C 
BRANCH  12  13
ATOM     13  C   UNL     1       7.005  23.460  -8.833  1.00  0.00    -0.000 C 
BRANCH  13  14
ATOM     14  C   UNL     1       5.918  23.615  -9.910  1.00  0.00    -0.000 C 
BRANCH  14  15
ATOM     15  C   UNL     1       4.894  22.472  -9.894  1.00  0.00    -0.003 C 
ATOM     16  C   UNL     1       4.000  22.552  -8.661  1.00  0.00     0.004 C 
ENDBRANCH  14  15
ENDBRANCH  13  14
ENDBRANCH  12  13
ENDBRANCH  11  12
ENDBRANCH  10  11
ENDBRANCH   1  10
TORSDOF 12
ENDMDL
MODEL 2
REMARK VINA RESULT:    -5.121      2.720      6.098
REMARK INTER + INTRA:         -10.204
REMARK INTER:                  -9.392
REMARK INTRA:                  -0.811
REMARK UNBOUND:                -1.491
REMARK SMILES CCCCCCCCCCCCCC(=O)[O-]
REMARK SMILES IDX 8 1 9 2 10 3 11 4 12 5 13 6 14 7 15 8 16 9 7 10 6 11 5 12
REMARK SMILES IDX 4 13 3 14 2 15 1 16
REMARK H PARENT
REMARK Flexibility Score: inf
ROOT
ATOM      1  C   UNL     1       6.452  22.828 -10.702  1.00  0.00     0.000 C 
ENDROOT
BRANCH   1   2
ATOM      2  C   UNL     1       5.196  22.153 -10.130  1.00  0.00     0.000 C 
BRANCH   2   3
ATOM      3  C   UNL     1       4.332  23.120  -9.301  1.00  0.00     0.000 C 
BRANCH   3   4
ATOM      4  C   UNL     1       3.846  22.495  -7.984  1.00  0.00     0.000 C 
BRANCH   4   5
ATOM      5  C   UNL     1       4.577  23.057  -6.753  1.00  0.00     0.006 C 
BRANCH   5   6
ATOM      6  C   UNL     1       6.015  23.484  -7.079  1.00  0.00     0.053 C 
BRANCH   6   7
ATOM      7  C   UNL     1       6.716  24.039  -5.878  1.00  0.00     0.041 C 
ATOM      8  O   UNL     1       7.553  23.336  -5.252  1.00  0.00    -0.550 OA
ATOM      9  O   UNL     1       6.473  25.345  -5.471  1.00  0.00    -0.550 OA
ENDBRANCH   6   7
ENDBRANCH   5   6
ENDBRANCH   4   5
ENDBRANCH   3   4
ENDBRANCH   2   3
ENDBRANCH   1   2
BRANCH   1  10
ATOM     10  C   UNL     1       7.752  22.127 -10.270  1.00  0.00     0.000 C 
BRANCH  10  11
ATOM     11  C   UNL     1       8.614  23.001  -9.346  1.00  0.00    -0.000 C 
BRANCH  11  12
ATOM     12  C   UNL     1       9.624  22.180  -8.525  1.00  0.00    -0.000 C 
BRANCH  12  13
ATOM     13  C   UNL     1      11.063  22.317  -9.065  1.00  0.00    -0.000 C 
BRANCH  13  14
ATOM     14  C   UNL     1      12.051  22.903  -8.042  1.00  0.00    -0.000 C 
BRANCH  14  15
ATOM     15  C   UNL     1      12.734  24.185  -8.537  1.00  0.00    -0.003 C 
ATOM     16  C   UNL     1      12.048  24.724  -9.789  1.00  0.00     0.004 C 
ENDBRANCH  14  15
ENDBRANCH  13  14
ENDBRANCH  12  13
ENDBRANCH  11  12
ENDBRANCH  10  11
ENDBRANCH   1  10
TORSDOF 12
ENDMDL
MODEL 3
REMARK VINA RESULT:    -5.109      3.113      6.017
REMARK INTER + INTRA:         -10.184
REMARK INTER:                  -8.735
REMARK INTRA:                  -1.448
REMARK UNBOUND:                -1.491
REMARK SMILES CCCCCCCCCCCCCC(=O)[O-]
REMARK SMILES IDX 8 1 9 2 10 3 11 4 12 5 13 6 14 7 15 8 16 9 7 10 6 11 5 12
REMARK SMILES IDX 4 13 3 14 2 15 1 16
REMARK H PARENT
REMARK Flexibility Score: inf
ROOT
ATOM      1  C   UNL     1      11.756  24.220 -10.036  1.00  0.00     0.000 C 
ENDROOT
BRANCH   1   2
ATOM      2  C   UNL     1      10.563  23.271 -10.228  1.00  0.00     0.000 C 
BRANCH   2   3
ATOM      3  C   UNL     1       9.516  23.405  -9.108  1.00  0.00     0.000 C 
BRANCH   3   4
ATOM      4  C   UNL     1       8.126  22.910  -9.538  1.00  0.00     0.000 C 
BRANCH   4   5
ATOM      5  C   UNL     1       6.988  23.559  -8.732  1.00  0.00     0.006 C 
BRANCH   5   6
ATOM      6  C   UNL     1       7.391  23.827  -7.275  1.00  0.00     0.053 C 
BRANCH   6   7
ATOM      7  C   UNL     1       6.196  24.018  -6.394  1.00  0.00     0.041 C 
ATOM      8  O   UNL     1       5.224  23.220  -6.462  1.00  0.00    -0.550 OA
ATOM      9  O   UNL     1       6.170  25.056  -5.471  1.00  0.00    -0.550 OA
ENDBRANCH   6   7
ENDBRANCH   5   6
ENDBRANCH   4   5
ENDBRANCH   3   4
ENDBRANCH   2   3
ENDBRANCH   1   2
BRANCH   1  10
ATOM     10  C   UNL     1      12.134  24.406  -8.555  1.00  0.00     0.000 C 
BRANCH  10  11
ATOM     11  C   UNL     1      13.586  23.997  -8.262  1.00  0.00    -0.000 C 
BRANCH  11  12
ATOM     12  C   UNL     1      13.681  22.792  -7.310  1.00  0.00    -0.000 C 
BRANCH  12  13
ATOM     13  C   UNL     1      12.331  22.059  -7.161  1.00  0.00    -0.000 C 
BRANCH  13  14
ATOM     14  C   UNL     1      12.212  20.803  -8.041  1.00  0.00    -0.000 C 
BRANCH  14  15
ATOM     15  C   UNL     1      10.838  20.127  -7.934  1.00  0.00    -0.003 C 
ATOM     16  C   UNL     1       9.953  20.839  -6.915  1.00  0.00     0.004 C 
ENDBRANCH  14  15
ENDBRANCH  13  14
ENDBRANCH  12  13
ENDBRANCH  11  12
ENDBRANCH  10  11
ENDBRANCH   1  10
TORSDOF 12
ENDMDL
MODEL 4
REMARK VINA RESULT:    -5.093      2.853      5.893
REMARK INTER + INTRA:         -10.157
REMARK INTER:                  -8.658
REMARK INTRA:                  -1.499
REMARK UNBOUND:                -1.491
REMARK SMILES CCCCCCCCCCCCCC(=O)[O-]
REMARK SMILES IDX 8 1 9 2 10 3 11 4 12 5 13 6 14 7 15 8 16 9 7 10 6 11 5 12
REMARK SMILES IDX 4 13 3 14 2 15 1 16
REMARK H PARENT
REMARK Flexibility Score: inf
ROOT
ATOM      1  C   UNL     1       9.554  21.844  -7.696  1.00  0.00     0.000 C 
ENDROOT
BRANCH   1   2
ATOM      2  C   UNL     1       9.399  22.008  -9.216  1.00  0.00     0.000 C 
BRANCH   2   3
ATOM      3  C   UNL     1       8.578  23.255  -9.595  1.00  0.00     0.000 C 
BRANCH   3   4
ATOM      4  C   UNL     1       7.079  22.950  -9.742  1.00  0.00     0.000 C 
BRANCH   4   5
ATOM      5  C   UNL     1       6.236  23.549  -8.604  1.00  0.00     0.006 C 
BRANCH   5   6
ATOM      6  C   UNL     1       7.045  24.526  -7.737  1.00  0.00     0.053 C 
BRANCH   6   7
ATOM      7  C   UNL     1       6.746  24.355  -6.280  1.00  0.00     0.041 C 
ATOM      8  O   UNL     1       6.413  25.348  -5.580  1.00  0.00    -0.550 OA
ATOM      9  O   UNL     1       6.799  23.093  -5.702  1.00  0.00    -0.550 OA
ENDBRANCH   6   7
ENDBRANCH   5   6
ENDBRANCH   4   5
ENDBRANCH   3   4
ENDBRANCH   2   3
ENDBRANCH   1   2
BRANCH   1  10
ATOM     10  C   UNL     1      10.732  20.930  -7.314  1.00  0.00     0.000 C 
BRANCH  10  11
ATOM     11  C   UNL     1      11.869  20.972  -8.347  1.00  0.00    -0.000 C 
BRANCH  11  12
ATOM     12  C   UNL     1      13.190  21.493  -7.753  1.00  0.00    -0.000 C 
BRANCH  12  13
ATOM     13  C   UNL     1      13.065  22.942  -7.236  1.00  0.00    -0.000 C 
BRANCH  13  14
ATOM     14  C   UNL     1      13.260  24.005  -8.332  1.00  0.00    -0.000 C 
BRANCH  14  15
ATOM     15  C   UNL     1      11.934  24.577  -8.851  1.00  0.00    -0.003 C 
ATOM     16  C   UNL     1      11.978  24.780 -10.363  1.00  0.00     0.004 C 
ENDBRANCH  14  15
ENDBRANCH  13  14
ENDBRANCH  12  13
ENDBRANCH  11  12
ENDBRANCH  10  11
ENDBRANCH   1  10
TORSDOF 12
ENDMDL
MODEL 5
REMARK VINA RESULT:    -5.086      1.439      2.340
REMARK INTER + INTRA:         -10.146
REMARK INTER:                  -8.885
REMARK INTRA:                  -1.261
REMARK UNBOUND:                -1.491
REMARK SMILES CCCCCCCCCCCCCC(=O)[O-]
REMARK SMILES IDX 8 1 9 2 10 3 11 4 12 5 13 6 14 7 15 8 16 9 7 10 6 11 5 12
REMARK SMILES IDX 4 13 3 14 2 15 1 16
REMARK H PARENT
REMARK Flexibility Score: inf
ROOT
ATOM      1  C   UNL     1       9.985  21.714  -6.707  1.00  0.00     0.000 C 
ENDROOT
BRANCH   1   2
ATOM      2  C   UNL     1      10.602  20.699  -7.682  1.00  0.00     0.000 C 
BRANCH   2   3
ATOM      3  C   UNL     1      12.112  20.918  -7.885  1.00  0.00     0.000 C 
BRANCH   3   4
ATOM      4  C   UNL     1      12.626  22.177  -7.170  1.00  0.00     0.000 C 
BRANCH   4   5
ATOM      5  C   UNL     1      13.231  23.206  -8.140  1.00  0.00     0.006 C 
BRANCH   5   6
ATOM      6  C   UNL     1      12.243  24.329  -8.484  1.00  0.00     0.053 C 
BRANCH   6   7
ATOM      7  C   UNL     1      11.762  24.232  -9.899  1.00  0.00     0.041 C 
ATOM      8  O   UNL     1      11.036  23.266 -10.256  1.00  0.00    -0.550 OA
ATOM      9  O   UNL     1      12.084  25.226 -10.814  1.00  0.00    -0.550 OA
ENDBRANCH   6   7
ENDBRANCH   5   6
ENDBRANCH   4   5
ENDBRANCH   3   4
ENDBRANCH   2   3
ENDBRANCH   1   2
BRANCH   1  10
ATOM     10  C   UNL     1       9.021  22.693  -7.400  1.00  0.00     0.000 C 
BRANCH  10  11
ATOM     11  C   UNL     1       7.928  23.214  -6.453  1.00  0.00    -0.000 C 
BRANCH  11  12
ATOM     12  C   UNL     1       6.801  23.951  -7.197  1.00  0.00    -0.000 C 
BRANCH  12  13
ATOM     13  C   UNL     1       7.122  24.148  -8.694  1.00  0.00    -0.000 C 
BRANCH  13  14
ATOM     14  C   UNL     1       5.904  23.962  -9.614  1.00  0.00    -0.000 C 
BRANCH  14  15
ATOM     15  C   UNL     1       6.084  22.818 -10.621  1.00  0.00    -0.003 C 
ATOM     16  C   UNL     1       7.416  22.104 -10.408  1.00  0.00     0.004 C 
ENDBRANCH  14  15
ENDBRANCH  13  14
ENDBRANCH  12  13
ENDBRANCH  11  12
ENDBRANCH  10  11
ENDBRANCH   1  10
TORSDOF 12
ENDMDL
MODEL 6
REMARK VINA RESULT:    -5.064      3.585      6.514
REMARK INTER + INTRA:         -10.107
REMARK INTER:                  -8.732
REMARK INTRA:                  -1.376
REMARK UNBOUND:                -1.491
REMARK SMILES CCCCCCCCCCCCCC(=O)[O-]
REMARK SMILES IDX 8 1 9 2 10 3 11 4 12 5 13 6 14 7 15 8 16 9 7 10 6 11 5 12
REMARK SMILES IDX 4 13 3 14 2 15 1 16
REMARK H PARENT
REMARK Flexibility Score: inf
ROOT
ATOM      1  C   UNL     1       8.768  22.638  -7.926  1.00  0.00     0.000 C 
ENDROOT
BRANCH   1   2
ATOM      2  C   UNL     1       8.758  22.108  -9.369  1.00  0.00     0.000 C 
BRANCH   2   3
ATOM      3  C   UNL     1       7.552  22.619 -10.177  1.00  0.00     0.000 C 
BRANCH   3   4
ATOM      4  C   UNL     1       6.816  23.770  -9.473  1.00  0.00     0.000 C 
BRANCH   4   5
ATOM      5  C   UNL     1       5.306  23.776  -9.762  1.00  0.00     0.006 C 
BRANCH   5   6
ATOM      6  C   UNL     1       4.658  22.412  -9.485  1.00  0.00     0.053 C 
BRANCH   6   7
ATOM      7  C   UNL     1       3.803  22.442  -8.256  1.00  0.00     0.041 C 
ATOM      8  O   UNL     1       4.290  22.811  -7.154  1.00  0.00    -0.550 OA
ATOM      9  O   UNL     1       2.459  22.099  -8.334  1.00  0.00    -0.550 OA
ENDBRANCH   6   7
ENDBRANCH   5   6
ENDBRANCH   4   5
ENDBRANCH   3   4
ENDBRANCH   2   3
ENDBRANCH   1   2
BRANCH   1  10
ATOM     10  C   UNL     1       9.918  22.052  -7.087  1.00  0.00     0.000 C 
BRANCH  10  11
ATOM     11  C   UNL     1      10.679  20.940  -7.825  1.00  0.00    -0.000 C 
BRANCH  11  12
ATOM     12  C   UNL     1      12.194  21.202  -7.891  1.00  0.00    -0.000 C 
BRANCH  12  13
ATOM     13  C   UNL     1      12.579  22.554  -7.256  1.00  0.00    -0.000 C 
BRANCH  13  14
ATOM     14  C   UNL     1      13.214  23.542  -8.250  1.00  0.00    -0.000 C 
BRANCH  14  15
ATOM     15  C   UNL     1      12.208  24.560  -8.805  1.00  0.00    -0.003 C 
ATOM     16  C   UNL     1      11.654  24.105 -10.152  1.00  0.00     0.004 C 
ENDBRANCH  14  15
ENDBRANCH  13  14
ENDBRANCH  12  13
ENDBRANCH  11  12
ENDBRANCH  10  11
ENDBRANCH   1  10
TORSDOF 12
ENDMDL
MODEL 7
REMARK VINA RESULT:    -5.047      2.354      5.415
REMARK INTER + INTRA:         -10.078
REMARK INTER:                  -8.862
REMARK INTRA:                  -1.216
REMARK UNBOUND:                -1.491
REMARK SMILES CCCCCCCCCCCCCC(=O)[O-]
REMARK SMILES IDX 8 1 9 2 10 3 11 4 12 5 13 6 14 7 15 8 16 9 7 10 6 11 5 12
REMARK SMILES IDX 4 13 3 14 2 15 1 16
REMARK H PARENT
REMARK Flexibility Score: inf
ROOT
ATOM      1  C   UNL     1       5.059  23.208  -9.492  1.00  0.00     0.000 C 
ENDROOT
BRANCH   1   2
ATOM      2  C   UNL     1       3.990  22.491  -8.653  1.00  0.00     0.000 C 
BRANCH   2   3
ATOM      3  C   UNL     1       4.083  22.840  -7.156  1.00  0.00     0.000 C 
BRANCH   3   4
ATOM      4  C   UNL     1       5.431  23.476  -6.782  1.00  0.00     0.000 C 
BRANCH   4   5
ATOM      5  C   UNL     1       6.169  22.697  -5.679  1.00  0.00     0.006 C 
BRANCH   5   6
ATOM      6  C   UNL     1       7.617  23.176  -5.502  1.00  0.00     0.053 C 
BRANCH   6   7
ATOM      7  C   UNL     1       8.515  22.072  -5.037  1.00  0.00     0.041 C 
ATOM      8  O   UNL     1       9.418  21.628  -5.794  1.00  0.00    -0.550 OA
ATOM      9  O   UNL     1       8.378  21.558  -3.754  1.00  0.00    -0.550 OA
ENDBRANCH   6   7
ENDBRANCH   5   6
ENDBRANCH   4   5
ENDBRANCH   3   4
ENDBRANCH   2   3
ENDBRANCH   1   2
BRANCH   1  10
ATOM     10  C   UNL     1       5.828  22.249 -10.420  1.00  0.00     0.000 C 
BRANCH  10  11
ATOM     11  C   UNL     1       7.337  22.236 -10.132  1.00  0.00    -0.000 C 
BRANCH  11  12
ATOM     12  C   UNL     1       7.810  23.495  -9.386  1.00  0.00    -0.000 C 
BRANCH  12  13
ATOM     13  C   UNL     1       9.231  23.330  -8.806  1.00  0.00    -0.000 C 
BRANCH  13  14
ATOM     14  C   UNL     1      10.212  22.642  -9.771  1.00  0.00    -0.000 C 
BRANCH  14  15
ATOM     15  C   UNL     1      11.182  23.626 -10.440  1.00  0.00    -0.003 C 
ATOM     16  C   UNL     1      12.010  24.374  -9.400  1.00  0.00     0.004 C 
ENDBRANCH  14  15
ENDBRANCH  13  14
ENDBRANCH  12  13
ENDBRANCH  11  12
ENDBRANCH  10  11
ENDBRANCH   1  10
TORSDOF 12
ENDMDL
MODEL 8
REMARK VINA RESULT:    -5.018      1.870      4.216
REMARK INTER + INTRA:         -10.029
REMARK INTER:                  -8.660
REMARK INTRA:                  -1.369
REMARK UNBOUND:                -1.491
REMARK SMILES CCCCCCCCCCCCCC(=O)[O-]
REMARK SMILES IDX 8 1 9 2 10 3 11 4 12 5 13 6 14 7 15 8 16 9 7 10 6 11 5 12
REMARK SMILES IDX 4 13 3 14 2 15 1 16
REMARK H PARENT
REMARK Flexibility Score: inf
ROOT
ATOM      1  C   UNL     1       5.430  22.109 -10.246  1.00  0.00     0.000 C 
ENDROOT
BRANCH   1   2
ATOM      2  C   UNL     1       6.719  22.801 -10.715  1.00  0.00     0.000 C 
BRANCH   2   3
ATOM      3  C   UNL     1       7.950  22.375  -9.894  1.00  0.00     0.000 C 
BRANCH   3   4
ATOM      4  C   UNL     1       8.630  23.561  -9.192  1.00  0.00     0.000 C 
BRANCH   4   5
ATOM      5  C   UNL     1      10.090  23.266  -8.807  1.00  0.00     0.006 C 
BRANCH   5   6
ATOM      6  C   UNL     1      10.435  21.777  -8.944  1.00  0.00     0.053 C 
BRANCH   6   7
ATOM      7  C   UNL     1      10.606  21.121  -7.608  1.00  0.00     0.041 C 
ATOM      8  O   UNL     1      10.229  19.932  -7.434  1.00  0.00    -0.550 OA
ATOM      9  O   UNL     1      11.214  21.810  -6.567  1.00  0.00    -0.550 OA
ENDBRANCH   6   7
ENDBRANCH   5   6
ENDBRANCH   4   5
ENDBRANCH   3   4
ENDBRANCH   2   3
ENDBRANCH   1   2
BRANCH   1  10
ATOM     10  C   UNL     1       4.501  23.054  -9.463  1.00  0.00     0.000 C 
BRANCH  10  11
ATOM     11  C   UNL     1       3.865  22.376  -8.240  1.00  0.00    -0.000 C 
BRANCH  11  12
ATOM     12  C   UNL     1       4.280  23.036  -6.913  1.00  0.00    -0.000 C 
BRANCH  12  13
ATOM     13  C   UNL     1       5.757  23.485  -6.924  1.00  0.00    -0.000 C 
BRANCH  13  14
ATOM     14  C   UNL     1       6.469  23.289  -5.574  1.00  0.00    -0.000 C 
BRANCH  14  15
ATOM     15  C   UNL     1       7.933  22.853  -5.730  1.00  0.00    -0.003 C 
ATOM     16  C   UNL     1       8.337  21.882  -4.624  1.00  0.00     0.004 C 
ENDBRANCH  14  15
ENDBRANCH  13  14
ENDBRANCH  12  13
ENDBRANCH  11  12
ENDBRANCH  10  11
ENDBRANCH   1  10
TORSDOF 12
ENDMDL
MODEL 9
REMARK VINA RESULT:    -5.000      1.932      3.785
REMARK INTER + INTRA:          -9.999
REMARK INTER:                  -8.695
REMARK INTRA:                  -1.304
REMARK UNBOUND:                -1.491
REMARK SMILES CCCCCCCCCCCCCC(=O)[O-]
REMARK SMILES IDX 8 1 9 2 10 3 11 4 12 5 13 6 14 7 15 8 16 9 7 10 6 11 5 12
REMARK SMILES IDX 4 13 3 14 2 15 1 16
REMARK H PARENT
REMARK Flexibility Score: inf
ROOT
ATOM      1  C   UNL     1       8.946  22.121  -9.345  1.00  0.00     0.000 C 
ENDROOT
BRANCH   1   2
ATOM      2  C   UNL     1      10.100  22.887 -10.008  1.00  0.00     0.000 C 
BRANCH   2   3
ATOM      3  C   UNL     1      10.630  24.034  -9.128  1.00  0.00     0.000 C 
BRANCH   3   4
ATOM      4  C   UNL     1      12.093  24.387  -9.438  1.00  0.00     0.000 C 
BRANCH   4   5
ATOM      5  C   UNL     1      13.012  24.238  -8.214  1.00  0.00     0.006 C 
BRANCH   5   6
ATOM      6  C   UNL     1      13.271  22.767  -7.860  1.00  0.00     0.053 C 
BRANCH   6   7
ATOM      7  C   UNL     1      12.674  22.401  -6.536  1.00  0.00     0.041 C 
ATOM      8  O   UNL     1      11.469  22.043  -6.461  1.00  0.00    -0.550 OA
ATOM      9  O   UNL     1      13.459  22.418  -5.390  1.00  0.00    -0.550 OA
ENDBRANCH   6   7
ENDBRANCH   5   6
ENDBRANCH   4   5
ENDBRANCH   3   4
ENDBRANCH   2   3
ENDBRANCH   1   2
BRANCH   1  10
ATOM     10  C   UNL     1       7.654  22.152 -10.181  1.00  0.00     0.000 C 
BRANCH  10  11
ATOM     11  C   UNL     1       6.495  22.848  -9.449  1.00  0.00    -0.000 C 
BRANCH  11  12
ATOM     12  C   UNL     1       6.736  24.355  -9.255  1.00  0.00    -0.000 C 
BRANCH  12  13
ATOM     13  C   UNL     1       7.178  24.694  -7.816  1.00  0.00    -0.000 C 
BRANCH  13  14
ATOM     14  C   UNL     1       6.752  23.642  -6.778  1.00  0.00    -0.000 C 
BRANCH  14  15
ATOM     15  C   UNL     1       7.913  23.175  -5.889  1.00  0.00    -0.003 C 
ATOM     16  C   UNL     1       7.491  22.007  -5.003  1.00  0.00     0.004 C 
ENDBRANCH  14  15
ENDBRANCH  13  14
ENDBRANCH  12  13
ENDBRANCH  11  12
ENDBRANCH  10  11
ENDBRANCH   1  10
TORSDOF 12
ENDMDL
