MODEL 1
REMARK VINA RESULT:    -5.397      0.000      0.000
REMARK INTER + INTRA:         -18.278
REMARK INTER:                 -14.231
REMARK INTRA:                  -4.047
REMARK UNBOUND:                -4.047
REMARK SMILES CCCCCCCCCCCCCCCCCCCCCCCCCCCCCC(=O)[O-]
REMARK SMILES IDX 16 1 17 2 18 3 19 4 20 5 21 6 22 7 23 8 24 9 25 10 26 11
REMARK SMILES IDX 27 12 28 13 29 14 30 15 31 16 32 17 15 18 14 19 13 20 12 21
REMARK SMILES IDX 11 22 10 23 9 24 8 25 7 26 6 27 5 28 4 29 3 30 2 31 1 32
REMARK H PARENT
REMARK Flexibility Score: inf
ROOT
ATOM      1  C   UNL     1      83.057  61.853   9.674  1.00  0.00     0.000 C 
ENDROOT
BRANCH   1   2
ATOM      2  C   UNL     1      82.605  60.849  10.746  1.00  0.00     0.000 C 
BRANCH   2   3
ATOM      3  C   UNL     1      82.794  59.386  10.308  1.00  0.00     0.000 C 
BRANCH   3   4
ATOM      4  C   UNL     1      84.106  59.162   9.540  1.00  0.00     0.000 C 
BRANCH   4   5
ATOM      5  C   UNL     1      85.234  58.621  10.437  1.00  0.00     0.000 C 
BRANCH   5   6
ATOM      6  C   UNL     1      85.843  59.698  11.352  1.00  0.00     0.000 C 
BRANCH   6   7
ATOM      7  C   UNL     1      85.698  59.424  12.860  1.00  0.00     0.000 C 
BRANCH   7   8
ATOM      8  C   UNL     1      85.321  60.681  13.663  1.00  0.00     0.000 C 
BRANCH   8   9
ATOM      9  C   UNL     1      84.153  60.438  14.633  1.00  0.00     0.000 C 
BRANCH   9  10
ATOM     10  C   UNL     1      84.341  61.167  15.975  1.00  0.00     0.000 C 
BRANCH  10  11
ATOM     11  C   UNL     1      85.402  62.276  15.898  1.00  0.00     0.000 C 
BRANCH  11  12
ATOM     12  C   UNL     1      85.009  63.519  16.715  1.00  0.00     0.000 C 
BRANCH  12  13
ATOM     13  C   UNL     1      84.474  64.666  15.837  1.00  0.00     0.006 C 
BRANCH  13  14
ATOM     14  C   UNL     1      85.528  65.320  14.931  1.00  0.00     0.053 C 
BRANCH  14  15
ATOM     15  C   UNL     1      84.913  65.973  13.731  1.00  0.00     0.041 C 
ATOM     16  O   UNL     1      85.115  65.502  12.580  1.00  0.00    -0.550 OA
ATOM     17  O   UNL     1      84.159  67.131  13.877  1.00  0.00    -0.550 OA
ENDBRANCH  14  15
ENDBRANCH  13  14
ENDBRANCH  12  13
ENDBRANCH  11  12
ENDBRANCH  10  11
ENDBRANCH   9  10
ENDBRANCH   8   9
ENDBRANCH   7   8
ENDBRANCH   6   7
ENDBRANCH   5   6
ENDBRANCH   4   5
ENDBRANCH   3   4
ENDBRANCH   2   3
ENDBRANCH   1   2
BRANCH   1  18
ATOM     18  C   UNL     1      84.161  62.799  10.175  1.00  0.00     0.000 C 
BRANCH  18  19
ATOM     19  C   UNL     1      85.350  62.888   9.202  1.00  0.00     0.000 C 
BRANCH  19  20
ATOM     20  C   UNL     1      84.906  63.120   7.746  1.00  0.00     0.000 C 
BRANCH  20  21
ATOM     21  C   UNL     1      85.746  64.191   7.034  1.00  0.00     0.000 C 
BRANCH  21  22
ATOM     22  C   UNL     1      86.718  64.913   7.983  1.00  0.00     0.000 C 
BRANCH  22  23
ATOM     23  C   UNL     1      88.050  65.272   7.304  1.00  0.00     0.000 C 
BRANCH  23  24
ATOM     24  C   UNL     1      88.718  64.055   6.639  1.00  0.00    -0.000 C 
BRANCH  24  25
ATOM     25  C   UNL     1      89.680  63.318   7.583  1.00  0.00    -0.000 C 
BRANCH  25  26
ATOM     26  C   UNL     1      89.592  61.787   7.442  1.00  0.00    -0.000 C 
BRANCH  26  27
ATOM     27  C   UNL     1      88.135  61.290   7.322  1.00  0.00    -0.000 C 
BRANCH  27  28
ATOM     28  C   UNL     1      87.799  60.106   8.249  1.00  0.00    -0.000 C 
BRANCH  28  29
ATOM     29  C   UNL     1      88.776  58.922   8.167  1.00  0.00    -0.000 C 
BRANCH  29  30
ATOM     30  C   UNL     1      88.413  57.785   9.137  1.00  0.00    -0.000 C 
BRANCH  30  31
ATOM     31  C   UNL     1      88.840  56.406   8.611  1.00  0.00    -0.003 C 
ATOM     32  C   UNL     1      88.421  56.172   7.159  1.00  0.00     0.004 C 
ENDBRANCH  30  31
ENDBRANCH  29  30
ENDBRANCH  28  29
ENDBRANCH  27  28
ENDBRANCH  26  27
ENDBRANCH  25  26
ENDBRANCH  24  25
ENDBRANCH  23  24
ENDBRANCH  22  23
ENDBRANCH  21  22
ENDBRANCH  20  21
ENDBRANCH  19  20
ENDBRANCH  18  19
ENDBRANCH   1  18
TORSDOF 28
ENDMDL
MODEL 2
REMARK VINA RESULT:    -5.336      5.792      8.629
REMARK INTER + INTRA:         -18.116
REMARK INTER:                 -13.221
REMARK INTRA:                  -4.895
REMARK UNBOUND:                -4.047
REMARK SMILES CCCCCCCCCCCCCCCCCCCCCCCCCCCCCC(=O)[O-]
REMARK SMILES IDX 16 1 17 2 18 3 19 4 20 5 21 6 22 7 23 8 24 9 25 10 26 11
REMARK SMILES IDX 27 12 28 13 29 14 30 15 31 16 32 17 15 18 14 19 13 20 12 21
REMARK SMILES IDX 11 22 10 23 9 24 8 25 7 26 6 27 5 28 4 29 3 30 2 31 1 32
REMARK H PARENT
REMARK Flexibility Score: inf
ROOT
ATOM      1  C   UNL     1      79.304  58.475  10.210  1.00  0.00     0.000 C 
ENDROOT
BRANCH   1   2
ATOM      2  C   UNL     1      78.877  57.045  10.578  1.00  0.00     0.000 C 
BRANCH   2   3
ATOM      3  C   UNL     1      77.730  56.522   9.696  1.00  0.00     0.000 C 
BRANCH   3   4
ATOM      4  C   UNL     1      77.804  57.047   8.254  1.00  0.00     0.000 C 
BRANCH   4   5
ATOM      5  C   UNL     1      78.198  55.955   7.243  1.00  0.00     0.000 C 
BRANCH   5   6
ATOM      6  C   UNL     1      77.958  54.531   7.774  1.00  0.00     0.000 C 
BRANCH   6   7
ATOM      7  C   UNL     1      79.212  53.641   7.828  1.00  0.00     0.000 C 
BRANCH   7   8
ATOM      8  C   UNL     1      80.437  54.370   8.409  1.00  0.00     0.000 C 
BRANCH   8   9
ATOM      9  C   UNL     1      80.758  53.938   9.849  1.00  0.00     0.000 C 
BRANCH   9  10
ATOM     10  C   UNL     1      81.648  54.956  10.585  1.00  0.00     0.000 C 
BRANCH  10  11
ATOM     11  C   UNL     1      82.812  55.456   9.714  1.00  0.00     0.000 C 
BRANCH  11  12
ATOM     12  C   UNL     1      83.926  54.406   9.567  1.00  0.00     0.000 C 
BRANCH  12  13
ATOM     13  C   UNL     1      84.445  53.893  10.924  1.00  0.00     0.006 C 
BRANCH  13  14
ATOM     14  C   UNL     1      84.040  52.450  11.258  1.00  0.00     0.053 C 
BRANCH  14  15
ATOM     15  C   UNL     1      85.183  51.493  11.106  1.00  0.00     0.041 C 
ATOM     16  O   UNL     1      85.186  50.404  11.738  1.00  0.00    -0.550 OA
ATOM     17  O   UNL     1      86.269  51.826  10.306  1.00  0.00    -0.550 OA
ENDBRANCH  14  15
ENDBRANCH  13  14
ENDBRANCH  12  13
ENDBRANCH  11  12
ENDBRANCH  10  11
ENDBRANCH   9  10
ENDBRANCH   8   9
ENDBRANCH   7   8
ENDBRANCH   6   7
ENDBRANCH   5   6
ENDBRANCH   4   5
ENDBRANCH   3   4
ENDBRANCH   2   3
ENDBRANCH   1   2
BRANCH   1  18
ATOM     18  C   UNL     1      80.724  58.813  10.692  1.00  0.00     0.000 C 
BRANCH  18  19
ATOM     19  C   UNL     1      81.141  60.252  10.344  1.00  0.00     0.000 C 
BRANCH  19  20
ATOM     20  C   UNL     1      82.652  60.491  10.526  1.00  0.00     0.000 C 
BRANCH  20  21
ATOM     21  C   UNL     1      83.438  59.187  10.726  1.00  0.00     0.000 C 
BRANCH  21  22
ATOM     22  C   UNL     1      84.354  58.856   9.534  1.00  0.00     0.000 C 
BRANCH  22  23
ATOM     23  C   UNL     1      85.470  57.865   9.904  1.00  0.00     0.000 C 
BRANCH  23  24
ATOM     24  C   UNL     1      86.869  58.504   9.843  1.00  0.00    -0.000 C 
BRANCH  24  25
ATOM     25  C   UNL     1      87.998  57.472   9.986  1.00  0.00    -0.000 C 
BRANCH  25  26
ATOM     26  C   UNL     1      87.508  56.134  10.570  1.00  0.00    -0.000 C 
BRANCH  26  27
ATOM     27  C   UNL     1      87.777  54.945   9.623  1.00  0.00    -0.000 C 
BRANCH  27  28
ATOM     28  C   UNL     1      88.197  55.360   8.200  1.00  0.00    -0.000 C 
BRANCH  28  29
ATOM     29  C   UNL     1      87.202  54.974   7.094  1.00  0.00    -0.000 C 
BRANCH  29  30
ATOM     30  C   UNL     1      86.100  56.028   6.894  1.00  0.00    -0.000 C 
BRANCH  30  31
ATOM     31  C   UNL     1      86.577  57.226   6.058  1.00  0.00    -0.003 C 
ATOM     32  C   UNL     1      85.598  58.399   6.097  1.00  0.00     0.004 C 
ENDBRANCH  30  31
ENDBRANCH  29  30
ENDBRANCH  28  29
ENDBRANCH  27  28
ENDBRANCH  26  27
ENDBRANCH  25  26
ENDBRANCH  24  25
ENDBRANCH  23  24
ENDBRANCH  22  23
ENDBRANCH  21  22
ENDBRANCH  20  21
ENDBRANCH  19  20
ENDBRANCH  18  19
ENDBRANCH   1  18
TORSDOF 28
ENDMDL
MODEL 3
REMARK VINA RESULT:    -5.279      2.936      5.897
REMARK INTER + INTRA:         -17.967
REMARK INTER:                 -12.457
REMARK INTRA:                  -5.510
REMARK UNBOUND:                -4.047
REMARK SMILES CCCCCCCCCCCCCCCCCCCCCCCCCCCCCC(=O)[O-]
REMARK SMILES IDX 16 1 17 2 18 3 19 4 20 5 21 6 22 7 23 8 24 9 25 10 26 11
REMARK SMILES IDX 27 12 28 13 29 14 30 15 31 16 32 17 15 18 14 19 13 20 12 21
REMARK SMILES IDX 11 22 10 23 9 24 8 25 7 26 6 27 5 28 4 29 3 30 2 31 1 32
REMARK H PARENT
REMARK Flexibility Score: inf
ROOT
ATOM      1  C   UNL     1      87.085  60.644   8.048  1.00  0.00     0.000 C 
ENDROOT
BRANCH   1   2
ATOM      2  C   UNL     1      86.355  60.524   6.701  1.00  0.00     0.000 C 
BRANCH   2   3
ATOM      3  C   UNL     1      85.658  59.163   6.523  1.00  0.00     0.000 C 
BRANCH   3   4
ATOM      4  C   UNL     1      86.228  58.354   5.348  1.00  0.00     0.000 C 
BRANCH   4   5
ATOM      5  C   UNL     1      87.577  57.692   5.681  1.00  0.00     0.000 C 
BRANCH   5   6
ATOM      6  C   UNL     1      87.607  57.066   7.087  1.00  0.00     0.000 C 
BRANCH   6   7
ATOM      7  C   UNL     1      89.003  56.985   7.729  1.00  0.00     0.000 C 
BRANCH   7   8
ATOM      8  C   UNL     1      89.003  57.393   9.213  1.00  0.00     0.000 C 
BRANCH   8   9
ATOM      9  C   UNL     1      87.695  57.023   9.931  1.00  0.00     0.000 C 
BRANCH   9  10
ATOM     10  C   UNL     1      87.427  57.909  11.161  1.00  0.00     0.000 C 
BRANCH  10  11
ATOM     11  C   UNL     1      86.086  58.654  11.068  1.00  0.00     0.000 C 
BRANCH  11  12
ATOM     12  C   UNL     1      85.755  59.425  12.358  1.00  0.00     0.000 C 
BRANCH  12  13
ATOM     13  C   UNL     1      84.994  60.737  12.090  1.00  0.00     0.006 C 
BRANCH  13  14
ATOM     14  C   UNL     1      84.406  60.855  10.676  1.00  0.00     0.053 C 
BRANCH  14  15
ATOM     15  C   UNL     1      82.909  60.778  10.678  1.00  0.00     0.041 C 
ATOM     16  O   UNL     1      82.233  61.568   9.969  1.00  0.00    -0.550 OA
ATOM     17  O   UNL     1      82.260  59.867  11.502  1.00  0.00    -0.550 OA
ENDBRANCH  14  15
ENDBRANCH  13  14
ENDBRANCH  12  13
ENDBRANCH  11  12
ENDBRANCH  10  11
ENDBRANCH   9  10
ENDBRANCH   8   9
ENDBRANCH   7   8
ENDBRANCH   6   7
ENDBRANCH   5   6
ENDBRANCH   4   5
ENDBRANCH   3   4
ENDBRANCH   2   3
ENDBRANCH   1   2
BRANCH   1  18
ATOM     18  C   UNL     1      88.613  60.716   7.891  1.00  0.00     0.000 C 
BRANCH  18  19
ATOM     19  C   UNL     1      89.043  61.308   6.538  1.00  0.00     0.000 C 
BRANCH  19  20
ATOM     20  C   UNL     1      90.149  60.482   5.856  1.00  0.00     0.000 C 
BRANCH  20  21
ATOM     21  C   UNL     1      91.558  61.007   6.166  1.00  0.00     0.000 C 
BRANCH  21  22
ATOM     22  C   UNL     1      91.798  62.426   5.622  1.00  0.00     0.000 C 
BRANCH  22  23
ATOM     23  C   UNL     1      92.036  63.454   6.740  1.00  0.00     0.000 C 
BRANCH  23  24
ATOM     24  C   UNL     1      92.219  62.794   8.119  1.00  0.00    -0.000 C 
BRANCH  24  25
ATOM     25  C   UNL     1      91.438  63.513   9.229  1.00  0.00    -0.000 C 
BRANCH  25  26
ATOM     26  C   UNL     1      91.648  65.039   9.209  1.00  0.00    -0.000 C 
BRANCH  26  27
ATOM     27  C   UNL     1      90.315  65.815   9.132  1.00  0.00    -0.000 C 
BRANCH  27  28
ATOM     28  C   UNL     1      89.082  64.921   8.902  1.00  0.00    -0.000 C 
BRANCH  28  29
ATOM     29  C   UNL     1      88.611  64.831   7.442  1.00  0.00    -0.000 C 
BRANCH  29  30
ATOM     30  C   UNL     1      87.085  64.680   7.319  1.00  0.00    -0.000 C 
BRANCH  30  31
ATOM     31  C   UNL     1      86.443  64.144   8.608  1.00  0.00    -0.003 C 
ATOM     32  C   UNL     1      85.049  63.560   8.374  1.00  0.00     0.004 C 
ENDBRANCH  30  31
ENDBRANCH  29  30
ENDBRANCH  28  29
ENDBRANCH  27  28
ENDBRANCH  26  27
ENDBRANCH  25  26
ENDBRANCH  24  25
ENDBRANCH  23  24
ENDBRANCH  22  23
ENDBRANCH  21  22
ENDBRANCH  20  21
ENDBRANCH  19  20
ENDBRANCH  18  19
ENDBRANCH   1  18
TORSDOF 28
ENDMDL
MODEL 4
REMARK VINA RESULT:    -5.262      1.416      2.750
REMARK INTER + INTRA:         -17.921
REMARK INTER:                 -14.566
REMARK INTRA:                  -3.355
REMARK UNBOUND:                -4.047
REMARK SMILES CCCCCCCCCCCCCCCCCCCCCCCCCCCCCC(=O)[O-]
REMARK SMILES IDX 16 1 17 2 18 3 19 4 20 5 21 6 22 7 23 8 24 9 25 10 26 11
REMARK SMILES IDX 27 12 28 13 29 14 30 15 31 16 32 17 15 18 14 19 13 20 12 21
REMARK SMILES IDX 11 22 10 23 9 24 8 25 7 26 6 27 5 28 4 29 3 30 2 31 1 32
REMARK H PARENT
REMARK Flexibility Score: inf
ROOT
ATOM      1  C   UNL     1      85.615  63.030   8.625  1.00  0.00     0.000 C 
ENDROOT
BRANCH   1   2
ATOM      2  C   UNL     1      84.797  63.048   9.926  1.00  0.00     0.000 C 
BRANCH   2   3
ATOM      3  C   UNL     1      83.280  63.099   9.673  1.00  0.00     0.000 C 
BRANCH   3   4
ATOM      4  C   UNL     1      82.633  61.705   9.663  1.00  0.00     0.000 C 
BRANCH   4   5
ATOM      5  C   UNL     1      83.029  60.858  10.886  1.00  0.00     0.000 C 
BRANCH   5   6
ATOM      6  C   UNL     1      83.455  59.427  10.512  1.00  0.00     0.000 C 
BRANCH   6   7
ATOM      7  C   UNL     1      84.882  59.044  10.943  1.00  0.00     0.000 C 
BRANCH   7   8
ATOM      8  C   UNL     1      85.562  60.132  11.791  1.00  0.00     0.000 C 
BRANCH   8   9
ATOM      9  C   UNL     1      85.624  59.770  13.284  1.00  0.00     0.000 C 
BRANCH   9  10
ATOM     10  C   UNL     1      84.912  60.807  14.172  1.00  0.00     0.000 C 
BRANCH  10  11
ATOM     11  C   UNL     1      85.900  61.694  14.947  1.00  0.00     0.000 C 
BRANCH  11  12
ATOM     12  C   UNL     1      85.386  62.052  16.352  1.00  0.00     0.000 C 
BRANCH  12  13
ATOM     13  C   UNL     1      84.903  63.511  16.457  1.00  0.00     0.006 C 
BRANCH  13  14
ATOM     14  C   UNL     1      85.269  64.391  15.252  1.00  0.00     0.053 C 
BRANCH  14  15
ATOM     15  C   UNL     1      84.386  65.598  15.147  1.00  0.00     0.041 C 
ATOM     16  O   UNL     1      83.571  65.870  16.067  1.00  0.00    -0.550 OA
ATOM     17  O   UNL     1      84.427  66.394  14.009  1.00  0.00    -0.550 OA
ENDBRANCH  14  15
ENDBRANCH  13  14
ENDBRANCH  12  13
ENDBRANCH  11  12
ENDBRANCH  10  11
ENDBRANCH   9  10
ENDBRANCH   8   9
ENDBRANCH   7   8
ENDBRANCH   6   7
ENDBRANCH   5   6
ENDBRANCH   4   5
ENDBRANCH   3   4
ENDBRANCH   2   3
ENDBRANCH   1   2
BRANCH   1  18
ATOM     18  C   UNL     1      87.069  63.487   8.831  1.00  0.00     0.000 C 
BRANCH  18  19
ATOM     19  C   UNL     1      87.278  64.970   8.484  1.00  0.00     0.000 C 
BRANCH  19  20
ATOM     20  C   UNL     1      88.601  65.221   7.736  1.00  0.00     0.000 C 
BRANCH  20  21
ATOM     21  C   UNL     1      89.539  66.174   8.493  1.00  0.00     0.000 C 
BRANCH  21  22
ATOM     22  C   UNL     1      90.017  65.595   9.835  1.00  0.00     0.000 C 
BRANCH  22  23
ATOM     23  C   UNL     1      90.555  64.161   9.702  1.00  0.00     0.000 C 
BRANCH  23  24
ATOM     24  C   UNL     1      91.936  64.110   9.023  1.00  0.00    -0.000 C 
BRANCH  24  25
ATOM     25  C   UNL     1      92.132  62.846   8.173  1.00  0.00    -0.000 C 
BRANCH  25  26
ATOM     26  C   UNL     1      91.430  62.935   6.806  1.00  0.00    -0.000 C 
BRANCH  26  27
ATOM     27  C   UNL     1      90.066  62.211   6.797  1.00  0.00    -0.000 C 
BRANCH  27  28
ATOM     28  C   UNL     1      90.053  60.891   7.590  1.00  0.00    -0.000 C 
BRANCH  28  29
ATOM     29  C   UNL     1      88.664  60.256   7.767  1.00  0.00    -0.000 C 
BRANCH  29  30
ATOM     30  C   UNL     1      88.609  58.802   7.267  1.00  0.00    -0.000 C 
BRANCH  30  31
ATOM     31  C   UNL     1      88.976  57.790   8.364  1.00  0.00    -0.003 C 
ATOM     32  C   UNL     1      88.054  57.878   9.580  1.00  0.00     0.004 C 
ENDBRANCH  30  31
ENDBRANCH  29  30
ENDBRANCH  28  29
ENDBRANCH  27  28
ENDBRANCH  26  27
ENDBRANCH  25  26
ENDBRANCH  24  25
ENDBRANCH  23  24
ENDBRANCH  22  23
ENDBRANCH  21  22
ENDBRANCH  20  21
ENDBRANCH  19  20
ENDBRANCH  18  19
ENDBRANCH   1  18
TORSDOF 28
ENDMDL
MODEL 5
REMARK VINA RESULT:    -5.249      3.991      8.098
REMARK INTER + INTRA:         -17.887
REMARK INTER:                 -12.356
REMARK INTRA:                  -5.531
REMARK UNBOUND:                -4.047
REMARK SMILES CCCCCCCCCCCCCCCCCCCCCCCCCCCCCC(=O)[O-]
REMARK SMILES IDX 16 1 17 2 18 3 19 4 20 5 21 6 22 7 23 8 24 9 25 10 26 11
REMARK SMILES IDX 27 12 28 13 29 14 30 15 31 16 32 17 15 18 14 19 13 20 12 21
REMARK SMILES IDX 11 22 10 23 9 24 8 25 7 26 6 27 5 28 4 29 3 30 2 31 1 32
REMARK H PARENT
REMARK Flexibility Score: inf
ROOT
ATOM      1  C   UNL     1      89.475  64.086   8.883  1.00  0.00     0.000 C 
ENDROOT
BRANCH   1   2
ATOM      2  C   UNL     1      90.509  64.627   9.883  1.00  0.00     0.000 C 
BRANCH   2   3
ATOM      3  C   UNL     1      91.847  64.990   9.215  1.00  0.00     0.000 C 
BRANCH   3   4
ATOM      4  C   UNL     1      91.894  66.449   8.736  1.00  0.00     0.000 C 
BRANCH   4   5
ATOM      5  C   UNL     1      92.291  66.576   7.254  1.00  0.00     0.000 C 
BRANCH   5   6
ATOM      6  C   UNL     1      91.131  66.261   6.292  1.00  0.00     0.000 C 
BRANCH   6   7
ATOM      7  C   UNL     1      91.445  65.196   5.227  1.00  0.00     0.000 C 
BRANCH   7   8
ATOM      8  C   UNL     1      91.011  63.781   5.651  1.00  0.00     0.000 C 
BRANCH   8   9
ATOM      9  C   UNL     1      92.196  62.898   6.076  1.00  0.00     0.000 C 
BRANCH   9  10
ATOM     10  C   UNL     1      91.788  61.812   7.087  1.00  0.00     0.000 C 
BRANCH  10  11
ATOM     11  C   UNL     1      90.661  60.910   6.560  1.00  0.00     0.000 C 
BRANCH  11  12
ATOM     12  C   UNL     1      89.589  60.630   7.627  1.00  0.00     0.000 C 
BRANCH  12  13
ATOM     13  C   UNL     1      88.183  61.088   7.196  1.00  0.00     0.006 C 
BRANCH  13  14
ATOM     14  C   UNL     1      88.063  61.462   5.711  1.00  0.00     0.053 C 
BRANCH  14  15
ATOM     15  C   UNL     1      87.188  60.507   4.957  1.00  0.00     0.041 C 
ATOM     16  O   UNL     1      87.701  59.579   4.278  1.00  0.00    -0.550 OA
ATOM     17  O   UNL     1      85.809  60.673   4.963  1.00  0.00    -0.550 OA
ENDBRANCH  14  15
ENDBRANCH  13  14
ENDBRANCH  12  13
ENDBRANCH  11  12
ENDBRANCH  10  11
ENDBRANCH   9  10
ENDBRANCH   8   9
ENDBRANCH   7   8
ENDBRANCH   6   7
ENDBRANCH   5   6
ENDBRANCH   4   5
ENDBRANCH   3   4
ENDBRANCH   2   3
ENDBRANCH   1   2
BRANCH   1  18
ATOM     18  C   UNL     1      88.460  65.155   8.441  1.00  0.00     0.000 C 
BRANCH  18  19
ATOM     19  C   UNL     1      87.791  64.817   7.099  1.00  0.00     0.000 C 
BRANCH  19  20
ATOM     20  C   UNL     1      86.266  65.033   7.128  1.00  0.00     0.000 C 
BRANCH  20  21
ATOM     21  C   UNL     1      85.483  63.717   7.253  1.00  0.00     0.000 C 
BRANCH  21  22
ATOM     22  C   UNL     1      85.345  63.244   8.710  1.00  0.00     0.000 C 
BRANCH  22  23
ATOM     23  C   UNL     1      83.907  62.831   9.063  1.00  0.00     0.000 C 
BRANCH  23  24
ATOM     24  C   UNL     1      83.857  61.693  10.098  1.00  0.00    -0.000 C 
BRANCH  24  25
ATOM     25  C   UNL     1      85.236  61.068  10.358  1.00  0.00    -0.000 C 
BRANCH  25  26
ATOM     26  C   UNL     1      85.336  59.618   9.849  1.00  0.00    -0.000 C 
BRANCH  26  27
ATOM     27  C   UNL     1      85.187  59.521   8.315  1.00  0.00    -0.000 C 
BRANCH  27  28
ATOM     28  C   UNL     1      85.772  58.230   7.709  1.00  0.00    -0.000 C 
BRANCH  28  29
ATOM     29  C   UNL     1      85.522  56.958   8.535  1.00  0.00    -0.000 C 
BRANCH  29  30
ATOM     30  C   UNL     1      86.804  56.139   8.765  1.00  0.00    -0.000 C 
BRANCH  30  31
ATOM     31  C   UNL     1      87.624  56.655   9.957  1.00  0.00    -0.003 C 
ATOM     32  C   UNL     1      88.816  57.511   9.527  1.00  0.00     0.004 C 
ENDBRANCH  30  31
ENDBRANCH  29  30
ENDBRANCH  28  29
ENDBRANCH  27  28
ENDBRANCH  26  27
ENDBRANCH  25  26
ENDBRANCH  24  25
ENDBRANCH  23  24
ENDBRANCH  22  23
ENDBRANCH  21  22
ENDBRANCH  20  21
ENDBRANCH  19  20
ENDBRANCH  18  19
ENDBRANCH   1  18
TORSDOF 28
ENDMDL
MODEL 6
REMARK VINA RESULT:    -5.204      5.573      8.467
REMARK INTER + INTRA:         -17.769
REMARK INTER:                 -12.436
REMARK INTRA:                  -5.333
REMARK UNBOUND:                -4.047
REMARK SMILES CCCCCCCCCCCCCCCCCCCCCCCCCCCCCC(=O)[O-]
REMARK SMILES IDX 16 1 17 2 18 3 19 4 20 5 21 6 22 7 23 8 24 9 25 10 26 11
REMARK SMILES IDX 27 12 28 13 29 14 30 15 31 16 32 17 15 18 14 19 13 20 12 21
REMARK SMILES IDX 11 22 10 23 9 24 8 25 7 26 6 27 5 28 4 29 3 30 2 31 1 32
REMARK H PARENT
REMARK Flexibility Score: inf
ROOT
ATOM      1  C   UNL     1      80.897  58.733  10.724  1.00  0.00     0.000 C 
ENDROOT
BRANCH   1   2
ATOM      2  C   UNL     1      79.467  58.408  10.264  1.00  0.00     0.000 C 
BRANCH   2   3
ATOM      3  C   UNL     1      79.009  57.003  10.694  1.00  0.00     0.000 C 
BRANCH   3   4
ATOM      4  C   UNL     1      77.896  56.442   9.796  1.00  0.00     0.000 C 
BRANCH   4   5
ATOM      5  C   UNL     1      78.015  56.914   8.336  1.00  0.00     0.000 C 
BRANCH   5   6
ATOM      6  C   UNL     1      78.063  55.749   7.331  1.00  0.00     0.000 C 
BRANCH   6   7
ATOM      7  C   UNL     1      77.878  54.352   7.950  1.00  0.00     0.000 C 
BRANCH   7   8
ATOM      8  C   UNL     1      79.055  53.406   7.653  1.00  0.00     0.000 C 
BRANCH   8   9
ATOM      9  C   UNL     1      80.039  53.295   8.829  1.00  0.00     0.000 C 
BRANCH   9  10
ATOM     10  C   UNL     1      81.458  53.761   8.456  1.00  0.00     0.000 C 
BRANCH  10  11
ATOM     11  C   UNL     1      81.799  55.138   9.048  1.00  0.00     0.000 C 
BRANCH  11  12
ATOM     12  C   UNL     1      82.162  55.059  10.541  1.00  0.00     0.000 C 
BRANCH  12  13
ATOM     13  C   UNL     1      83.663  54.809  10.778  1.00  0.00     0.006 C 
BRANCH  13  14
ATOM     14  C   UNL     1      84.030  53.342  11.048  1.00  0.00     0.053 C 
BRANCH  14  15
ATOM     15  C   UNL     1      84.889  52.767   9.964  1.00  0.00     0.041 C 
ATOM     16  O   UNL     1      84.416  51.918   9.164  1.00  0.00    -0.550 OA
ATOM     17  O   UNL     1      86.227  53.129   9.869  1.00  0.00    -0.550 OA
ENDBRANCH  14  15
ENDBRANCH  13  14
ENDBRANCH  12  13
ENDBRANCH  11  12
ENDBRANCH  10  11
ENDBRANCH   9  10
ENDBRANCH   8   9
ENDBRANCH   7   8
ENDBRANCH   6   7
ENDBRANCH   5   6
ENDBRANCH   4   5
ENDBRANCH   3   4
ENDBRANCH   2   3
ENDBRANCH   1   2
BRANCH   1  18
ATOM     18  C   UNL     1      81.327  60.164  10.361  1.00  0.00     0.000 C 
BRANCH  18  19
ATOM     19  C   UNL     1      82.855  60.334  10.332  1.00  0.00     0.000 C 
BRANCH  19  20
ATOM     20  C   UNL     1      83.601  59.057  10.759  1.00  0.00     0.000 C 
BRANCH  20  21
ATOM     21  C   UNL     1      84.466  58.470   9.634  1.00  0.00     0.000 C 
BRANCH  21  22
ATOM     22  C   UNL     1      85.968  58.489   9.967  1.00  0.00     0.000 C 
BRANCH  22  23
ATOM     23  C   UNL     1      86.421  57.229  10.723  1.00  0.00     0.000 C 
BRANCH  23  24
ATOM     24  C   UNL     1      87.565  56.491  10.005  1.00  0.00    -0.000 C 
BRANCH  24  25
ATOM     25  C   UNL     1      88.630  57.448   9.448  1.00  0.00    -0.000 C 
BRANCH  25  26
ATOM     26  C   UNL     1      88.930  57.199   7.958  1.00  0.00    -0.000 C 
BRANCH  26  27
ATOM     27  C   UNL     1      87.890  57.863   7.030  1.00  0.00    -0.000 C 
BRANCH  27  28
ATOM     28  C   UNL     1      87.077  56.863   6.184  1.00  0.00    -0.000 C 
BRANCH  28  29
ATOM     29  C   UNL     1      85.583  56.783   6.536  1.00  0.00    -0.000 C 
BRANCH  29  30
ATOM     30  C   UNL     1      85.233  55.526   7.351  1.00  0.00    -0.000 C 
BRANCH  30  31
ATOM     31  C   UNL     1      84.391  54.522   6.549  1.00  0.00    -0.003 C 
ATOM     32  C   UNL     1      83.799  55.130   5.278  1.00  0.00     0.004 C 
ENDBRANCH  30  31
ENDBRANCH  29  30
ENDBRANCH  28  29
ENDBRANCH  27  28
ENDBRANCH  26  27
ENDBRANCH  25  26
ENDBRANCH  24  25
ENDBRANCH  23  24
ENDBRANCH  22  23
ENDBRANCH  21  22
ENDBRANCH  20  21
ENDBRANCH  19  20
ENDBRANCH  18  19
ENDBRANCH   1  18
TORSDOF 28
ENDMDL
MODEL 7
REMARK VINA RESULT:    -5.197      3.877      8.369
REMARK INTER + INTRA:         -17.752
REMARK INTER:                 -13.661
REMARK INTRA:                  -4.090
REMARK UNBOUND:                -4.047
REMARK SMILES CCCCCCCCCCCCCCCCCCCCCCCCCCCCCC(=O)[O-]
REMARK SMILES IDX 16 1 17 2 18 3 19 4 20 5 21 6 22 7 23 8 24 9 25 10 26 11
REMARK SMILES IDX 27 12 28 13 29 14 30 15 31 16 32 17 15 18 14 19 13 20 12 21
REMARK SMILES IDX 11 22 10 23 9 24 8 25 7 26 6 27 5 28 4 29 3 30 2 31 1 32
REMARK H PARENT
REMARK Flexibility Score: inf
ROOT
ATOM      1  C   UNL     1      87.231  55.811   9.438  1.00  0.00     0.000 C 
ENDROOT
BRANCH   1   2
ATOM      2  C   UNL     1      88.199  57.002   9.514  1.00  0.00     0.000 C 
BRANCH   2   3
ATOM      3  C   UNL     1      88.834  57.340   8.153  1.00  0.00     0.000 C 
BRANCH   3   4
ATOM      4  C   UNL     1      88.828  58.847   7.855  1.00  0.00     0.000 C 
BRANCH   4   5
ATOM      5  C   UNL     1      87.536  59.541   8.321  1.00  0.00     0.000 C 
BRANCH   5   6
ATOM      6  C   UNL     1      86.376  59.386   7.321  1.00  0.00     0.000 C 
BRANCH   6   7
ATOM      7  C   UNL     1      85.695  60.703   6.909  1.00  0.00     0.000 C 
BRANCH   7   8
ATOM      8  C   UNL     1      85.789  61.788   7.996  1.00  0.00     0.000 C 
BRANCH   8   9
ATOM      9  C   UNL     1      85.098  63.100   7.587  1.00  0.00     0.000 C 
BRANCH   9  10
ATOM     10  C   UNL     1      86.069  64.293   7.559  1.00  0.00     0.000 C 
BRANCH  10  11
ATOM     11  C   UNL     1      87.107  64.234   8.691  1.00  0.00     0.000 C 
BRANCH  11  12
ATOM     12  C   UNL     1      88.542  64.447   8.180  1.00  0.00     0.000 C 
BRANCH  12  13
ATOM     13  C   UNL     1      89.381  63.155   8.200  1.00  0.00     0.006 C 
BRANCH  13  14
ATOM     14  C   UNL     1      89.377  62.372   6.878  1.00  0.00     0.053 C 
BRANCH  14  15
ATOM     15  C   UNL     1      90.719  61.783   6.567  1.00  0.00     0.041 C 
ATOM     16  O   UNL     1      90.900  61.147   5.495  1.00  0.00    -0.550 OA
ATOM     17  O   UNL     1      91.757  61.891   7.484  1.00  0.00    -0.550 OA
ENDBRANCH  14  15
ENDBRANCH  13  14
ENDBRANCH  12  13
ENDBRANCH  11  12
ENDBRANCH  10  11
ENDBRANCH   9  10
ENDBRANCH   8   9
ENDBRANCH   7   8
ENDBRANCH   6   7
ENDBRANCH   5   6
ENDBRANCH   4   5
ENDBRANCH   3   4
ENDBRANCH   2   3
ENDBRANCH   1   2
BRANCH   1  18
ATOM     18  C   UNL     1      85.955  56.132   8.642  1.00  0.00     0.000 C 
BRANCH  18  19
ATOM     19  C   UNL     1      84.692  56.125   9.519  1.00  0.00     0.000 C 
BRANCH  19  20
ATOM     20  C   UNL     1      84.172  57.543   9.818  1.00  0.00     0.000 C 
BRANCH  20  21
ATOM     21  C   UNL     1      85.042  58.291  10.839  1.00  0.00     0.000 C 
BRANCH  21  22
ATOM     22  C   UNL     1      84.716  59.793  10.911  1.00  0.00     0.000 C 
BRANCH  22  23
ATOM     23  C   UNL     1      83.277  60.063  11.382  1.00  0.00     0.000 C 
BRANCH  23  24
ATOM     24  C   UNL     1      82.496  60.961  10.407  1.00  0.00    -0.000 C 
BRANCH  24  25
ATOM     25  C   UNL     1      81.135  60.367  10.014  1.00  0.00    -0.000 C 
BRANCH  25  26
ATOM     26  C   UNL     1      80.842  59.034  10.728  1.00  0.00    -0.000 C 
BRANCH  26  27
ATOM     27  C   UNL     1      79.507  58.405  10.275  1.00  0.00    -0.000 C 
BRANCH  27  28
ATOM     28  C   UNL     1      79.297  56.960  10.765  1.00  0.00    -0.000 C 
BRANCH  28  29
ATOM     29  C   UNL     1      78.324  56.124   9.918  1.00  0.00    -0.000 C 
BRANCH  29  30
ATOM     30  C   UNL     1      77.824  56.877   8.674  1.00  0.00    -0.000 C 
BRANCH  30  31
ATOM     31  C   UNL     1      77.622  55.948   7.467  1.00  0.00    -0.003 C 
ATOM     32  C   UNL     1      78.181  54.545   7.702  1.00  0.00     0.004 C 
ENDBRANCH  30  31
ENDBRANCH  29  30
ENDBRANCH  28  29
ENDBRANCH  27  28
ENDBRANCH  26  27
ENDBRANCH  25  26
ENDBRANCH  24  25
ENDBRANCH  23  24
ENDBRANCH  22  23
ENDBRANCH  21  22
ENDBRANCH  20  21
ENDBRANCH  19  20
ENDBRANCH  18  19
ENDBRANCH   1  18
TORSDOF 28
ENDMDL
MODEL 8
REMARK VINA RESULT:    -5.168      3.252      5.327
REMARK INTER + INTRA:         -17.673
REMARK INTER:                 -11.983
REMARK INTRA:                  -5.690
REMARK UNBOUND:                -4.047
REMARK SMILES CCCCCCCCCCCCCCCCCCCCCCCCCCCCCC(=O)[O-]
REMARK SMILES IDX 16 1 17 2 18 3 19 4 20 5 21 6 22 7 23 8 24 9 25 10 26 11
REMARK SMILES IDX 27 12 28 13 29 14 30 15 31 16 32 17 15 18 14 19 13 20 12 21
REMARK SMILES IDX 11 22 10 23 9 24 8 25 7 26 6 27 5 28 4 29 3 30 2 31 1 32
REMARK H PARENT
REMARK Flexibility Score: inf
ROOT
ATOM      1  C   UNL     1      85.679  60.952   7.237  1.00  0.00     0.000 C 
ENDROOT
BRANCH   1   2
ATOM      2  C   UNL     1      85.635  60.900   5.702  1.00  0.00     0.000 C 
BRANCH   2   3
ATOM      3  C   UNL     1      86.330  59.651   5.130  1.00  0.00     0.000 C 
BRANCH   3   4
ATOM      4  C   UNL     1      85.758  58.342   5.696  1.00  0.00     0.000 C 
BRANCH   4   5
ATOM      5  C   UNL     1      86.852  57.375   6.181  1.00  0.00     0.000 C 
BRANCH   5   6
ATOM      6  C   UNL     1      88.212  58.065   6.392  1.00  0.00     0.000 C 
BRANCH   6   7
ATOM      7  C   UNL     1      88.640  58.217   7.863  1.00  0.00     0.000 C 
BRANCH   7   8
ATOM      8  C   UNL     1      88.972  56.871   8.530  1.00  0.00     0.000 C 
BRANCH   8   9
ATOM      9  C   UNL     1      87.953  56.476   9.612  1.00  0.00     0.000 C 
BRANCH   9  10
ATOM     10  C   UNL     1      87.942  57.458  10.797  1.00  0.00     0.000 C 
BRANCH  10  11
ATOM     11  C   UNL     1      86.531  57.974  11.120  1.00  0.00     0.000 C 
BRANCH  11  12
ATOM     12  C   UNL     1      86.268  59.368  10.525  1.00  0.00     0.000 C 
BRANCH  12  13
ATOM     13  C   UNL     1      85.026  60.050  11.130  1.00  0.00     0.006 C 
BRANCH  13  14
ATOM     14  C   UNL     1      83.713  59.760  10.386  1.00  0.00     0.053 C 
BRANCH  14  15
ATOM     15  C   UNL     1      82.911  61.003  10.152  1.00  0.00     0.041 C 
ATOM     16  O   UNL     1      83.486  62.119  10.054  1.00  0.00    -0.550 OA
ATOM     17  O   UNL     1      81.525  60.937  10.093  1.00  0.00    -0.550 OA
ENDBRANCH  14  15
ENDBRANCH  13  14
ENDBRANCH  12  13
ENDBRANCH  11  12
ENDBRANCH  10  11
ENDBRANCH   9  10
ENDBRANCH   8   9
ENDBRANCH   7   8
ENDBRANCH   6   7
ENDBRANCH   5   6
ENDBRANCH   4   5
ENDBRANCH   3   4
ENDBRANCH   2   3
ENDBRANCH   1   2
BRANCH   1  18
ATOM     18  C   UNL     1      86.983  61.565   7.773  1.00  0.00     0.000 C 
BRANCH  18  19
ATOM     19  C   UNL     1      86.734  62.737   8.737  1.00  0.00     0.000 C 
BRANCH  19  20
ATOM     20  C   UNL     1      85.948  63.886   8.081  1.00  0.00     0.000 C 
BRANCH  20  21
ATOM     21  C   UNL     1      86.744  64.594   6.975  1.00  0.00     0.000 C 
BRANCH  21  22
ATOM     22  C   UNL     1      87.516  65.821   7.491  1.00  0.00     0.000 C 
BRANCH  22  23
ATOM     23  C   UNL     1      89.034  65.582   7.549  1.00  0.00     0.000 C 
BRANCH  23  24
ATOM     24  C   UNL     1      89.602  65.748   8.970  1.00  0.00    -0.000 C 
BRANCH  24  25
ATOM     25  C   UNL     1      90.282  64.472   9.489  1.00  0.00    -0.000 C 
BRANCH  25  26
ATOM     26  C   UNL     1      90.347  63.360   8.425  1.00  0.00    -0.000 C 
BRANCH  26  27
ATOM     27  C   UNL     1      91.792  62.890   8.153  1.00  0.00    -0.000 C 
BRANCH  27  28
ATOM     28  C   UNL     1      91.918  61.899   6.980  1.00  0.00    -0.000 C 
BRANCH  28  29
ATOM     29  C   UNL     1      90.657  61.065   6.701  1.00  0.00    -0.000 C 
BRANCH  29  30
ATOM     30  C   UNL     1      90.196  61.160   5.236  1.00  0.00    -0.000 C 
BRANCH  30  31
ATOM     31  C   UNL     1      89.076  62.194   5.039  1.00  0.00    -0.003 C 
ATOM     32  C   UNL     1      89.597  63.541   4.539  1.00  0.00     0.004 C 
ENDBRANCH  30  31
ENDBRANCH  29  30
ENDBRANCH  28  29
ENDBRANCH  27  28
ENDBRANCH  26  27
ENDBRANCH  25  26
ENDBRANCH  24  25
ENDBRANCH  23  24
ENDBRANCH  22  23
ENDBRANCH  21  22
ENDBRANCH  20  21
ENDBRANCH  19  20
ENDBRANCH  18  19
ENDBRANCH   1  18
TORSDOF 28
ENDMDL
MODEL 9
REMARK VINA RESULT:    -5.146      4.494      8.290
REMARK INTER + INTRA:         -17.616
REMARK INTER:                 -11.781
REMARK INTRA:                  -5.835
REMARK UNBOUND:                -4.047
REMARK SMILES CCCCCCCCCCCCCCCCCCCCCCCCCCCCCC(=O)[O-]
REMARK SMILES IDX 16 1 17 2 18 3 19 4 20 5 21 6 22 7 23 8 24 9 25 10 26 11
REMARK SMILES IDX 27 12 28 13 29 14 30 15 31 16 32 17 15 18 14 19 13 20 12 21
REMARK SMILES IDX 11 22 10 23 9 24 8 25 7 26 6 27 5 28 4 29 3 30 2 31 1 32
REMARK H PARENT
REMARK Flexibility Score: inf
ROOT
ATOM      1  C   UNL     1      87.951  63.290   6.663  1.00  0.00     0.000 C 
ENDROOT
BRANCH   1   2
ATOM      2  C   UNL     1      88.825  64.422   6.099  1.00  0.00     0.000 C 
BRANCH   2   3
ATOM      3  C   UNL     1      89.016  65.579   7.096  1.00  0.00     0.000 C 
BRANCH   3   4
ATOM      4  C   UNL     1      90.391  66.253   6.966  1.00  0.00     0.000 C 
BRANCH   4   5
ATOM      5  C   UNL     1      91.182  66.249   8.287  1.00  0.00     0.000 C 
BRANCH   5   6
ATOM      6  C   UNL     1      90.398  65.624   9.455  1.00  0.00     0.000 C 
BRANCH   6   7
ATOM      7  C   UNL     1      90.915  64.251   9.920  1.00  0.00     0.000 C 
BRANCH   7   8
ATOM      8  C   UNL     1      92.036  63.699   9.021  1.00  0.00     0.000 C 
BRANCH   8   9
ATOM      9  C   UNL     1      91.532  62.645   8.022  1.00  0.00     0.000 C 
BRANCH   9  10
ATOM     10  C   UNL     1      92.322  62.660   6.701  1.00  0.00     0.000 C 
BRANCH  10  11
ATOM     11  C   UNL     1      91.936  61.498   5.772  1.00  0.00     0.000 C 
BRANCH  11  12
ATOM     12  C   UNL     1      90.661  60.774   6.239  1.00  0.00     0.000 C 
BRANCH  12  13
ATOM     13  C   UNL     1      89.689  60.472   5.083  1.00  0.00     0.006 C 
BRANCH  13  14
ATOM     14  C   UNL     1      89.696  61.515   3.955  1.00  0.00     0.053 C 
BRANCH  14  15
ATOM     15  C   UNL     1      89.987  60.900   2.619  1.00  0.00     0.041 C 
ATOM     16  O   UNL     1      90.411  59.717   2.545  1.00  0.00    -0.550 OA
ATOM     17  O   UNL     1      89.839  61.651   1.460  1.00  0.00    -0.550 OA
ENDBRANCH  14  15
ENDBRANCH  13  14
ENDBRANCH  12  13
ENDBRANCH  11  12
ENDBRANCH  10  11
ENDBRANCH   9  10
ENDBRANCH   8   9
ENDBRANCH   7   8
ENDBRANCH   6   7
ENDBRANCH   5   6
ENDBRANCH   4   5
ENDBRANCH   3   4
ENDBRANCH   2   3
ENDBRANCH   1   2
BRANCH   1  18
ATOM     18  C   UNL     1      87.803  63.361   8.192  1.00  0.00     0.000 C 
BRANCH  18  19
ATOM     19  C   UNL     1      86.440  63.923   8.629  1.00  0.00     0.000 C 
BRANCH  19  20
ATOM     20  C   UNL     1      85.295  63.495   7.692  1.00  0.00     0.000 C 
BRANCH  20  21
ATOM     21  C   UNL     1      84.164  62.764   8.431  1.00  0.00     0.000 C 
BRANCH  21  22
ATOM     22  C   UNL     1      84.298  62.855   9.961  1.00  0.00     0.000 C 
BRANCH  22  23
ATOM     23  C   UNL     1      84.858  61.564  10.582  1.00  0.00     0.000 C 
BRANCH  23  24
ATOM     24  C   UNL     1      84.227  60.297   9.976  1.00  0.00    -0.000 C 
BRANCH  24  25
ATOM     25  C   UNL     1      85.277  59.280   9.505  1.00  0.00    -0.000 C 
BRANCH  25  26
ATOM     26  C   UNL     1      85.315  59.135   7.972  1.00  0.00    -0.000 C 
BRANCH  26  27
ATOM     27  C   UNL     1      86.655  59.611   7.370  1.00  0.00    -0.000 C 
BRANCH  27  28
ATOM     28  C   UNL     1      87.780  59.790   8.408  1.00  0.00    -0.000 C 
BRANCH  28  29
ATOM     29  C   UNL     1      88.772  58.619   8.494  1.00  0.00    -0.000 C 
BRANCH  29  30
ATOM     30  C   UNL     1      88.693  57.684   7.276  1.00  0.00    -0.000 C 
BRANCH  30  31
ATOM     31  C   UNL     1      88.561  56.206   7.677  1.00  0.00    -0.003 C 
ATOM     32  C   UNL     1      87.143  55.836   8.112  1.00  0.00     0.004 C 
ENDBRANCH  30  31
ENDBRANCH  29  30
ENDBRANCH  28  29
ENDBRANCH  27  28
ENDBRANCH  26  27
ENDBRANCH  25  26
ENDBRANCH  24  25
ENDBRANCH  23  24
ENDBRANCH  22  23
ENDBRANCH  21  22
ENDBRANCH  20  21
ENDBRANCH  19  20
ENDBRANCH  18  19
ENDBRANCH   1  18
TORSDOF 28
ENDMDL
