MODEL 1
REMARK VINA RESULT:    -4.832      0.000      0.000
REMARK INTER + INTRA:         -16.503
REMARK INTER:                 -12.741
REMARK INTRA:                  -3.761
REMARK UNBOUND:                -3.761
REMARK SMILES CCCCCCCCCCCCCCCCCCCCCCCCCCCCCC(=O)[O-]
REMARK SMILES IDX 16 1 17 2 18 3 19 4 20 5 21 6 22 7 23 8 24 9 25 10 26 11
REMARK SMILES IDX 27 12 28 13 29 14 30 15 31 16 32 17 15 18 14 19 13 20 12 21
REMARK SMILES IDX 11 22 10 23 9 24 8 25 7 26 6 27 5 28 4 29 3 30 2 31 1 32
REMARK H PARENT
REMARK Flexibility Score: inf
ROOT
ATOM      1  C   UNL     1      19.759   8.796  28.987  1.00  0.00     0.000 C 
ENDROOT
BRANCH   1   2
ATOM      2  C   UNL     1      21.288   8.949  28.949  1.00  0.00     0.000 C 
BRANCH   2   3
ATOM      3  C   UNL     1      21.907   9.044  30.356  1.00  0.00     0.000 C 
BRANCH   3   4
ATOM      4  C   UNL     1      23.054  10.064  30.428  1.00  0.00     0.000 C 
BRANCH   4   5
ATOM      5  C   UNL     1      23.822  10.181  29.101  1.00  0.00     0.000 C 
BRANCH   5   6
ATOM      6  C   UNL     1      25.193   9.482  29.140  1.00  0.00     0.000 C 
BRANCH   6   7
ATOM      7  C   UNL     1      25.808   9.318  30.547  1.00  0.00     0.000 C 
BRANCH   7   8
ATOM      8  C   UNL     1      27.141  10.056  30.768  1.00  0.00     0.000 C 
BRANCH   8   9
ATOM      9  C   UNL     1      27.337  11.241  29.807  1.00  0.00     0.000 C 
BRANCH   9  10
ATOM     10  C   UNL     1      27.271  12.600  30.525  1.00  0.00     0.000 C 
BRANCH  10  11
ATOM     11  C   UNL     1      28.414  12.804  31.544  1.00  0.00     0.000 C 
BRANCH  11  12
ATOM     12  C   UNL     1      27.892  13.206  32.936  1.00  0.00     0.000 C 
BRANCH  12  13
ATOM     13  C   UNL     1      27.909  12.044  33.946  1.00  0.00     0.006 C 
BRANCH  13  14
ATOM     14  C   UNL     1      26.984  12.256  35.157  1.00  0.00     0.053 C 
BRANCH  14  15
ATOM     15  C   UNL     1      25.532  12.133  34.807  1.00  0.00     0.041 C 
ATOM     16  O   UNL     1      24.645  12.450  35.642  1.00  0.00    -0.550 OA
ATOM     17  O   UNL     1      25.161  11.636  33.562  1.00  0.00    -0.550 OA
ENDBRANCH  14  15
ENDBRANCH  13  14
ENDBRANCH  12  13
ENDBRANCH  11  12
ENDBRANCH  10  11
ENDBRANCH   9  10
ENDBRANCH   8   9
ENDBRANCH   7   8
ENDBRANCH   6   7
ENDBRANCH   5   6
ENDBRANCH   4   5
ENDBRANCH   3   4
ENDBRANCH   2   3
ENDBRANCH   1   2
BRANCH   1  18
ATOM     18  C   UNL     1      19.220   8.625  30.418  1.00  0.00     0.000 C 
BRANCH  18  19
ATOM     19  C   UNL     1      17.981   9.493  30.690  1.00  0.00     0.000 C 
BRANCH  19  20
ATOM     20  C   UNL     1      18.345  10.871  31.263  1.00  0.00     0.000 C 
BRANCH  20  21
ATOM     21  C   UNL     1      19.577  10.783  32.174  1.00  0.00     0.000 C 
BRANCH  21  22
ATOM     22  C   UNL     1      20.475  12.033  32.097  1.00  0.00     0.000 C 
BRANCH  22  23
ATOM     23  C   UNL     1      21.621  12.078  33.126  1.00  0.00     0.000 C 
BRANCH  23  24
ATOM     24  C   UNL     1      21.451  13.125  34.243  1.00  0.00    -0.000 C 
BRANCH  24  25
ATOM     25  C   UNL     1      20.955  12.534  35.580  1.00  0.00    -0.000 C 
BRANCH  25  26
ATOM     26  C   UNL     1      19.548  13.024  35.955  1.00  0.00    -0.000 C 
BRANCH  26  27
ATOM     27  C   UNL     1      18.470  12.146  35.306  1.00  0.00    -0.000 C 
BRANCH  27  28
ATOM     28  C   UNL     1      18.198  10.891  36.149  1.00  0.00    -0.000 C 
BRANCH  28  29
ATOM     29  C   UNL     1      18.788   9.619  35.517  1.00  0.00    -0.000 C 
BRANCH  29  30
ATOM     30  C   UNL     1      19.843   8.949  36.416  1.00  0.00    -0.000 C 
BRANCH  30  31
ATOM     31  C   UNL     1      19.213   8.058  37.499  1.00  0.00    -0.003 C 
ATOM     32  C   UNL     1      19.414   6.567  37.232  1.00  0.00     0.004 C 
ENDBRANCH  30  31
ENDBRANCH  29  30
ENDBRANCH  28  29
ENDBRANCH  27  28
ENDBRANCH  26  27
ENDBRANCH  25  26
ENDBRANCH  24  25
ENDBRANCH  23  24
ENDBRANCH  22  23
ENDBRANCH  21  22
ENDBRANCH  20  21
ENDBRANCH  19  20
ENDBRANCH  18  19
ENDBRANCH   1  18
TORSDOF 28
ENDMDL
MODEL 2
REMARK VINA RESULT:    -4.760      2.232      7.793
REMARK INTER + INTRA:         -16.313
REMARK INTER:                 -12.152
REMARK INTRA:                  -4.161
REMARK UNBOUND:                -3.761
REMARK SMILES CCCCCCCCCCCCCCCCCCCCCCCCCCCCCC(=O)[O-]
REMARK SMILES IDX 16 1 17 2 18 3 19 4 20 5 21 6 22 7 23 8 24 9 25 10 26 11
REMARK SMILES IDX 27 12 28 13 29 14 30 15 31 16 32 17 15 18 14 19 13 20 12 21
REMARK SMILES IDX 11 22 10 23 9 24 8 25 7 26 6 27 5 28 4 29 3 30 2 31 1 32
REMARK H PARENT
REMARK Flexibility Score: inf
ROOT
ATOM      1  C   UNL     1      27.628  13.194  35.526  1.00  0.00     0.000 C 
ENDROOT
BRANCH   1   2
ATOM      2  C   UNL     1      26.129  13.496  35.675  1.00  0.00     0.000 C 
BRANCH   2   3
ATOM      3  C   UNL     1      25.264  12.222  35.632  1.00  0.00     0.000 C 
BRANCH   3   4
ATOM      4  C   UNL     1      23.761  12.531  35.553  1.00  0.00     0.000 C 
BRANCH   4   5
ATOM      5  C   UNL     1      23.175  12.251  34.159  1.00  0.00     0.000 C 
BRANCH   5   6
ATOM      6  C   UNL     1      21.636  12.286  34.140  1.00  0.00     0.000 C 
BRANCH   6   7
ATOM      7  C   UNL     1      20.995  12.288  32.735  1.00  0.00     0.000 C 
BRANCH   7   8
ATOM      8  C   UNL     1      19.656  13.040  32.629  1.00  0.00     0.000 C 
BRANCH   8   9
ATOM      9  C   UNL     1      19.474  14.098  33.731  1.00  0.00     0.000 C 
BRANCH   9  10
ATOM     10  C   UNL     1      18.281  13.790  34.653  1.00  0.00     0.000 C 
BRANCH  10  11
ATOM     11  C   UNL     1      18.707  13.260  36.040  1.00  0.00     0.000 C 
BRANCH  11  12
ATOM     12  C   UNL     1      18.051  11.908  36.376  1.00  0.00     0.000 C 
BRANCH  12  13
ATOM     13  C   UNL     1      18.492  10.771  35.437  1.00  0.00     0.006 C 
BRANCH  13  14
ATOM     14  C   UNL     1      19.681   9.949  35.967  1.00  0.00     0.053 C 
BRANCH  14  15
ATOM     15  C   UNL     1      19.252   8.689  36.656  1.00  0.00     0.041 C 
ATOM     16  O   UNL     1      18.688   8.737  37.781  1.00  0.00    -0.550 OA
ATOM     17  O   UNL     1      19.506   7.456  36.065  1.00  0.00    -0.550 OA
ENDBRANCH  14  15
ENDBRANCH  13  14
ENDBRANCH  12  13
ENDBRANCH  11  12
ENDBRANCH  10  11
ENDBRANCH   9  10
ENDBRANCH   8   9
ENDBRANCH   7   8
ENDBRANCH   6   7
ENDBRANCH   5   6
ENDBRANCH   4   5
ENDBRANCH   3   4
ENDBRANCH   2   3
ENDBRANCH   1   2
BRANCH   1  18
ATOM     18  C   UNL     1      27.967  12.541  34.175  1.00  0.00     0.000 C 
BRANCH  18  19
ATOM     19  C   UNL     1      27.521  13.394  32.977  1.00  0.00     0.000 C 
BRANCH  19  20
ATOM     20  C   UNL     1      26.536  12.650  32.062  1.00  0.00     0.000 C 
BRANCH  20  21
ATOM     21  C   UNL     1      26.582  11.136  32.316  1.00  0.00     0.000 C 
BRANCH  21  22
ATOM     22  C   UNL     1      26.888  10.321  31.045  1.00  0.00     0.000 C 
BRANCH  22  23
ATOM     23  C   UNL     1      25.856   9.228  30.706  1.00  0.00     0.000 C 
BRANCH  23  24
ATOM     24  C   UNL     1      24.657   9.703  29.866  1.00  0.00    -0.000 C 
BRANCH  24  25
ATOM     25  C   UNL     1      23.441  10.146  30.708  1.00  0.00    -0.000 C 
BRANCH  25  26
ATOM     26  C   UNL     1      22.323  10.759  29.852  1.00  0.00    -0.000 C 
BRANCH  26  27
ATOM     27  C   UNL     1      21.452   9.665  29.221  1.00  0.00    -0.000 C 
BRANCH  27  28
ATOM     28  C   UNL     1      20.876   8.729  30.296  1.00  0.00    -0.000 C 
BRANCH  28  29
ATOM     29  C   UNL     1      19.346   8.837  30.410  1.00  0.00    -0.000 C 
BRANCH  29  30
ATOM     30  C   UNL     1      18.896   9.392  31.774  1.00  0.00    -0.000 C 
BRANCH  30  31
ATOM     31  C   UNL     1      18.461   8.284  32.746  1.00  0.00    -0.003 C 
ATOM     32  C   UNL     1      18.105   6.978  32.037  1.00  0.00     0.004 C 
ENDBRANCH  30  31
ENDBRANCH  29  30
ENDBRANCH  28  29
ENDBRANCH  27  28
ENDBRANCH  26  27
ENDBRANCH  25  26
ENDBRANCH  24  25
ENDBRANCH  23  24
ENDBRANCH  22  23
ENDBRANCH  21  22
ENDBRANCH  20  21
ENDBRANCH  19  20
ENDBRANCH  18  19
ENDBRANCH   1  18
TORSDOF 28
ENDMDL
MODEL 3
REMARK VINA RESULT:    -4.543      2.370      6.252
REMARK INTER + INTRA:         -15.740
REMARK INTER:                 -12.711
REMARK INTRA:                  -3.029
REMARK UNBOUND:                -3.761
REMARK SMILES CCCCCCCCCCCCCCCCCCCCCCCCCCCCCC(=O)[O-]
REMARK SMILES IDX 16 1 17 2 18 3 19 4 20 5 21 6 22 7 23 8 24 9 25 10 26 11
REMARK SMILES IDX 27 12 28 13 29 14 30 15 31 16 32 17 15 18 14 19 13 20 12 21
REMARK SMILES IDX 11 22 10 23 9 24 8 25 7 26 6 27 5 28 4 29 3 30 2 31 1 32
REMARK H PARENT
REMARK Flexibility Score: inf
ROOT
ATOM      1  C   UNL     1      28.199  11.544  33.425  1.00  0.00     0.000 C 
ENDROOT
BRANCH   1   2
ATOM      2  C   UNL     1      28.014  12.853  32.641  1.00  0.00     0.000 C 
BRANCH   2   3
ATOM      3  C   UNL     1      27.425  12.621  31.237  1.00  0.00     0.000 C 
BRANCH   3   4
ATOM      4  C   UNL     1      28.075  11.430  30.514  1.00  0.00     0.000 C 
BRANCH   4   5
ATOM      5  C   UNL     1      27.037  10.504  29.857  1.00  0.00     0.000 C 
BRANCH   5   6
ATOM      6  C   UNL     1      26.310   9.606  30.875  1.00  0.00     0.000 C 
BRANCH   6   7
ATOM      7  C   UNL     1      24.840   9.279  30.532  1.00  0.00     0.000 C 
BRANCH   7   8
ATOM      8  C   UNL     1      23.858  10.455  30.683  1.00  0.00     0.000 C 
BRANCH   8   9
ATOM      9  C   UNL     1      22.392  10.003  30.791  1.00  0.00     0.000 C 
BRANCH   9  10
ATOM     10  C   UNL     1      21.439  11.163  31.124  1.00  0.00     0.000 C 
BRANCH  10  11
ATOM     11  C   UNL     1      20.076  10.690  31.676  1.00  0.00     0.000 C 
BRANCH  11  12
ATOM     12  C   UNL     1      18.994  10.622  30.582  1.00  0.00     0.000 C 
BRANCH  12  13
ATOM     13  C   UNL     1      18.411   9.209  30.396  1.00  0.00     0.006 C 
BRANCH  13  14
ATOM     14  C   UNL     1      19.158   8.116  31.180  1.00  0.00     0.053 C 
BRANCH  14  15
ATOM     15  C   UNL     1      18.328   7.521  32.277  1.00  0.00     0.041 C 
ATOM     16  O   UNL     1      18.014   8.208  33.285  1.00  0.00    -0.550 OA
ATOM     17  O   UNL     1      17.927   6.192  32.199  1.00  0.00    -0.550 OA
ENDBRANCH  14  15
ENDBRANCH  13  14
ENDBRANCH  12  13
ENDBRANCH  11  12
ENDBRANCH  10  11
ENDBRANCH   9  10
ENDBRANCH   8   9
ENDBRANCH   7   8
ENDBRANCH   6   7
ENDBRANCH   5   6
ENDBRANCH   4   5
ENDBRANCH   3   4
ENDBRANCH   2   3
ENDBRANCH   1   2
BRANCH   1  18
ATOM     18  C   UNL     1      27.598  11.613  34.839  1.00  0.00     0.000 C 
BRANCH  18  19
ATOM     19  C   UNL     1      26.097  11.283  34.860  1.00  0.00     0.000 C 
BRANCH  19  20
ATOM     20  C   UNL     1      25.219  12.543  34.812  1.00  0.00     0.000 C 
BRANCH  20  21
ATOM     21  C   UNL     1      24.262  12.595  36.010  1.00  0.00     0.000 C 
BRANCH  21  22
ATOM     22  C   UNL     1      22.821  12.183  35.650  1.00  0.00     0.000 C 
BRANCH  22  23
ATOM     23  C   UNL     1      22.337  12.646  34.263  1.00  0.00     0.000 C 
BRANCH  23  24
ATOM     24  C   UNL     1      20.960  13.335  34.250  1.00  0.00    -0.000 C 
BRANCH  24  25
ATOM     25  C   UNL     1      20.281  13.395  35.635  1.00  0.00    -0.000 C 
BRANCH  25  26
ATOM     26  C   UNL     1      18.748  13.384  35.539  1.00  0.00    -0.000 C 
BRANCH  26  27
ATOM     27  C   UNL     1      18.143  12.382  36.532  1.00  0.00    -0.000 C 
BRANCH  27  28
ATOM     28  C   UNL     1      18.015  10.987  35.901  1.00  0.00    -0.000 C 
BRANCH  28  29
ATOM     29  C   UNL     1      18.302   9.858  36.905  1.00  0.00    -0.000 C 
BRANCH  29  30
ATOM     30  C   UNL     1      19.337   8.849  36.376  1.00  0.00    -0.000 C 
BRANCH  30  31
ATOM     31  C   UNL     1      19.661   7.748  37.398  1.00  0.00    -0.003 C 
ATOM     32  C   UNL     1      18.987   6.416  37.072  1.00  0.00     0.004 C 
ENDBRANCH  30  31
ENDBRANCH  29  30
ENDBRANCH  28  29
ENDBRANCH  27  28
ENDBRANCH  26  27
ENDBRANCH  25  26
ENDBRANCH  24  25
ENDBRANCH  23  24
ENDBRANCH  22  23
ENDBRANCH  21  22
ENDBRANCH  20  21
ENDBRANCH  19  20
ENDBRANCH  18  19
ENDBRANCH   1  18
TORSDOF 28
ENDMDL
MODEL 4
REMARK VINA RESULT:    -4.530      2.069      5.242
REMARK INTER + INTRA:         -15.707
REMARK INTER:                 -12.852
REMARK INTRA:                  -2.855
REMARK UNBOUND:                -3.761
REMARK SMILES CCCCCCCCCCCCCCCCCCCCCCCCCCCCCC(=O)[O-]
REMARK SMILES IDX 16 1 17 2 18 3 19 4 20 5 21 6 22 7 23 8 24 9 25 10 26 11
REMARK SMILES IDX 27 12 28 13 29 14 30 15 31 16 32 17 15 18 14 19 13 20 12 21
REMARK SMILES IDX 11 22 10 23 9 24 8 25 7 26 6 27 5 28 4 29 3 30 2 31 1 32
REMARK H PARENT
REMARK Flexibility Score: inf
ROOT
ATOM      1  C   UNL     1      25.255  12.624  35.801  1.00  0.00     0.000 C 
ENDROOT
BRANCH   1   2
ATOM      2  C   UNL     1      26.345  13.695  35.970  1.00  0.00     0.000 C 
BRANCH   2   3
ATOM      3  C   UNL     1      27.239  13.827  34.724  1.00  0.00     0.000 C 
BRANCH   3   4
ATOM      4  C   UNL     1      28.284  12.704  34.625  1.00  0.00     0.000 C 
BRANCH   4   5
ATOM      5  C   UNL     1      28.392  12.125  33.204  1.00  0.00     0.000 C 
BRANCH   5   6
ATOM      6  C   UNL     1      27.884  13.096  32.123  1.00  0.00     0.000 C 
BRANCH   6   7
ATOM      7  C   UNL     1      27.591  12.456  30.749  1.00  0.00     0.000 C 
BRANCH   7   8
ATOM      8  C   UNL     1      27.804  10.933  30.679  1.00  0.00     0.000 C 
BRANCH   8   9
ATOM      9  C   UNL     1      27.538  10.353  29.279  1.00  0.00     0.000 C 
BRANCH   9  10
ATOM     10  C   UNL     1      26.202   9.592  29.200  1.00  0.00     0.000 C 
BRANCH  10  11
ATOM     11  C   UNL     1      25.611   9.259  30.587  1.00  0.00     0.000 C 
BRANCH  11  12
ATOM     12  C   UNL     1      24.299  10.019  30.861  1.00  0.00     0.000 C 
BRANCH  12  13
ATOM     13  C   UNL     1      23.217   9.760  29.797  1.00  0.00     0.006 C 
BRANCH  13  14
ATOM     14  C   UNL     1      21.886   9.246  30.372  1.00  0.00     0.053 C 
BRANCH  14  15
ATOM     15  C   UNL     1      20.837  10.315  30.448  1.00  0.00     0.041 C 
ATOM     16  O   UNL     1      19.704  10.064  30.937  1.00  0.00    -0.550 OA
ATOM     17  O   UNL     1      21.104  11.583  29.945  1.00  0.00    -0.550 OA
ENDBRANCH  14  15
ENDBRANCH  13  14
ENDBRANCH  12  13
ENDBRANCH  11  12
ENDBRANCH  10  11
ENDBRANCH   9  10
ENDBRANCH   8   9
ENDBRANCH   7   8
ENDBRANCH   6   7
ENDBRANCH   5   6
ENDBRANCH   4   5
ENDBRANCH   3   4
ENDBRANCH   2   3
ENDBRANCH   1   2
BRANCH   1  18
ATOM     18  C   UNL     1      25.188  12.072  34.367  1.00  0.00     0.000 C 
BRANCH  18  19
ATOM     19  C   UNL     1      23.817  12.294  33.710  1.00  0.00     0.000 C 
BRANCH  19  20
ATOM     20  C   UNL     1      22.672  12.303  34.734  1.00  0.00     0.000 C 
BRANCH  20  21
ATOM     21  C   UNL     1      21.426  11.602  34.176  1.00  0.00     0.000 C 
BRANCH  21  22
ATOM     22  C   UNL     1      20.569  12.517  33.280  1.00  0.00     0.000 C 
BRANCH  22  23
ATOM     23  C   UNL     1      20.363  13.947  33.815  1.00  0.00     0.000 C 
BRANCH  23  24
ATOM     24  C   UNL     1      18.921  14.480  33.711  1.00  0.00    -0.000 C 
BRANCH  24  25
ATOM     25  C   UNL     1      17.885  13.623  34.469  1.00  0.00    -0.000 C 
BRANCH  25  26
ATOM     26  C   UNL     1      18.074  13.680  35.992  1.00  0.00    -0.000 C 
BRANCH  26  27
ATOM     27  C   UNL     1      17.875  12.295  36.622  1.00  0.00    -0.000 C 
BRANCH  27  28
ATOM     28  C   UNL     1      19.111  11.408  36.406  1.00  0.00    -0.000 C 
BRANCH  28  29
ATOM     29  C   UNL     1      18.935  10.000  37.000  1.00  0.00    -0.000 C 
BRANCH  29  30
ATOM     30  C   UNL     1      19.512   8.901  36.090  1.00  0.00    -0.000 C 
BRANCH  30  31
ATOM     31  C   UNL     1      18.783   7.558  36.255  1.00  0.00    -0.003 C 
ATOM     32  C   UNL     1      19.474   6.624  37.246  1.00  0.00     0.004 C 
ENDBRANCH  30  31
ENDBRANCH  29  30
ENDBRANCH  28  29
ENDBRANCH  27  28
ENDBRANCH  26  27
ENDBRANCH  25  26
ENDBRANCH  24  25
ENDBRANCH  23  24
ENDBRANCH  22  23
ENDBRANCH  21  22
ENDBRANCH  20  21
ENDBRANCH  19  20
ENDBRANCH  18  19
ENDBRANCH   1  18
TORSDOF 28
ENDMDL
MODEL 5
REMARK VINA RESULT:    -4.492      3.101      7.808
REMARK INTER + INTRA:         -15.607
REMARK INTER:                 -11.121
REMARK INTRA:                  -4.486
REMARK UNBOUND:                -3.761
REMARK SMILES CCCCCCCCCCCCCCCCCCCCCCCCCCCCCC(=O)[O-]
REMARK SMILES IDX 16 1 17 2 18 3 19 4 20 5 21 6 22 7 23 8 24 9 25 10 26 11
REMARK SMILES IDX 27 12 28 13 29 14 30 15 31 16 32 17 15 18 14 19 13 20 12 21
REMARK SMILES IDX 11 22 10 23 9 24 8 25 7 26 6 27 5 28 4 29 3 30 2 31 1 32
REMARK H PARENT
REMARK Flexibility Score: inf
ROOT
ATOM      1  C   UNL     1      19.543   9.115  31.396  1.00  0.00     0.000 C 
ENDROOT
BRANCH   1   2
ATOM      2  C   UNL     1      18.870  10.443  31.778  1.00  0.00     0.000 C 
BRANCH   2   3
ATOM      3  C   UNL     1      18.067  10.341  33.088  1.00  0.00     0.000 C 
BRANCH   3   4
ATOM      4  C   UNL     1      18.928   9.879  34.274  1.00  0.00     0.000 C 
BRANCH   4   5
ATOM      5  C   UNL     1      18.394  10.391  35.623  1.00  0.00     0.000 C 
BRANCH   5   6
ATOM      6  C   UNL     1      19.379  11.335  36.336  1.00  0.00     0.000 C 
BRANCH   6   7
ATOM      7  C   UNL     1      20.806  11.365  35.746  1.00  0.00     0.000 C 
BRANCH   7   8
ATOM      8  C   UNL     1      21.183  12.666  35.015  1.00  0.00     0.000 C 
BRANCH   8   9
ATOM      9  C   UNL     1      20.048  13.704  35.013  1.00  0.00     0.000 C 
BRANCH   9  10
ATOM     10  C   UNL     1      20.038  14.566  33.739  1.00  0.00     0.000 C 
BRANCH  10  11
ATOM     11  C   UNL     1      18.894  14.201  32.768  1.00  0.00     0.000 C 
BRANCH  11  12
ATOM     12  C   UNL     1      19.406  13.899  31.348  1.00  0.00     0.000 C 
BRANCH  12  13
ATOM     13  C   UNL     1      18.724  14.755  30.264  1.00  0.00     0.006 C 
BRANCH  13  14
ATOM     14  C   UNL     1      18.308  16.156  30.745  1.00  0.00     0.053 C 
BRANCH  14  15
ATOM     15  C   UNL     1      18.987  17.254  29.983  1.00  0.00     0.041 C 
ATOM     16  O   UNL     1      19.803  16.983  29.063  1.00  0.00    -0.550 OA
ATOM     17  O   UNL     1      18.741  18.582  30.315  1.00  0.00    -0.550 OA
ENDBRANCH  14  15
ENDBRANCH  13  14
ENDBRANCH  12  13
ENDBRANCH  11  12
ENDBRANCH  10  11
ENDBRANCH   9  10
ENDBRANCH   8   9
ENDBRANCH   7   8
ENDBRANCH   6   7
ENDBRANCH   5   6
ENDBRANCH   4   5
ENDBRANCH   3   4
ENDBRANCH   2   3
ENDBRANCH   1   2
BRANCH   1  18
ATOM     18  C   UNL     1      20.501   9.262  30.202  1.00  0.00     0.000 C 
BRANCH  18  19
ATOM     19  C   UNL     1      20.861  10.727  29.909  1.00  0.00     0.000 C 
BRANCH  19  20
ATOM     20  C   UNL     1      22.294  11.076  30.341  1.00  0.00     0.000 C 
BRANCH  20  21
ATOM     21  C   UNL     1      22.361  11.368  31.847  1.00  0.00     0.000 C 
BRANCH  21  22
ATOM     22  C   UNL     1      23.799  11.583  32.356  1.00  0.00     0.000 C 
BRANCH  22  23
ATOM     23  C   UNL     1      24.894  11.496  31.276  1.00  0.00     0.000 C 
BRANCH  23  24
ATOM     24  C   UNL     1      25.765  10.227  31.332  1.00  0.00    -0.000 C 
BRANCH  24  25
ATOM     25  C   UNL     1      27.243  10.468  30.958  1.00  0.00    -0.000 C 
BRANCH  25  26
ATOM     26  C   UNL     1      27.568  11.957  30.771  1.00  0.00    -0.000 C 
BRANCH  26  27
ATOM     27  C   UNL     1      28.433  12.479  31.925  1.00  0.00    -0.000 C 
BRANCH  27  28
ATOM     28  C   UNL     1      27.648  13.467  32.803  1.00  0.00    -0.000 C 
BRANCH  28  29
ATOM     29  C   UNL     1      27.737  13.124  34.299  1.00  0.00    -0.000 C 
BRANCH  29  30
ATOM     30  C   UNL     1      27.800  11.606  34.552  1.00  0.00    -0.000 C 
BRANCH  30  31
ATOM     31  C   UNL     1      26.430  11.015  34.922  1.00  0.00    -0.003 C 
ATOM     32  C   UNL     1      25.480  12.048  35.527  1.00  0.00     0.004 C 
ENDBRANCH  30  31
ENDBRANCH  29  30
ENDBRANCH  28  29
ENDBRANCH  27  28
ENDBRANCH  26  27
ENDBRANCH  25  26
ENDBRANCH  24  25
ENDBRANCH  23  24
ENDBRANCH  22  23
ENDBRANCH  21  22
ENDBRANCH  20  21
ENDBRANCH  19  20
ENDBRANCH  18  19
ENDBRANCH   1  18
TORSDOF 28
ENDMDL
MODEL 6
REMARK VINA RESULT:    -4.470      1.597      4.737
REMARK INTER + INTRA:         -15.549
REMARK INTER:                 -12.013
REMARK INTRA:                  -3.536
REMARK UNBOUND:                -3.761
REMARK SMILES CCCCCCCCCCCCCCCCCCCCCCCCCCCCCC(=O)[O-]
REMARK SMILES IDX 16 1 17 2 18 3 19 4 20 5 21 6 22 7 23 8 24 9 25 10 26 11
REMARK SMILES IDX 27 12 28 13 29 14 30 15 31 16 32 17 15 18 14 19 13 20 12 21
REMARK SMILES IDX 11 22 10 23 9 24 8 25 7 26 6 27 5 28 4 29 3 30 2 31 1 32
REMARK H PARENT
REMARK Flexibility Score: inf
ROOT
ATOM      1  C   UNL     1      21.773  12.711  35.869  1.00  0.00     0.000 C 
ENDROOT
BRANCH   1   2
ATOM      2  C   UNL     1      23.071  12.365  35.122  1.00  0.00     0.000 C 
BRANCH   2   3
ATOM      3  C   UNL     1      24.262  12.158  36.075  1.00  0.00     0.000 C 
BRANCH   3   4
ATOM      4  C   UNL     1      25.608  12.518  35.425  1.00  0.00     0.000 C 
BRANCH   4   5
ATOM      5  C   UNL     1      26.365  11.279  34.918  1.00  0.00     0.000 C 
BRANCH   5   6
ATOM      6  C   UNL     1      27.724  11.628  34.284  1.00  0.00     0.000 C 
BRANCH   6   7
ATOM      7  C   UNL     1      27.705  12.816  33.298  1.00  0.00     0.000 C 
BRANCH   7   8
ATOM      8  C   UNL     1      26.513  12.837  32.325  1.00  0.00     0.000 C 
BRANCH   8   9
ATOM      9  C   UNL     1      26.903  12.446  30.889  1.00  0.00     0.000 C 
BRANCH   9  10
ATOM     10  C   UNL     1      28.051  11.423  30.848  1.00  0.00     0.000 C 
BRANCH  10  11
ATOM     11  C   UNL     1      27.653  10.092  30.172  1.00  0.00     0.000 C 
BRANCH  11  12
ATOM     12  C   UNL     1      26.219   9.661  30.529  1.00  0.00     0.000 C 
BRANCH  12  13
ATOM     13  C   UNL     1      25.310   9.501  29.296  1.00  0.00     0.006 C 
BRANCH  13  14
ATOM     14  C   UNL     1      24.043  10.372  29.337  1.00  0.00     0.053 C 
BRANCH  14  15
ATOM     15  C   UNL     1      23.242  10.172  30.588  1.00  0.00     0.041 C 
ATOM     16  O   UNL     1      22.410   9.230  30.669  1.00  0.00    -0.550 OA
ATOM     17  O   UNL     1      23.394  11.050  31.655  1.00  0.00    -0.550 OA
ENDBRANCH  14  15
ENDBRANCH  13  14
ENDBRANCH  12  13
ENDBRANCH  11  12
ENDBRANCH  10  11
ENDBRANCH   9  10
ENDBRANCH   8   9
ENDBRANCH   7   8
ENDBRANCH   6   7
ENDBRANCH   5   6
ENDBRANCH   4   5
ENDBRANCH   3   4
ENDBRANCH   2   3
ENDBRANCH   1   2
BRANCH   1  18
ATOM     18  C   UNL     1      20.643  11.707  35.583  1.00  0.00     0.000 C 
BRANCH  18  19
ATOM     19  C   UNL     1      19.275  12.197  36.083  1.00  0.00     0.000 C 
BRANCH  19  20
ATOM     20  C   UNL     1      18.305  12.503  34.932  1.00  0.00     0.000 C 
BRANCH  20  21
ATOM     21  C   UNL     1      18.320  13.997  34.579  1.00  0.00     0.000 C 
BRANCH  21  22
ATOM     22  C   UNL     1      19.476  14.382  33.635  1.00  0.00     0.000 C 
BRANCH  22  23
ATOM     23  C   UNL     1      19.419  13.740  32.236  1.00  0.00     0.000 C 
BRANCH  23  24
ATOM     24  C   UNL     1      20.387  12.562  32.021  1.00  0.00    -0.000 C 
BRANCH  24  25
ATOM     25  C   UNL     1      19.826  11.452  31.107  1.00  0.00    -0.000 C 
BRANCH  25  26
ATOM     26  C   UNL     1      18.572  10.786  31.692  1.00  0.00    -0.000 C 
BRANCH  26  27
ATOM     27  C   UNL     1      18.943   9.544  32.512  1.00  0.00    -0.000 C 
BRANCH  27  28
ATOM     28  C   UNL     1      18.022   9.392  33.733  1.00  0.00    -0.000 C 
BRANCH  28  29
ATOM     29  C   UNL     1      18.485   8.276  34.685  1.00  0.00    -0.000 C 
BRANCH  29  30
ATOM     30  C   UNL     1      18.138   8.575  36.155  1.00  0.00    -0.000 C 
BRANCH  30  31
ATOM     31  C   UNL     1      19.249   8.137  37.122  1.00  0.00    -0.003 C 
ATOM     32  C   UNL     1      19.462   6.624  37.137  1.00  0.00     0.004 C 
ENDBRANCH  30  31
ENDBRANCH  29  30
ENDBRANCH  28  29
ENDBRANCH  27  28
ENDBRANCH  26  27
ENDBRANCH  25  26
ENDBRANCH  24  25
ENDBRANCH  23  24
ENDBRANCH  22  23
ENDBRANCH  21  22
ENDBRANCH  20  21
ENDBRANCH  19  20
ENDBRANCH  18  19
ENDBRANCH   1  18
TORSDOF 28
ENDMDL
MODEL 7
REMARK VINA RESULT:    -4.423      1.617      2.336
REMARK INTER + INTRA:         -15.424
REMARK INTER:                 -11.737
REMARK INTRA:                  -3.688
REMARK UNBOUND:                -3.761
REMARK SMILES CCCCCCCCCCCCCCCCCCCCCCCCCCCCCC(=O)[O-]
REMARK SMILES IDX 16 1 17 2 18 3 19 4 20 5 21 6 22 7 23 8 24 9 25 10 26 11
REMARK SMILES IDX 27 12 28 13 29 14 30 15 31 16 32 17 15 18 14 19 13 20 12 21
REMARK SMILES IDX 11 22 10 23 9 24 8 25 7 26 6 27 5 28 4 29 3 30 2 31 1 32
REMARK H PARENT
REMARK Flexibility Score: inf
ROOT
ATOM      1  C   UNL     1      22.949  11.127  31.212  1.00  0.00     0.000 C 
ENDROOT
BRANCH   1   2
ATOM      2  C   UNL     1      22.842  11.476  29.719  1.00  0.00     0.000 C 
BRANCH   2   3
ATOM      3  C   UNL     1      23.974  10.850  28.884  1.00  0.00     0.000 C 
BRANCH   3   4
ATOM      4  C   UNL     1      24.588   9.612  29.556  1.00  0.00     0.000 C 
BRANCH   4   5
ATOM      5  C   UNL     1      25.963   9.247  28.972  1.00  0.00     0.000 C 
BRANCH   5   6
ATOM      6  C   UNL     1      27.017  10.347  29.194  1.00  0.00     0.000 C 
BRANCH   6   7
ATOM      7  C   UNL     1      27.517  10.497  30.648  1.00  0.00     0.000 C 
BRANCH   7   8
ATOM      8  C   UNL     1      26.730  11.503  31.508  1.00  0.00     0.000 C 
BRANCH   8   9
ATOM      9  C   UNL     1      27.321  12.922  31.461  1.00  0.00     0.000 C 
BRANCH   9  10
ATOM     10  C   UNL     1      27.608  13.489  32.862  1.00  0.00     0.000 C 
BRANCH  10  11
ATOM     11  C   UNL     1      27.972  12.400  33.894  1.00  0.00     0.000 C 
BRANCH  11  12
ATOM     12  C   UNL     1      27.952  12.933  35.339  1.00  0.00     0.000 C 
BRANCH  12  13
ATOM     13  C   UNL     1      26.823  13.949  35.593  1.00  0.00     0.006 C 
BRANCH  13  14
ATOM     14  C   UNL     1      25.618  13.367  36.353  1.00  0.00     0.053 C 
BRANCH  14  15
ATOM     15  C   UNL     1      24.946  12.254  35.607  1.00  0.00     0.041 C 
ATOM     16  O   UNL     1      23.890  12.469  34.956  1.00  0.00    -0.550 OA
ATOM     17  O   UNL     1      25.473  10.969  35.658  1.00  0.00    -0.550 OA
ENDBRANCH  14  15
ENDBRANCH  13  14
ENDBRANCH  12  13
ENDBRANCH  11  12
ENDBRANCH  10  11
ENDBRANCH   9  10
ENDBRANCH   8   9
ENDBRANCH   7   8
ENDBRANCH   6   7
ENDBRANCH   5   6
ENDBRANCH   4   5
ENDBRANCH   3   4
ENDBRANCH   2   3
ENDBRANCH   1   2
BRANCH   1  18
ATOM     18  C   UNL     1      21.580  11.109  31.913  1.00  0.00     0.000 C 
BRANCH  18  19
ATOM     19  C   UNL     1      20.423  11.446  30.960  1.00  0.00     0.000 C 
BRANCH  19  20
ATOM     20  C   UNL     1      19.279  12.190  31.667  1.00  0.00     0.000 C 
BRANCH  20  21
ATOM     21  C   UNL     1      19.608  13.680  31.831  1.00  0.00     0.000 C 
BRANCH  21  22
ATOM     22  C   UNL     1      19.567  14.148  33.298  1.00  0.00     0.000 C 
BRANCH  22  23
ATOM     23  C   UNL     1      20.793  13.754  34.144  1.00  0.00     0.000 C 
BRANCH  23  24
ATOM     24  C   UNL     1      20.478  13.348  35.596  1.00  0.00    -0.000 C 
BRANCH  24  25
ATOM     25  C   UNL     1      20.291  11.828  35.792  1.00  0.00    -0.000 C 
BRANCH  25  26
ATOM     26  C   UNL     1      18.879  11.467  36.276  1.00  0.00    -0.000 C 
BRANCH  26  27
ATOM     27  C   UNL     1      18.026  10.921  35.123  1.00  0.00    -0.000 C 
BRANCH  27  28
ATOM     28  C   UNL     1      18.821   9.912  34.278  1.00  0.00    -0.000 C 
BRANCH  28  29
ATOM     29  C   UNL     1      18.142   8.534  34.217  1.00  0.00    -0.000 C 
BRANCH  29  30
ATOM     30  C   UNL     1      18.022   7.875  35.604  1.00  0.00    -0.000 C 
BRANCH  30  31
ATOM     31  C   UNL     1      19.386   7.698  36.290  1.00  0.00    -0.003 C 
ATOM     32  C   UNL     1      19.359   8.069  37.772  1.00  0.00     0.004 C 
ENDBRANCH  30  31
ENDBRANCH  29  30
ENDBRANCH  28  29
ENDBRANCH  27  28
ENDBRANCH  26  27
ENDBRANCH  25  26
ENDBRANCH  24  25
ENDBRANCH  23  24
ENDBRANCH  22  23
ENDBRANCH  21  22
ENDBRANCH  20  21
ENDBRANCH  19  20
ENDBRANCH  18  19
ENDBRANCH   1  18
TORSDOF 28
ENDMDL
MODEL 8
REMARK VINA RESULT:    -4.383      2.352      8.103
REMARK INTER + INTRA:         -15.318
REMARK INTER:                 -11.209
REMARK INTRA:                  -4.109
REMARK UNBOUND:                -3.761
REMARK SMILES CCCCCCCCCCCCCCCCCCCCCCCCCCCCCC(=O)[O-]
REMARK SMILES IDX 16 1 17 2 18 3 19 4 20 5 21 6 22 7 23 8 24 9 25 10 26 11
REMARK SMILES IDX 27 12 28 13 29 14 30 15 31 16 32 17 15 18 14 19 13 20 12 21
REMARK SMILES IDX 11 22 10 23 9 24 8 25 7 26 6 27 5 28 4 29 3 30 2 31 1 32
REMARK H PARENT
REMARK Flexibility Score: inf
ROOT
ATOM      1  C   UNL     1      21.320  12.231  35.127  1.00  0.00     0.000 C 
ENDROOT
BRANCH   1   2
ATOM      2  C   UNL     1      19.791  12.146  35.004  1.00  0.00     0.000 C 
BRANCH   2   3
ATOM      3  C   UNL     1      19.074  13.284  35.754  1.00  0.00     0.000 C 
BRANCH   3   4
ATOM      4  C   UNL     1      17.967  13.939  34.914  1.00  0.00     0.000 C 
BRANCH   4   5
ATOM      5  C   UNL     1      17.875  13.347  33.498  1.00  0.00     0.000 C 
BRANCH   5   6
ATOM      6  C   UNL     1      18.515  14.252  32.429  1.00  0.00     0.000 C 
BRANCH   6   7
ATOM      7  C   UNL     1      19.373  13.520  31.374  1.00  0.00     0.000 C 
BRANCH   7   8
ATOM      8  C   UNL     1      18.577  12.705  30.338  1.00  0.00     0.000 C 
BRANCH   8   9
ATOM      9  C   UNL     1      18.942  11.211  30.342  1.00  0.00     0.000 C 
BRANCH   9  10
ATOM     10  C   UNL     1      18.935  10.605  31.757  1.00  0.00     0.000 C 
BRANCH  10  11
ATOM     11  C   UNL     1      19.244   9.092  31.770  1.00  0.00     0.000 C 
BRANCH  11  12
ATOM     12  C   UNL     1      18.300   8.311  32.704  1.00  0.00     0.000 C 
BRANCH  12  13
ATOM     13  C   UNL     1      18.257   8.881  34.134  1.00  0.00     0.006 C 
BRANCH  13  14
ATOM     14  C   UNL     1      18.600   7.854  35.227  1.00  0.00     0.053 C 
BRANCH  14  15
ATOM     15  C   UNL     1      18.761   8.480  36.579  1.00  0.00     0.041 C 
ATOM     16  O   UNL     1      18.262   9.611  36.823  1.00  0.00    -0.550 OA
ATOM     17  O   UNL     1      19.492   7.824  37.563  1.00  0.00    -0.550 OA
ENDBRANCH  14  15
ENDBRANCH  13  14
ENDBRANCH  12  13
ENDBRANCH  11  12
ENDBRANCH  10  11
ENDBRANCH   9  10
ENDBRANCH   8   9
ENDBRANCH   7   8
ENDBRANCH   6   7
ENDBRANCH   5   6
ENDBRANCH   4   5
ENDBRANCH   3   4
ENDBRANCH   2   3
ENDBRANCH   1   2
BRANCH   1  18
ATOM     18  C   UNL     1      21.993  12.675  33.816  1.00  0.00     0.000 C 
BRANCH  18  19
ATOM     19  C   UNL     1      22.096  11.536  32.789  1.00  0.00     0.000 C 
BRANCH  19  20
ATOM     20  C   UNL     1      23.283  11.717  31.831  1.00  0.00     0.000 C 
BRANCH  20  21
ATOM     21  C   UNL     1      23.534  10.442  31.015  1.00  0.00     0.000 C 
BRANCH  21  22
ATOM     22  C   UNL     1      24.968   9.900  31.166  1.00  0.00     0.000 C 
BRANCH  22  23
ATOM     23  C   UNL     1      25.622   9.409  29.860  1.00  0.00     0.000 C 
BRANCH  23  24
ATOM     24  C   UNL     1      26.536  10.434  29.164  1.00  0.00    -0.000 C 
BRANCH  24  25
ATOM     25  C   UNL     1      27.643  11.004  30.076  1.00  0.00    -0.000 C 
BRANCH  25  26
ATOM     26  C   UNL     1      27.392  12.470  30.461  1.00  0.00    -0.000 C 
BRANCH  26  27
ATOM     27  C   UNL     1      27.773  12.726  31.925  1.00  0.00    -0.000 C 
BRANCH  27  28
ATOM     28  C   UNL     1      28.008  11.404  32.674  1.00  0.00    -0.000 C 
BRANCH  28  29
ATOM     29  C   UNL     1      27.996  11.584  34.201  1.00  0.00    -0.000 C 
BRANCH  29  30
ATOM     30  C   UNL     1      26.685  11.091  34.841  1.00  0.00    -0.000 C 
BRANCH  30  31
ATOM     31  C   UNL     1      25.540  12.105  34.689  1.00  0.00    -0.003 C 
ATOM     32  C   UNL     1      24.891  12.473  36.022  1.00  0.00     0.004 C 
ENDBRANCH  30  31
ENDBRANCH  29  30
ENDBRANCH  28  29
ENDBRANCH  27  28
ENDBRANCH  26  27
ENDBRANCH  25  26
ENDBRANCH  24  25
ENDBRANCH  23  24
ENDBRANCH  22  23
ENDBRANCH  21  22
ENDBRANCH  20  21
ENDBRANCH  19  20
ENDBRANCH  18  19
ENDBRANCH   1  18
TORSDOF 28
ENDMDL
MODEL 9
REMARK VINA RESULT:    -4.336      2.354      7.197
REMARK INTER + INTRA:         -15.195
REMARK INTER:                 -11.407
REMARK INTRA:                  -3.788
REMARK UNBOUND:                -3.761
REMARK SMILES CCCCCCCCCCCCCCCCCCCCCCCCCCCCCC(=O)[O-]
REMARK SMILES IDX 16 1 17 2 18 3 19 4 20 5 21 6 22 7 23 8 24 9 25 10 26 11
REMARK SMILES IDX 27 12 28 13 29 14 30 15 31 16 32 17 15 18 14 19 13 20 12 21
REMARK SMILES IDX 11 22 10 23 9 24 8 25 7 26 6 27 5 28 4 29 3 30 2 31 1 32
REMARK H PARENT
REMARK Flexibility Score: inf
ROOT
ATOM      1  C   UNL     1      25.447  10.891  31.792  1.00  0.00     0.000 C 
ENDROOT
BRANCH   1   2
ATOM      2  C   UNL     1      25.761   9.804  30.752  1.00  0.00     0.000 C 
BRANCH   2   3
ATOM      3  C   UNL     1      24.622   9.617  29.733  1.00  0.00     0.000 C 
BRANCH   3   4
ATOM      4  C   UNL     1      23.388  10.472  30.063  1.00  0.00     0.000 C 
BRANCH   4   5
ATOM      5  C   UNL     1      22.144   9.619  30.360  1.00  0.00     0.000 C 
BRANCH   5   6
ATOM      6  C   UNL     1      20.846  10.246  29.818  1.00  0.00     0.000 C 
BRANCH   6   7
ATOM      7  C   UNL     1      20.893  11.775  29.605  1.00  0.00     0.000 C 
BRANCH   7   8
ATOM      8  C   UNL     1      19.619  12.532  30.023  1.00  0.00     0.000 C 
BRANCH   8   9
ATOM      9  C   UNL     1      18.420  11.600  30.264  1.00  0.00     0.000 C 
BRANCH   9  10
ATOM     10  C   UNL     1      17.944  11.614  31.727  1.00  0.00     0.000 C 
BRANCH  10  11
ATOM     11  C   UNL     1      18.648  10.555  32.604  1.00  0.00     0.000 C 
BRANCH  11  12
ATOM     12  C   UNL     1      18.087  10.517  34.037  1.00  0.00     0.000 C 
BRANCH  12  13
ATOM     13  C   UNL     1      18.548   9.283  34.835  1.00  0.00     0.006 C 
BRANCH  13  14
ATOM     14  C   UNL     1      19.302   9.623  36.132  1.00  0.00     0.053 C 
BRANCH  14  15
ATOM     15  C   UNL     1      18.888   8.761  37.286  1.00  0.00     0.041 C 
ATOM     16  O   UNL     1      19.240   7.553  37.339  1.00  0.00    -0.550 OA
ATOM     17  O   UNL     1      18.083   9.287  38.290  1.00  0.00    -0.550 OA
ENDBRANCH  14  15
ENDBRANCH  13  14
ENDBRANCH  12  13
ENDBRANCH  11  12
ENDBRANCH  10  11
ENDBRANCH   9  10
ENDBRANCH   8   9
ENDBRANCH   7   8
ENDBRANCH   6   7
ENDBRANCH   5   6
ENDBRANCH   4   5
ENDBRANCH   3   4
ENDBRANCH   2   3
ENDBRANCH   1   2
BRANCH   1  18
ATOM     18  C   UNL     1      25.604  12.313  31.225  1.00  0.00     0.000 C 
BRANCH  18  19
ATOM     19  C   UNL     1      26.951  12.521  30.515  1.00  0.00     0.000 C 
BRANCH  19  20
ATOM     20  C   UNL     1      28.142  12.078  31.378  1.00  0.00     0.000 C 
BRANCH  20  21
ATOM     21  C   UNL     1      28.267  12.948  32.637  1.00  0.00     0.000 C 
BRANCH  21  22
ATOM     22  C   UNL     1      28.495  12.125  33.919  1.00  0.00     0.000 C 
BRANCH  22  23
ATOM     23  C   UNL     1      27.262  11.983  34.831  1.00  0.00     0.000 C 
BRANCH  23  24
ATOM     24  C   UNL     1      26.872  13.258  35.602  1.00  0.00    -0.000 C 
BRANCH  24  25
ATOM     25  C   UNL     1      25.404  13.273  36.079  1.00  0.00    -0.000 C 
BRANCH  25  26
ATOM     26  C   UNL     1      24.581  12.119  35.490  1.00  0.00    -0.000 C 
BRANCH  26  27
ATOM     27  C   UNL     1      23.163  12.583  35.130  1.00  0.00    -0.000 C 
BRANCH  27  28
ATOM     28  C   UNL     1      22.802  12.189  33.689  1.00  0.00    -0.000 C 
BRANCH  28  29
ATOM     29  C   UNL     1      21.376  12.616  33.302  1.00  0.00    -0.000 C 
BRANCH  29  30
ATOM     30  C   UNL     1      20.792  13.659  34.272  1.00  0.00    -0.000 C 
BRANCH  30  31
ATOM     31  C   UNL     1      19.658  14.482  33.638  1.00  0.00    -0.003 C 
ATOM     32  C   UNL     1      18.294  14.194  34.262  1.00  0.00     0.004 C 
ENDBRANCH  30  31
ENDBRANCH  29  30
ENDBRANCH  28  29
ENDBRANCH  27  28
ENDBRANCH  26  27
ENDBRANCH  25  26
ENDBRANCH  24  25
ENDBRANCH  23  24
ENDBRANCH  22  23
ENDBRANCH  21  22
ENDBRANCH  20  21
ENDBRANCH  19  20
ENDBRANCH  18  19
ENDBRANCH   1  18
TORSDOF 28
ENDMDL
