MODEL 1
REMARK VINA RESULT:    -5.049      0.000      0.000
REMARK INTER + INTRA:         -10.144
REMARK INTER:                  -9.181
REMARK INTRA:                  -0.962
REMARK UNBOUND:                -0.962
REMARK SMILES CCCCCCCCCCCCCCCC(=O)[O-]
REMARK SMILES IDX 9 1 10 2 11 3 12 4 13 5 14 6 15 7 16 8 17 9 18 10 8 11 7 12
REMARK SMILES IDX 6 13 5 14 4 15 3 16 2 17 1 18
REMARK H PARENT
REMARK Flexibility Score: inf
ROOT
ATOM      1  C   UNL     1      12.308  19.517  21.008  1.00  0.00     0.000 C 
ENDROOT
BRANCH   1   2
ATOM      2  C   UNL     1      12.475  21.005  20.670  1.00  0.00     0.000 C 
BRANCH   2   3
ATOM      3  C   UNL     1      13.808  21.312  19.964  1.00  0.00     0.000 C 
BRANCH   3   4
ATOM      4  C   UNL     1      14.851  20.178  20.021  1.00  0.00     0.000 C 
BRANCH   4   5
ATOM      5  C   UNL     1      16.321  20.640  20.073  1.00  0.00     0.000 C 
BRANCH   5   6
ATOM      6  C   UNL     1      16.523  22.165  20.064  1.00  0.00     0.006 C 
BRANCH   6   7
ATOM      7  C   UNL     1      17.918  22.583  20.545  1.00  0.00     0.053 C 
BRANCH   7   8
ATOM      8  C   UNL     1      17.862  23.925  21.206  1.00  0.00     0.041 C 
ATOM      9  O   UNL     1      17.669  24.961  20.519  1.00  0.00    -0.550 OA
ATOM     10  O   UNL     1      17.975  24.025  22.587  1.00  0.00    -0.550 OA
ENDBRANCH   7   8
ENDBRANCH   6   7
ENDBRANCH   5   6
ENDBRANCH   4   5
ENDBRANCH   3   4
ENDBRANCH   2   3
ENDBRANCH   1   2
BRANCH   1  11
ATOM     11  C   UNL     1      10.877  19.046  20.724  1.00  0.00     0.000 C 
BRANCH  11  12
ATOM     12  C   UNL     1      10.366  18.130  21.847  1.00  0.00    -0.000 C 
BRANCH  12  13
ATOM     13  C   UNL     1      10.034  18.897  23.139  1.00  0.00    -0.000 C 
BRANCH  13  14
ATOM     14  C   UNL     1      10.373  18.154  24.447  1.00  0.00    -0.000 C 
BRANCH  14  15
ATOM     15  C   UNL     1      11.647  17.292  24.397  1.00  0.00    -0.000 C 
BRANCH  15  16
ATOM     16  C   UNL     1      12.935  18.124  24.488  1.00  0.00    -0.000 C 
BRANCH  16  17
ATOM     17  C   UNL     1      14.052  17.331  25.175  1.00  0.00    -0.003 C 
ATOM     18  C   UNL     1      15.422  17.933  24.873  1.00  0.00     0.004 C 
ENDBRANCH  16  17
ENDBRANCH  15  16
ENDBRANCH  14  15
ENDBRANCH  13  14
ENDBRANCH  12  13
ENDBRANCH  11  12
ENDBRANCH   1  11
TORSDOF 14
ENDMDL
MODEL 2
REMARK VINA RESULT:    -4.960      3.580      7.498
REMARK INTER + INTRA:          -9.982
REMARK INTER:                  -8.288
REMARK INTRA:                  -1.694
REMARK UNBOUND:                -0.962
REMARK SMILES CCCCCCCCCCCCCCCC(=O)[O-]
REMARK SMILES IDX 9 1 10 2 11 3 12 4 13 5 14 6 15 7 16 8 17 9 18 10 8 11 7 12
REMARK SMILES IDX 6 13 5 14 4 15 3 16 2 17 1 18
REMARK H PARENT
REMARK Flexibility Score: inf
ROOT
ATOM      1  C   UNL     1      17.223  24.148  22.684  1.00  0.00     0.000 C 
ENDROOT
BRANCH   1   2
ATOM      2  C   UNL     1      15.867  23.722  23.266  1.00  0.00     0.000 C 
BRANCH   2   3
ATOM      3  C   UNL     1      15.990  23.076  24.658  1.00  0.00     0.000 C 
BRANCH   3   4
ATOM      4  C   UNL     1      14.810  22.171  25.062  1.00  0.00     0.000 C 
BRANCH   4   5
ATOM      5  C   UNL     1      14.285  21.242  23.949  1.00  0.00     0.000 C 
BRANCH   5   6
ATOM      6  C   UNL     1      14.463  19.738  24.221  1.00  0.00     0.006 C 
BRANCH   6   7
ATOM      7  C   UNL     1      13.357  18.884  23.588  1.00  0.00     0.053 C 
BRANCH   7   8
ATOM      8  C   UNL     1      13.066  17.690  24.442  1.00  0.00     0.041 C 
ATOM      9  O   UNL     1      14.009  17.007  24.919  1.00  0.00    -0.550 OA
ATOM     10  O   UNL     1      11.752  17.361  24.753  1.00  0.00    -0.550 OA
ENDBRANCH   7   8
ENDBRANCH   6   7
ENDBRANCH   5   6
ENDBRANCH   4   5
ENDBRANCH   3   4
ENDBRANCH   2   3
ENDBRANCH   1   2
BRANCH   1  11
ATOM     11  C   UNL     1      17.042  24.880  21.349  1.00  0.00     0.000 C 
BRANCH  11  12
ATOM     12  C   UNL     1      17.852  24.200  20.234  1.00  0.00    -0.000 C 
BRANCH  12  13
ATOM     13  C   UNL     1      18.302  22.776  20.607  1.00  0.00    -0.000 C 
BRANCH  13  14
ATOM     14  C   UNL     1      18.386  21.786  19.426  1.00  0.00    -0.000 C 
BRANCH  14  15
ATOM     15  C   UNL     1      17.283  20.713  19.394  1.00  0.00    -0.000 C 
BRANCH  15  16
ATOM     16  C   UNL     1      16.365  20.763  20.624  1.00  0.00    -0.000 C 
BRANCH  16  17
ATOM     17  C   UNL     1      14.977  21.295  20.251  1.00  0.00    -0.003 C 
ATOM     18  C   UNL     1      13.934  20.181  20.279  1.00  0.00     0.004 C 
ENDBRANCH  16  17
ENDBRANCH  15  16
ENDBRANCH  14  15
ENDBRANCH  13  14
ENDBRANCH  12  13
ENDBRANCH  11  12
ENDBRANCH   1  11
TORSDOF 14
ENDMDL
MODEL 3
REMARK VINA RESULT:    -4.958      3.427      4.799
REMARK INTER + INTRA:          -9.977
REMARK INTER:                  -8.005
REMARK INTRA:                  -1.972
REMARK UNBOUND:                -0.962
REMARK SMILES CCCCCCCCCCCCCCCC(=O)[O-]
REMARK SMILES IDX 9 1 10 2 11 3 12 4 13 5 14 6 15 7 16 8 17 9 18 10 8 11 7 12
REMARK SMILES IDX 6 13 5 14 4 15 3 16 2 17 1 18
REMARK H PARENT
REMARK Flexibility Score: inf
ROOT
ATOM      1  C   UNL     1      16.959  18.287  18.387  1.00  0.00     0.000 C 
ENDROOT
BRANCH   1   2
ATOM      2  C   UNL     1      17.334  19.774  18.314  1.00  0.00     0.000 C 
BRANCH   2   3
ATOM      3  C   UNL     1      18.023  20.280  19.594  1.00  0.00     0.000 C 
BRANCH   3   4
ATOM      4  C   UNL     1      18.581  21.715  19.509  1.00  0.00     0.000 C 
BRANCH   4   5
ATOM      5  C   UNL     1      18.184  22.644  20.673  1.00  0.00     0.000 C 
BRANCH   5   6
ATOM      6  C   UNL     1      17.335  23.863  20.271  1.00  0.00     0.006 C 
BRANCH   6   7
ATOM      7  C   UNL     1      17.585  25.083  21.166  1.00  0.00     0.053 C 
BRANCH   7   8
ATOM      8  C   UNL     1      17.172  24.791  22.575  1.00  0.00     0.041 C 
ATOM      9  O   UNL     1      15.959  24.602  22.852  1.00  0.00    -0.550 OA
ATOM     10  O   UNL     1      18.132  24.680  23.573  1.00  0.00    -0.550 OA
ENDBRANCH   7   8
ENDBRANCH   6   7
ENDBRANCH   5   6
ENDBRANCH   4   5
ENDBRANCH   3   4
ENDBRANCH   2   3
ENDBRANCH   1   2
BRANCH   1  11
ATOM     11  C   UNL     1      15.874  17.943  17.359  1.00  0.00     0.000 C 
BRANCH  11  12
ATOM     12  C   UNL     1      14.479  17.975  18.001  1.00  0.00    -0.000 C 
BRANCH  12  13
ATOM     13  C   UNL     1      13.633  19.171  17.532  1.00  0.00    -0.000 C 
BRANCH  13  14
ATOM     14  C   UNL     1      12.775  19.837  18.628  1.00  0.00    -0.000 C 
BRANCH  14  15
ATOM     15  C   UNL     1      13.122  21.307  18.927  1.00  0.00    -0.000 C 
BRANCH  15  16
ATOM     16  C   UNL     1      14.431  21.463  19.715  1.00  0.00    -0.000 C 
BRANCH  16  17
ATOM     17  C   UNL     1      14.471  20.502  20.908  1.00  0.00    -0.003 C 
ATOM     18  C   UNL     1      15.113  21.161  22.126  1.00  0.00     0.004 C 
ENDBRANCH  16  17
ENDBRANCH  15  16
ENDBRANCH  14  15
ENDBRANCH  13  14
ENDBRANCH  12  13
ENDBRANCH  11  12
ENDBRANCH   1  11
TORSDOF 14
ENDMDL
MODEL 4
REMARK VINA RESULT:    -4.953      3.469      7.513
REMARK INTER + INTRA:          -9.969
REMARK INTER:                  -8.799
REMARK INTRA:                  -1.170
REMARK UNBOUND:                -0.962
REMARK SMILES CCCCCCCCCCCCCCCC(=O)[O-]
REMARK SMILES IDX 9 1 10 2 11 3 12 4 13 5 14 6 15 7 16 8 17 9 18 10 8 11 7 12
REMARK SMILES IDX 6 13 5 14 4 15 3 16 2 17 1 18
REMARK H PARENT
REMARK Flexibility Score: inf
ROOT
ATOM      1  C   UNL     1      14.616  19.268  24.728  1.00  0.00     0.000 C 
ENDROOT
BRANCH   1   2
ATOM      2  C   UNL     1      13.967  17.984  24.191  1.00  0.00     0.000 C 
BRANCH   2   3
ATOM      3  C   UNL     1      13.043  17.305  25.218  1.00  0.00     0.000 C 
BRANCH   3   4
ATOM      4  C   UNL     1      11.592  17.090  24.745  1.00  0.00     0.000 C 
BRANCH   4   5
ATOM      5  C   UNL     1      10.710  18.355  24.738  1.00  0.00     0.000 C 
BRANCH   5   6
ATOM      6  C   UNL     1      10.060  18.686  23.383  1.00  0.00     0.006 C 
BRANCH   6   7
ATOM      7  C   UNL     1      11.007  19.436  22.437  1.00  0.00     0.053 C 
BRANCH   7   8
ATOM      8  C   UNL     1      11.481  18.528  21.346  1.00  0.00     0.041 C 
ATOM      9  O   UNL     1      12.370  18.914  20.543  1.00  0.00    -0.550 OA
ATOM     10  O   UNL     1      10.977  17.237  21.246  1.00  0.00    -0.550 OA
ENDBRANCH   7   8
ENDBRANCH   6   7
ENDBRANCH   5   6
ENDBRANCH   4   5
ENDBRANCH   3   4
ENDBRANCH   2   3
ENDBRANCH   1   2
BRANCH   1  11
ATOM     11  C   UNL     1      14.396  20.440  23.765  1.00  0.00     0.000 C 
BRANCH  11  12
ATOM     12  C   UNL     1      15.121  21.701  24.259  1.00  0.00    -0.000 C 
BRANCH  12  13
ATOM     13  C   UNL     1      15.104  22.842  23.226  1.00  0.00    -0.000 C 
BRANCH  13  14
ATOM     14  C   UNL     1      16.009  24.045  23.565  1.00  0.00    -0.000 C 
BRANCH  14  15
ATOM     15  C   UNL     1      17.344  24.094  22.802  1.00  0.00    -0.000 C 
BRANCH  15  16
ATOM     16  C   UNL     1      17.345  25.125  21.664  1.00  0.00    -0.000 C 
BRANCH  16  17
ATOM     17  C   UNL     1      17.717  24.469  20.330  1.00  0.00    -0.003 C 
ATOM     18  C   UNL     1      18.052  22.992  20.516  1.00  0.00     0.004 C 
ENDBRANCH  16  17
ENDBRANCH  15  16
ENDBRANCH  14  15
ENDBRANCH  13  14
ENDBRANCH  12  13
ENDBRANCH  11  12
ENDBRANCH   1  11
TORSDOF 14
ENDMDL
MODEL 5
REMARK VINA RESULT:    -4.939      2.924      3.936
REMARK INTER + INTRA:          -9.944
REMARK INTER:                  -8.446
REMARK INTRA:                  -1.499
REMARK UNBOUND:                -0.962
REMARK SMILES CCCCCCCCCCCCCCCC(=O)[O-]
REMARK SMILES IDX 9 1 10 2 11 3 12 4 13 5 14 6 15 7 16 8 17 9 18 10 8 11 7 12
REMARK SMILES IDX 6 13 5 14 4 15 3 16 2 17 1 18
REMARK H PARENT
REMARK Flexibility Score: inf
ROOT
ATOM      1  C   UNL     1      14.908  21.792  22.874  1.00  0.00     0.000 C 
ENDROOT
BRANCH   1   2
ATOM      2  C   UNL     1      15.851  22.918  22.423  1.00  0.00     0.000 C 
BRANCH   2   3
ATOM      3  C   UNL     1      16.363  22.728  20.984  1.00  0.00     0.000 C 
BRANCH   3   4
ATOM      4  C   UNL     1      17.835  23.129  20.760  1.00  0.00     0.000 C 
BRANCH   4   5
ATOM      5  C   UNL     1      18.636  22.192  19.834  1.00  0.00     0.000 C 
BRANCH   5   6
ATOM      6  C   UNL     1      17.827  21.033  19.225  1.00  0.00     0.006 C 
BRANCH   6   7
ATOM      7  C   UNL     1      18.217  19.667  19.804  1.00  0.00     0.053 C 
BRANCH   7   8
ATOM      8  C   UNL     1      17.759  18.566  18.900  1.00  0.00     0.041 C 
ATOM      9  O   UNL     1      17.044  18.826  17.898  1.00  0.00    -0.550 OA
ATOM     10  O   UNL     1      18.164  17.258  19.137  1.00  0.00    -0.550 OA
ENDBRANCH   7   8
ENDBRANCH   6   7
ENDBRANCH   5   6
ENDBRANCH   4   5
ENDBRANCH   3   4
ENDBRANCH   2   3
ENDBRANCH   1   2
BRANCH   1  11
ATOM     11  C   UNL     1      15.085  20.544  22.002  1.00  0.00     0.000 C 
BRANCH  11  12
ATOM     12  C   UNL     1      13.745  20.099  21.398  1.00  0.00    -0.000 C 
BRANCH  12  13
ATOM     13  C   UNL     1      12.553  20.352  22.339  1.00  0.00    -0.000 C 
BRANCH  13  14
ATOM     14  C   UNL     1      11.474  19.249  22.340  1.00  0.00    -0.000 C 
BRANCH  14  15
ATOM     15  C   UNL     1      11.946  17.874  22.845  1.00  0.00    -0.000 C 
BRANCH  15  16
ATOM     16  C   UNL     1      11.723  17.682  24.352  1.00  0.00    -0.000 C 
BRANCH  16  17
ATOM     17  C   UNL     1      12.966  17.084  25.018  1.00  0.00    -0.003 C 
ATOM     18  C   UNL     1      14.219  17.881  24.665  1.00  0.00     0.004 C 
ENDBRANCH  16  17
ENDBRANCH  15  16
ENDBRANCH  14  15
ENDBRANCH  13  14
ENDBRANCH  12  13
ENDBRANCH  11  12
ENDBRANCH   1  11
TORSDOF 14
ENDMDL
MODEL 6
REMARK VINA RESULT:    -4.882      3.829      7.461
REMARK INTER + INTRA:          -9.840
REMARK INTER:                  -8.394
REMARK INTRA:                  -1.446
REMARK UNBOUND:                -0.962
REMARK SMILES CCCCCCCCCCCCCCCC(=O)[O-]
REMARK SMILES IDX 9 1 10 2 11 3 12 4 13 5 14 6 15 7 16 8 17 9 18 10 8 11 7 12
REMARK SMILES IDX 6 13 5 14 4 15 3 16 2 17 1 18
REMARK H PARENT
REMARK Flexibility Score: inf
ROOT
ATOM      1  C   UNL     1      17.607  25.539  23.972  1.00  0.00     0.000 C 
ENDROOT
BRANCH   1   2
ATOM      2  C   UNL     1      16.891  25.164  25.278  1.00  0.00     0.000 C 
BRANCH   2   3
ATOM      3  C   UNL     1      16.988  23.663  25.604  1.00  0.00     0.000 C 
BRANCH   3   4
ATOM      4  C   UNL     1      15.635  22.952  25.806  1.00  0.00     0.000 C 
BRANCH   4   5
ATOM      5  C   UNL     1      15.219  21.999  24.668  1.00  0.00     0.000 C 
BRANCH   5   6
ATOM      6  C   UNL     1      14.427  22.658  23.526  1.00  0.00     0.006 C 
BRANCH   6   7
ATOM      7  C   UNL     1      14.816  22.120  22.144  1.00  0.00     0.053 C 
BRANCH   7   8
ATOM      8  C   UNL     1      13.613  21.586  21.432  1.00  0.00     0.041 C 
ATOM      9  O   UNL     1      13.670  21.318  20.204  1.00  0.00    -0.550 OA
ATOM     10  O   UNL     1      12.442  21.336  22.138  1.00  0.00    -0.550 OA
ENDBRANCH   7   8
ENDBRANCH   6   7
ENDBRANCH   5   6
ENDBRANCH   4   5
ENDBRANCH   3   4
ENDBRANCH   2   3
ENDBRANCH   1   2
BRANCH   1  11
ATOM     11  C   UNL     1      16.685  25.341  22.763  1.00  0.00     0.000 C 
BRANCH  11  12
ATOM     12  C   UNL     1      17.289  25.973  21.501  1.00  0.00    -0.000 C 
BRANCH  12  13
ATOM     13  C   UNL     1      17.649  24.933  20.425  1.00  0.00    -0.000 C 
BRANCH  13  14
ATOM     14  C   UNL     1      18.080  23.554  20.966  1.00  0.00    -0.000 C 
BRANCH  14  15
ATOM     15  C   UNL     1      18.430  22.510  19.890  1.00  0.00    -0.000 C 
BRANCH  15  16
ATOM     16  C   UNL     1      17.269  21.549  19.591  1.00  0.00    -0.000 C 
BRANCH  16  17
ATOM     17  C   UNL     1      17.789  20.219  19.035  1.00  0.00    -0.003 C 
ATOM     18  C   UNL     1      16.648  19.228  18.822  1.00  0.00     0.004 C 
ENDBRANCH  16  17
ENDBRANCH  15  16
ENDBRANCH  14  15
ENDBRANCH  13  14
ENDBRANCH  12  13
ENDBRANCH  11  12
ENDBRANCH   1  11
TORSDOF 14
ENDMDL
MODEL 7
REMARK VINA RESULT:    -4.851      3.277      6.720
REMARK INTER + INTRA:          -9.783
REMARK INTER:                  -8.223
REMARK INTRA:                  -1.559
REMARK UNBOUND:                -0.962
REMARK SMILES CCCCCCCCCCCCCCCC(=O)[O-]
REMARK SMILES IDX 9 1 10 2 11 3 12 4 13 5 14 6 15 7 16 8 17 9 18 10 8 11 7 12
REMARK SMILES IDX 6 13 5 14 4 15 3 16 2 17 1 18
REMARK H PARENT
REMARK Flexibility Score: inf
ROOT
ATOM      1  C   UNL     1      18.655  22.040  19.537  1.00  0.00     0.000 C 
ENDROOT
BRANCH   1   2
ATOM      2  C   UNL     1      17.780  20.821  19.208  1.00  0.00     0.000 C 
BRANCH   2   3
ATOM      3  C   UNL     1      16.796  20.469  20.339  1.00  0.00     0.000 C 
BRANCH   3   4
ATOM      4  C   UNL     1      15.307  20.666  19.989  1.00  0.00     0.000 C 
BRANCH   4   5
ATOM      5  C   UNL     1      14.537  21.623  20.920  1.00  0.00     0.000 C 
BRANCH   5   6
ATOM      6  C   UNL     1      14.377  21.131  22.369  1.00  0.00     0.006 C 
BRANCH   6   7
ATOM      7  C   UNL     1      13.690  19.763  22.461  1.00  0.00     0.053 C 
BRANCH   7   8
ATOM      8  C   UNL     1      13.749  19.241  23.862  1.00  0.00     0.041 C 
ATOM      9  O   UNL     1      12.739  18.694  24.377  1.00  0.00    -0.550 OA
ATOM     10  O   UNL     1      14.935  19.313  24.582  1.00  0.00    -0.550 OA
ENDBRANCH   7   8
ENDBRANCH   6   7
ENDBRANCH   5   6
ENDBRANCH   4   5
ENDBRANCH   3   4
ENDBRANCH   2   3
ENDBRANCH   1   2
BRANCH   1  11
ATOM     11  C   UNL     1      18.135  22.771  20.780  1.00  0.00     0.000 C 
BRANCH  11  12
ATOM     12  C   UNL     1      17.634  24.178  20.423  1.00  0.00    -0.000 C 
BRANCH  12  13
ATOM     13  C   UNL     1      17.385  25.056  21.662  1.00  0.00    -0.000 C 
BRANCH  13  14
ATOM     14  C   UNL     1      17.731  24.396  23.013  1.00  0.00    -0.000 C 
BRANCH  14  15
ATOM     15  C   UNL     1      16.519  24.009  23.880  1.00  0.00    -0.000 C 
BRANCH  15  16
ATOM     16  C   UNL     1      16.911  23.615  25.312  1.00  0.00    -0.000 C 
BRANCH  16  17
ATOM     17  C   UNL     1      16.022  22.480  25.831  1.00  0.00    -0.003 C 
ATOM     18  C   UNL     1      14.551  22.749  25.526  1.00  0.00     0.004 C 
ENDBRANCH  16  17
ENDBRANCH  15  16
ENDBRANCH  14  15
ENDBRANCH  13  14
ENDBRANCH  12  13
ENDBRANCH  11  12
ENDBRANCH   1  11
TORSDOF 14
ENDMDL
MODEL 8
REMARK VINA RESULT:    -4.841      2.232      4.360
REMARK INTER + INTRA:          -9.765
REMARK INTER:                  -8.115
REMARK INTRA:                  -1.651
REMARK UNBOUND:                -0.962
REMARK SMILES CCCCCCCCCCCCCCCC(=O)[O-]
REMARK SMILES IDX 9 1 10 2 11 3 12 4 13 5 14 6 15 7 16 8 17 9 18 10 8 11 7 12
REMARK SMILES IDX 6 13 5 14 4 15 3 16 2 17 1 18
REMARK H PARENT
REMARK Flexibility Score: inf
ROOT
ATOM      1  C   UNL     1      13.496  17.048  25.301  1.00  0.00     0.000 C 
ENDROOT
BRANCH   1   2
ATOM      2  C   UNL     1      14.756  17.922  25.219  1.00  0.00     0.000 C 
BRANCH   2   3
ATOM      3  C   UNL     1      14.680  18.978  24.101  1.00  0.00     0.000 C 
BRANCH   3   4
ATOM      4  C   UNL     1      14.300  20.396  24.570  1.00  0.00     0.000 C 
BRANCH   4   5
ATOM      5  C   UNL     1      15.412  21.159  25.318  1.00  0.00     0.000 C 
BRANCH   5   6
ATOM      6  C   UNL     1      15.453  22.674  25.051  1.00  0.00     0.006 C 
BRANCH   6   7
ATOM      7  C   UNL     1      14.762  23.065  23.738  1.00  0.00     0.053 C 
BRANCH   7   8
ATOM      8  C   UNL     1      15.753  23.099  22.617  1.00  0.00     0.041 C 
ATOM      9  O   UNL     1      16.549  24.067  22.505  1.00  0.00    -0.550 OA
ATOM     10  O   UNL     1      15.830  22.037  21.725  1.00  0.00    -0.550 OA
ENDBRANCH   7   8
ENDBRANCH   6   7
ENDBRANCH   5   6
ENDBRANCH   4   5
ENDBRANCH   3   4
ENDBRANCH   2   3
ENDBRANCH   1   2
BRANCH   1  11
ATOM     11  C   UNL     1      12.542  17.347  24.138  1.00  0.00     0.000 C 
BRANCH  11  12
ATOM     12  C   UNL     1      11.175  17.819  24.656  1.00  0.00    -0.000 C 
BRANCH  12  13
ATOM     13  C   UNL     1      10.291  18.417  23.547  1.00  0.00    -0.000 C 
BRANCH  13  14
ATOM     14  C   UNL     1      11.010  18.685  22.209  1.00  0.00    -0.000 C 
BRANCH  14  15
ATOM     15  C   UNL     1      11.559  20.112  22.037  1.00  0.00    -0.000 C 
BRANCH  15  16
ATOM     16  C   UNL     1      12.856  20.158  21.216  1.00  0.00    -0.000 C 
BRANCH  16  17
ATOM     17  C   UNL     1      12.827  19.122  20.087  1.00  0.00    -0.003 C 
ATOM     18  C   UNL     1      12.896  19.795  18.719  1.00  0.00     0.004 C 
ENDBRANCH  16  17
ENDBRANCH  15  16
ENDBRANCH  14  15
ENDBRANCH  13  14
ENDBRANCH  12  13
ENDBRANCH  11  12
ENDBRANCH   1  11
TORSDOF 14
ENDMDL
MODEL 9
REMARK VINA RESULT:    -4.780      3.219      5.743
REMARK INTER + INTRA:          -9.655
REMARK INTER:                  -8.297
REMARK INTRA:                  -1.358
REMARK UNBOUND:                -0.962
REMARK SMILES CCCCCCCCCCCCCCCC(=O)[O-]
REMARK SMILES IDX 9 1 10 2 11 3 12 4 13 5 14 6 15 7 16 8 17 9 18 10 8 11 7 12
REMARK SMILES IDX 6 13 5 14 4 15 3 16 2 17 1 18
REMARK H PARENT
REMARK Flexibility Score: inf
ROOT
ATOM      1  C   UNL     1      11.192  18.052  24.898  1.00  0.00     0.000 C 
ENDROOT
BRANCH   1   2
ATOM      2  C   UNL     1      12.278  17.118  24.345  1.00  0.00     0.000 C 
BRANCH   2   3
ATOM      3  C   UNL     1      13.538  17.077  25.228  1.00  0.00     0.000 C 
BRANCH   3   4
ATOM      4  C   UNL     1      14.665  18.036  24.797  1.00  0.00     0.000 C 
BRANCH   4   5
ATOM      5  C   UNL     1      15.851  18.138  25.777  1.00  0.00     0.000 C 
BRANCH   5   6
ATOM      6  C   UNL     1      17.221  17.776  25.178  1.00  0.00     0.006 C 
BRANCH   6   7
ATOM      7  C   UNL     1      17.400  16.266  24.972  1.00  0.00     0.053 C 
BRANCH   7   8
ATOM      8  C   UNL     1      18.279  16.001  23.790  1.00  0.00     0.041 C 
ATOM      9  O   UNL     1      18.535  16.922  22.972  1.00  0.00    -0.550 OA
ATOM     10  O   UNL     1      18.856  14.748  23.620  1.00  0.00    -0.550 OA
ENDBRANCH   7   8
ENDBRANCH   6   7
ENDBRANCH   5   6
ENDBRANCH   4   5
ENDBRANCH   3   4
ENDBRANCH   2   3
ENDBRANCH   1   2
BRANCH   1  11
ATOM     11  C   UNL     1       9.908  17.958  24.065  1.00  0.00     0.000 C 
BRANCH  11  12
ATOM     12  C   UNL     1       9.880  19.040  22.975  1.00  0.00    -0.000 C 
BRANCH  12  13
ATOM     13  C   UNL     1      10.290  18.505  21.591  1.00  0.00    -0.000 C 
BRANCH  13  14
ATOM     14  C   UNL     1      11.625  19.056  21.046  1.00  0.00    -0.000 C 
BRANCH  14  15
ATOM     15  C   UNL     1      12.411  19.948  22.023  1.00  0.00    -0.000 C 
BRANCH  15  16
ATOM     16  C   UNL     1      13.465  20.817  21.321  1.00  0.00    -0.000 C 
BRANCH  16  17
ATOM     17  C   UNL     1      14.804  20.761  22.064  1.00  0.00    -0.003 C 
ATOM     18  C   UNL     1      14.702  21.419  23.437  1.00  0.00     0.004 C 
ENDBRANCH  16  17
ENDBRANCH  15  16
ENDBRANCH  14  15
ENDBRANCH  13  14
ENDBRANCH  12  13
ENDBRANCH  11  12
ENDBRANCH   1  11
TORSDOF 14
ENDMDL
