MODEL 1
REMARK VINA RESULT:    -6.755      0.000      0.000
REMARK INTER + INTRA:         -11.706
REMARK INTER:                  -9.914
REMARK INTRA:                  -1.792
REMARK UNBOUND:                -1.792
REMARK SMILES O=c1c(O[C@@H]2O[C@H](CO)[C@H](O)[C@H](O)[C@@H]2O)c(-c2ccc(O)c(O)c2)oc2cc(O)cc(O)c12
REMARK SMILES IDX 4 1 3 2 16 3 25 4 2 5 26 6 1 7 33 8 27 9 31 10 28 11 30 12
REMARK SMILES IDX 17 13 18 14 19 15 20 16 24 17 22 18 21 19 23 21 32 23 29 25
REMARK SMILES IDX 5 27 14 28 6 29 12 30 7 31 10 32 15 33 13 35 8 37 9 38 11 40
REMARK H PARENT 21 20 23 22 32 24 29 26 15 34 13 36 9 39 11 41
REMARK Flexibility Score: inf
ROOT
ATOM      1  O   UNL     1     -37.648   5.022  82.038  1.00  0.00    -0.454 OA
ENDROOT
BRANCH   1   2
ATOM      2  C   UNL     1     -38.388   4.628  80.913  1.00  0.00     0.214 A 
ATOM      3  C   UNL     1     -37.848   4.623  79.606  1.00  0.00     0.180 A 
ATOM      4  O   UNL     1     -38.581   4.168  78.594  1.00  0.00    -0.452 OA
ATOM      5  C   UNL     1     -39.722   4.245  81.089  1.00  0.00     0.239 A 
ATOM      6  C   UNL     1     -39.836   3.757  78.726  1.00  0.00     0.146 A 
ATOM      7  O   UNL     1     -40.228   4.298  82.242  1.00  0.00    -0.285 OA
ATOM      8  C   UNL     1     -40.476   3.798  79.986  1.00  0.00     0.111 A 
ATOM      9  C   UNL     1     -40.526   3.297  77.601  1.00  0.00     0.094 A 
ATOM     10  C   UNL     1     -41.829   3.394  80.085  1.00  0.00     0.134 A 
ATOM     11  C   UNL     1     -41.859   2.889  77.706  1.00  0.00     0.123 A 
ATOM     12  C   UNL     1     -42.507   2.946  78.942  1.00  0.00     0.093 A 
BRANCH   3  13
ATOM     13  C   UNL     1     -36.490   5.128  79.298  1.00  0.00     0.025 A 
ATOM     14  C   UNL     1     -35.345   4.380  79.604  1.00  0.00     0.016 A 
ATOM     15  C   UNL     1     -34.076   4.879  79.307  1.00  0.00     0.051 A 
ATOM     16  C   UNL     1     -33.924   6.143  78.724  1.00  0.00     0.157 A 
ATOM     17  C   UNL     1     -36.340   6.408  78.741  1.00  0.00     0.062 A 
ATOM     18  C   UNL     1     -35.071   6.923  78.449  1.00  0.00     0.158 A 
BRANCH  16  19
ATOM     19  O   UNL     1     -32.628   6.580  78.440  1.00  0.00    -0.504 OA
ATOM     20  H   UNL     1     -31.947   6.820  79.143  1.00  0.00     0.293 HD
ENDBRANCH  16  19
BRANCH  18  21
ATOM     21  O   UNL     1     -34.998   8.204  77.897  1.00  0.00    -0.504 OA
ATOM     22  H   UNL     1     -34.226   8.532  77.333  1.00  0.00     0.293 HD
ENDBRANCH  18  21
ENDBRANCH   3  13
BRANCH  10  23
ATOM     23  O   UNL     1     -42.504   3.440  81.305  1.00  0.00    -0.507 OA
ATOM     24  H   UNL     1     -43.232   2.777  81.537  1.00  0.00     0.293 HD
ENDBRANCH  10  23
BRANCH  11  25
ATOM     25  O   UNL     1     -42.550   2.428  76.587  1.00  0.00    -0.508 OA
ATOM     26  H   UNL     1     -43.542   2.596  76.468  1.00  0.00     0.293 HD
ENDBRANCH  11  25
ENDBRANCH   1   2
BRANCH   1  27
ATOM     27  C   UNL     1     -37.400   6.378  82.434  1.00  0.00     0.339 C 
ATOM     28  C   UNL     1     -37.640   6.538  83.954  1.00  0.00     0.214 C 
ATOM     29  O   UNL     1     -36.082   6.783  82.103  1.00  0.00    -0.332 OA
ATOM     30  C   UNL     1     -36.819   7.723  84.541  1.00  0.00     0.180 C 
ATOM     31  C   UNL     1     -35.974   8.200  82.139  1.00  0.00     0.179 C 
ATOM     32  C   UNL     1     -36.565   8.804  83.463  1.00  0.00     0.177 C 
BRANCH  28  33
ATOM     33  O   UNL     1     -37.326   5.343  84.626  1.00  0.00    -0.384 OA
ATOM     34  H   UNL     1     -38.023   5.219  85.324  1.00  0.00     0.211 HD
ENDBRANCH  28  33
BRANCH  30  35
ATOM     35  O   UNL     1     -35.615   7.287  85.125  1.00  0.00    -0.387 OA
ATOM     36  H   UNL     1     -34.879   7.490  84.497  1.00  0.00     0.211 HD
ENDBRANCH  30  35
BRANCH  31  37
ATOM     37  C   UNL     1     -34.514   8.594  81.852  1.00  0.00     0.191 C 
BRANCH  37  38
ATOM     38  O   UNL     1     -33.653   8.145  82.862  1.00  0.00    -0.394 OA
ATOM     39  H   UNL     1     -33.884   8.654  83.683  1.00  0.00     0.210 HD
ENDBRANCH  37  38
ENDBRANCH  31  37
BRANCH  32  40
ATOM     40  O   UNL     1     -35.828   9.897  83.962  1.00  0.00    -0.387 OA
ATOM     41  H   UNL     1     -35.115  10.116  83.310  1.00  0.00     0.211 HD
ENDBRANCH  32  40
ENDBRANCH   1  27
TORSDOF 12
ENDMDL
MODEL 2
REMARK VINA RESULT:    -6.720      1.171      1.607
REMARK INTER + INTRA:         -11.655
REMARK INTER:                  -9.863
REMARK INTRA:                  -1.791
REMARK UNBOUND:                -1.792
REMARK SMILES O=c1c(O[C@@H]2O[C@H](CO)[C@H](O)[C@H](O)[C@@H]2O)c(-c2ccc(O)c(O)c2)oc2cc(O)cc(O)c12
REMARK SMILES IDX 4 1 3 2 16 3 25 4 2 5 26 6 1 7 33 8 27 9 31 10 28 11 30 12
REMARK SMILES IDX 17 13 18 14 19 15 20 16 24 17 22 18 21 19 23 21 32 23 29 25
REMARK SMILES IDX 5 27 14 28 6 29 12 30 7 31 10 32 15 33 13 35 8 37 9 38 11 40
REMARK H PARENT 21 20 23 22 32 24 29 26 15 34 13 36 9 39 11 41
REMARK Flexibility Score: inf
ROOT
ATOM      1  O   UNL     1     -37.644   4.959  82.073  1.00  0.00    -0.454 OA
ENDROOT
BRANCH   1   2
ATOM      2  C   UNL     1     -38.381   4.596  80.936  1.00  0.00     0.214 A 
ATOM      3  C   UNL     1     -37.844   4.642  79.629  1.00  0.00     0.180 A 
ATOM      4  O   UNL     1     -38.574   4.213  78.603  1.00  0.00    -0.452 OA
ATOM      5  C   UNL     1     -39.710   4.190  81.101  1.00  0.00     0.239 A 
ATOM      6  C   UNL     1     -39.824   3.783  78.723  1.00  0.00     0.146 A 
ATOM      7  O   UNL     1     -40.214   4.197  82.256  1.00  0.00    -0.285 OA
ATOM      8  C   UNL     1     -40.461   3.773  79.984  1.00  0.00     0.111 A 
ATOM      9  C   UNL     1     -40.510   3.354  77.584  1.00  0.00     0.094 A 
ATOM     10  C   UNL     1     -41.809   3.348  80.072  1.00  0.00     0.134 A 
ATOM     11  C   UNL     1     -41.838   2.926  77.677  1.00  0.00     0.123 A 
ATOM     12  C   UNL     1     -42.483   2.932  78.916  1.00  0.00     0.093 A 
BRANCH   3  13
ATOM     13  C   UNL     1     -36.494   5.175  79.336  1.00  0.00     0.025 A 
ATOM     14  C   UNL     1     -35.345   4.388  79.506  1.00  0.00     0.016 A 
ATOM     15  C   UNL     1     -34.083   4.914  79.226  1.00  0.00     0.051 A 
ATOM     16  C   UNL     1     -33.939   6.239  78.799  1.00  0.00     0.157 A 
ATOM     17  C   UNL     1     -36.351   6.513  78.936  1.00  0.00     0.062 A 
ATOM     18  C   UNL     1     -35.089   7.054  78.663  1.00  0.00     0.158 A 
BRANCH  16  19
ATOM     19  O   UNL     1     -32.650   6.702  78.524  1.00  0.00    -0.504 OA
ATOM     20  H   UNL     1     -31.808   6.236  78.822  1.00  0.00     0.293 HD
ENDBRANCH  16  19
BRANCH  18  21
ATOM     21  O   UNL     1     -35.023   8.392  78.271  1.00  0.00    -0.504 OA
ATOM     22  H   UNL     1     -35.009   9.169  78.917  1.00  0.00     0.293 HD
ENDBRANCH  18  21
ENDBRANCH   3  13
BRANCH  10  23
ATOM     23  O   UNL     1     -42.482   3.344  81.294  1.00  0.00    -0.507 OA
ATOM     24  H   UNL     1     -42.916   4.178  81.666  1.00  0.00     0.293 HD
ENDBRANCH  10  23
BRANCH  11  25
ATOM     25  O   UNL     1     -42.526   2.495  76.544  1.00  0.00    -0.508 OA
ATOM     26  H   UNL     1     -43.433   2.871  76.298  1.00  0.00     0.293 HD
ENDBRANCH  11  25
ENDBRANCH   1   2
BRANCH   1  27
ATOM     27  C   UNL     1     -37.789   6.189  82.796  1.00  0.00     0.339 C 
ATOM     28  C   UNL     1     -36.447   6.572  83.465  1.00  0.00     0.214 C 
ATOM     29  O   UNL     1     -38.230   7.240  81.952  1.00  0.00    -0.332 OA
ATOM     30  C   UNL     1     -36.342   8.107  83.700  1.00  0.00     0.180 C 
ATOM     31  C   UNL     1     -38.733   8.321  82.726  1.00  0.00     0.179 C 
ATOM     32  C   UNL     1     -37.746   8.734  83.876  1.00  0.00     0.177 C 
BRANCH  28  33
ATOM     33  O   UNL     1     -35.367   6.120  82.684  1.00  0.00    -0.384 OA
ATOM     34  H   UNL     1     -35.716   5.381  82.119  1.00  0.00     0.211 HD
ENDBRANCH  28  33
BRANCH  30  35
ATOM     35  O   UNL     1     -35.620   8.745  82.674  1.00  0.00    -0.387 OA
ATOM     36  H   UNL     1     -36.264   9.048  81.988  1.00  0.00     0.211 HD
ENDBRANCH  30  35
BRANCH  31  37
ATOM     37  C   UNL     1     -39.128   9.468  81.778  1.00  0.00     0.191 C 
BRANCH  37  38
ATOM     38  O   UNL     1     -38.006  10.020  81.146  1.00  0.00    -0.394 OA
ATOM     39  H   UNL     1     -38.331  10.459  80.317  1.00  0.00     0.210 HD
ENDBRANCH  37  38
ENDBRANCH  31  37
BRANCH  32  40
ATOM     40  O   UNL     1     -37.689  10.125  84.097  1.00  0.00    -0.387 OA
ATOM     41  H   UNL     1     -37.692  10.285  85.074  1.00  0.00     0.211 HD
ENDBRANCH  32  40
ENDBRANCH   1  27
TORSDOF 12
ENDMDL
MODEL 3
REMARK VINA RESULT:    -6.597      3.044      7.227
REMARK INTER + INTRA:         -11.474
REMARK INTER:                  -9.476
REMARK INTRA:                  -1.998
REMARK UNBOUND:                -1.792
REMARK SMILES O=c1c(O[C@@H]2O[C@H](CO)[C@H](O)[C@H](O)[C@@H]2O)c(-c2ccc(O)c(O)c2)oc2cc(O)cc(O)c12
REMARK SMILES IDX 4 1 3 2 16 3 25 4 2 5 26 6 1 7 33 8 27 9 31 10 28 11 30 12
REMARK SMILES IDX 17 13 18 14 19 15 20 16 24 17 22 18 21 19 23 21 32 23 29 25
REMARK SMILES IDX 5 27 14 28 6 29 12 30 7 31 10 32 15 33 13 35 8 37 9 38 11 40
REMARK H PARENT 21 20 23 22 32 24 29 26 15 34 13 36 9 39 11 41
REMARK Flexibility Score: inf
ROOT
ATOM      1  O   UNL     1     -38.043   5.377  77.854  1.00  0.00    -0.454 OA
ENDROOT
BRANCH   1   2
ATOM      2  C   UNL     1     -37.063   6.333  78.157  1.00  0.00     0.214 A 
ATOM      3  C   UNL     1     -37.284   7.723  78.023  1.00  0.00     0.180 A 
ATOM      4  O   UNL     1     -36.337   8.578  78.398  1.00  0.00    -0.452 OA
ATOM      5  C   UNL     1     -35.808   5.892  78.590  1.00  0.00     0.239 A 
ATOM      6  C   UNL     1     -35.148   8.201  78.852  1.00  0.00     0.146 A 
ATOM      7  O   UNL     1     -35.585   4.654  78.662  1.00  0.00    -0.285 OA
ATOM      8  C   UNL     1     -34.819   6.830  78.949  1.00  0.00     0.111 A 
ATOM      9  C   UNL     1     -34.218   9.176  79.220  1.00  0.00     0.094 A 
ATOM     10  C   UNL     1     -33.528   6.461  79.397  1.00  0.00     0.134 A 
ATOM     11  C   UNL     1     -32.947   8.806  79.672  1.00  0.00     0.123 A 
ATOM     12  C   UNL     1     -32.605   7.455  79.751  1.00  0.00     0.093 A 
BRANCH   3  13
ATOM     13  C   UNL     1     -38.531   8.286  77.454  1.00  0.00     0.025 A 
ATOM     14  C   UNL     1     -38.572   8.800  76.150  1.00  0.00     0.016 A 
ATOM     15  C   UNL     1     -39.758   9.328  75.638  1.00  0.00     0.051 A 
ATOM     16  C   UNL     1     -40.916   9.378  76.423  1.00  0.00     0.157 A 
ATOM     17  C   UNL     1     -39.682   8.362  78.254  1.00  0.00     0.062 A 
ATOM     18  C   UNL     1     -40.874   8.900  77.754  1.00  0.00     0.158 A 
BRANCH  16  19
ATOM     19  O   UNL     1     -42.073   9.907  75.848  1.00  0.00    -0.504 OA
ATOM     20  H   UNL     1     -42.617  10.651  76.257  1.00  0.00     0.293 HD
ENDBRANCH  16  19
BRANCH  18  21
ATOM     21  O   UNL     1     -41.979   8.944  78.607  1.00  0.00    -0.504 OA
ATOM     22  H   UNL     1     -41.945   8.699  79.587  1.00  0.00     0.293 HD
ENDBRANCH  18  21
ENDBRANCH   3  13
BRANCH  10  23
ATOM     23  O   UNL     1     -33.155   5.120  79.485  1.00  0.00    -0.507 OA
ATOM     24  H   UNL     1     -33.817   4.371  79.329  1.00  0.00     0.293 HD
ENDBRANCH  10  23
BRANCH  11  25
ATOM     25  O   UNL     1     -32.016   9.776  80.042  1.00  0.00    -0.508 OA
ATOM     26  H   UNL     1     -32.301  10.702  80.335  1.00  0.00     0.293 HD
ENDBRANCH  11  25
ENDBRANCH   1   2
BRANCH   1  27
ATOM     27  C   UNL     1     -39.062   4.920  78.753  1.00  0.00     0.339 C 
ATOM     28  C   UNL     1     -39.178   3.378  78.684  1.00  0.00     0.214 C 
ATOM     29  O   UNL     1     -38.802   5.330  80.085  1.00  0.00    -0.332 OA
ATOM     30  C   UNL     1     -39.751   2.788  80.005  1.00  0.00     0.180 C 
ATOM     31  C   UNL     1     -39.976   5.216  80.879  1.00  0.00     0.179 C 
ATOM     32  C   UNL     1     -40.666   3.815  80.716  1.00  0.00     0.177 C 
BRANCH  28  33
ATOM     33  O   UNL     1     -37.924   2.808  78.396  1.00  0.00    -0.384 OA
ATOM     34  H   UNL     1     -37.325   3.043  79.153  1.00  0.00     0.211 HD
ENDBRANCH  28  33
BRANCH  30  35
ATOM     35  O   UNL     1     -38.731   2.330  80.861  1.00  0.00    -0.387 OA
ATOM     36  H   UNL     1     -39.043   2.438  81.793  1.00  0.00     0.211 HD
ENDBRANCH  30  35
BRANCH  31  37
ATOM     37  C   UNL     1     -39.632   5.595  82.331  1.00  0.00     0.191 C 
BRANCH  37  38
ATOM     38  O   UNL     1     -38.832   4.620  82.940  1.00  0.00    -0.394 OA
ATOM     39  H   UNL     1     -38.980   3.774  82.442  1.00  0.00     0.210 HD
ENDBRANCH  37  38
ENDBRANCH  31  37
BRANCH  32  40
ATOM     40  O   UNL     1     -41.209   3.311  81.915  1.00  0.00    -0.387 OA
ATOM     41  H   UNL     1     -42.193   3.405  81.875  1.00  0.00     0.211 HD
ENDBRANCH  32  40
ENDBRANCH   1  27
TORSDOF 12
ENDMDL
MODEL 4
REMARK VINA RESULT:    -6.402      2.086      7.934
REMARK INTER + INTRA:         -11.187
REMARK INTER:                  -9.756
REMARK INTRA:                  -1.431
REMARK UNBOUND:                -1.792
REMARK SMILES O=c1c(O[C@@H]2O[C@H](CO)[C@H](O)[C@H](O)[C@@H]2O)c(-c2ccc(O)c(O)c2)oc2cc(O)cc(O)c12
REMARK SMILES IDX 4 1 3 2 16 3 25 4 2 5 26 6 1 7 33 8 27 9 31 10 28 11 30 12
REMARK SMILES IDX 17 13 18 14 19 15 20 16 24 17 22 18 21 19 23 21 32 23 29 25
REMARK SMILES IDX 5 27 14 28 6 29 12 30 7 31 10 32 15 33 13 35 8 37 9 38 11 40
REMARK H PARENT 21 20 23 22 32 24 29 26 15 34 13 36 9 39 11 41
REMARK Flexibility Score: inf
ROOT
ATOM      1  O   UNL     1     -36.993   3.959  79.711  1.00  0.00    -0.454 OA
ENDROOT
BRANCH   1   2
ATOM      2  C   UNL     1     -36.140   4.885  80.328  1.00  0.00     0.214 A 
ATOM      3  C   UNL     1     -36.223   5.205  81.703  1.00  0.00     0.180 A 
ATOM      4  O   UNL     1     -35.335   6.036  82.239  1.00  0.00    -0.452 OA
ATOM      5  C   UNL     1     -35.179   5.536  79.545  1.00  0.00     0.239 A 
ATOM      6  C   UNL     1     -34.384   6.643  81.539  1.00  0.00     0.146 A 
ATOM      7  O   UNL     1     -35.132   5.297  78.309  1.00  0.00    -0.285 OA
ATOM      8  C   UNL     1     -34.276   6.435  80.146  1.00  0.00     0.111 A 
ATOM      9  C   UNL     1     -33.497   7.502  82.194  1.00  0.00     0.094 A 
ATOM     10  C   UNL     1     -33.277   7.129  79.421  1.00  0.00     0.134 A 
ATOM     11  C   UNL     1     -32.506   8.178  81.475  1.00  0.00     0.123 A 
ATOM     12  C   UNL     1     -32.405   7.995  80.094  1.00  0.00     0.093 A 
BRANCH   3  13
ATOM     13  C   UNL     1     -37.282   4.668  82.588  1.00  0.00     0.025 A 
ATOM     14  C   UNL     1     -38.318   5.484  83.066  1.00  0.00     0.016 A 
ATOM     15  C   UNL     1     -39.303   4.956  83.902  1.00  0.00     0.051 A 
ATOM     16  C   UNL     1     -39.260   3.614  84.298  1.00  0.00     0.157 A 
ATOM     17  C   UNL     1     -37.220   3.329  83.006  1.00  0.00     0.062 A 
ATOM     18  C   UNL     1     -38.197   2.792  83.853  1.00  0.00     0.158 A 
BRANCH  16  19
ATOM     19  O   UNL     1     -40.282   3.143  85.125  1.00  0.00    -0.504 OA
ATOM     20  H   UNL     1     -41.207   3.543  85.163  1.00  0.00     0.293 HD
ENDBRANCH  16  19
BRANCH  18  21
ATOM     21  O   UNL     1     -38.071   1.453  84.229  1.00  0.00    -0.504 OA
ATOM     22  H   UNL     1     -38.205   1.117  85.172  1.00  0.00     0.293 HD
ENDBRANCH  18  21
ENDBRANCH   3  13
BRANCH  10  23
ATOM     23  O   UNL     1     -33.151   6.970  78.041  1.00  0.00    -0.507 OA
ATOM     24  H   UNL     1     -33.712   6.303  77.527  1.00  0.00     0.293 HD
ENDBRANCH  10  23
BRANCH  11  25
ATOM     25  O   UNL     1     -31.619   9.035  82.124  1.00  0.00    -0.508 OA
ATOM     26  H   UNL     1     -30.620   8.989  81.960  1.00  0.00     0.293 HD
ENDBRANCH  11  25
ENDBRANCH   1   2
BRANCH   1  27
ATOM     27  C   UNL     1     -38.354   4.210  79.334  1.00  0.00     0.339 C 
ATOM     28  C   UNL     1     -38.687   3.460  78.021  1.00  0.00     0.214 C 
ATOM     29  O   UNL     1     -39.257   3.824  80.357  1.00  0.00    -0.332 OA
ATOM     30  C   UNL     1     -40.209   3.162  77.902  1.00  0.00     0.180 C 
ATOM     31  C   UNL     1     -40.531   4.418  80.145  1.00  0.00     0.179 C 
ATOM     32  C   UNL     1     -41.039   4.219  78.673  1.00  0.00     0.177 C 
BRANCH  28  33
ATOM     33  O   UNL     1     -37.946   2.267  77.940  1.00  0.00    -0.384 OA
ATOM     34  H   UNL     1     -38.293   1.771  77.152  1.00  0.00     0.211 HD
ENDBRANCH  28  33
BRANCH  30  35
ATOM     35  O   UNL     1     -40.522   1.857  78.325  1.00  0.00    -0.387 OA
ATOM     36  H   UNL     1     -41.405   1.617  77.950  1.00  0.00     0.211 HD
ENDBRANCH  30  35
BRANCH  31  37
ATOM     37  C   UNL     1     -41.500   3.914  81.230  1.00  0.00     0.191 C 
BRANCH  37  38
ATOM     38  O   UNL     1     -41.480   2.517  81.327  1.00  0.00    -0.394 OA
ATOM     39  H   UNL     1     -41.741   2.289  82.258  1.00  0.00     0.210 HD
ENDBRANCH  37  38
ENDBRANCH  31  37
BRANCH  32  40
ATOM     40  O   UNL     1     -42.425   3.983  78.582  1.00  0.00    -0.387 OA
ATOM     41  H   UNL     1     -42.651   3.816  77.633  1.00  0.00     0.211 HD
ENDBRANCH  32  40
ENDBRANCH   1  27
TORSDOF 12
ENDMDL
MODEL 5
REMARK VINA RESULT:    -6.387      2.966      4.976
REMARK INTER + INTRA:         -11.166
REMARK INTER:                  -9.756
REMARK INTRA:                  -1.410
REMARK UNBOUND:                -1.792
REMARK SMILES O=c1c(O[C@@H]2O[C@H](CO)[C@H](O)[C@H](O)[C@@H]2O)c(-c2ccc(O)c(O)c2)oc2cc(O)cc(O)c12
REMARK SMILES IDX 4 1 3 2 16 3 25 4 2 5 26 6 1 7 33 8 27 9 31 10 28 11 30 12
REMARK SMILES IDX 17 13 18 14 19 15 20 16 24 17 22 18 21 19 23 21 32 23 29 25
REMARK SMILES IDX 5 27 14 28 6 29 12 30 7 31 10 32 15 33 13 35 8 37 9 38 11 40
REMARK H PARENT 21 20 23 22 32 24 29 26 15 34 13 36 9 39 11 41
REMARK Flexibility Score: inf
ROOT
ATOM      1  O   UNL     1     -36.664   5.440  78.966  1.00  0.00    -0.454 OA
ENDROOT
BRANCH   1   2
ATOM      2  C   UNL     1     -37.784   5.031  79.704  1.00  0.00     0.214 A 
ATOM      3  C   UNL     1     -39.089   5.509  79.442  1.00  0.00     0.180 A 
ATOM      4  O   UNL     1     -40.117   5.024  80.132  1.00  0.00    -0.452 OA
ATOM      5  C   UNL     1     -37.599   4.130  80.758  1.00  0.00     0.239 A 
ATOM      6  C   UNL     1     -39.988   4.137  81.112  1.00  0.00     0.146 A 
ATOM      7  O   UNL     1     -36.433   3.740  81.033  1.00  0.00    -0.285 OA
ATOM      8  C   UNL     1     -38.711   3.663  81.487  1.00  0.00     0.111 A 
ATOM      9  C   UNL     1     -41.131   3.689  81.781  1.00  0.00     0.094 A 
ATOM     10  C   UNL     1     -38.603   2.751  82.564  1.00  0.00     0.134 A 
ATOM     11  C   UNL     1     -41.020   2.780  82.838  1.00  0.00     0.123 A 
ATOM     12  C   UNL     1     -39.760   2.321  83.229  1.00  0.00     0.093 A 
BRANCH   3  13
ATOM     13  C   UNL     1     -39.372   6.557  78.434  1.00  0.00     0.025 A 
ATOM     14  C   UNL     1     -38.827   6.496  77.144  1.00  0.00     0.016 A 
ATOM     15  C   UNL     1     -39.105   7.498  76.213  1.00  0.00     0.051 A 
ATOM     16  C   UNL     1     -39.909   8.591  76.558  1.00  0.00     0.157 A 
ATOM     17  C   UNL     1     -40.154   7.667  78.793  1.00  0.00     0.062 A 
ATOM     18  C   UNL     1     -40.430   8.682  77.870  1.00  0.00     0.158 A 
BRANCH  16  19
ATOM     19  O   UNL     1     -40.160   9.553  75.577  1.00  0.00    -0.504 OA
ATOM     20  H   UNL     1     -39.503  10.269  75.308  1.00  0.00     0.293 HD
ENDBRANCH  16  19
BRANCH  18  21
ATOM     21  O   UNL     1     -41.214   9.756  78.297  1.00  0.00    -0.504 OA
ATOM     22  H   UNL     1     -41.194  10.132  79.235  1.00  0.00     0.293 HD
ENDBRANCH  18  21
ENDBRANCH   3  13
BRANCH  10  23
ATOM     23  O   UNL     1     -37.360   2.275  82.980  1.00  0.00    -0.507 OA
ATOM     24  H   UNL     1     -37.199   1.294  83.165  1.00  0.00     0.293 HD
ENDBRANCH  10  23
BRANCH  11  25
ATOM     25  O   UNL     1     -42.156   2.328  83.506  1.00  0.00    -0.508 OA
ATOM     26  H   UNL     1     -42.178   2.236  84.515  1.00  0.00     0.293 HD
ENDBRANCH  11  25
ENDBRANCH   1   2
BRANCH   1  27
ATOM     27  C   UNL     1     -35.767   6.496  79.337  1.00  0.00     0.339 C 
ATOM     28  C   UNL     1     -34.412   5.903  79.793  1.00  0.00     0.214 C 
ATOM     29  O   UNL     1     -35.565   7.407  78.269  1.00  0.00    -0.332 OA
ATOM     30  C   UNL     1     -33.249   6.918  79.596  1.00  0.00     0.180 C 
ATOM     31  C   UNL     1     -35.007   8.622  78.751  1.00  0.00     0.179 C 
ATOM     32  C   UNL     1     -33.768   8.374  79.683  1.00  0.00     0.177 C 
BRANCH  28  33
ATOM     33  O   UNL     1     -34.143   4.709  79.098  1.00  0.00    -0.384 OA
ATOM     34  H   UNL     1     -33.360   4.292  79.545  1.00  0.00     0.211 HD
ENDBRANCH  28  33
BRANCH  30  35
ATOM     35  O   UNL     1     -32.553   6.692  78.394  1.00  0.00    -0.387 OA
ATOM     36  H   UNL     1     -32.212   7.561  78.069  1.00  0.00     0.211 HD
ENDBRANCH  30  35
BRANCH  31  37
ATOM     37  C   UNL     1     -34.733   9.551  77.555  1.00  0.00     0.191 C 
BRANCH  37  38
ATOM     38  O   UNL     1     -33.770   9.009  76.695  1.00  0.00    -0.394 OA
ATOM     39  H   UNL     1     -33.027   9.666  76.644  1.00  0.00     0.210 HD
ENDBRANCH  37  38
ENDBRANCH  31  37
BRANCH  32  40
ATOM     40  O   UNL     1     -32.738   9.322  79.516  1.00  0.00    -0.387 OA
ATOM     41  H   UNL     1     -33.142  10.226  79.529  1.00  0.00     0.211 HD
ENDBRANCH  32  40
ENDBRANCH   1  27
TORSDOF 12
ENDMDL
MODEL 6
REMARK VINA RESULT:    -6.348      2.876      5.027
REMARK INTER + INTRA:         -11.109
REMARK INTER:                  -9.206
REMARK INTRA:                  -1.903
REMARK UNBOUND:                -1.792
REMARK SMILES O=c1c(O[C@@H]2O[C@H](CO)[C@H](O)[C@H](O)[C@@H]2O)c(-c2ccc(O)c(O)c2)oc2cc(O)cc(O)c12
REMARK SMILES IDX 4 1 3 2 16 3 25 4 2 5 26 6 1 7 33 8 27 9 31 10 28 11 30 12
REMARK SMILES IDX 17 13 18 14 19 15 20 16 24 17 22 18 21 19 23 21 32 23 29 25
REMARK SMILES IDX 5 27 14 28 6 29 12 30 7 31 10 32 15 33 13 35 8 37 9 38 11 40
REMARK H PARENT 21 20 23 22 32 24 29 26 15 34 13 36 9 39 11 41
REMARK Flexibility Score: inf
ROOT
ATOM      1  O   UNL     1     -37.444   8.046  80.665  1.00  0.00    -0.454 OA
ENDROOT
BRANCH   1   2
ATOM      2  C   UNL     1     -38.357   7.029  80.981  1.00  0.00     0.214 A 
ATOM      3  C   UNL     1     -39.464   6.713  80.161  1.00  0.00     0.180 A 
ATOM      4  O   UNL     1     -40.250   5.690  80.482  1.00  0.00    -0.452 OA
ATOM      5  C   UNL     1     -38.177   6.313  82.170  1.00  0.00     0.239 A 
ATOM      6  C   UNL     1     -40.088   4.960  81.580  1.00  0.00     0.146 A 
ATOM      7  O   UNL     1     -37.224   6.623  82.934  1.00  0.00    -0.285 OA
ATOM      8  C   UNL     1     -39.050   5.255  82.491  1.00  0.00     0.111 A 
ATOM      9  C   UNL     1     -40.968   3.903  81.831  1.00  0.00     0.094 A 
ATOM     10  C   UNL     1     -38.930   4.484  83.673  1.00  0.00     0.134 A 
ATOM     11  C   UNL     1     -40.840   3.139  82.995  1.00  0.00     0.123 A 
ATOM     12  C   UNL     1     -39.830   3.436  83.913  1.00  0.00     0.093 A 
BRANCH   3  13
ATOM     13  C   UNL     1     -39.814   7.493  78.951  1.00  0.00     0.025 A 
ATOM     14  C   UNL     1     -40.805   8.486  78.982  1.00  0.00     0.016 A 
ATOM     15  C   UNL     1     -41.119   9.205  77.829  1.00  0.00     0.051 A 
ATOM     16  C   UNL     1     -40.473   8.931  76.618  1.00  0.00     0.157 A 
ATOM     17  C   UNL     1     -39.185   7.196  77.732  1.00  0.00     0.062 A 
ATOM     18  C   UNL     1     -39.501   7.903  76.566  1.00  0.00     0.158 A 
BRANCH  16  19
ATOM     19  O   UNL     1     -40.824   9.694  75.501  1.00  0.00    -0.504 OA
ATOM     20  H   UNL     1     -41.248   9.314  74.670  1.00  0.00     0.293 HD
ENDBRANCH  16  19
BRANCH  18  21
ATOM     21  O   UNL     1     -38.836   7.553  75.389  1.00  0.00    -0.504 OA
ATOM     22  H   UNL     1     -37.905   7.161  75.363  1.00  0.00     0.293 HD
ENDBRANCH  18  21
ENDBRANCH   3  13
BRANCH  10  23
ATOM     23  O   UNL     1     -37.933   4.756  84.610  1.00  0.00    -0.507 OA
ATOM     24  H   UNL     1     -37.419   5.628  84.603  1.00  0.00     0.293 HD
ENDBRANCH  10  23
BRANCH  11  25
ATOM     25  O   UNL     1     -41.714   2.083  83.250  1.00  0.00    -0.508 OA
ATOM     26  H   UNL     1     -41.719   1.601  84.141  1.00  0.00     0.293 HD
ENDBRANCH  11  25
ENDBRANCH   1   2
BRANCH   1  27
ATOM     27  C   UNL     1     -36.217   7.863  79.944  1.00  0.00     0.339 C 
ATOM     28  C   UNL     1     -35.101   8.735  80.568  1.00  0.00     0.214 C 
ATOM     29  O   UNL     1     -35.821   6.501  79.930  1.00  0.00    -0.332 OA
ATOM     30  C   UNL     1     -33.689   8.144  80.287  1.00  0.00     0.180 C 
ATOM     31  C   UNL     1     -34.850   6.277  78.916  1.00  0.00     0.179 C 
ATOM     32  C   UNL     1     -33.685   7.329  78.970  1.00  0.00     0.177 C 
BRANCH  28  33
ATOM     33  O   UNL     1     -35.308   8.874  81.953  1.00  0.00    -0.384 OA
ATOM     34  H   UNL     1     -35.360   9.850  82.135  1.00  0.00     0.211 HD
ENDBRANCH  28  33
BRANCH  30  35
ATOM     35  O   UNL     1     -33.219   7.374  81.368  1.00  0.00    -0.387 OA
ATOM     36  H   UNL     1     -32.602   6.689  81.010  1.00  0.00     0.211 HD
ENDBRANCH  30  35
BRANCH  31  37
ATOM     37  C   UNL     1     -34.391   4.809  78.984  1.00  0.00     0.191 C 
BRANCH  37  38
ATOM     38  O   UNL     1     -33.538   4.589  80.073  1.00  0.00    -0.394 OA
ATOM     39  H   UNL     1     -34.117   4.417  80.862  1.00  0.00     0.210 HD
ENDBRANCH  37  38
ENDBRANCH  31  37
BRANCH  32  40
ATOM     40  O   UNL     1     -32.419   6.783  78.681  1.00  0.00    -0.387 OA
ATOM     41  H   UNL     1     -31.960   7.383  78.041  1.00  0.00     0.211 HD
ENDBRANCH  32  40
ENDBRANCH   1  27
TORSDOF 12
ENDMDL
MODEL 7
REMARK VINA RESULT:    -6.323      2.197      6.655
REMARK INTER + INTRA:         -11.071
REMARK INTER:                  -9.511
REMARK INTRA:                  -1.560
REMARK UNBOUND:                -1.792
REMARK SMILES O=c1c(O[C@@H]2O[C@H](CO)[C@H](O)[C@H](O)[C@@H]2O)c(-c2ccc(O)c(O)c2)oc2cc(O)cc(O)c12
REMARK SMILES IDX 4 1 3 2 16 3 25 4 2 5 26 6 1 7 33 8 27 9 31 10 28 11 30 12
REMARK SMILES IDX 17 13 18 14 19 15 20 16 24 17 22 18 21 19 23 21 32 23 29 25
REMARK SMILES IDX 5 27 14 28 6 29 12 30 7 31 10 32 15 33 13 35 8 37 9 38 11 40
REMARK H PARENT 21 20 23 22 32 24 29 26 15 34 13 36 9 39 11 41
REMARK Flexibility Score: inf
ROOT
ATOM      1  O   UNL     1     -37.781   6.069  81.662  1.00  0.00    -0.454 OA
ENDROOT
BRANCH   1   2
ATOM      2  C   UNL     1     -37.097   6.594  80.555  1.00  0.00     0.214 A 
ATOM      3  C   UNL     1     -37.367   6.189  79.228  1.00  0.00     0.180 A 
ATOM      4  O   UNL     1     -36.733   6.781  78.219  1.00  0.00    -0.452 OA
ATOM      5  C   UNL     1     -36.091   7.541  80.777  1.00  0.00     0.239 A 
ATOM      6  C   UNL     1     -35.802   7.712  78.386  1.00  0.00     0.146 A 
ATOM      7  O   UNL     1     -35.808   7.868  81.961  1.00  0.00    -0.285 OA
ATOM      8  C   UNL     1     -35.420   8.122  79.683  1.00  0.00     0.111 A 
ATOM      9  C   UNL     1     -35.191   8.274  77.261  1.00  0.00     0.094 A 
ATOM     10  C   UNL     1     -34.394   9.086  79.827  1.00  0.00     0.134 A 
ATOM     11  C   UNL     1     -34.184   9.233  77.409  1.00  0.00     0.123 A 
ATOM     12  C   UNL     1     -33.785   9.630  78.687  1.00  0.00     0.093 A 
BRANCH   3  13
ATOM     13  C   UNL     1     -38.321   5.105  78.898  1.00  0.00     0.025 A 
ATOM     14  C   UNL     1     -39.703   5.337  78.851  1.00  0.00     0.016 A 
ATOM     15  C   UNL     1     -40.582   4.299  78.542  1.00  0.00     0.051 A 
ATOM     16  C   UNL     1     -40.104   3.006  78.299  1.00  0.00     0.157 A 
ATOM     17  C   UNL     1     -37.840   3.803  78.684  1.00  0.00     0.062 A 
ATOM     18  C   UNL     1     -38.714   2.752  78.384  1.00  0.00     0.158 A 
BRANCH  16  19
ATOM     19  O   UNL     1     -41.034   2.013  77.982  1.00  0.00    -0.504 OA
ATOM     20  H   UNL     1     -41.346   1.811  77.046  1.00  0.00     0.293 HD
ENDBRANCH  16  19
BRANCH  18  21
ATOM     21  O   UNL     1     -38.165   1.484  78.184  1.00  0.00    -0.504 OA
ATOM     22  H   UNL     1     -38.641   0.732  77.706  1.00  0.00     0.293 HD
ENDBRANCH  18  21
ENDBRANCH   3  13
BRANCH  10  23
ATOM     23  O   UNL     1     -33.972   9.502  81.090  1.00  0.00    -0.507 OA
ATOM     24  H   UNL     1     -32.991   9.600  81.319  1.00  0.00     0.293 HD
ENDBRANCH  10  23
BRANCH  11  25
ATOM     25  O   UNL     1     -33.573   9.798  76.290  1.00  0.00    -0.508 OA
ATOM     26  H   UNL     1     -32.618   9.575  76.037  1.00  0.00     0.293 HD
ENDBRANCH  11  25
ENDBRANCH   1   2
BRANCH   1  27
ATOM     27  C   UNL     1     -37.876   4.677  81.994  1.00  0.00     0.339 C 
ATOM     28  C   UNL     1     -36.877   4.333  83.126  1.00  0.00     0.214 C 
ATOM     29  O   UNL     1     -39.193   4.324  82.383  1.00  0.00    -0.332 OA
ATOM     30  C   UNL     1     -37.342   3.093  83.942  1.00  0.00     0.180 C 
ATOM     31  C   UNL     1     -39.365   2.913  82.332  1.00  0.00     0.179 C 
ATOM     32  C   UNL     1     -38.205   2.150  83.067  1.00  0.00     0.177 C 
BRANCH  28  33
ATOM     33  O   UNL     1     -36.702   5.441  83.975  1.00  0.00    -0.384 OA
ATOM     34  H   UNL     1     -36.955   5.141  84.888  1.00  0.00     0.211 HD
ENDBRANCH  28  33
BRANCH  30  35
ATOM     35  O   UNL     1     -38.019   3.463  85.119  1.00  0.00    -0.387 OA
ATOM     36  H   UNL     1     -38.991   3.409  84.944  1.00  0.00     0.211 HD
ENDBRANCH  30  35
BRANCH  31  37
ATOM     37  C   UNL     1     -40.778   2.567  82.835  1.00  0.00     0.191 C 
BRANCH  37  38
ATOM     38  O   UNL     1     -40.964   2.972  84.163  1.00  0.00    -0.394 OA
ATOM     39  H   UNL     1     -41.171   3.942  84.142  1.00  0.00     0.210 HD
ENDBRANCH  37  38
ENDBRANCH  31  37
BRANCH  32  40
ATOM     40  O   UNL     1     -38.640   1.011  83.774  1.00  0.00    -0.387 OA
ATOM     41  H   UNL     1     -37.977   0.289  83.638  1.00  0.00     0.211 HD
ENDBRANCH  32  40
ENDBRANCH   1  27
TORSDOF 12
ENDMDL
MODEL 8
REMARK VINA RESULT:    -6.230      1.793      2.680
REMARK INTER + INTRA:         -10.935
REMARK INTER:                  -8.927
REMARK INTRA:                  -2.008
REMARK UNBOUND:                -1.792
REMARK SMILES O=c1c(O[C@@H]2O[C@H](CO)[C@H](O)[C@H](O)[C@@H]2O)c(-c2ccc(O)c(O)c2)oc2cc(O)cc(O)c12
REMARK SMILES IDX 4 1 3 2 16 3 25 4 2 5 26 6 1 7 33 8 27 9 31 10 28 11 30 12
REMARK SMILES IDX 17 13 18 14 19 15 20 16 24 17 22 18 21 19 23 21 32 23 29 25
REMARK SMILES IDX 5 27 14 28 6 29 12 30 7 31 10 32 15 33 13 35 8 37 9 38 11 40
REMARK H PARENT 21 20 23 22 32 24 29 26 15 34 13 36 9 39 11 41
REMARK Flexibility Score: inf
ROOT
ATOM      1  O   UNL     1     -37.546   7.309  81.357  1.00  0.00    -0.454 OA
ENDROOT
BRANCH   1   2
ATOM      2  C   UNL     1     -38.214   6.488  80.435  1.00  0.00     0.214 A 
ATOM      3  C   UNL     1     -37.847   6.412  79.072  1.00  0.00     0.180 A 
ATOM      4  O   UNL     1     -38.475   5.558  78.270  1.00  0.00    -0.452 OA
ATOM      5  C   UNL     1     -39.303   5.730  80.881  1.00  0.00     0.239 A 
ATOM      6  C   UNL     1     -39.485   4.792  78.662  1.00  0.00     0.146 A 
ATOM      7  O   UNL     1     -39.671   5.832  82.081  1.00  0.00    -0.285 OA
ATOM      8  C   UNL     1     -39.963   4.860  79.990  1.00  0.00     0.111 A 
ATOM      9  C   UNL     1     -40.083   3.926  77.742  1.00  0.00     0.094 A 
ATOM     10  C   UNL     1     -41.070   4.061  80.367  1.00  0.00     0.134 A 
ATOM     11  C   UNL     1     -41.169   3.132  78.121  1.00  0.00     0.123 A 
ATOM     12  C   UNL     1     -41.662   3.207  79.426  1.00  0.00     0.093 A 
BRANCH   3  13
ATOM     13  C   UNL     1     -36.793   7.266  78.477  1.00  0.00     0.025 A 
ATOM     14  C   UNL     1     -37.109   8.465  77.822  1.00  0.00     0.016 A 
ATOM     15  C   UNL     1     -36.099   9.252  77.266  1.00  0.00     0.051 A 
ATOM     16  C   UNL     1     -34.761   8.845  77.327  1.00  0.00     0.157 A 
ATOM     17  C   UNL     1     -35.456   6.841  78.514  1.00  0.00     0.062 A 
ATOM     18  C   UNL     1     -34.436   7.616  77.950  1.00  0.00     0.158 A 
BRANCH  16  19
ATOM     19  O   UNL     1     -33.796   9.682  76.762  1.00  0.00    -0.504 OA
ATOM     20  H   UNL     1     -32.818   9.450  76.695  1.00  0.00     0.293 HD
ENDBRANCH  16  19
BRANCH  18  21
ATOM     21  O   UNL     1     -33.129   7.130  78.024  1.00  0.00    -0.504 OA
ATOM     22  H   UNL     1     -32.504   7.310  78.797  1.00  0.00     0.293 HD
ENDBRANCH  18  21
ENDBRANCH   3  13
BRANCH  10  23
ATOM     23  O   UNL     1     -41.586   4.114  81.661  1.00  0.00    -0.507 OA
ATOM     24  H   UNL     1     -42.562   3.927  81.854  1.00  0.00     0.293 HD
ENDBRANCH  10  23
BRANCH  11  25
ATOM     25  O   UNL     1     -41.768   2.265  77.208  1.00  0.00    -0.508 OA
ATOM     26  H   UNL     1     -42.420   1.549  77.503  1.00  0.00     0.293 HD
ENDBRANCH  11  25
ENDBRANCH   1   2
BRANCH   1  27
ATOM     27  C   UNL     1     -36.436   6.908  82.171  1.00  0.00     0.339 C 
ATOM     28  C   UNL     1     -36.693   7.300  83.647  1.00  0.00     0.214 C 
ATOM     29  O   UNL     1     -36.196   5.514  82.073  1.00  0.00    -0.332 OA
ATOM     30  C   UNL     1     -35.903   6.385  84.627  1.00  0.00     0.180 C 
ATOM     31  C   UNL     1     -34.896   5.198  82.556  1.00  0.00     0.179 C 
ATOM     32  C   UNL     1     -34.615   5.844  83.960  1.00  0.00     0.177 C 
BRANCH  28  33
ATOM     33  O   UNL     1     -38.069   7.251  83.931  1.00  0.00    -0.384 OA
ATOM     34  H   UNL     1     -38.304   6.291  84.035  1.00  0.00     0.211 HD
ENDBRANCH  28  33
BRANCH  30  35
ATOM     35  O   UNL     1     -36.701   5.338  85.125  1.00  0.00    -0.387 OA
ATOM     36  H   UNL     1     -36.336   5.065  86.002  1.00  0.00     0.211 HD
ENDBRANCH  30  35
BRANCH  31  37
ATOM     37  C   UNL     1     -34.705   3.672  82.504  1.00  0.00     0.191 C 
BRANCH  37  38
ATOM     38  O   UNL     1     -35.298   3.043  83.606  1.00  0.00    -0.394 OA
ATOM     39  H   UNL     1     -34.647   3.098  84.354  1.00  0.00     0.210 HD
ENDBRANCH  37  38
ENDBRANCH  31  37
BRANCH  32  40
ATOM     40  O   UNL     1     -33.871   5.015  84.822  1.00  0.00    -0.387 OA
ATOM     41  H   UNL     1     -34.263   4.107  84.797  1.00  0.00     0.211 HD
ENDBRANCH  32  40
ENDBRANCH   1  27
TORSDOF 12
ENDMDL
MODEL 9
REMARK VINA RESULT:    -6.106      2.331      6.261
REMARK INTER + INTRA:         -10.754
REMARK INTER:                  -9.226
REMARK INTRA:                  -1.528
REMARK UNBOUND:                -1.792
REMARK SMILES O=c1c(O[C@@H]2O[C@H](CO)[C@H](O)[C@H](O)[C@@H]2O)c(-c2ccc(O)c(O)c2)oc2cc(O)cc(O)c12
REMARK SMILES IDX 4 1 3 2 16 3 25 4 2 5 26 6 1 7 33 8 27 9 31 10 28 11 30 12
REMARK SMILES IDX 17 13 18 14 19 15 20 16 24 17 22 18 21 19 23 21 32 23 29 25
REMARK SMILES IDX 5 27 14 28 6 29 12 30 7 31 10 32 15 33 13 35 8 37 9 38 11 40
REMARK H PARENT 21 20 23 22 32 24 29 26 15 34 13 36 9 39 11 41
REMARK Flexibility Score: inf
ROOT
ATOM      1  O   UNL     1     -38.129   6.492  81.549  1.00  0.00    -0.454 OA
ENDROOT
BRANCH   1   2
ATOM      2  C   UNL     1     -37.420   6.986  80.444  1.00  0.00     0.214 A 
ATOM      3  C   UNL     1     -37.591   6.477  79.136  1.00  0.00     0.180 A 
ATOM      4  O   UNL     1     -36.941   7.041  78.122  1.00  0.00    -0.452 OA
ATOM      5  C   UNL     1     -36.488   8.010  80.649  1.00  0.00     0.239 A 
ATOM      6  C   UNL     1     -36.080   8.041  78.269  1.00  0.00     0.146 A 
ATOM      7  O   UNL     1     -36.291   8.434  81.819  1.00  0.00    -0.285 OA
ATOM      8  C   UNL     1     -35.797   8.560  79.552  1.00  0.00     0.111 A 
ATOM      9  C   UNL     1     -35.445   8.565  77.140  1.00  0.00     0.094 A 
ATOM     10  C   UNL     1     -34.842   9.598  79.679  1.00  0.00     0.134 A 
ATOM     11  C   UNL     1     -34.510   9.597  77.270  1.00  0.00     0.123 A 
ATOM     12  C   UNL     1     -34.207  10.103  78.536  1.00  0.00     0.093 A 
BRANCH   3  13
ATOM     13  C   UNL     1     -38.455   5.313  78.835  1.00  0.00     0.025 A 
ATOM     14  C   UNL     1     -39.842   5.453  78.679  1.00  0.00     0.016 A 
ATOM     15  C   UNL     1     -40.636   4.340  78.400  1.00  0.00     0.051 A 
ATOM     16  C   UNL     1     -40.069   3.065  78.298  1.00  0.00     0.157 A 
ATOM     17  C   UNL     1     -37.887   4.031  78.763  1.00  0.00     0.062 A 
ATOM     18  C   UNL     1     -38.676   2.907  78.494  1.00  0.00     0.158 A 
BRANCH  16  19
ATOM     19  O   UNL     1     -40.916   1.994  78.004  1.00  0.00    -0.504 OA
ATOM     20  H   UNL     1     -40.616   1.032  77.963  1.00  0.00     0.293 HD
ENDBRANCH  16  19
BRANCH  18  21
ATOM     21  O   UNL     1     -38.043   1.663  78.437  1.00  0.00    -0.504 OA
ATOM     22  H   UNL     1     -37.919   1.132  77.587  1.00  0.00     0.293 HD
ENDBRANCH  18  21
ENDBRANCH   3  13
BRANCH  10  23
ATOM     23  O   UNL     1     -34.516  10.124  80.930  1.00  0.00    -0.507 OA
ATOM     24  H   UNL     1     -33.969  10.969  81.026  1.00  0.00     0.293 HD
ENDBRANCH  10  23
BRANCH  11  25
ATOM     25  O   UNL     1     -33.875  10.125  76.147  1.00  0.00    -0.508 OA
ATOM     26  H   UNL     1     -33.367  11.000  76.186  1.00  0.00     0.293 HD
ENDBRANCH  11  25
ENDBRANCH   1   2
BRANCH   1  27
ATOM     27  C   UNL     1     -37.604   5.594  82.536  1.00  0.00     0.339 C 
ATOM     28  C   UNL     1     -38.688   4.570  82.950  1.00  0.00     0.214 C 
ATOM     29  O   UNL     1     -36.451   4.918  82.063  1.00  0.00    -0.332 OA
ATOM     30  C   UNL     1     -38.057   3.252  83.483  1.00  0.00     0.180 C 
ATOM     31  C   UNL     1     -35.732   4.345  83.147  1.00  0.00     0.179 C 
ATOM     32  C   UNL     1     -36.664   3.521  84.106  1.00  0.00     0.177 C 
BRANCH  28  33
ATOM     33  O   UNL     1     -39.544   4.300  81.866  1.00  0.00    -0.384 OA
ATOM     34  H   UNL     1     -39.637   3.312  81.818  1.00  0.00     0.211 HD
ENDBRANCH  28  33
BRANCH  30  35
ATOM     35  O   UNL     1     -37.990   2.262  82.486  1.00  0.00    -0.387 OA
ATOM     36  H   UNL     1     -37.058   1.935  82.440  1.00  0.00     0.211 HD
ENDBRANCH  30  35
BRANCH  31  37
ATOM     37  C   UNL     1     -34.534   3.557  82.587  1.00  0.00     0.191 C 
BRANCH  37  38
ATOM     38  O   UNL     1     -33.425   3.634  83.439  1.00  0.00    -0.394 OA
ATOM     39  H   UNL     1     -33.266   2.718  83.788  1.00  0.00     0.210 HD
ENDBRANCH  37  38
ENDBRANCH  31  37
BRANCH  32  40
ATOM     40  O   UNL     1     -36.064   2.348  84.605  1.00  0.00    -0.387 OA
ATOM     41  H   UNL     1     -36.761   1.649  84.680  1.00  0.00     0.211 HD
ENDBRANCH  32  40
ENDBRANCH   1  27
TORSDOF 12
ENDMDL
