MODEL 1
REMARK VINA RESULT:    -6.857      0.000      0.000
REMARK INTER + INTRA:         -11.636
REMARK INTER:                 -10.065
REMARK INTRA:                  -1.571
REMARK UNBOUND:                -1.571
REMARK SMILES O=c1c(O[C@@H]2O[C@@H](CO)[C@@H](O)[C@H](O)[C@H]2O)c(-c2ccc(O)c(O)c2)oc2cc(O)cc(O)c12
REMARK SMILES IDX 4 1 3 2 16 3 25 4 2 5 26 6 1 7 33 8 27 9 31 10 28 11 30 12
REMARK SMILES IDX 17 13 18 14 19 15 20 16 24 17 22 18 21 19 23 21 32 23 29 25
REMARK SMILES IDX 5 27 14 28 6 29 12 30 7 31 10 32 15 33 13 35 8 37 9 38 11 40
REMARK H PARENT 21 20 23 22 32 24 29 26 15 34 13 36 9 39 11 41
REMARK Flexibility Score: inf
ROOT
ATOM      1  O   UNL     1      15.302  14.515   9.742  1.00  0.00    -0.454 OA
ENDROOT
BRANCH   1   2
ATOM      2  C   UNL     1      14.631  13.277   9.837  1.00  0.00     0.214 A 
ATOM      3  C   UNL     1      13.280  13.285  10.244  1.00  0.00     0.180 A 
ATOM      4  O   UNL     1      12.583  12.156  10.286  1.00  0.00    -0.452 OA
ATOM      5  C   UNL     1      15.220  12.030   9.517  1.00  0.00     0.239 A 
ATOM      6  C   UNL     1      13.096  10.971   9.985  1.00  0.00     0.146 A 
ATOM      7  O   UNL     1      16.427  11.968   9.163  1.00  0.00    -0.285 OA
ATOM      8  C   UNL     1      14.447  10.852   9.592  1.00  0.00     0.111 A 
ATOM      9  C   UNL     1      12.279   9.839  10.065  1.00  0.00     0.094 A 
ATOM     10  C   UNL     1      14.963   9.567   9.285  1.00  0.00     0.134 A 
ATOM     11  C   UNL     1      12.793   8.575   9.760  1.00  0.00     0.123 A 
ATOM     12  C   UNL     1      14.128   8.442   9.373  1.00  0.00     0.093 A 
BRANCH   3  13
ATOM     13  C   UNL     1      12.591  14.538  10.618  1.00  0.00     0.025 A 
ATOM     14  C   UNL     1      12.589  14.954  11.956  1.00  0.00     0.016 A 
ATOM     15  C   UNL     1      11.954  16.142  12.322  1.00  0.00     0.051 A 
ATOM     16  C   UNL     1      11.327  16.944  11.361  1.00  0.00     0.157 A 
ATOM     17  C   UNL     1      11.986  15.350   9.647  1.00  0.00     0.062 A 
ATOM     18  C   UNL     1      11.349  16.545  10.003  1.00  0.00     0.158 A 
BRANCH  16  19
ATOM     19  O   UNL     1      10.703  18.116  11.794  1.00  0.00    -0.504 OA
ATOM     20  H   UNL     1      10.442  18.876  11.181  1.00  0.00     0.293 HD
ENDBRANCH  16  19
BRANCH  18  21
ATOM     21  O   UNL     1      10.764  17.301   8.985  1.00  0.00    -0.504 OA
ATOM     22  H   UNL     1      10.463  18.259   9.095  1.00  0.00     0.293 HD
ENDBRANCH  18  21
ENDBRANCH   3  13
BRANCH  10  23
ATOM     23  O   UNL     1      16.292   9.399   8.895  1.00  0.00    -0.507 OA
ATOM     24  H   UNL     1      17.026  10.017   9.220  1.00  0.00     0.293 HD
ENDBRANCH  10  23
BRANCH  11  25
ATOM     25  O   UNL     1      11.985   7.443   9.839  1.00  0.00    -0.508 OA
ATOM     26  H   UNL     1      11.574   7.144  10.715  1.00  0.00     0.293 HD
ENDBRANCH  11  25
ENDBRANCH   1   2
BRANCH   1  27
ATOM     27  C   UNL     1      15.822  15.130   8.557  1.00  0.00     0.339 C 
ATOM     28  C   UNL     1      15.103  16.474   8.290  1.00  0.00     0.214 C 
ATOM     29  O   UNL     1      17.231  15.297   8.630  1.00  0.00    -0.332 OA
ATOM     30  C   UNL     1      15.557  17.579   9.274  1.00  0.00     0.180 C 
ATOM     31  C   UNL     1      17.597  16.150   9.701  1.00  0.00     0.179 C 
ATOM     32  C   UNL     1      17.088  17.587   9.450  1.00  0.00     0.177 C 
BRANCH  28  33
ATOM     33  O   UNL     1      15.278  16.891   6.958  1.00  0.00    -0.384 OA
ATOM     34  H   UNL     1      14.391  17.136   6.588  1.00  0.00     0.211 HD
ENDBRANCH  28  33
BRANCH  30  35
ATOM     35  O   UNL     1      14.955  17.382  10.527  1.00  0.00    -0.387 OA
ATOM     36  H   UNL     1      15.672  17.102  11.154  1.00  0.00     0.211 HD
ENDBRANCH  30  35
BRANCH  31  37
ATOM     37  C   UNL     1      19.126  16.108   9.856  1.00  0.00     0.191 C 
BRANCH  37  38
ATOM     38  O   UNL     1      19.759  16.088   8.604  1.00  0.00    -0.394 OA
ATOM     39  H   UNL     1      19.122  15.668   7.971  1.00  0.00     0.210 HD
ENDBRANCH  37  38
ENDBRANCH  31  37
BRANCH  32  40
ATOM     40  O   UNL     1      17.708  18.125   8.309  1.00  0.00    -0.387 OA
ATOM     41  H   UNL     1      17.162  17.850   7.528  1.00  0.00     0.211 HD
ENDBRANCH  32  40
ENDBRANCH   1  27
TORSDOF 12
ENDMDL
MODEL 2
REMARK VINA RESULT:    -6.855      2.713      3.621
REMARK INTER + INTRA:         -11.632
REMARK INTER:                 -10.269
REMARK INTRA:                  -1.364
REMARK UNBOUND:                -1.571
REMARK SMILES O=c1c(O[C@@H]2O[C@@H](CO)[C@@H](O)[C@H](O)[C@H]2O)c(-c2ccc(O)c(O)c2)oc2cc(O)cc(O)c12
REMARK SMILES IDX 4 1 3 2 16 3 25 4 2 5 26 6 1 7 33 8 27 9 31 10 28 11 30 12
REMARK SMILES IDX 17 13 18 14 19 15 20 16 24 17 22 18 21 19 23 21 32 23 29 25
REMARK SMILES IDX 5 27 14 28 6 29 12 30 7 31 10 32 15 33 13 35 8 37 9 38 11 40
REMARK H PARENT 21 20 23 22 32 24 29 26 15 34 13 36 9 39 11 41
REMARK Flexibility Score: inf
ROOT
ATOM      1  O   UNL     1      15.446  14.274  10.442  1.00  0.00    -0.454 OA
ENDROOT
BRANCH   1   2
ATOM      2  C   UNL     1      14.914  13.508  11.500  1.00  0.00     0.214 A 
ATOM      3  C   UNL     1      13.578  13.745  11.885  1.00  0.00     0.180 A 
ATOM      4  O   UNL     1      13.008  13.006  12.830  1.00  0.00    -0.452 OA
ATOM      5  C   UNL     1      15.630  12.492  12.179  1.00  0.00     0.239 A 
ATOM      6  C   UNL     1      13.642  12.041  13.481  1.00  0.00     0.146 A 
ATOM      7  O   UNL     1      16.830  12.252  11.883  1.00  0.00    -0.285 OA
ATOM      8  C   UNL     1      14.991  11.742  13.190  1.00  0.00     0.111 A 
ATOM      9  C   UNL     1      12.954  11.323  14.465  1.00  0.00     0.094 A 
ATOM     10  C   UNL     1      15.638  10.708  13.912  1.00  0.00     0.134 A 
ATOM     11  C   UNL     1      13.597  10.303  15.173  1.00  0.00     0.123 A 
ATOM     12  C   UNL     1      14.931  10.000  14.897  1.00  0.00     0.093 A 
BRANCH   3  13
ATOM     13  C   UNL     1      12.763  14.800  11.247  1.00  0.00     0.025 A 
ATOM     14  C   UNL     1      12.399  14.674   9.900  1.00  0.00     0.016 A 
ATOM     15  C   UNL     1      11.617  15.655   9.288  1.00  0.00     0.051 A 
ATOM     16  C   UNL     1      11.170  16.767  10.011  1.00  0.00     0.157 A 
ATOM     17  C   UNL     1      12.297  15.900  11.983  1.00  0.00     0.062 A 
ATOM     18  C   UNL     1      11.510  16.888  11.379  1.00  0.00     0.158 A 
BRANCH  16  19
ATOM     19  O   UNL     1      10.398  17.717   9.337  1.00  0.00    -0.504 OA
ATOM     20  H   UNL     1       9.908  18.472   9.794  1.00  0.00     0.293 HD
ENDBRANCH  16  19
BRANCH  18  21
ATOM     21  O   UNL     1      11.085  17.957  12.170  1.00  0.00    -0.504 OA
ATOM     22  H   UNL     1      11.677  18.729  12.442  1.00  0.00     0.293 HD
ENDBRANCH  18  21
ENDBRANCH   3  13
BRANCH  10  23
ATOM     23  O   UNL     1      16.971  10.379  13.662  1.00  0.00    -0.507 OA
ATOM     24  H   UNL     1      17.409   9.571  14.088  1.00  0.00     0.293 HD
ENDBRANCH  10  23
BRANCH  11  25
ATOM     25  O   UNL     1      12.919   9.584  16.155  1.00  0.00    -0.508 OA
ATOM     26  H   UNL     1      13.030   9.796  17.139  1.00  0.00     0.293 HD
ENDBRANCH  11  25
ENDBRANCH   1   2
BRANCH   1  27
ATOM     27  C   UNL     1      16.105  15.542  10.536  1.00  0.00     0.339 C 
ATOM     28  C   UNL     1      17.618  15.384  10.249  1.00  0.00     0.214 C 
ATOM     29  O   UNL     1      15.510  16.506   9.679  1.00  0.00    -0.332 OA
ATOM     30  C   UNL     1      17.901  15.151   8.746  1.00  0.00     0.180 C 
ATOM     31  C   UNL     1      15.607  16.120   8.318  1.00  0.00     0.179 C 
ATOM     32  C   UNL     1      17.082  16.110   7.859  1.00  0.00     0.177 C 
BRANCH  28  33
ATOM     33  O   UNL     1      18.347  16.488  10.729  1.00  0.00    -0.384 OA
ATOM     34  H   UNL     1      18.846  16.885   9.970  1.00  0.00     0.211 HD
ENDBRANCH  28  33
BRANCH  30  35
ATOM     35  O   UNL     1      17.586  13.828   8.398  1.00  0.00    -0.387 OA
ATOM     36  H   UNL     1      17.320  13.362   9.233  1.00  0.00     0.211 HD
ENDBRANCH  30  35
BRANCH  31  37
ATOM     37  C   UNL     1      14.757  17.087   7.477  1.00  0.00     0.191 C 
BRANCH  37  38
ATOM     38  O   UNL     1      14.065  17.992   8.295  1.00  0.00    -0.394 OA
ATOM     39  H   UNL     1      14.142  18.882   7.862  1.00  0.00     0.210 HD
ENDBRANCH  37  38
ENDBRANCH  31  37
BRANCH  32  40
ATOM     40  O   UNL     1      17.615  17.409   7.923  1.00  0.00    -0.387 OA
ATOM     41  H   UNL     1      16.917  18.024   7.576  1.00  0.00     0.211 HD
ENDBRANCH  32  40
ENDBRANCH   1  27
TORSDOF 12
ENDMDL
MODEL 3
REMARK VINA RESULT:    -6.848      2.816      3.182
REMARK INTER + INTRA:         -11.621
REMARK INTER:                 -10.125
REMARK INTRA:                  -1.497
REMARK UNBOUND:                -1.571
REMARK SMILES O=c1c(O[C@@H]2O[C@@H](CO)[C@@H](O)[C@H](O)[C@H]2O)c(-c2ccc(O)c(O)c2)oc2cc(O)cc(O)c12
REMARK SMILES IDX 4 1 3 2 16 3 25 4 2 5 26 6 1 7 33 8 27 9 31 10 28 11 30 12
REMARK SMILES IDX 17 13 18 14 19 15 20 16 24 17 22 18 21 19 23 21 32 23 29 25
REMARK SMILES IDX 5 27 14 28 6 29 12 30 7 31 10 32 15 33 13 35 8 37 9 38 11 40
REMARK H PARENT 21 20 23 22 32 24 29 26 15 34 13 36 9 39 11 41
REMARK Flexibility Score: inf
ROOT
ATOM      1  O   UNL     1      15.656  15.160  11.439  1.00  0.00    -0.454 OA
ENDROOT
BRANCH   1   2
ATOM      2  C   UNL     1      15.075  14.108  12.179  1.00  0.00     0.214 A 
ATOM      3  C   UNL     1      13.672  13.965  12.138  1.00  0.00     0.180 A 
ATOM      4  O   UNL     1      13.081  12.952  12.762  1.00  0.00    -0.452 OA
ATOM      5  C   UNL     1      15.817  13.168  12.934  1.00  0.00     0.239 A 
ATOM      6  C   UNL     1      13.742  12.047  13.470  1.00  0.00     0.146 A 
ATOM      7  O   UNL     1      17.070  13.262  13.014  1.00  0.00    -0.285 OA
ATOM      8  C   UNL     1      15.147  12.118  13.596  1.00  0.00     0.111 A 
ATOM      9  C   UNL     1      13.026  11.021  14.095  1.00  0.00     0.094 A 
ATOM     10  C   UNL     1      15.817  11.136  14.368  1.00  0.00     0.134 A 
ATOM     11  C   UNL     1      13.693  10.056  14.854  1.00  0.00     0.123 A 
ATOM     12  C   UNL     1      15.081  10.115  14.989  1.00  0.00     0.093 A 
BRANCH   3  13
ATOM     13  C   UNL     1      12.817  14.912  11.393  1.00  0.00     0.025 A 
ATOM     14  C   UNL     1      12.590  14.713  10.026  1.00  0.00     0.016 A 
ATOM     15  C   UNL     1      11.773  15.591   9.312  1.00  0.00     0.051 A 
ATOM     16  C   UNL     1      11.154  16.671   9.952  1.00  0.00     0.157 A 
ATOM     17  C   UNL     1      12.179  15.978  12.045  1.00  0.00     0.062 A 
ATOM     18  C   UNL     1      11.355  16.863  11.339  1.00  0.00     0.158 A 
BRANCH  16  19
ATOM     19  O   UNL     1      10.355  17.517   9.180  1.00  0.00    -0.504 OA
ATOM     20  H   UNL     1       9.934  17.249   8.301  1.00  0.00     0.293 HD
ENDBRANCH  16  19
BRANCH  18  21
ATOM     21  O   UNL     1      10.755  17.905  12.051  1.00  0.00    -0.504 OA
ATOM     22  H   UNL     1      10.742  17.966  13.059  1.00  0.00     0.293 HD
ENDBRANCH  18  21
ENDBRANCH   3  13
BRANCH  10  23
ATOM     23  O   UNL     1      17.204  11.166  14.524  1.00  0.00    -0.507 OA
ATOM     24  H   UNL     1      17.664  10.695  15.294  1.00  0.00     0.293 HD
ENDBRANCH  10  23
BRANCH  11  25
ATOM     25  O   UNL     1      12.986   9.031  15.479  1.00  0.00    -0.508 OA
ATOM     26  H   UNL     1      11.980   9.074  15.594  1.00  0.00     0.293 HD
ENDBRANCH  11  25
ENDBRANCH   1   2
BRANCH   1  27
ATOM     27  C   UNL     1      16.541  15.046  10.318  1.00  0.00     0.339 C 
ATOM     28  C   UNL     1      15.903  15.687   9.062  1.00  0.00     0.214 C 
ATOM     29  O   UNL     1      17.815  15.606  10.600  1.00  0.00    -0.332 OA
ATOM     30  C   UNL     1      15.911  17.232   9.133  1.00  0.00     0.180 C 
ATOM     31  C   UNL     1      17.722  16.993  10.879  1.00  0.00     0.179 C 
ATOM     32  C   UNL     1      17.269  17.771   9.623  1.00  0.00     0.177 C 
BRANCH  28  33
ATOM     33  O   UNL     1      16.532  15.239   7.886  1.00  0.00    -0.384 OA
ATOM     34  H   UNL     1      15.884  15.313   7.138  1.00  0.00     0.211 HD
ENDBRANCH  28  33
BRANCH  30  35
ATOM     35  O   UNL     1      14.903  17.677  10.004  1.00  0.00    -0.387 OA
ATOM     36  H   UNL     1      14.774  18.646   9.829  1.00  0.00     0.211 HD
ENDBRANCH  30  35
BRANCH  31  37
ATOM     37  C   UNL     1      19.089  17.480  11.387  1.00  0.00     0.191 C 
BRANCH  37  38
ATOM     38  O   UNL     1      20.114  17.118  10.500  1.00  0.00    -0.394 OA
ATOM     39  H   UNL     1      19.952  17.617   9.659  1.00  0.00     0.210 HD
ENDBRANCH  37  38
ENDBRANCH  31  37
BRANCH  32  40
ATOM     40  O   UNL     1      18.236  17.653   8.609  1.00  0.00    -0.387 OA
ATOM     41  H   UNL     1      18.731  16.810   8.781  1.00  0.00     0.211 HD
ENDBRANCH  32  40
ENDBRANCH   1  27
TORSDOF 12
ENDMDL
MODEL 4
REMARK VINA RESULT:    -6.544      3.695      6.639
REMARK INTER + INTRA:         -11.175
REMARK INTER:                  -9.531
REMARK INTRA:                  -1.644
REMARK UNBOUND:                -1.571
REMARK SMILES O=c1c(O[C@@H]2O[C@@H](CO)[C@@H](O)[C@H](O)[C@H]2O)c(-c2ccc(O)c(O)c2)oc2cc(O)cc(O)c12
REMARK SMILES IDX 4 1 3 2 16 3 25 4 2 5 26 6 1 7 33 8 27 9 31 10 28 11 30 12
REMARK SMILES IDX 17 13 18 14 19 15 20 16 24 17 22 18 21 19 23 21 32 23 29 25
REMARK SMILES IDX 5 27 14 28 6 29 12 30 7 31 10 32 15 33 13 35 8 37 9 38 11 40
REMARK H PARENT 21 20 23 22 32 24 29 26 15 34 13 36 9 39 11 41
REMARK Flexibility Score: inf
ROOT
ATOM      1  O   UNL     1      14.722  15.445  11.322  1.00  0.00    -0.454 OA
ENDROOT
BRANCH   1   2
ATOM      2  C   UNL     1      15.407  14.818  12.385  1.00  0.00     0.214 A 
ATOM      3  C   UNL     1      16.132  13.641  12.103  1.00  0.00     0.180 A 
ATOM      4  O   UNL     1      16.848  13.049  13.052  1.00  0.00    -0.452 OA
ATOM      5  C   UNL     1      15.438  15.316  13.710  1.00  0.00     0.239 A 
ATOM      6  C   UNL     1      16.910  13.489  14.300  1.00  0.00     0.146 A 
ATOM      7  O   UNL     1      14.796  16.355  14.015  1.00  0.00    -0.285 OA
ATOM      8  C   UNL     1      16.198  14.645  14.691  1.00  0.00     0.111 A 
ATOM      9  C   UNL     1      17.690  12.791  15.228  1.00  0.00     0.094 A 
ATOM     10  C   UNL     1      16.283  15.082  16.038  1.00  0.00     0.134 A 
ATOM     11  C   UNL     1      17.770  13.227  16.554  1.00  0.00     0.123 A 
ATOM     12  C   UNL     1      17.069  14.366  16.954  1.00  0.00     0.093 A 
BRANCH   3  13
ATOM     13  C   UNL     1      16.138  13.038  10.754  1.00  0.00     0.025 A 
ATOM     14  C   UNL     1      17.075  13.470   9.806  1.00  0.00     0.016 A 
ATOM     15  C   UNL     1      17.102  12.900   8.533  1.00  0.00     0.051 A 
ATOM     16  C   UNL     1      16.210  11.877   8.188  1.00  0.00     0.157 A 
ATOM     17  C   UNL     1      15.259  11.996  10.423  1.00  0.00     0.062 A 
ATOM     18  C   UNL     1      15.280  11.415   9.149  1.00  0.00     0.158 A 
BRANCH  16  19
ATOM     19  O   UNL     1      16.285  11.355   6.895  1.00  0.00    -0.504 OA
ATOM     20  H   UNL     1      17.093  10.874   6.527  1.00  0.00     0.293 HD
ENDBRANCH  16  19
BRANCH  18  21
ATOM     21  O   UNL     1      14.373  10.386   8.886  1.00  0.00    -0.504 OA
ATOM     22  H   UNL     1      14.431   9.774   8.085  1.00  0.00     0.293 HD
ENDBRANCH  18  21
ENDBRANCH   3  13
BRANCH  10  23
ATOM     23  O   UNL     1      15.596  16.216  16.471  1.00  0.00    -0.507 OA
ATOM     24  H   UNL     1      14.661  16.431  16.144  1.00  0.00     0.293 HD
ENDBRANCH  10  23
BRANCH  11  25
ATOM     25  O   UNL     1      18.544  12.535  17.482  1.00  0.00    -0.508 OA
ATOM     26  H   UNL     1      18.968  13.005  18.274  1.00  0.00     0.293 HD
ENDBRANCH  11  25
ENDBRANCH   1   2
BRANCH   1  27
ATOM     27  C   UNL     1      13.410  15.138  10.837  1.00  0.00     0.339 C 
ATOM     28  C   UNL     1      12.336  15.734  11.778  1.00  0.00     0.214 C 
ATOM     29  O   UNL     1      13.232  15.578   9.498  1.00  0.00    -0.332 OA
ATOM     30  C   UNL     1      12.222  17.269  11.629  1.00  0.00     0.180 C 
ATOM     31  C   UNL     1      13.364  16.986   9.393  1.00  0.00     0.179 C 
ATOM     32  C   UNL     1      12.219  17.697  10.148  1.00  0.00     0.177 C 
BRANCH  28  33
ATOM     33  O   UNL     1      11.085  15.120  11.579  1.00  0.00    -0.384 OA
ATOM     34  H   UNL     1      11.023  14.336  12.183  1.00  0.00     0.211 HD
ENDBRANCH  28  33
BRANCH  30  35
ATOM     35  O   UNL     1      13.297  17.896  12.282  1.00  0.00    -0.387 OA
ATOM     36  H   UNL     1      12.997  18.100  13.207  1.00  0.00     0.211 HD
ENDBRANCH  30  35
BRANCH  31  37
ATOM     37  C   UNL     1      13.381  17.363   7.902  1.00  0.00     0.191 C 
BRANCH  37  38
ATOM     38  O   UNL     1      12.381  16.677   7.198  1.00  0.00    -0.394 OA
ATOM     39  H   UNL     1      12.098  15.919   7.771  1.00  0.00     0.210 HD
ENDBRANCH  37  38
ENDBRANCH  31  37
BRANCH  32  40
ATOM     40  O   UNL     1      10.984  17.387   9.553  1.00  0.00    -0.387 OA
ATOM     41  H   UNL     1      11.072  17.591   8.585  1.00  0.00     0.211 HD
ENDBRANCH  32  40
ENDBRANCH   1  27
TORSDOF 12
ENDMDL
MODEL 5
REMARK VINA RESULT:    -6.527      3.667      6.565
REMARK INTER + INTRA:         -11.151
REMARK INTER:                  -9.677
REMARK INTRA:                  -1.474
REMARK UNBOUND:                -1.571
REMARK SMILES O=c1c(O[C@@H]2O[C@@H](CO)[C@@H](O)[C@H](O)[C@H]2O)c(-c2ccc(O)c(O)c2)oc2cc(O)cc(O)c12
REMARK SMILES IDX 4 1 3 2 16 3 25 4 2 5 26 6 1 7 33 8 27 9 31 10 28 11 30 12
REMARK SMILES IDX 17 13 18 14 19 15 20 16 24 17 22 18 21 19 23 21 32 23 29 25
REMARK SMILES IDX 5 27 14 28 6 29 12 30 7 31 10 32 15 33 13 35 8 37 9 38 11 40
REMARK H PARENT 21 20 23 22 32 24 29 26 15 34 13 36 9 39 11 41
REMARK Flexibility Score: inf
ROOT
ATOM      1  O   UNL     1      13.850  12.503  11.612  1.00  0.00    -0.454 OA
ENDROOT
BRANCH   1   2
ATOM      2  C   UNL     1      14.619  13.068  12.651  1.00  0.00     0.214 A 
ATOM      3  C   UNL     1      14.572  14.467  12.825  1.00  0.00     0.180 A 
ATOM      4  O   UNL     1      15.223  15.043  13.829  1.00  0.00    -0.452 OA
ATOM      5  C   UNL     1      15.409  12.314  13.552  1.00  0.00     0.239 A 
ATOM      6  C   UNL     1      15.965  14.371  14.697  1.00  0.00     0.146 A 
ATOM      7  O   UNL     1      15.497  11.064  13.430  1.00  0.00    -0.285 OA
ATOM      8  C   UNL     1      16.100  12.969  14.594  1.00  0.00     0.111 A 
ATOM      9  C   UNL     1      16.617  15.071  15.717  1.00  0.00     0.094 A 
ATOM     10  C   UNL     1      16.909  12.285  15.536  1.00  0.00     0.134 A 
ATOM     11  C   UNL     1      17.413  14.391  16.644  1.00  0.00     0.123 A 
ATOM     12  C   UNL     1      17.556  13.005  16.551  1.00  0.00     0.093 A 
BRANCH   3  13
ATOM     13  C   UNL     1      13.790  15.335  11.919  1.00  0.00     0.025 A 
ATOM     14  C   UNL     1      14.431  15.978  10.852  1.00  0.00     0.016 A 
ATOM     15  C   UNL     1      13.704  16.789   9.980  1.00  0.00     0.051 A 
ATOM     16  C   UNL     1      12.324  16.959  10.145  1.00  0.00     0.157 A 
ATOM     17  C   UNL     1      12.404  15.481  12.074  1.00  0.00     0.062 A 
ATOM     18  C   UNL     1      11.664  16.290  11.203  1.00  0.00     0.158 A 
BRANCH  16  19
ATOM     19  O   UNL     1      11.656  17.790   9.243  1.00  0.00    -0.504 OA
ATOM     20  H   UNL     1      12.102  18.534   8.724  1.00  0.00     0.293 HD
ENDBRANCH  16  19
BRANCH  18  21
ATOM     21  O   UNL     1      10.288  16.394  11.418  1.00  0.00    -0.504 OA
ATOM     22  H   UNL     1       9.644  15.620  11.339  1.00  0.00     0.293 HD
ENDBRANCH  18  21
ENDBRANCH   3  13
BRANCH  10  23
ATOM     23  O   UNL     1      17.074  10.900  15.473  1.00  0.00    -0.507 OA
ATOM     24  H   UNL     1      17.339  10.357  16.287  1.00  0.00     0.293 HD
ENDBRANCH  10  23
BRANCH  11  25
ATOM     25  O   UNL     1      18.065  15.082  17.662  1.00  0.00    -0.508 OA
ATOM     26  H   UNL     1      17.862  16.056  17.855  1.00  0.00     0.293 HD
ENDBRANCH  11  25
ENDBRANCH   1   2
BRANCH   1  27
ATOM     27  C   UNL     1      14.308  12.100  10.316  1.00  0.00     0.339 C 
ATOM     28  C   UNL     1      14.873  10.660  10.370  1.00  0.00     0.214 C 
ATOM     29  O   UNL     1      13.284  12.222   9.339  1.00  0.00    -0.332 OA
ATOM     30  C   UNL     1      13.752   9.602  10.495  1.00  0.00     0.180 C 
ATOM     31  C   UNL     1      12.180  11.384   9.636  1.00  0.00     0.179 C 
ATOM     32  C   UNL     1      12.583   9.896   9.534  1.00  0.00     0.177 C 
BRANCH  28  33
ATOM     33  O   UNL     1      15.690  10.391   9.257  1.00  0.00    -0.384 OA
ATOM     34  H   UNL     1      16.608  10.707   9.459  1.00  0.00     0.211 HD
ENDBRANCH  28  33
BRANCH  30  35
ATOM     35  O   UNL     1      13.263   9.574  11.812  1.00  0.00    -0.387 OA
ATOM     36  H   UNL     1      13.873   8.993  12.337  1.00  0.00     0.211 HD
ENDBRANCH  30  35
BRANCH  31  37
ATOM     37  C   UNL     1      11.033  11.729   8.672  1.00  0.00     0.191 C 
BRANCH  37  38
ATOM     38  O   UNL     1      10.086  10.696   8.626  1.00  0.00    -0.394 OA
ATOM     39  H   UNL     1       9.719  10.688   7.704  1.00  0.00     0.210 HD
ENDBRANCH  37  38
ENDBRANCH  31  37
BRANCH  32  40
ATOM     40  O   UNL     1      12.948   9.586   8.213  1.00  0.00    -0.387 OA
ATOM     41  H   UNL     1      12.865   8.602   8.115  1.00  0.00     0.211 HD
ENDBRANCH  32  40
ENDBRANCH   1  27
TORSDOF 12
ENDMDL
MODEL 6
REMARK VINA RESULT:    -6.437      5.939      8.421
REMARK INTER + INTRA:         -11.018
REMARK INTER:                  -9.659
REMARK INTRA:                  -1.360
REMARK UNBOUND:                -1.571
REMARK SMILES O=c1c(O[C@@H]2O[C@@H](CO)[C@@H](O)[C@H](O)[C@H]2O)c(-c2ccc(O)c(O)c2)oc2cc(O)cc(O)c12
REMARK SMILES IDX 4 1 3 2 16 3 25 4 2 5 26 6 1 7 33 8 27 9 31 10 28 11 30 12
REMARK SMILES IDX 17 13 18 14 19 15 20 16 24 17 22 18 21 19 23 21 32 23 29 25
REMARK SMILES IDX 5 27 14 28 6 29 12 30 7 31 10 32 15 33 13 35 8 37 9 38 11 40
REMARK H PARENT 21 20 23 22 32 24 29 26 15 34 13 36 9 39 11 41
REMARK Flexibility Score: inf
ROOT
ATOM      1  O   UNL     1      15.884  12.101  15.601  1.00  0.00    -0.454 OA
ENDROOT
BRANCH   1   2
ATOM      2  C   UNL     1      15.243  12.603  14.448  1.00  0.00     0.214 A 
ATOM      3  C   UNL     1      14.196  11.841  13.887  1.00  0.00     0.180 A 
ATOM      4  O   UNL     1      13.516  12.299  12.843  1.00  0.00    -0.452 OA
ATOM      5  C   UNL     1      15.565  13.839  13.838  1.00  0.00     0.239 A 
ATOM      6  C   UNL     1      13.781  13.455  12.250  1.00  0.00     0.146 A 
ATOM      7  O   UNL     1      16.502  14.548  14.291  1.00  0.00    -0.285 OA
ATOM      8  C   UNL     1      14.828  14.279  12.718  1.00  0.00     0.111 A 
ATOM      9  C   UNL     1      13.009  13.846  11.151  1.00  0.00     0.094 A 
ATOM     10  C   UNL     1      15.087  15.505  12.054  1.00  0.00     0.134 A 
ATOM     11  C   UNL     1      13.269  15.056  10.501  1.00  0.00     0.123 A 
ATOM     12  C   UNL     1      14.303  15.879  10.952  1.00  0.00     0.093 A 
BRANCH   3  13
ATOM     13  C   UNL     1      13.807  10.529  14.445  1.00  0.00     0.025 A 
ATOM     14  C   UNL     1      12.550  10.377  15.045  1.00  0.00     0.016 A 
ATOM     15  C   UNL     1      12.162   9.141  15.563  1.00  0.00     0.051 A 
ATOM     16  C   UNL     1      13.011   8.031  15.475  1.00  0.00     0.157 A 
ATOM     17  C   UNL     1      14.651   9.415  14.331  1.00  0.00     0.062 A 
ATOM     18  C   UNL     1      14.270   8.169  14.845  1.00  0.00     0.158 A 
BRANCH  16  19
ATOM     19  O   UNL     1      12.567   6.824  16.020  1.00  0.00    -0.504 OA
ATOM     20  H   UNL     1      13.114   5.975  16.031  1.00  0.00     0.293 HD
ENDBRANCH  16  19
BRANCH  18  21
ATOM     21  O   UNL     1      15.162   7.104  14.701  1.00  0.00    -0.504 OA
ATOM     22  H   UNL     1      15.107   6.416  13.964  1.00  0.00     0.293 HD
ENDBRANCH  18  21
ENDBRANCH   3  13
BRANCH  10  23
ATOM     23  O   UNL     1      16.113  16.351  12.477  1.00  0.00    -0.507 OA
ATOM     24  H   UNL     1      16.983  15.989  12.849  1.00  0.00     0.293 HD
ENDBRANCH  10  23
BRANCH  11  25
ATOM     25  O   UNL     1      12.504  15.451   9.406  1.00  0.00    -0.508 OA
ATOM     26  H   UNL     1      11.572  15.087   9.252  1.00  0.00     0.293 HD
ENDBRANCH  11  25
ENDBRANCH   1   2
BRANCH   1  27
ATOM     27  C   UNL     1      15.473  12.270  16.963  1.00  0.00     0.339 C 
ATOM     28  C   UNL     1      15.976  11.088  17.826  1.00  0.00     0.214 C 
ATOM     29  O   UNL     1      15.903  13.518  17.487  1.00  0.00    -0.332 OA
ATOM     30  C   UNL     1      17.498  11.170  18.091  1.00  0.00     0.180 C 
ATOM     31  C   UNL     1      17.317  13.619  17.494  1.00  0.00     0.179 C 
ATOM     32  C   UNL     1      17.930  12.598  18.479  1.00  0.00     0.177 C 
BRANCH  28  33
ATOM     33  O   UNL     1      15.263  11.000  19.036  1.00  0.00    -0.384 OA
ATOM     34  H   UNL     1      14.975  10.059  19.161  1.00  0.00     0.211 HD
ENDBRANCH  28  33
BRANCH  30  35
ATOM     35  O   UNL     1      18.207  10.775  16.945  1.00  0.00    -0.387 OA
ATOM     36  H   UNL     1      18.729   9.966  17.189  1.00  0.00     0.211 HD
ENDBRANCH  30  35
BRANCH  31  37
ATOM     37  C   UNL     1      17.700  15.062  17.861  1.00  0.00     0.191 C 
BRANCH  37  38
ATOM     38  O   UNL     1      18.847  15.089  18.667  1.00  0.00    -0.394 OA
ATOM     39  H   UNL     1      19.124  14.146  18.799  1.00  0.00     0.210 HD
ENDBRANCH  37  38
ENDBRANCH  31  37
BRANCH  32  40
ATOM     40  O   UNL     1      17.523  12.892  19.792  1.00  0.00    -0.387 OA
ATOM     41  H   UNL     1      17.214  12.039  20.195  1.00  0.00     0.211 HD
ENDBRANCH  32  40
ENDBRANCH   1  27
TORSDOF 12
ENDMDL
MODEL 7
REMARK VINA RESULT:    -6.381      3.716      6.087
REMARK INTER + INTRA:         -10.936
REMARK INTER:                  -9.369
REMARK INTRA:                  -1.567
REMARK UNBOUND:                -1.571
REMARK SMILES O=c1c(O[C@@H]2O[C@@H](CO)[C@@H](O)[C@H](O)[C@H]2O)c(-c2ccc(O)c(O)c2)oc2cc(O)cc(O)c12
REMARK SMILES IDX 4 1 3 2 16 3 25 4 2 5 26 6 1 7 33 8 27 9 31 10 28 11 30 12
REMARK SMILES IDX 17 13 18 14 19 15 20 16 24 17 22 18 21 19 23 21 32 23 29 25
REMARK SMILES IDX 5 27 14 28 6 29 12 30 7 31 10 32 15 33 13 35 8 37 9 38 11 40
REMARK H PARENT 21 20 23 22 32 24 29 26 15 34 13 36 9 39 11 41
REMARK Flexibility Score: inf
ROOT
ATOM      1  O   UNL     1      15.049  14.735  12.124  1.00  0.00    -0.454 OA
ENDROOT
BRANCH   1   2
ATOM      2  C   UNL     1      16.007  13.893  12.729  1.00  0.00     0.214 A 
ATOM      3  C   UNL     1      17.363  14.077  12.385  1.00  0.00     0.180 A 
ATOM      4  O   UNL     1      18.310  13.358  12.975  1.00  0.00    -0.452 OA
ATOM      5  C   UNL     1      15.694  12.897  13.685  1.00  0.00     0.239 A 
ATOM      6  C   UNL     1      18.058  12.423  13.881  1.00  0.00     0.146 A 
ATOM      7  O   UNL     1      14.498  12.684  14.015  1.00  0.00    -0.285 OA
ATOM      8  C   UNL     1      16.731  12.143  14.274  1.00  0.00     0.111 A 
ATOM      9  C   UNL     1      19.127  11.716  14.440  1.00  0.00     0.094 A 
ATOM     10  C   UNL     1      16.500  11.131  15.240  1.00  0.00     0.134 A 
ATOM     11  C   UNL     1      18.893  10.720  15.392  1.00  0.00     0.123 A 
ATOM     12  C   UNL     1      17.586  10.431  15.788  1.00  0.00     0.093 A 
BRANCH   3  13
ATOM     13  C   UNL     1      17.779  15.078  11.380  1.00  0.00     0.025 A 
ATOM     14  C   UNL     1      18.250  16.328  11.802  1.00  0.00     0.016 A 
ATOM     15  C   UNL     1      18.661  17.278  10.866  1.00  0.00     0.051 A 
ATOM     16  C   UNL     1      18.626  16.993   9.496  1.00  0.00     0.157 A 
ATOM     17  C   UNL     1      17.766  14.778  10.010  1.00  0.00     0.062 A 
ATOM     18  C   UNL     1      18.179  15.723   9.063  1.00  0.00     0.158 A 
BRANCH  16  19
ATOM     19  O   UNL     1      19.043  17.990   8.611  1.00  0.00    -0.504 OA
ATOM     20  H   UNL     1      18.808  18.967   8.711  1.00  0.00     0.293 HD
ENDBRANCH  16  19
BRANCH  18  21
ATOM     21  O   UNL     1      18.135  15.358   7.715  1.00  0.00    -0.504 OA
ATOM     22  H   UNL     1      18.692  15.794   6.994  1.00  0.00     0.293 HD
ENDBRANCH  18  21
ENDBRANCH   3  13
BRANCH  10  23
ATOM     23  O   UNL     1      15.207  10.816  15.659  1.00  0.00    -0.507 OA
ATOM     24  H   UNL     1      14.678  10.063  15.235  1.00  0.00     0.293 HD
ENDBRANCH  10  23
BRANCH  11  25
ATOM     25  O   UNL     1      19.953  10.011  15.953  1.00  0.00    -0.508 OA
ATOM     26  H   UNL     1      20.236  10.154  16.915  1.00  0.00     0.293 HD
ENDBRANCH  11  25
ENDBRANCH   1   2
BRANCH   1  27
ATOM     27  C   UNL     1      13.985  14.346  11.247  1.00  0.00     0.339 C 
ATOM     28  C   UNL     1      12.620  14.776  11.836  1.00  0.00     0.214 C 
ATOM     29  O   UNL     1      14.174  14.860   9.937  1.00  0.00    -0.332 OA
ATOM     30  C   UNL     1      12.394  16.302  11.719  1.00  0.00     0.180 C 
ATOM     31  C   UNL     1      14.180  16.278   9.932  1.00  0.00     0.179 C 
ATOM     32  C   UNL     1      12.792  16.830  10.327  1.00  0.00     0.177 C 
BRANCH  28  33
ATOM     33  O   UNL     1      11.561  14.068  11.239  1.00  0.00    -0.384 OA
ATOM     34  H   UNL     1      11.843  13.125  11.121  1.00  0.00     0.211 HD
ENDBRANCH  28  33
BRANCH  30  35
ATOM     35  O   UNL     1      13.148  16.975  12.694  1.00  0.00    -0.387 OA
ATOM     36  H   UNL     1      14.099  16.926  12.413  1.00  0.00     0.211 HD
ENDBRANCH  30  35
BRANCH  31  37
ATOM     37  C   UNL     1      14.605  16.758   8.534  1.00  0.00     0.191 C 
BRANCH  37  38
ATOM     38  O   UNL     1      13.845  17.864   8.129  1.00  0.00    -0.394 OA
ATOM     39  H   UNL     1      13.612  17.715   7.176  1.00  0.00     0.210 HD
ENDBRANCH  37  38
ENDBRANCH  31  37
BRANCH  32  40
ATOM     40  O   UNL     1      11.834  16.453   9.370  1.00  0.00    -0.387 OA
ATOM     41  H   UNL     1      11.058  16.086   9.868  1.00  0.00     0.211 HD
ENDBRANCH  32  40
ENDBRANCH   1  27
TORSDOF 12
ENDMDL
MODEL 8
REMARK VINA RESULT:    -6.357      1.097      2.060
REMARK INTER + INTRA:         -10.901
REMARK INTER:                  -9.332
REMARK INTRA:                  -1.569
REMARK UNBOUND:                -1.571
REMARK SMILES O=c1c(O[C@@H]2O[C@@H](CO)[C@@H](O)[C@H](O)[C@H]2O)c(-c2ccc(O)c(O)c2)oc2cc(O)cc(O)c12
REMARK SMILES IDX 4 1 3 2 16 3 25 4 2 5 26 6 1 7 33 8 27 9 31 10 28 11 30 12
REMARK SMILES IDX 17 13 18 14 19 15 20 16 24 17 22 18 21 19 23 21 32 23 29 25
REMARK SMILES IDX 5 27 14 28 6 29 12 30 7 31 10 32 15 33 13 35 8 37 9 38 11 40
REMARK H PARENT 21 20 23 22 32 24 29 26 15 34 13 36 9 39 11 41
REMARK Flexibility Score: inf
ROOT
ATOM      1  O   UNL     1      15.335  14.257   9.581  1.00  0.00    -0.454 OA
ENDROOT
BRANCH   1   2
ATOM      2  C   UNL     1      14.655  13.029   9.727  1.00  0.00     0.214 A 
ATOM      3  C   UNL     1      13.302  13.064  10.124  1.00  0.00     0.180 A 
ATOM      4  O   UNL     1      12.598  11.941  10.211  1.00  0.00    -0.452 OA
ATOM      5  C   UNL     1      15.239  11.766   9.467  1.00  0.00     0.239 A 
ATOM      6  C   UNL     1      13.106  10.741   9.967  1.00  0.00     0.146 A 
ATOM      7  O   UNL     1      16.448  11.681   9.125  1.00  0.00    -0.285 OA
ATOM      8  C   UNL     1      14.459  10.596   9.590  1.00  0.00     0.111 A 
ATOM      9  C   UNL     1      12.282   9.618  10.092  1.00  0.00     0.094 A 
ATOM     10  C   UNL     1      14.969   9.296   9.345  1.00  0.00     0.134 A 
ATOM     11  C   UNL     1      12.790   8.339   9.849  1.00  0.00     0.123 A 
ATOM     12  C   UNL     1      14.126   8.182   9.477  1.00  0.00     0.093 A 
BRANCH   3  13
ATOM     13  C   UNL     1      12.617  14.335  10.436  1.00  0.00     0.025 A 
ATOM     14  C   UNL     1      12.272  14.628  11.762  1.00  0.00     0.016 A 
ATOM     15  C   UNL     1      11.639  15.832  12.075  1.00  0.00     0.051 A 
ATOM     16  C   UNL     1      11.355  16.771  11.076  1.00  0.00     0.157 A 
ATOM     17  C   UNL     1      12.358  15.283   9.435  1.00  0.00     0.062 A 
ATOM     18  C   UNL     1      11.726  16.495   9.739  1.00  0.00     0.158 A 
BRANCH  16  19
ATOM     19  O   UNL     1      10.712  17.952  11.454  1.00  0.00    -0.504 OA
ATOM     20  H   UNL     1      11.175  18.725  11.910  1.00  0.00     0.293 HD
ENDBRANCH  16  19
BRANCH  18  21
ATOM     21  O   UNL     1      11.495  17.391   8.692  1.00  0.00    -0.504 OA
ATOM     22  H   UNL     1      10.585  17.759   8.454  1.00  0.00     0.293 HD
ENDBRANCH  18  21
ENDBRANCH   3  13
BRANCH  10  23
ATOM     23  O   UNL     1      16.300   9.103   8.972  1.00  0.00    -0.507 OA
ATOM     24  H   UNL     1      17.060   9.222   9.631  1.00  0.00     0.293 HD
ENDBRANCH  10  23
BRANCH  11  25
ATOM     25  O   UNL     1      11.975   7.216   9.972  1.00  0.00    -0.508 OA
ATOM     26  H   UNL     1      12.339   6.330  10.300  1.00  0.00     0.293 HD
ENDBRANCH  11  25
ENDBRANCH   1   2
BRANCH   1  27
ATOM     27  C   UNL     1      16.415  14.750  10.382  1.00  0.00     0.339 C 
ATOM     28  C   UNL     1      17.559  15.272   9.479  1.00  0.00     0.214 C 
ATOM     29  O   UNL     1      15.976  15.745  11.296  1.00  0.00    -0.332 OA
ATOM     30  C   UNL     1      17.202  16.624   8.817  1.00  0.00     0.180 C 
ATOM     31  C   UNL     1      15.450  16.874  10.620  1.00  0.00     0.179 C 
ATOM     32  C   UNL     1      16.559  17.598   9.824  1.00  0.00     0.177 C 
BRANCH  28  33
ATOM     33  O   UNL     1      18.768  15.370  10.192  1.00  0.00    -0.384 OA
ATOM     34  H   UNL     1      18.897  14.531  10.705  1.00  0.00     0.211 HD
ENDBRANCH  28  33
BRANCH  30  35
ATOM     35  O   UNL     1      16.311  16.416   7.751  1.00  0.00    -0.387 OA
ATOM     36  H   UNL     1      15.607  17.113   7.820  1.00  0.00     0.211 HD
ENDBRANCH  30  35
BRANCH  31  37
ATOM     37  C   UNL     1      14.799  17.803  11.658  1.00  0.00     0.191 C 
BRANCH  37  38
ATOM     38  O   UNL     1      15.489  17.757  12.878  1.00  0.00    -0.394 OA
ATOM     39  H   UNL     1      16.185  18.463  12.838  1.00  0.00     0.210 HD
ENDBRANCH  37  38
ENDBRANCH  31  37
BRANCH  32  40
ATOM     40  O   UNL     1      17.532  18.103  10.704  1.00  0.00    -0.387 OA
ATOM     41  H   UNL     1      17.730  17.383  11.358  1.00  0.00     0.211 HD
ENDBRANCH  32  40
ENDBRANCH   1  27
TORSDOF 12
ENDMDL
