MODEL 1
REMARK VINA RESULT:    -6.355      0.000      0.000
REMARK INTER + INTRA:          -7.593
REMARK INTER:                  -7.470
REMARK INTRA:                  -0.123
REMARK UNBOUND:                -0.123
REMARK SMILES O=C([O-])C=Cc1ccc(O)c(O)c1
REMARK SMILES IDX 6 1 13 2 7 3 11 4 8 5 9 6 5 7 4 8 2 9 1 10 3 11 12 12 10 14
REMARK H PARENT 12 13 10 15
REMARK Flexibility Score: inf
ROOT
ATOM      1  C   UNL     1      42.948  45.293  41.877  1.00  0.00    -0.022 A 
ATOM      2  C   UNL     1      43.771  45.186  40.738  1.00  0.00     0.058 A 
ATOM      3  C   UNL     1      41.565  45.095  41.734  1.00  0.00     0.012 A 
ATOM      4  C   UNL     1      43.215  44.912  39.479  1.00  0.00     0.157 A 
ATOM      5  C   UNL     1      41.011  44.823  40.480  1.00  0.00     0.051 A 
ATOM      6  C   UNL     1      41.828  44.734  39.351  1.00  0.00     0.157 A 
ENDROOT
BRANCH   1   7
ATOM      7  C   UNL     1      43.488  45.570  43.231  1.00  0.00     0.010 C 
ATOM      8  C   UNL     1      44.744  45.284  43.604  1.00  0.00     0.025 C 
BRANCH   8   9
ATOM      9  C   UNL     1      45.251  45.584  44.953  1.00  0.00     0.064 C 
ATOM     10  O   UNL     1      45.916  44.734  45.604  1.00  0.00    -0.545 OA
ATOM     11  O   UNL     1      44.994  46.826  45.517  1.00  0.00    -0.545 OA
ENDBRANCH   8   9
ENDBRANCH   1   7
BRANCH   4  12
ATOM     12  O   UNL     1      44.038  44.811  38.358  1.00  0.00    -0.504 OA
ATOM     13  H   UNL     1      44.664  44.026  38.227  1.00  0.00     0.293 HD
ENDBRANCH   4  12
BRANCH   6  14
ATOM     14  O   UNL     1      41.247  44.464  38.113  1.00  0.00    -0.504 OA
ATOM     15  H   UNL     1      41.552  43.692  37.532  1.00  0.00     0.293 HD
ENDBRANCH   6  14
TORSDOF 4
ENDMDL
MODEL 2
REMARK VINA RESULT:    -6.343      0.752      1.856
REMARK INTER + INTRA:          -7.578
REMARK INTER:                  -7.428
REMARK INTRA:                  -0.150
REMARK UNBOUND:                -0.123
REMARK SMILES O=C([O-])C=Cc1ccc(O)c(O)c1
REMARK SMILES IDX 6 1 13 2 7 3 11 4 8 5 9 6 5 7 4 8 2 9 1 10 3 11 12 12 10 14
REMARK H PARENT 12 13 10 15
REMARK Flexibility Score: inf
ROOT
ATOM      1  C   UNL     1      42.847  45.271  41.805  1.00  0.00    -0.022 A 
ATOM      2  C   UNL     1      41.507  45.084  41.410  1.00  0.00     0.058 A 
ATOM      3  C   UNL     1      43.857  45.188  40.833  1.00  0.00     0.012 A 
ATOM      4  C   UNL     1      41.191  44.793  40.075  1.00  0.00     0.157 A 
ATOM      5  C   UNL     1      43.543  44.897  39.503  1.00  0.00     0.051 A 
ATOM      6  C   UNL     1      42.215  44.696  39.119  1.00  0.00     0.157 A 
ENDROOT
BRANCH   1   7
ATOM      7  C   UNL     1      43.231  45.592  43.201  1.00  0.00     0.010 C 
ATOM      8  C   UNL     1      44.491  45.541  43.659  1.00  0.00     0.025 C 
BRANCH   8   9
ATOM      9  C   UNL     1      44.837  45.878  45.049  1.00  0.00     0.064 C 
ATOM     10  O   UNL     1      45.529  45.098  45.757  1.00  0.00    -0.545 OA
ATOM     11  O   UNL     1      44.397  47.079  45.589  1.00  0.00    -0.545 OA
ENDBRANCH   8   9
ENDBRANCH   1   7
BRANCH   4  12
ATOM     12  O   UNL     1      39.862  44.607  39.695  1.00  0.00    -0.504 OA
ATOM     13  H   UNL     1      39.524  43.709  39.370  1.00  0.00     0.293 HD
ENDBRANCH   4  12
BRANCH   6  14
ATOM     14  O   UNL     1      41.932  44.405  37.785  1.00  0.00    -0.504 OA
ATOM     15  H   UNL     1      42.655  44.140  37.127  1.00  0.00     0.293 HD
ENDBRANCH   6  14
TORSDOF 4
ENDMDL
MODEL 3
REMARK VINA RESULT:    -6.156      2.859      7.269
REMARK INTER + INTRA:          -7.358
REMARK INTER:                  -7.222
REMARK INTRA:                  -0.136
REMARK UNBOUND:                -0.123
REMARK SMILES O=C([O-])C=Cc1ccc(O)c(O)c1
REMARK SMILES IDX 6 1 13 2 7 3 11 4 8 5 9 6 5 7 4 8 2 9 1 10 3 11 12 12 10 14
REMARK H PARENT 12 13 10 15
REMARK Flexibility Score: inf
ROOT
ATOM      1  C   UNL     1      44.116  46.356  45.801  1.00  0.00    -0.022 A 
ATOM      2  C   UNL     1      43.565  45.929  47.026  1.00  0.00     0.058 A 
ATOM      3  C   UNL     1      45.404  46.916  45.797  1.00  0.00     0.012 A 
ATOM      4  C   UNL     1      44.280  46.083  48.223  1.00  0.00     0.157 A 
ATOM      5  C   UNL     1      46.116  47.071  46.989  1.00  0.00     0.051 A 
ATOM      6  C   UNL     1      45.560  46.660  48.203  1.00  0.00     0.157 A 
ENDROOT
BRANCH   1   7
ATOM      7  C   UNL     1      43.404  46.204  44.509  1.00  0.00     0.010 C 
ATOM      8  C   UNL     1      43.872  45.481  43.481  1.00  0.00     0.025 C 
BRANCH   8   9
ATOM      9  C   UNL     1      43.132  45.342  42.216  1.00  0.00     0.064 C 
ATOM     10  O   UNL     1      43.720  45.424  41.104  1.00  0.00    -0.545 OA
ATOM     11  O   UNL     1      41.763  45.113  42.248  1.00  0.00    -0.545 OA
ENDBRANCH   8   9
ENDBRANCH   1   7
BRANCH   4  12
ATOM     12  O   UNL     1      43.725  45.659  49.430  1.00  0.00    -0.504 OA
ATOM     13  H   UNL     1      43.809  46.210  50.276  1.00  0.00     0.293 HD
ENDBRANCH   4  12
BRANCH   6  14
ATOM     14  O   UNL     1      46.294  46.830  49.377  1.00  0.00    -0.504 OA
ATOM     15  H   UNL     1      45.959  46.497  50.273  1.00  0.00     0.293 HD
ENDBRANCH   6  14
TORSDOF 4
ENDMDL
MODEL 4
REMARK VINA RESULT:    -5.818      1.681      6.434
REMARK INTER + INTRA:          -6.961
REMARK INTER:                  -6.820
REMARK INTRA:                  -0.141
REMARK UNBOUND:                -0.123
REMARK SMILES O=C([O-])C=Cc1ccc(O)c(O)c1
REMARK SMILES IDX 6 1 13 2 7 3 11 4 8 5 9 6 5 7 4 8 2 9 1 10 3 11 12 12 10 14
REMARK H PARENT 12 13 10 15
REMARK Flexibility Score: inf
ROOT
ATOM      1  C   UNL     1      43.872  45.765  44.158  1.00  0.00    -0.022 A 
ATOM      2  C   UNL     1      43.558  46.647  45.212  1.00  0.00     0.058 A 
ATOM      3  C   UNL     1      45.081  45.053  44.208  1.00  0.00     0.012 A 
ATOM      4  C   UNL     1      44.450  46.829  46.279  1.00  0.00     0.157 A 
ATOM      5  C   UNL     1      45.971  45.235  45.271  1.00  0.00     0.051 A 
ATOM      6  C   UNL     1      45.663  46.122  46.305  1.00  0.00     0.157 A 
ENDROOT
BRANCH   1   7
ATOM      7  C   UNL     1      42.958  45.529  43.014  1.00  0.00     0.010 C 
ATOM      8  C   UNL     1      43.351  45.531  41.732  1.00  0.00     0.025 C 
BRANCH   8   9
ATOM      9  C   UNL     1      42.418  45.281  40.622  1.00  0.00     0.064 C 
ATOM     10  O   UNL     1      42.779  45.415  39.422  1.00  0.00    -0.545 OA
ATOM     11  O   UNL     1      41.116  44.887  40.902  1.00  0.00    -0.545 OA
ENDBRANCH   8   9
ENDBRANCH   1   7
BRANCH   4  12
ATOM     12  O   UNL     1      44.132  47.706  47.316  1.00  0.00    -0.504 OA
ATOM     13  H   UNL     1      44.537  47.608  48.238  1.00  0.00     0.293 HD
ENDBRANCH   4  12
BRANCH   6  14
ATOM     14  O   UNL     1      46.571  46.285  47.351  1.00  0.00    -0.504 OA
ATOM     15  H   UNL     1      46.350  46.830  48.175  1.00  0.00     0.293 HD
ENDBRANCH   6  14
TORSDOF 4
ENDMDL
MODEL 5
REMARK VINA RESULT:    -5.690      1.217      6.039
REMARK INTER + INTRA:          -6.811
REMARK INTER:                  -6.686
REMARK INTRA:                  -0.125
REMARK UNBOUND:                -0.123
REMARK SMILES O=C([O-])C=Cc1ccc(O)c(O)c1
REMARK SMILES IDX 6 1 13 2 7 3 11 4 8 5 9 6 5 7 4 8 2 9 1 10 3 11 12 12 10 14
REMARK H PARENT 12 13 10 15
REMARK Flexibility Score: inf
ROOT
ATOM      1  C   UNL     1      43.490  45.460  42.141  1.00  0.00    -0.022 A 
ATOM      2  C   UNL     1      42.750  45.721  43.312  1.00  0.00     0.058 A 
ATOM      3  C   UNL     1      44.887  45.352  42.232  1.00  0.00     0.012 A 
ATOM      4  C   UNL     1      43.400  45.896  44.543  1.00  0.00     0.157 A 
ATOM      5  C   UNL     1      45.536  45.529  43.458  1.00  0.00     0.051 A 
ATOM      6  C   UNL     1      44.800  45.803  44.613  1.00  0.00     0.157 A 
ENDROOT
BRANCH   1   7
ATOM      7  C   UNL     1      42.848  45.255  40.819  1.00  0.00     0.010 C 
ATOM      8  C   UNL     1      41.532  45.057  40.652  1.00  0.00     0.025 C 
BRANCH   8   9
ATOM      9  C   UNL     1      40.928  44.870  39.324  1.00  0.00     0.064 C 
ATOM     10  O   UNL     1      41.592  45.068  38.271  1.00  0.00    -0.545 OA
ATOM     11  O   UNL     1      39.603  44.465  39.227  1.00  0.00    -0.545 OA
ENDBRANCH   8   9
ENDBRANCH   1   7
BRANCH   4  12
ATOM     12  O   UNL     1      42.660  46.157  45.695  1.00  0.00    -0.504 OA
ATOM     13  H   UNL     1      42.182  45.419  46.198  1.00  0.00     0.293 HD
ENDBRANCH   4  12
BRANCH   6  14
ATOM     14  O   UNL     1      45.474  45.977  45.821  1.00  0.00    -0.504 OA
ATOM     15  H   UNL     1      46.120  46.742  45.972  1.00  0.00     0.293 HD
ENDBRANCH   6  14
TORSDOF 4
ENDMDL
MODEL 6
REMARK VINA RESULT:    -5.684      1.721      6.287
REMARK INTER + INTRA:          -6.804
REMARK INTER:                  -6.654
REMARK INTRA:                  -0.149
REMARK UNBOUND:                -0.123
REMARK SMILES O=C([O-])C=Cc1ccc(O)c(O)c1
REMARK SMILES IDX 6 1 13 2 7 3 11 4 8 5 9 6 5 7 4 8 2 9 1 10 3 11 12 12 10 14
REMARK H PARENT 12 13 10 15
REMARK Flexibility Score: inf
ROOT
ATOM      1  C   UNL     1      44.380  45.572  44.207  1.00  0.00    -0.022 A 
ATOM      2  C   UNL     1      45.523  45.078  44.868  1.00  0.00     0.058 A 
ATOM      3  C   UNL     1      43.386  46.216  44.961  1.00  0.00     0.012 A 
ATOM      4  C   UNL     1      45.652  45.205  46.260  1.00  0.00     0.157 A 
ATOM      5  C   UNL     1      43.514  46.341  46.347  1.00  0.00     0.051 A 
ATOM      6  C   UNL     1      44.640  45.836  47.001  1.00  0.00     0.157 A 
ENDROOT
BRANCH   1   7
ATOM      7  C   UNL     1      44.202  45.473  42.738  1.00  0.00     0.010 C 
ATOM      8  C   UNL     1      43.007  45.468  42.130  1.00  0.00     0.025 C 
BRANCH   8   9
ATOM      9  C   UNL     1      42.869  45.381  40.667  1.00  0.00     0.064 C 
ATOM     10  O   UNL     1      43.750  44.821  39.961  1.00  0.00    -0.545 OA
ATOM     11  O   UNL     1      41.747  45.923  40.054  1.00  0.00    -0.545 OA
ENDBRANCH   8   9
ENDBRANCH   1   7
BRANCH   4  12
ATOM     12  O   UNL     1      46.785  44.710  46.905  1.00  0.00    -0.504 OA
ATOM     13  H   UNL     1      47.547  45.318  47.180  1.00  0.00     0.293 HD
ENDBRANCH   4  12
BRANCH   6  14
ATOM     14  O   UNL     1      44.739  45.974  48.386  1.00  0.00    -0.504 OA
ATOM     15  H   UNL     1      45.006  46.849  48.821  1.00  0.00     0.293 HD
ENDBRANCH   6  14
TORSDOF 4
ENDMDL
MODEL 7
REMARK VINA RESULT:    -5.508      8.626      9.468
REMARK INTER + INTRA:          -6.597
REMARK INTER:                  -6.469
REMARK INTRA:                  -0.128
REMARK UNBOUND:                -0.123
REMARK SMILES O=C([O-])C=Cc1ccc(O)c(O)c1
REMARK SMILES IDX 6 1 13 2 7 3 11 4 8 5 9 6 5 7 4 8 2 9 1 10 3 11 12 12 10 14
REMARK H PARENT 12 13 10 15
REMARK Flexibility Score: inf
ROOT
ATOM      1  C   UNL     1      48.887  45.125  34.478  1.00  0.00    -0.022 A 
ATOM      2  C   UNL     1      48.634  44.114  35.426  1.00  0.00     0.058 A 
ATOM      3  C   UNL     1      48.357  44.990  33.185  1.00  0.00     0.012 A 
ATOM      4  C   UNL     1      47.887  42.979  35.076  1.00  0.00     0.157 A 
ATOM      5  C   UNL     1      47.615  43.859  32.835  1.00  0.00     0.051 A 
ATOM      6  C   UNL     1      47.379  42.851  33.773  1.00  0.00     0.157 A 
ENDROOT
BRANCH   1   7
ATOM      7  C   UNL     1      49.660  46.349  34.803  1.00  0.00     0.010 C 
ATOM      8  C   UNL     1      49.099  47.538  35.066  1.00  0.00     0.025 C 
BRANCH   8   9
ATOM      9  C   UNL     1      49.898  48.729  35.397  1.00  0.00     0.064 C 
ATOM     10  O   UNL     1      50.265  49.537  34.503  1.00  0.00    -0.545 OA
ATOM     11  O   UNL     1      50.251  48.968  36.718  1.00  0.00    -0.545 OA
ENDBRANCH   8   9
ENDBRANCH   1   7
BRANCH   4  12
ATOM     12  O   UNL     1      47.644  41.982  36.020  1.00  0.00    -0.504 OA
ATOM     13  H   UNL     1      46.870  41.335  35.923  1.00  0.00     0.293 HD
ENDBRANCH   4  12
BRANCH   6  14
ATOM     14  O   UNL     1      46.637  41.733  33.394  1.00  0.00    -0.504 OA
ATOM     15  H   UNL     1      45.824  41.805  32.794  1.00  0.00     0.293 HD
ENDBRANCH   6  14
TORSDOF 4
ENDMDL
MODEL 8
REMARK VINA RESULT:    -5.481      8.980      9.624
REMARK INTER + INTRA:          -6.566
REMARK INTER:                  -6.445
REMARK INTRA:                  -0.121
REMARK UNBOUND:                -0.123
REMARK SMILES O=C([O-])C=Cc1ccc(O)c(O)c1
REMARK SMILES IDX 6 1 13 2 7 3 11 4 8 5 9 6 5 7 4 8 2 9 1 10 3 11 12 12 10 14
REMARK H PARENT 12 13 10 15
REMARK Flexibility Score: inf
ROOT
ATOM      1  C   UNL     1      48.736  44.917  34.221  1.00  0.00    -0.022 A 
ATOM      2  C   UNL     1      48.266  44.844  32.894  1.00  0.00     0.058 A 
ATOM      3  C   UNL     1      48.552  43.812  35.068  1.00  0.00     0.012 A 
ATOM      4  C   UNL     1      47.601  43.696  32.436  1.00  0.00     0.157 A 
ATOM      5  C   UNL     1      47.889  42.670  34.612  1.00  0.00     0.051 A 
ATOM      6  C   UNL     1      47.409  42.607  33.301  1.00  0.00     0.157 A 
ENDROOT
BRANCH   1   7
ATOM      7  C   UNL     1      49.454  46.103  34.749  1.00  0.00     0.010 C 
ATOM      8  C   UNL     1      48.869  47.288  34.979  1.00  0.00     0.025 C 
BRANCH   8   9
ATOM      9  C   UNL     1      49.611  48.440  35.516  1.00  0.00     0.064 C 
ATOM     10  O   UNL     1      50.125  49.299  34.750  1.00  0.00    -0.545 OA
ATOM     11  O   UNL     1      49.744  48.585  36.890  1.00  0.00    -0.545 OA
ENDBRANCH   8   9
ENDBRANCH   1   7
BRANCH   4  12
ATOM     12  O   UNL     1      47.137  43.634  31.123  1.00  0.00    -0.504 OA
ATOM     13  H   UNL     1      47.056  44.463  30.548  1.00  0.00     0.293 HD
ENDBRANCH   4  12
BRANCH   6  14
ATOM     14  O   UNL     1      46.750  41.454  32.875  1.00  0.00    -0.504 OA
ATOM     15  H   UNL     1      47.167  40.534  32.957  1.00  0.00     0.293 HD
ENDBRANCH   6  14
TORSDOF 4
ENDMDL
MODEL 9
REMARK VINA RESULT:    -5.476      8.343      8.953
REMARK INTER + INTRA:          -6.559
REMARK INTER:                  -6.408
REMARK INTRA:                  -0.150
REMARK UNBOUND:                -0.123
REMARK SMILES O=C([O-])C=Cc1ccc(O)c(O)c1
REMARK SMILES IDX 6 1 13 2 7 3 11 4 8 5 9 6 5 7 4 8 2 9 1 10 3 11 12 12 10 14
REMARK H PARENT 12 13 10 15
REMARK Flexibility Score: inf
ROOT
ATOM      1  C   UNL     1      48.522  44.366  34.550  1.00  0.00    -0.022 A 
ATOM      2  C   UNL     1      48.050  43.060  34.312  1.00  0.00     0.058 A 
ATOM      3  C   UNL     1      48.225  45.374  33.619  1.00  0.00     0.012 A 
ATOM      4  C   UNL     1      47.317  42.766  33.152  1.00  0.00     0.157 A 
ATOM      5  C   UNL     1      47.497  45.082  32.462  1.00  0.00     0.051 A 
ATOM      6  C   UNL     1      47.044  43.782  32.222  1.00  0.00     0.157 A 
ENDROOT
BRANCH   1   7
ATOM      7  C   UNL     1      49.290  44.729  35.767  1.00  0.00     0.010 C 
ATOM      8  C   UNL     1      49.363  45.975  36.258  1.00  0.00     0.025 C 
BRANCH   8   9
ATOM      9  C   UNL     1      50.125  46.296  37.476  1.00  0.00     0.064 C 
ATOM     10  O   UNL     1      51.105  45.591  37.837  1.00  0.00    -0.545 OA
ATOM     11  O   UNL     1      49.759  47.396  38.239  1.00  0.00    -0.545 OA
ENDBRANCH   8   9
ENDBRANCH   1   7
BRANCH   4  12
ATOM     12  O   UNL     1      46.857  41.470  32.924  1.00  0.00    -0.504 OA
ATOM     13  H   UNL     1      46.067  41.286  32.318  1.00  0.00     0.293 HD
ENDBRANCH   4  12
BRANCH   6  14
ATOM     14  O   UNL     1      46.322  43.520  31.058  1.00  0.00    -0.504 OA
ATOM     15  H   UNL     1      45.707  42.719  30.976  1.00  0.00     0.293 HD
ENDBRANCH   6  14
TORSDOF 4
ENDMDL
