MODEL 1
REMARK VINA RESULT:    40.188      0.000      0.000
REMARK INTER + INTRA:          48.357
REMARK INTER:                  48.411
REMARK INTRA:                  -0.054
REMARK UNBOUND:                -0.054
REMARK SMILES O=c1c(O)c(-c2ccc(O)c(O)c2)oc2cc(O)cc(O)c12
REMARK SMILES IDX 5 1 3 2 2 3 1 4 22 5 20 6 19 7 17 8 16 9 15 10 14 11 6 12
REMARK SMILES IDX 7 13 8 14 9 15 13 16 11 17 10 18 12 20 4 22 21 24 18 26
REMARK H PARENT 10 19 12 21 4 23 21 25 18 27
REMARK Flexibility Score: inf
ROOT
ATOM      1  C   UNL     1     -37.594  26.341  -6.252  1.00  0.00     0.180 A 
ATOM      2  C   UNL     1     -36.546  27.276  -6.240  1.00  0.00     0.208 A 
ATOM      3  C   UNL     1     -36.825  28.608  -5.893  1.00  0.00     0.238 A 
ATOM      4  O   UNL     1     -35.893  29.453  -5.936  1.00  0.00    -0.285 OA
ATOM      5  C   UNL     1     -38.146  28.983  -5.547  1.00  0.00     0.111 A 
ATOM      6  C   UNL     1     -38.535  30.296  -5.139  1.00  0.00     0.134 A 
ATOM      7  C   UNL     1     -39.892  30.584  -4.947  1.00  0.00     0.093 A 
ATOM      8  C   UNL     1     -40.866  29.592  -5.084  1.00  0.00     0.123 A 
ATOM      9  C   UNL     1     -40.489  28.295  -5.422  1.00  0.00     0.094 A 
ATOM     10  C   UNL     1     -39.148  27.984  -5.656  1.00  0.00     0.146 A 
ATOM     11  O   UNL     1     -38.833  26.738  -5.987  1.00  0.00    -0.452 OA
ENDROOT
BRANCH   1  12
ATOM     12  C   UNL     1     -37.373  24.915  -6.584  1.00  0.00     0.025 A 
ATOM     13  C   UNL     1     -36.813  24.572  -7.824  1.00  0.00     0.016 A 
ATOM     14  C   UNL     1     -36.615  23.231  -8.166  1.00  0.00     0.051 A 
ATOM     15  C   UNL     1     -36.988  22.215  -7.283  1.00  0.00     0.157 A 
ATOM     16  C   UNL     1     -37.767  23.889  -5.705  1.00  0.00     0.062 A 
ATOM     17  C   UNL     1     -37.571  22.543  -6.047  1.00  0.00     0.158 A 
BRANCH  15  18
ATOM     18  O   UNL     1     -36.776  20.885  -7.650  1.00  0.00    -0.504 OA
ATOM     19  H   UNL     1     -37.363  20.415  -8.328  1.00  0.00     0.293 HD
ENDBRANCH  15  18
BRANCH  17  20
ATOM     20  O   UNL     1     -37.958  21.533  -5.167  1.00  0.00    -0.504 OA
ATOM     21  H   UNL     1     -38.216  20.611  -5.499  1.00  0.00     0.293 HD
ENDBRANCH  17  20
ENDBRANCH   1  12
BRANCH   2  22
ATOM     22  O   UNL     1     -35.254  26.890  -6.606  1.00  0.00    -0.502 OA
ATOM     23  H   UNL     1     -34.472  27.533  -6.603  1.00  0.00     0.293 HD
ENDBRANCH   2  22
BRANCH   6  24
ATOM     24  O   UNL     1     -37.634  31.333  -4.887  1.00  0.00    -0.507 OA
ATOM     25  H   UNL     1     -37.344  31.632  -3.967  1.00  0.00     0.293 HD
ENDBRANCH   6  24
BRANCH   8  26
ATOM     26  O   UNL     1     -42.213  29.885  -4.875  1.00  0.00    -0.508 OA
ATOM     27  H   UNL     1     -42.623  30.753  -5.198  1.00  0.00     0.293 HD
ENDBRANCH   8  26
TORSDOF 6
ENDMDL
