MODEL 1
REMARK VINA RESULT:    -6.560      0.000      0.000
REMARK INTER + INTRA:         -10.834
REMARK INTER:                  -9.436
REMARK INTRA:                  -1.398
REMARK UNBOUND:                -1.398
REMARK SMILES O=c1c(O[C@H]2O[C@H](CO)[C@@H](O)[C@@H](O)[C@@H]2O)c(-c2ccc(O)cc2)oc2cc(O)cc(O)c12
REMARK SMILES IDX 4 1 3 2 16 3 24 4 2 5 25 6 1 7 32 8 26 9 30 10 27 11 29 12
REMARK SMILES IDX 17 13 18 14 19 15 20 16 23 17 22 18 21 19 31 21 28 23 5 25
REMARK SMILES IDX 14 26 6 27 12 28 7 29 10 30 15 31 13 33 8 35 9 36 11 38
REMARK H PARENT 21 20 31 22 28 24 15 32 13 34 9 37 11 39
REMARK Flexibility Score: inf
ROOT
ATOM      1  O   UNL     1     -47.760 -12.301  14.592  1.00  0.00    -0.454 OA
ENDROOT
BRANCH   1   2
ATOM      2  C   UNL     1     -48.993 -12.872  14.252  1.00  0.00     0.214 A 
ATOM      3  C   UNL     1     -49.265 -13.305  12.938  1.00  0.00     0.180 A 
ATOM      4  O   UNL     1     -50.477 -13.760  12.631  1.00  0.00    -0.452 OA
ATOM      5  C   UNL     1     -49.990 -12.998  15.227  1.00  0.00     0.239 A 
ATOM      6  C   UNL     1     -51.462 -13.866  13.517  1.00  0.00     0.146 A 
ATOM      7  O   UNL     1     -49.741 -12.651  16.413  1.00  0.00    -0.285 OA
ATOM      8  C   UNL     1     -51.259 -13.494  14.867  1.00  0.00     0.111 A 
ATOM      9  C   UNL     1     -52.701 -14.356  13.098  1.00  0.00     0.094 A 
ATOM     10  C   UNL     1     -52.329 -13.627  15.785  1.00  0.00     0.134 A 
ATOM     11  C   UNL     1     -53.752 -14.485  14.007  1.00  0.00     0.123 A 
ATOM     12  C   UNL     1     -53.566 -14.121  15.346  1.00  0.00     0.093 A 
BRANCH   3  13
ATOM     13  C   UNL     1     -48.245 -13.274  11.866  1.00  0.00     0.021 A 
ATOM     14  C   UNL     1     -47.395 -14.377  11.686  1.00  0.00     0.016 A 
ATOM     15  C   UNL     1     -46.421 -14.362  10.684  1.00  0.00     0.047 A 
ATOM     16  C   UNL     1     -46.277 -13.244   9.856  1.00  0.00     0.115 A 
ATOM     17  C   UNL     1     -48.077 -12.140  11.051  1.00  0.00     0.016 A 
ATOM     18  C   UNL     1     -47.105 -12.131  10.045  1.00  0.00     0.047 A 
BRANCH  16  19
ATOM     19  O   UNL     1     -45.310 -13.250   8.855  1.00  0.00    -0.508 OA
ATOM     20  H   UNL     1     -45.528 -12.970   7.906  1.00  0.00     0.293 HD
ENDBRANCH  16  19
ENDBRANCH   3  13
BRANCH  10  21
ATOM     21  O   UNL     1     -52.174 -13.270  17.125  1.00  0.00    -0.507 OA
ATOM     22  H   UNL     1     -52.924 -12.841  17.653  1.00  0.00     0.293 HD
ENDBRANCH  10  21
BRANCH  11  23
ATOM     23  O   UNL     1     -54.980 -14.976  13.570  1.00  0.00    -0.508 OA
ATOM     24  H   UNL     1     -55.855 -14.585  13.900  1.00  0.00     0.293 HD
ENDBRANCH  11  23
ENDBRANCH   1   2
BRANCH   1  25
ATOM     25  C   UNL     1     -46.647 -13.098  15.006  1.00  0.00     0.339 C 
ATOM     26  C   UNL     1     -46.090 -12.635  16.371  1.00  0.00     0.214 C 
ATOM     27  O   UNL     1     -45.642 -13.130  14.003  1.00  0.00    -0.332 OA
ATOM     28  C   UNL     1     -45.305 -11.309  16.262  1.00  0.00     0.180 C 
ATOM     29  C   UNL     1     -45.084 -11.844  13.775  1.00  0.00     0.179 C 
ATOM     30  C   UNL     1     -44.355 -11.330  15.044  1.00  0.00     0.177 C 
BRANCH  26  31
ATOM     31  O   UNL     1     -45.247 -13.643  16.872  1.00  0.00    -0.384 OA
ATOM     32  H   UNL     1     -45.704 -14.037  17.661  1.00  0.00     0.211 HD
ENDBRANCH  26  31
BRANCH  28  33
ATOM     33  O   UNL     1     -46.172 -10.198  16.253  1.00  0.00    -0.387 OA
ATOM     34  H   UNL     1     -46.162  -9.782  17.152  1.00  0.00     0.211 HD
ENDBRANCH  28  33
BRANCH  29  35
ATOM     35  C   UNL     1     -44.131 -11.932  12.574  1.00  0.00     0.191 C 
BRANCH  35  36
ATOM     36  O   UNL     1     -43.651 -10.662  12.217  1.00  0.00    -0.394 OA
ATOM     37  H   UNL     1     -43.573 -10.650  11.228  1.00  0.00     0.210 HD
ENDBRANCH  35  36
ENDBRANCH  29  35
BRANCH  30  38
ATOM     38  O   UNL     1     -43.767 -10.066  14.844  1.00  0.00    -0.387 OA
ATOM     39  H   UNL     1     -43.601  -9.958  13.872  1.00  0.00     0.211 HD
ENDBRANCH  30  38
ENDBRANCH   1  25
TORSDOF 11
ENDMDL
MODEL 2
REMARK VINA RESULT:    -6.296      1.600      4.542
REMARK INTER + INTRA:         -10.454
REMARK INTER:                  -9.200
REMARK INTRA:                  -1.254
REMARK UNBOUND:                -1.398
REMARK SMILES O=c1c(O[C@H]2O[C@H](CO)[C@@H](O)[C@@H](O)[C@@H]2O)c(-c2ccc(O)cc2)oc2cc(O)cc(O)c12
REMARK SMILES IDX 4 1 3 2 16 3 24 4 2 5 25 6 1 7 32 8 26 9 30 10 27 11 29 12
REMARK SMILES IDX 17 13 18 14 19 15 20 16 23 17 22 18 21 19 31 21 28 23 5 25
REMARK SMILES IDX 14 26 6 27 12 28 7 29 10 30 15 31 13 33 8 35 9 36 11 38
REMARK H PARENT 21 20 31 22 28 24 15 32 13 34 9 37 11 39
REMARK Flexibility Score: inf
ROOT
ATOM      1  O   UNL     1     -48.193 -13.438  13.016  1.00  0.00    -0.454 OA
ENDROOT
BRANCH   1   2
ATOM      2  C   UNL     1     -49.302 -13.364  13.868  1.00  0.00     0.214 A 
ATOM      3  C   UNL     1     -49.189 -12.854  15.178  1.00  0.00     0.180 A 
ATOM      4  O   UNL     1     -50.243 -12.881  15.989  1.00  0.00    -0.452 OA
ATOM      5  C   UNL     1     -50.548 -13.827  13.426  1.00  0.00     0.239 A 
ATOM      6  C   UNL     1     -51.434 -13.340  15.622  1.00  0.00     0.146 A 
ATOM      7  O   UNL     1     -50.665 -14.247  12.244  1.00  0.00    -0.285 OA
ATOM      8  C   UNL     1     -51.645 -13.830  14.311  1.00  0.00     0.111 A 
ATOM      9  C   UNL     1     -52.481 -13.328  16.547  1.00  0.00     0.094 A 
ATOM     10  C   UNL     1     -52.928 -14.306  13.952  1.00  0.00     0.134 A 
ATOM     11  C   UNL     1     -53.746 -13.797  16.188  1.00  0.00     0.123 A 
ATOM     12  C   UNL     1     -53.967 -14.285  14.894  1.00  0.00     0.093 A 
BRANCH   3  13
ATOM     13  C   UNL     1     -47.928 -12.280  15.699  1.00  0.00     0.021 A 
ATOM     14  C   UNL     1     -47.554 -10.978  15.328  1.00  0.00     0.016 A 
ATOM     15  C   UNL     1     -46.363 -10.423  15.804  1.00  0.00     0.047 A 
ATOM     16  C   UNL     1     -45.528 -11.162  16.648  1.00  0.00     0.115 A 
ATOM     17  C   UNL     1     -47.071 -13.030  16.524  1.00  0.00     0.016 A 
ATOM     18  C   UNL     1     -45.884 -12.469  17.004  1.00  0.00     0.047 A 
BRANCH  16  19
ATOM     19  O   UNL     1     -44.351 -10.590  17.124  1.00  0.00    -0.508 OA
ATOM     20  H   UNL     1     -44.109  -9.628  16.919  1.00  0.00     0.293 HD
ENDBRANCH  16  19
ENDBRANCH   3  13
BRANCH  10  21
ATOM     21  O   UNL     1     -53.179 -14.800  12.672  1.00  0.00    -0.507 OA
ATOM     22  H   UNL     1     -52.462 -14.816  11.955  1.00  0.00     0.293 HD
ENDBRANCH  10  21
BRANCH  11  23
ATOM     23  O   UNL     1     -54.776 -13.776  17.124  1.00  0.00    -0.508 OA
ATOM     24  H   UNL     1     -54.614 -14.011  18.096  1.00  0.00     0.293 HD
ENDBRANCH  11  23
ENDBRANCH   1   2
BRANCH   1  25
ATOM     25  C   UNL     1     -47.974 -12.480  11.977  1.00  0.00     0.339 C 
ATOM     26  C   UNL     1     -47.716 -13.165  10.615  1.00  0.00     0.214 C 
ATOM     27  O   UNL     1     -46.934 -11.578  12.326  1.00  0.00    -0.332 OA
ATOM     28  C   UNL     1     -46.313 -13.806  10.540  1.00  0.00     0.180 C 
ATOM     29  C   UNL     1     -45.684 -12.241  12.458  1.00  0.00     0.179 C 
ATOM     30  C   UNL     1     -45.239 -12.847  11.101  1.00  0.00     0.177 C 
BRANCH  26  31
ATOM     31  O   UNL     1     -47.849 -12.200   9.601  1.00  0.00    -0.384 OA
ATOM     32  H   UNL     1     -47.252 -12.478   8.857  1.00  0.00     0.211 HD
ENDBRANCH  26  31
BRANCH  28  33
ATOM     33  O   UNL     1     -46.291 -15.068  11.165  1.00  0.00    -0.387 OA
ATOM     34  H   UNL     1     -47.190 -15.254  11.536  1.00  0.00     0.211 HD
ENDBRANCH  28  33
BRANCH  29  35
ATOM     35  C   UNL     1     -44.654 -11.235  12.992  1.00  0.00     0.191 C 
BRANCH  35  36
ATOM     36  O   UNL     1     -43.693 -11.875  13.791  1.00  0.00    -0.394 OA
ATOM     37  H   UNL     1     -42.864 -11.942  13.250  1.00  0.00     0.210 HD
ENDBRANCH  35  36
ENDBRANCH  29  35
BRANCH  30  38
ATOM     38  O   UNL     1     -43.989 -13.490  11.191  1.00  0.00    -0.387 OA
ATOM     39  H   UNL     1     -43.840 -13.987  10.346  1.00  0.00     0.211 HD
ENDBRANCH  30  38
ENDBRANCH   1  25
TORSDOF 11
ENDMDL
MODEL 3
REMARK VINA RESULT:    -5.895      3.730      7.043
REMARK INTER + INTRA:          -9.878
REMARK INTER:                  -9.674
REMARK INTRA:                  -0.204
REMARK UNBOUND:                -1.398
REMARK SMILES O=c1c(O[C@H]2O[C@H](CO)[C@@H](O)[C@@H](O)[C@@H]2O)c(-c2ccc(O)cc2)oc2cc(O)cc(O)c12
REMARK SMILES IDX 4 1 3 2 16 3 24 4 2 5 25 6 1 7 32 8 26 9 30 10 27 11 29 12
REMARK SMILES IDX 17 13 18 14 19 15 20 16 23 17 22 18 21 19 31 21 28 23 5 25
REMARK SMILES IDX 14 26 6 27 12 28 7 29 10 30 15 31 13 33 8 35 9 36 11 38
REMARK H PARENT 21 20 31 22 28 24 15 32 13 34 9 37 11 39
REMARK Flexibility Score: inf
ROOT
ATOM      1  O   UNL     1     -43.543 -10.338  10.666  1.00  0.00    -0.454 OA
ENDROOT
BRANCH   1   2
ATOM      2  C   UNL     1     -44.468 -10.597  11.686  1.00  0.00     0.214 A 
ATOM      3  C   UNL     1     -44.490  -9.832  12.871  1.00  0.00     0.180 A 
ATOM      4  O   UNL     1     -45.322 -10.163  13.854  1.00  0.00    -0.452 OA
ATOM      5  C   UNL     1     -45.377 -11.653  11.545  1.00  0.00     0.239 A 
ATOM      6  C   UNL     1     -46.178 -11.176  13.775  1.00  0.00     0.146 A 
ATOM      7  O   UNL     1     -45.389 -12.316  10.473  1.00  0.00    -0.285 OA
ATOM      8  C   UNL     1     -46.250 -11.968  12.605  1.00  0.00     0.111 A 
ATOM      9  C   UNL     1     -47.012 -11.446  14.863  1.00  0.00     0.094 A 
ATOM     10  C   UNL     1     -47.179 -13.035  12.553  1.00  0.00     0.134 A 
ATOM     11  C   UNL     1     -47.926 -12.499  14.807  1.00  0.00     0.123 A 
ATOM     12  C   UNL     1     -48.008 -13.291  13.655  1.00  0.00     0.093 A 
BRANCH   3  13
ATOM     13  C   UNL     1     -43.613  -8.656  13.070  1.00  0.00     0.021 A 
ATOM     14  C   UNL     1     -43.282  -7.844  11.973  1.00  0.00     0.016 A 
ATOM     15  C   UNL     1     -42.450  -6.734  12.141  1.00  0.00     0.047 A 
ATOM     16  C   UNL     1     -41.932  -6.426  13.403  1.00  0.00     0.115 A 
ATOM     17  C   UNL     1     -43.066  -8.359  14.331  1.00  0.00     0.016 A 
ATOM     18  C   UNL     1     -42.239  -7.244  14.497  1.00  0.00     0.047 A 
BRANCH  16  19
ATOM     19  O   UNL     1     -41.114  -5.309  13.556  1.00  0.00    -0.508 OA
ATOM     20  H   UNL     1     -40.226  -5.233  13.077  1.00  0.00     0.293 HD
ENDBRANCH  16  19
ENDBRANCH   3  13
BRANCH  10  21
ATOM     21  O   UNL     1     -47.281 -13.844  11.420  1.00  0.00    -0.507 OA
ATOM     22  H   UNL     1     -46.629 -14.598  11.242  1.00  0.00     0.293 HD
ENDBRANCH  10  21
BRANCH  11  23
ATOM     23  O   UNL     1     -48.749 -12.752  15.901  1.00  0.00    -0.508 OA
ATOM     24  H   UNL     1     -48.877 -13.690  16.262  1.00  0.00     0.293 HD
ENDBRANCH  11  23
ENDBRANCH   1   2
BRANCH   1  25
ATOM     25  C   UNL     1     -42.771 -11.381  10.064  1.00  0.00     0.339 C 
ATOM     26  C   UNL     1     -41.456 -11.634  10.835  1.00  0.00     0.214 C 
ATOM     27  O   UNL     1     -42.541 -11.115   8.688  1.00  0.00    -0.332 OA
ATOM     28  C   UNL     1     -40.418 -10.514  10.603  1.00  0.00     0.180 C 
ATOM     29  C   UNL     1     -41.753  -9.947   8.502  1.00  0.00     0.179 C 
ATOM     30  C   UNL     1     -40.338 -10.138   9.107  1.00  0.00     0.177 C 
BRANCH  26  31
ATOM     31  O   UNL     1     -40.924 -12.865  10.412  1.00  0.00    -0.384 OA
ATOM     32  H   UNL     1     -41.453 -13.154   9.621  1.00  0.00     0.211 HD
ENDBRANCH  26  31
BRANCH  28  33
ATOM     33  O   UNL     1     -40.672  -9.400  11.428  1.00  0.00    -0.387 OA
ATOM     34  H   UNL     1     -39.823  -8.911  11.571  1.00  0.00     0.211 HD
ENDBRANCH  28  33
BRANCH  29  35
ATOM     35  C   UNL     1     -41.688  -9.639   6.999  1.00  0.00     0.191 C 
BRANCH  35  36
ATOM     36  O   UNL     1     -40.397  -9.863   6.494  1.00  0.00    -0.394 OA
ATOM     37  H   UNL     1     -40.504 -10.307   5.613  1.00  0.00     0.210 HD
ENDBRANCH  35  36
ENDBRANCH  29  35
BRANCH  30  38
ATOM     38  O   UNL     1     -39.522  -9.006   8.916  1.00  0.00    -0.387 OA
ATOM     39  H   UNL     1     -40.036  -8.347   8.381  1.00  0.00     0.211 HD
ENDBRANCH  30  38
ENDBRANCH   1  25
TORSDOF 11
ENDMDL
MODEL 4
REMARK VINA RESULT:    -5.802      9.324     13.461
REMARK INTER + INTRA:          -9.745
REMARK INTER:                  -9.362
REMARK INTRA:                  -0.382
REMARK UNBOUND:                -1.398
REMARK SMILES O=c1c(O[C@H]2O[C@H](CO)[C@@H](O)[C@@H](O)[C@@H]2O)c(-c2ccc(O)cc2)oc2cc(O)cc(O)c12
REMARK SMILES IDX 4 1 3 2 16 3 24 4 2 5 25 6 1 7 32 8 26 9 30 10 27 11 29 12
REMARK SMILES IDX 17 13 18 14 19 15 20 16 23 17 22 18 21 19 31 21 28 23 5 25
REMARK SMILES IDX 14 26 6 27 12 28 7 29 10 30 15 31 13 33 8 35 9 36 11 38
REMARK H PARENT 21 20 31 22 28 24 15 32 13 34 9 37 11 39
REMARK Flexibility Score: inf
ROOT
ATOM      1  O   UNL     1     -39.625  -8.176   4.202  1.00  0.00    -0.454 OA
ENDROOT
BRANCH   1   2
ATOM      2  C   UNL     1     -40.283  -8.806   5.266  1.00  0.00     0.214 A 
ATOM      3  C   UNL     1     -41.495  -9.501   5.073  1.00  0.00     0.180 A 
ATOM      4  O   UNL     1     -42.136 -10.011   6.121  1.00  0.00    -0.452 OA
ATOM      5  C   UNL     1     -39.744  -8.729   6.556  1.00  0.00     0.239 A 
ATOM      6  C   UNL     1     -41.678  -9.933   7.365  1.00  0.00     0.146 A 
ATOM      7  O   UNL     1     -38.641  -8.145   6.730  1.00  0.00    -0.285 OA
ATOM      8  C   UNL     1     -40.448  -9.291   7.641  1.00  0.00     0.111 A 
ATOM      9  C   UNL     1     -42.425 -10.500   8.401  1.00  0.00     0.094 A 
ATOM     10  C   UNL     1     -39.986  -9.232   8.978  1.00  0.00     0.134 A 
ATOM     11  C   UNL     1     -41.965 -10.440   9.717  1.00  0.00     0.123 A 
ATOM     12  C   UNL     1     -40.750  -9.808  10.004  1.00  0.00     0.093 A 
BRANCH   3  13
ATOM     13  C   UNL     1     -42.095  -9.691   3.733  1.00  0.00     0.021 A 
ATOM     14  C   UNL     1     -43.482  -9.876   3.614  1.00  0.00     0.016 A 
ATOM     15  C   UNL     1     -44.064 -10.063   2.357  1.00  0.00     0.047 A 
ATOM     16  C   UNL     1     -43.269 -10.076   1.207  1.00  0.00     0.115 A 
ATOM     17  C   UNL     1     -41.296  -9.733   2.576  1.00  0.00     0.016 A 
ATOM     18  C   UNL     1     -41.883  -9.914   1.320  1.00  0.00     0.047 A 
BRANCH  16  19
ATOM     19  O   UNL     1     -43.866 -10.251  -0.039  1.00  0.00    -0.508 OA
ATOM     20  H   UNL     1     -44.351 -11.107  -0.278  1.00  0.00     0.293 HD
ENDBRANCH  16  19
ENDBRANCH   3  13
BRANCH  10  21
ATOM     21  O   UNL     1     -38.780  -8.606   9.294  1.00  0.00    -0.507 OA
ATOM     22  H   UNL     1     -38.500  -8.442  10.254  1.00  0.00     0.293 HD
ENDBRANCH  10  21
BRANCH  11  23
ATOM     23  O   UNL     1     -42.725 -11.012  10.735  1.00  0.00    -0.508 OA
ATOM     24  H   UNL     1     -42.370 -11.780  11.293  1.00  0.00     0.293 HD
ENDBRANCH  11  23
ENDBRANCH   1   2
BRANCH   1  25
ATOM     25  C   UNL     1     -39.659  -6.756   4.029  1.00  0.00     0.339 C 
ATOM     26  C   UNL     1     -39.652  -6.365   2.533  1.00  0.00     0.214 C 
ATOM     27  O   UNL     1     -38.608  -6.129   4.749  1.00  0.00    -0.332 OA
ATOM     28  C   UNL     1     -38.267  -6.572   1.882  1.00  0.00     0.180 C 
ATOM     29  C   UNL     1     -37.331  -6.510   4.256  1.00  0.00     0.179 C 
ATOM     30  C   UNL     1     -37.143  -6.032   2.793  1.00  0.00     0.177 C 
BRANCH  26  31
ATOM     31  O   UNL     1     -40.026  -5.014   2.426  1.00  0.00    -0.384 OA
ATOM     32  H   UNL     1     -39.837  -4.733   1.492  1.00  0.00     0.211 HD
ENDBRANCH  26  31
BRANCH  28  33
ATOM     33  O   UNL     1     -38.068  -7.919   1.517  1.00  0.00    -0.387 OA
ATOM     34  H   UNL     1     -38.943  -8.383   1.528  1.00  0.00     0.211 HD
ENDBRANCH  28  33
BRANCH  29  35
ATOM     35  C   UNL     1     -36.257  -5.924   5.185  1.00  0.00     0.191 C 
BRANCH  35  36
ATOM     36  O   UNL     1     -35.875  -4.640   4.765  1.00  0.00    -0.394 OA
ATOM     37  H   UNL     1     -34.936  -4.706   4.452  1.00  0.00     0.210 HD
ENDBRANCH  35  36
ENDBRANCH  29  35
BRANCH  30  38
ATOM     38  O   UNL     1     -35.875  -6.371   2.283  1.00  0.00    -0.387 OA
ATOM     39  H   UNL     1     -35.936  -6.373   1.293  1.00  0.00     0.211 HD
ENDBRANCH  30  38
ENDBRANCH   1  25
TORSDOF 11
ENDMDL
MODEL 5
REMARK VINA RESULT:    -5.766      2.826      7.417
REMARK INTER + INTRA:          -9.692
REMARK INTER:                  -9.686
REMARK INTRA:                  -0.006
REMARK UNBOUND:                -1.398
REMARK SMILES O=c1c(O[C@H]2O[C@H](CO)[C@@H](O)[C@@H](O)[C@@H]2O)c(-c2ccc(O)cc2)oc2cc(O)cc(O)c12
REMARK SMILES IDX 4 1 3 2 16 3 24 4 2 5 25 6 1 7 32 8 26 9 30 10 27 11 29 12
REMARK SMILES IDX 17 13 18 14 19 15 20 16 23 17 22 18 21 19 31 21 28 23 5 25
REMARK SMILES IDX 14 26 6 27 12 28 7 29 10 30 15 31 13 33 8 35 9 36 11 38
REMARK H PARENT 21 20 31 22 28 24 15 32 13 34 9 37 11 39
REMARK Flexibility Score: inf
ROOT
ATOM      1  O   UNL     1     -46.013 -10.557  13.865  1.00  0.00    -0.454 OA
ENDROOT
BRANCH   1   2
ATOM      2  C   UNL     1     -45.091 -10.528  12.810  1.00  0.00     0.214 A 
ATOM      3  C   UNL     1     -45.171 -11.443  11.739  1.00  0.00     0.180 A 
ATOM      4  O   UNL     1     -44.228 -11.443  10.802  1.00  0.00    -0.452 OA
ATOM      5  C   UNL     1     -44.051  -9.591  12.825  1.00  0.00     0.239 A 
ATOM      6  C   UNL     1     -43.207 -10.594  10.794  1.00  0.00     0.146 A 
ATOM      7  O   UNL     1     -43.996  -8.746  13.757  1.00  0.00    -0.285 OA
ATOM      8  C   UNL     1     -43.075  -9.616  11.808  1.00  0.00     0.111 A 
ATOM      9  C   UNL     1     -42.265 -10.674   9.765  1.00  0.00     0.094 A 
ATOM     10  C   UNL     1     -41.979  -8.722  11.765  1.00  0.00     0.134 A 
ATOM     11  C   UNL     1     -41.186  -9.790   9.726  1.00  0.00     0.123 A 
ATOM     12  C   UNL     1     -41.043  -8.818  10.723  1.00  0.00     0.093 A 
BRANCH   3  13
ATOM     13  C   UNL     1     -46.278 -12.417  11.610  1.00  0.00     0.021 A 
ATOM     14  C   UNL     1     -47.513 -11.998  11.090  1.00  0.00     0.016 A 
ATOM     15  C   UNL     1     -48.572 -12.904  10.968  1.00  0.00     0.047 A 
ATOM     16  C   UNL     1     -48.412 -14.233  11.371  1.00  0.00     0.115 A 
ATOM     17  C   UNL     1     -46.133 -13.748  12.042  1.00  0.00     0.016 A 
ATOM     18  C   UNL     1     -47.191 -14.652  11.913  1.00  0.00     0.047 A 
BRANCH  16  19
ATOM     19  O   UNL     1     -49.473 -15.125  11.231  1.00  0.00    -0.508 OA
ATOM     20  H   UNL     1     -50.179 -15.224  11.950  1.00  0.00     0.293 HD
ENDBRANCH  16  19
ENDBRANCH   3  13
BRANCH  10  21
ATOM     21  O   UNL     1     -41.809  -7.745  12.746  1.00  0.00    -0.507 OA
ATOM     22  H   UNL     1     -41.190  -6.954  12.611  1.00  0.00     0.293 HD
ENDBRANCH  10  21
BRANCH  11  23
ATOM     23  O   UNL     1     -40.258  -9.886   8.692  1.00  0.00    -0.508 OA
ATOM     24  H   UNL     1     -39.305 -10.187   8.861  1.00  0.00     0.293 HD
ENDBRANCH  11  23
ENDBRANCH   1   2
BRANCH   1  25
ATOM     25  C   UNL     1     -45.654 -10.162  15.192  1.00  0.00     0.339 C 
ATOM     26  C   UNL     1     -44.455 -10.979  15.725  1.00  0.00     0.214 C 
ATOM     27  O   UNL     1     -46.773 -10.226  16.064  1.00  0.00    -0.332 OA
ATOM     28  C   UNL     1     -44.852 -12.426  16.091  1.00  0.00     0.180 C 
ATOM     29  C   UNL     1     -47.249 -11.556  16.213  1.00  0.00     0.179 C 
ATOM     30  C   UNL     1     -46.176 -12.450  16.887  1.00  0.00     0.177 C 
BRANCH  26  31
ATOM     31  O   UNL     1     -43.944 -10.328  16.862  1.00  0.00    -0.384 OA
ATOM     32  H   UNL     1     -42.957 -10.442  16.843  1.00  0.00     0.211 HD
ENDBRANCH  26  31
BRANCH  28  33
ATOM     33  O   UNL     1     -44.891 -13.252  14.951  1.00  0.00    -0.387 OA
ATOM     34  H   UNL     1     -45.747 -13.098  14.477  1.00  0.00     0.211 HD
ENDBRANCH  28  33
BRANCH  29  35
ATOM     35  C   UNL     1     -48.548 -11.519  17.032  1.00  0.00     0.191 C 
BRANCH  35  36
ATOM     36  O   UNL     1     -49.399 -12.577  16.674  1.00  0.00    -0.394 OA
ATOM     37  H   UNL     1     -48.841 -13.396  16.634  1.00  0.00     0.210 HD
ENDBRANCH  35  36
ENDBRANCH  29  35
BRANCH  30  38
ATOM     38  O   UNL     1     -46.626 -13.771  17.074  1.00  0.00    -0.387 OA
ATOM     39  H   UNL     1     -47.000 -13.839  17.990  1.00  0.00     0.211 HD
ENDBRANCH  30  38
ENDBRANCH   1  25
TORSDOF 11
ENDMDL
MODEL 6
REMARK VINA RESULT:    -4.767      4.622      7.510
REMARK INTER + INTRA:          -8.255
REMARK INTER:                  -8.828
REMARK INTRA:                   0.574
REMARK UNBOUND:                -1.398
REMARK SMILES O=c1c(O[C@H]2O[C@H](CO)[C@@H](O)[C@@H](O)[C@@H]2O)c(-c2ccc(O)cc2)oc2cc(O)cc(O)c12
REMARK SMILES IDX 4 1 3 2 16 3 24 4 2 5 25 6 1 7 32 8 26 9 30 10 27 11 29 12
REMARK SMILES IDX 17 13 18 14 19 15 20 16 23 17 22 18 21 19 31 21 28 23 5 25
REMARK SMILES IDX 14 26 6 27 12 28 7 29 10 30 15 31 13 33 8 35 9 36 11 38
REMARK H PARENT 21 20 31 22 28 24 15 32 13 34 9 37 11 39
REMARK Flexibility Score: inf
ROOT
ATOM      1  O   UNL     1     -42.830  -7.703  11.837  1.00  0.00    -0.454 OA
ENDROOT
BRANCH   1   2
ATOM      2  C   UNL     1     -43.371  -8.990  11.733  1.00  0.00     0.214 A 
ATOM      3  C   UNL     1     -42.935  -9.894  10.742  1.00  0.00     0.180 A 
ATOM      4  O   UNL     1     -43.533 -11.075  10.617  1.00  0.00    -0.452 OA
ATOM      5  C   UNL     1     -44.385  -9.389  12.614  1.00  0.00     0.239 A 
ATOM      6  C   UNL     1     -44.520 -11.480  11.409  1.00  0.00     0.146 A 
ATOM      7  O   UNL     1     -44.752  -8.602  13.527  1.00  0.00    -0.285 OA
ATOM      8  C   UNL     1     -44.988 -10.653  12.457  1.00  0.00     0.111 A 
ATOM      9  C   UNL     1     -45.085 -12.740  11.198  1.00  0.00     0.094 A 
ATOM     10  C   UNL     1     -46.036 -11.119  13.286  1.00  0.00     0.134 A 
ATOM     11  C   UNL     1     -46.118 -13.196  12.019  1.00  0.00     0.123 A 
ATOM     12  C   UNL     1     -46.592 -12.387  13.059  1.00  0.00     0.093 A 
BRANCH   3  13
ATOM     13  C   UNL     1     -41.821  -9.579   9.819  1.00  0.00     0.021 A 
ATOM     14  C   UNL     1     -42.005  -9.728   8.435  1.00  0.00     0.016 A 
ATOM     15  C   UNL     1     -40.962  -9.442   7.549  1.00  0.00     0.047 A 
ATOM     16  C   UNL     1     -39.723  -9.012   8.034  1.00  0.00     0.115 A 
ATOM     17  C   UNL     1     -40.565  -9.174  10.303  1.00  0.00     0.016 A 
ATOM     18  C   UNL     1     -39.526  -8.882   9.414  1.00  0.00     0.047 A 
BRANCH  16  19
ATOM     19  O   UNL     1     -38.699  -8.718   7.137  1.00  0.00    -0.508 OA
ATOM     20  H   UNL     1     -38.797  -8.896   6.145  1.00  0.00     0.293 HD
ENDBRANCH  16  19
ENDBRANCH   3  13
BRANCH  10  21
ATOM     21  O   UNL     1     -46.531 -10.335  14.329  1.00  0.00    -0.507 OA
ATOM     22  H   UNL     1     -46.714 -10.722  15.247  1.00  0.00     0.293 HD
ENDBRANCH  10  21
BRANCH  11  23
ATOM     23  O   UNL     1     -46.669 -14.455  11.792  1.00  0.00    -0.508 OA
ATOM     24  H   UNL     1     -47.535 -14.570  11.278  1.00  0.00     0.293 HD
ENDBRANCH  11  23
ENDBRANCH   1   2
BRANCH   1  25
ATOM     25  C   UNL     1     -41.471  -7.484  12.225  1.00  0.00     0.339 C 
ATOM     26  C   UNL     1     -41.159  -8.127  13.596  1.00  0.00     0.214 C 
ATOM     27  O   UNL     1     -41.149  -6.101  12.198  1.00  0.00    -0.332 OA
ATOM     28  C   UNL     1     -41.788  -7.339  14.767  1.00  0.00     0.180 C 
ATOM     29  C   UNL     1     -41.905  -5.366  13.150  1.00  0.00     0.179 C 
ATOM     30  C   UNL     1     -41.562  -5.820  14.593  1.00  0.00     0.177 C 
BRANCH  26  31
ATOM     31  O   UNL     1     -39.763  -8.176  13.756  1.00  0.00    -0.384 OA
ATOM     32  H   UNL     1     -39.588  -8.482  14.685  1.00  0.00     0.211 HD
ENDBRANCH  26  31
BRANCH  28  33
ATOM     33  O   UNL     1     -43.147  -7.668  14.936  1.00  0.00    -0.387 OA
ATOM     34  H   UNL     1     -43.214  -8.630  15.164  1.00  0.00     0.211 HD
ENDBRANCH  28  33
BRANCH  29  35
ATOM     35  C   UNL     1     -41.621  -3.870  12.947  1.00  0.00     0.191 C 
BRANCH  35  36
ATOM     36  O   UNL     1     -40.829  -3.362  13.989  1.00  0.00    -0.394 OA
ATOM     37  H   UNL     1     -41.439  -3.165  14.746  1.00  0.00     0.210 HD
ENDBRANCH  35  36
ENDBRANCH  29  35
BRANCH  30  38
ATOM     38  O   UNL     1     -42.277  -5.092  15.563  1.00  0.00    -0.387 OA
ATOM     39  H   UNL     1     -43.159  -5.529  15.683  1.00  0.00     0.211 HD
ENDBRANCH  30  38
ENDBRANCH   1  25
TORSDOF 11
ENDMDL
MODEL 7
REMARK VINA RESULT:    -4.524     10.822     15.480
REMARK INTER + INTRA:          -7.906
REMARK INTER:                  -8.122
REMARK INTRA:                   0.216
REMARK UNBOUND:                -1.398
REMARK SMILES O=c1c(O[C@H]2O[C@H](CO)[C@@H](O)[C@@H](O)[C@@H]2O)c(-c2ccc(O)cc2)oc2cc(O)cc(O)c12
REMARK SMILES IDX 4 1 3 2 16 3 24 4 2 5 25 6 1 7 32 8 26 9 30 10 27 11 29 12
REMARK SMILES IDX 17 13 18 14 19 15 20 16 23 17 22 18 21 19 31 21 28 23 5 25
REMARK SMILES IDX 14 26 6 27 12 28 7 29 10 30 15 31 13 33 8 35 9 36 11 38
REMARK H PARENT 21 20 31 22 28 24 15 32 13 34 9 37 11 39
REMARK Flexibility Score: inf
ROOT
ATOM      1  O   UNL     1     -40.346  -7.142   3.737  1.00  0.00    -0.454 OA
ENDROOT
BRANCH   1   2
ATOM      2  C   UNL     1     -39.807  -5.893   4.069  1.00  0.00     0.214 A 
ATOM      3  C   UNL     1     -40.546  -4.945   4.807  1.00  0.00     0.180 A 
ATOM      4  O   UNL     1     -40.035  -3.737   5.028  1.00  0.00    -0.452 OA
ATOM      5  C   UNL     1     -38.515  -5.561   3.642  1.00  0.00     0.239 A 
ATOM      6  C   UNL     1     -38.828  -3.370   4.613  1.00  0.00     0.146 A 
ATOM      7  O   UNL     1     -37.833  -6.417   3.017  1.00  0.00    -0.285 OA
ATOM      8  C   UNL     1     -38.003  -4.274   3.904  1.00  0.00     0.111 A 
ATOM      9  C   UNL     1     -38.379  -2.077   4.894  1.00  0.00     0.094 A 
ATOM     10  C   UNL     1     -36.719  -3.851   3.483  1.00  0.00     0.134 A 
ATOM     11  C   UNL     1     -37.112  -1.664   4.478  1.00  0.00     0.123 A 
ATOM     12  C   UNL     1     -36.286  -2.549   3.774  1.00  0.00     0.093 A 
BRANCH   3  13
ATOM     13  C   UNL     1     -41.888  -5.242   5.356  1.00  0.00     0.021 A 
ATOM     14  C   UNL     1     -42.511  -4.312   6.204  1.00  0.00     0.016 A 
ATOM     15  C   UNL     1     -43.776  -4.578   6.737  1.00  0.00     0.047 A 
ATOM     16  C   UNL     1     -44.428  -5.778   6.438  1.00  0.00     0.115 A 
ATOM     17  C   UNL     1     -42.536  -6.460   5.082  1.00  0.00     0.016 A 
ATOM     18  C   UNL     1     -43.803  -6.720   5.612  1.00  0.00     0.047 A 
BRANCH  16  19
ATOM     19  O   UNL     1     -45.693  -6.023   6.967  1.00  0.00    -0.508 OA
ATOM     20  H   UNL     1     -46.494  -6.191   6.370  1.00  0.00     0.293 HD
ENDBRANCH  16  19
ENDBRANCH   3  13
BRANCH  10  21
ATOM     21  O   UNL     1     -35.875  -4.709   2.778  1.00  0.00    -0.507 OA
ATOM     22  H   UNL     1     -34.985  -4.397   2.408  1.00  0.00     0.293 HD
ENDBRANCH  10  21
BRANCH  11  23
ATOM     23  O   UNL     1     -36.683  -0.371   4.767  1.00  0.00    -0.508 OA
ATOM     24  H   UNL     1     -36.852   0.399   4.130  1.00  0.00     0.293 HD
ENDBRANCH  11  23
ENDBRANCH   1   2
BRANCH   1  25
ATOM     25  C   UNL     1     -39.633  -8.359   3.972  1.00  0.00     0.339 C 
ATOM     26  C   UNL     1     -40.304  -9.558   3.263  1.00  0.00     0.214 C 
ATOM     27  O   UNL     1     -39.461  -8.589   5.363  1.00  0.00    -0.332 OA
ATOM     28  C   UNL     1     -41.607  -9.998   3.967  1.00  0.00     0.180 C 
ATOM     29  C   UNL     1     -40.705  -8.781   6.023  1.00  0.00     0.179 C 
ATOM     30  C   UNL     1     -41.412 -10.058   5.499  1.00  0.00     0.177 C 
BRANCH  26  31
ATOM     31  O   UNL     1     -39.393 -10.630   3.245  1.00  0.00    -0.384 OA
ATOM     32  H   UNL     1     -39.550 -11.158   4.072  1.00  0.00     0.211 HD
ENDBRANCH  26  31
BRANCH  28  33
ATOM     33  O   UNL     1     -42.694  -9.184   3.591  1.00  0.00    -0.387 OA
ATOM     34  H   UNL     1     -42.814  -9.250   2.610  1.00  0.00     0.211 HD
ENDBRANCH  28  33
BRANCH  29  35
ATOM     35  C   UNL     1     -40.446  -8.859   7.535  1.00  0.00     0.191 C 
BRANCH  35  36
ATOM     36  O   UNL     1     -40.654 -10.161   8.015  1.00  0.00    -0.394 OA
ATOM     37  H   UNL     1     -41.537 -10.165   8.467  1.00  0.00     0.210 HD
ENDBRANCH  35  36
ENDBRANCH  29  35
BRANCH  30  38
ATOM     38  O   UNL     1     -42.638 -10.291   6.152  1.00  0.00    -0.387 OA
ATOM     39  H   UNL     1     -42.623 -11.218   6.506  1.00  0.00     0.211 HD
ENDBRANCH  30  38
ENDBRANCH   1  25
TORSDOF 11
ENDMDL
MODEL 8
REMARK VINA RESULT:    -4.343     12.798     16.673
REMARK INTER + INTRA:          -7.645
REMARK INTER:                  -7.804
REMARK INTRA:                   0.159
REMARK UNBOUND:                -1.398
REMARK SMILES O=c1c(O[C@H]2O[C@H](CO)[C@@H](O)[C@@H](O)[C@@H]2O)c(-c2ccc(O)cc2)oc2cc(O)cc(O)c12
REMARK SMILES IDX 4 1 3 2 16 3 24 4 2 5 25 6 1 7 32 8 26 9 30 10 27 11 29 12
REMARK SMILES IDX 17 13 18 14 19 15 20 16 23 17 22 18 21 19 31 21 28 23 5 25
REMARK SMILES IDX 14 26 6 27 12 28 7 29 10 30 15 31 13 33 8 35 9 36 11 38
REMARK H PARENT 21 20 31 22 28 24 15 32 13 34 9 37 11 39
REMARK Flexibility Score: inf
ROOT
ATOM      1  O   UNL     1     -36.595  -5.237   3.632  1.00  0.00    -0.454 OA
ENDROOT
BRANCH   1   2
ATOM      2  C   UNL     1     -37.573  -6.185   3.305  1.00  0.00     0.214 A 
ATOM      3  C   UNL     1     -38.038  -6.335   1.982  1.00  0.00     0.180 A 
ATOM      4  O   UNL     1     -39.031  -7.182   1.725  1.00  0.00    -0.452 OA
ATOM      5  C   UNL     1     -38.124  -6.987   4.312  1.00  0.00     0.239 A 
ATOM      6  C   UNL     1     -39.604  -7.939   2.654  1.00  0.00     0.146 A 
ATOM      7  O   UNL     1     -37.685  -6.887   5.489  1.00  0.00    -0.285 OA
ATOM      8  C   UNL     1     -39.168  -7.881   3.999  1.00  0.00     0.111 A 
ATOM      9  C   UNL     1     -40.641  -8.799   2.285  1.00  0.00     0.094 A 
ATOM     10  C   UNL     1     -39.796  -8.706   4.962  1.00  0.00     0.134 A 
ATOM     11  C   UNL     1     -41.257  -9.611   3.238  1.00  0.00     0.123 A 
ATOM     12  C   UNL     1     -40.835  -9.564   4.572  1.00  0.00     0.093 A 
BRANCH   3  13
ATOM     13  C   UNL     1     -37.461  -5.579   0.849  1.00  0.00     0.021 A 
ATOM     14  C   UNL     1     -37.893  -4.266   0.599  1.00  0.00     0.016 A 
ATOM     15  C   UNL     1     -37.363  -3.539  -0.471  1.00  0.00     0.047 A 
ATOM     16  C   UNL     1     -36.403  -4.116  -1.308  1.00  0.00     0.115 A 
ATOM     17  C   UNL     1     -36.516  -6.164  -0.014  1.00  0.00     0.016 A 
ATOM     18  C   UNL     1     -35.984  -5.432  -1.079  1.00  0.00     0.047 A 
BRANCH  16  19
ATOM     19  O   UNL     1     -35.876  -3.373  -2.362  1.00  0.00    -0.508 OA
ATOM     20  H   UNL     1     -36.254  -2.468  -2.614  1.00  0.00     0.293 HD
ENDBRANCH  16  19
ENDBRANCH   3  13
BRANCH  10  21
ATOM     21  O   UNL     1     -39.399  -8.679   6.300  1.00  0.00    -0.507 OA
ATOM     22  H   UNL     1     -38.773  -9.377   6.685  1.00  0.00     0.293 HD
ENDBRANCH  10  21
BRANCH  11  23
ATOM     23  O   UNL     1     -42.289 -10.462   2.850  1.00  0.00    -0.508 OA
ATOM     24  H   UNL     1     -42.241 -10.994   1.989  1.00  0.00     0.293 HD
ENDBRANCH  11  23
ENDBRANCH   1   2
BRANCH   1  25
ATOM     25  C   UNL     1     -36.807  -3.836   3.440  1.00  0.00     0.339 C 
ATOM     26  C   UNL     1     -35.882  -2.991   4.344  1.00  0.00     0.214 C 
ATOM     27  O   UNL     1     -38.176  -3.499   3.613  1.00  0.00    -0.332 OA
ATOM     28  C   UNL     1     -36.327  -3.019   5.823  1.00  0.00     0.180 C 
ATOM     29  C   UNL     1     -38.613  -3.739   4.944  1.00  0.00     0.179 C 
ATOM     30  C   UNL     1     -37.855  -2.826   5.943  1.00  0.00     0.177 C 
BRANCH  26  31
ATOM     31  O   UNL     1     -35.891  -1.665   3.874  1.00  0.00    -0.384 OA
ATOM     32  H   UNL     1     -36.791  -1.502   3.485  1.00  0.00     0.211 HD
ENDBRANCH  26  31
BRANCH  28  33
ATOM     33  O   UNL     1     -35.875  -4.184   6.473  1.00  0.00    -0.387 OA
ATOM     34  H   UNL     1     -35.092  -3.952   7.033  1.00  0.00     0.211 HD
ENDBRANCH  28  33
BRANCH  29  35
ATOM     35  C   UNL     1     -40.130  -3.507   5.007  1.00  0.00     0.191 C 
BRANCH  35  36
ATOM     36  O   UNL     1     -40.636  -3.144   3.749  1.00  0.00    -0.394 OA
ATOM     37  H   UNL     1     -40.224  -3.753   3.084  1.00  0.00     0.210 HD
ENDBRANCH  35  36
ENDBRANCH  29  35
BRANCH  30  38
ATOM     38  O   UNL     1     -38.284  -3.021   7.270  1.00  0.00    -0.387 OA
ATOM     39  H   UNL     1     -39.154  -3.497   7.242  1.00  0.00     0.211 HD
ENDBRANCH  30  38
ENDBRANCH   1  25
TORSDOF 11
ENDMDL
