MODEL 1
REMARK VINA RESULT:    -3.342      0.000      0.000
REMARK INTER + INTRA:          -2.218
REMARK INTER:                  -4.904
REMARK INTRA:                   2.686
REMARK UNBOUND:                 2.686
REMARK SMILES O=c1c(O[C@H]2O[C@@H](CO)[C@@H](O)[C@@H](O)[C@H]2O)c(-c2ccc(O)c(O)c2)oc2cc(O)cc(O)c12
REMARK SMILES IDX 4 1 3 2 16 3 25 4 2 5 26 6 1 7 33 8 27 9 31 10 28 11 30 12
REMARK SMILES IDX 17 13 18 14 19 15 20 16 24 17 22 18 21 19 23 21 32 23 29 25
REMARK SMILES IDX 5 27 14 28 6 29 12 30 7 31 10 32 15 33 13 35 8 37 9 38 11 40
REMARK H PARENT 21 20 23 22 32 24 29 26 15 34 13 36 9 39 11 41
REMARK Flexibility Score: inf
ROOT
ATOM      1  O   UNL     1      -4.183 -16.871  -5.688  1.00  0.00    -0.454 OA
ENDROOT
BRANCH   1   2
ATOM      2  C   UNL     1      -5.024 -17.264  -6.746  1.00  0.00     0.214 A 
ATOM      3  C   UNL     1      -6.355 -16.806  -6.883  1.00  0.00     0.180 A 
ATOM      4  O   UNL     1      -7.030 -17.071  -7.995  1.00  0.00    -0.452 OA
ATOM      5  C   UNL     1      -4.517 -18.139  -7.718  1.00  0.00     0.239 A 
ATOM      6  C   UNL     1      -6.558 -17.833  -8.974  1.00  0.00     0.146 A 
ATOM      7  O   UNL     1      -3.349 -18.585  -7.573  1.00  0.00    -0.285 OA
ATOM      8  C   UNL     1      -5.294 -18.465  -8.855  1.00  0.00     0.111 A 
ATOM      9  C   UNL     1      -7.336 -18.011 -10.120  1.00  0.00     0.094 A 
ATOM     10  C   UNL     1      -4.869 -19.339  -9.899  1.00  0.00     0.134 A 
ATOM     11  C   UNL     1      -6.876 -18.810 -11.169  1.00  0.00     0.123 A 
ATOM     12  C   UNL     1      -5.651 -19.465 -11.054  1.00  0.00     0.093 A 
BRANCH   3  13
ATOM     13  C   UNL     1      -7.064 -16.075  -5.815  1.00  0.00     0.025 A 
ATOM     14  C   UNL     1      -8.464 -16.051  -5.771  1.00  0.00     0.016 A 
ATOM     15  C   UNL     1      -9.125 -15.317  -4.786  1.00  0.00     0.051 A 
ATOM     16  C   UNL     1      -8.404 -14.598  -3.826  1.00  0.00     0.157 A 
ATOM     17  C   UNL     1      -6.334 -15.355  -4.856  1.00  0.00     0.062 A 
ATOM     18  C   UNL     1      -6.989 -14.625  -3.856  1.00  0.00     0.158 A 
BRANCH  16  19
ATOM     19  O   UNL     1      -9.125 -13.874  -2.875  1.00  0.00    -0.504 OA
ATOM     20  H   UNL     1      -9.926 -14.240  -2.374  1.00  0.00     0.293 HD
ENDBRANCH  16  19
BRANCH  18  21
ATOM     21  O   UNL     1      -6.201 -13.947  -2.922  1.00  0.00    -0.504 OA
ATOM     22  H   UNL     1      -6.575 -13.403  -2.159  1.00  0.00     0.293 HD
ENDBRANCH  18  21
ENDBRANCH   3  13
BRANCH  10  23
ATOM     23  O   UNL     1      -3.713 -20.119  -9.833  1.00  0.00    -0.507 OA
ATOM     24  H   UNL     1      -3.577 -20.876  -9.178  1.00  0.00     0.293 HD
ENDBRANCH  10  23
BRANCH  11  25
ATOM     25  O   UNL     1      -7.634 -18.965 -12.329  1.00  0.00    -0.508 OA
ATOM     26  H   UNL     1      -7.243 -19.390 -13.160  1.00  0.00     0.293 HD
ENDBRANCH  11  25
ENDBRANCH   1   2
BRANCH   1  27
ATOM     27  C   UNL     1      -4.577 -16.786  -4.309  1.00  0.00     0.339 C 
ATOM     28  C   UNL     1      -3.407 -16.462  -3.359  1.00  0.00     0.214 C 
ATOM     29  O   UNL     1      -5.291 -17.954  -3.925  1.00  0.00    -0.332 OA
ATOM     30  C   UNL     1      -2.438 -17.640  -3.240  1.00  0.00     0.180 C 
ATOM     31  C   UNL     1      -4.496 -19.122  -3.736  1.00  0.00     0.179 C 
ATOM     32  C   UNL     1      -3.216 -18.912  -2.878  1.00  0.00     0.177 C 
BRANCH  28  33
ATOM     33  O   UNL     1      -2.736 -15.306  -3.789  1.00  0.00    -0.384 OA
ATOM     34  H   UNL     1      -1.771 -15.536  -3.848  1.00  0.00     0.211 HD
ENDBRANCH  28  33
BRANCH  30  35
ATOM     35  O   UNL     1      -1.719 -17.815  -4.435  1.00  0.00    -0.387 OA
ATOM     36  H   UNL     1      -1.594 -16.918  -4.842  1.00  0.00     0.211 HD
ENDBRANCH  30  35
BRANCH  31  37
ATOM     37  C   UNL     1      -4.324 -19.952  -5.034  1.00  0.00     0.191 C 
BRANCH  37  38
ATOM     38  O   UNL     1      -2.982 -20.101  -5.410  1.00  0.00    -0.394 OA
ATOM     39  H   UNL     1      -2.428 -19.678  -4.703  1.00  0.00     0.210 HD
ENDBRANCH  37  38
ENDBRANCH  31  37
BRANCH  32  40
ATOM     40  O   UNL     1      -2.382 -20.043  -2.952  1.00  0.00    -0.387 OA
ATOM     41  H   UNL     1      -2.202 -20.206  -3.913  1.00  0.00     0.211 HD
ENDBRANCH  32  40
ENDBRANCH   1  27
TORSDOF 12
ENDMDL
MODEL 2
REMARK VINA RESULT:    -1.687      1.963      3.917
REMARK INTER + INTRA:           0.210
REMARK INTER:                  -3.277
REMARK INTRA:                   3.487
REMARK UNBOUND:                 2.686
REMARK SMILES O=c1c(O[C@H]2O[C@@H](CO)[C@@H](O)[C@@H](O)[C@H]2O)c(-c2ccc(O)c(O)c2)oc2cc(O)cc(O)c12
REMARK SMILES IDX 4 1 3 2 16 3 25 4 2 5 26 6 1 7 33 8 27 9 31 10 28 11 30 12
REMARK SMILES IDX 17 13 18 14 19 15 20 16 24 17 22 18 21 19 23 21 32 23 29 25
REMARK SMILES IDX 5 27 14 28 6 29 12 30 7 31 10 32 15 33 13 35 8 37 9 38 11 40
REMARK H PARENT 21 20 23 22 32 24 29 26 15 34 13 36 9 39 11 41
REMARK Flexibility Score: inf
ROOT
ATOM      1  O   UNL     1      -7.930 -17.264  -5.750  1.00  0.00    -0.454 OA
ENDROOT
BRANCH   1   2
ATOM      2  C   UNL     1      -7.184 -17.588  -6.899  1.00  0.00     0.214 A 
ATOM      3  C   UNL     1      -5.776 -17.480  -6.959  1.00  0.00     0.180 A 
ATOM      4  O   UNL     1      -5.123 -17.971  -8.006  1.00  0.00    -0.452 OA
ATOM      5  C   UNL     1      -7.866 -18.054  -8.033  1.00  0.00     0.239 A 
ATOM      6  C   UNL     1      -5.728 -18.490  -9.067  1.00  0.00     0.146 A 
ATOM      7  O   UNL     1      -9.124 -18.106  -7.997  1.00  0.00    -0.285 OA
ATOM      8  C   UNL     1      -7.142 -18.497  -9.165  1.00  0.00     0.111 A 
ATOM      9  C   UNL     1      -4.942 -19.017 -10.095  1.00  0.00     0.094 A 
ATOM     10  C   UNL     1      -7.740 -18.991 -10.362  1.00  0.00     0.134 A 
ATOM     11  C   UNL     1      -5.541 -19.567 -11.231  1.00  0.00     0.123 A 
ATOM     12  C   UNL     1      -6.929 -19.552 -11.356  1.00  0.00     0.093 A 
BRANCH   3  13
ATOM     13  C   UNL     1      -4.981 -16.793  -5.922  1.00  0.00     0.025 A 
ATOM     14  C   UNL     1      -5.274 -15.474  -5.553  1.00  0.00     0.016 A 
ATOM     15  C   UNL     1      -4.486 -14.817  -4.607  1.00  0.00     0.051 A 
ATOM     16  C   UNL     1      -3.396 -15.462  -4.013  1.00  0.00     0.157 A 
ATOM     17  C   UNL     1      -3.888 -17.447  -5.332  1.00  0.00     0.062 A 
ATOM     18  C   UNL     1      -3.098 -16.799  -4.372  1.00  0.00     0.158 A 
BRANCH  16  19
ATOM     19  O   UNL     1      -2.640 -14.745  -3.083  1.00  0.00    -0.504 OA
ATOM     20  H   UNL     1      -1.759 -15.069  -2.701  1.00  0.00     0.293 HD
ENDBRANCH  16  19
BRANCH  18  21
ATOM     21  O   UNL     1      -2.038 -17.514  -3.811  1.00  0.00    -0.504 OA
ATOM     22  H   UNL     1      -1.083 -17.448  -4.130  1.00  0.00     0.293 HD
ENDBRANCH  18  21
ENDBRANCH   3  13
BRANCH  10  23
ATOM     23  O   UNL     1      -9.109 -18.925 -10.629  1.00  0.00    -0.507 OA
ATOM     24  H   UNL     1      -9.828 -19.035  -9.927  1.00  0.00     0.293 HD
ENDBRANCH  10  23
BRANCH  11  25
ATOM     25  O   UNL     1      -4.763 -20.125 -12.244  1.00  0.00    -0.508 OA
ATOM     26  H   UNL     1      -4.506 -21.103 -12.232  1.00  0.00     0.293 HD
ENDBRANCH  11  25
ENDBRANCH   1   2
BRANCH   1  27
ATOM     27  C   UNL     1      -8.796 -18.170  -5.046  1.00  0.00     0.339 C 
ATOM     28  C   UNL     1      -8.812 -17.938  -3.522  1.00  0.00     0.214 C 
ATOM     29  O   UNL     1      -8.497 -19.514  -5.396  1.00  0.00    -0.332 OA
ATOM     30  C   UNL     1      -7.488 -18.353  -2.878  1.00  0.00     0.180 C 
ATOM     31  C   UNL     1      -7.304 -20.044  -4.824  1.00  0.00     0.179 C 
ATOM     32  C   UNL     1      -7.138 -19.787  -3.299  1.00  0.00     0.177 C 
BRANCH  28  33
ATOM     33  O   UNL     1      -9.106 -16.595  -3.236  1.00  0.00    -0.384 OA
ATOM     34  H   UNL     1     -10.086 -16.540  -3.078  1.00  0.00     0.211 HD
ENDBRANCH  28  33
BRANCH  30  35
ATOM     35  O   UNL     1      -6.461 -17.462  -3.232  1.00  0.00    -0.387 OA
ATOM     36  H   UNL     1      -6.371 -16.802  -2.496  1.00  0.00     0.211 HD
ENDBRANCH  30  35
BRANCH  31  37
ATOM     37  C   UNL     1      -6.050 -19.796  -5.701  1.00  0.00     0.191 C 
BRANCH  37  38
ATOM     38  O   UNL     1      -4.852 -20.045  -5.019  1.00  0.00    -0.394 OA
ATOM     39  H   UNL     1      -4.400 -19.171  -4.886  1.00  0.00     0.210 HD
ENDBRANCH  37  38
ENDBRANCH  31  37
BRANCH  32  40
ATOM     40  O   UNL     1      -5.838 -20.125  -2.880  1.00  0.00    -0.387 OA
ATOM     41  H   UNL     1      -5.689 -19.673  -2.010  1.00  0.00     0.211 HD
ENDBRANCH  32  40
ENDBRANCH   1  27
TORSDOF 12
ENDMDL
MODEL 3
REMARK VINA RESULT:    -1.256      2.233      4.693
REMARK INTER + INTRA:           0.842
REMARK INTER:                   1.997
REMARK INTRA:                  -1.154
REMARK UNBOUND:                 2.686
REMARK SMILES O=c1c(O[C@H]2O[C@@H](CO)[C@@H](O)[C@@H](O)[C@H]2O)c(-c2ccc(O)c(O)c2)oc2cc(O)cc(O)c12
REMARK SMILES IDX 4 1 3 2 16 3 25 4 2 5 26 6 1 7 33 8 27 9 31 10 28 11 30 12
REMARK SMILES IDX 17 13 18 14 19 15 20 16 24 17 22 18 21 19 23 21 32 23 29 25
REMARK SMILES IDX 5 27 14 28 6 29 12 30 7 31 10 32 15 33 13 35 8 37 9 38 11 40
REMARK H PARENT 21 20 23 22 32 24 29 26 15 34 13 36 9 39 11 41
REMARK Flexibility Score: inf
ROOT
ATOM      1  O   UNL     1      -6.419 -18.060  -6.729  1.00  0.00    -0.454 OA
ENDROOT
BRANCH   1   2
ATOM      2  C   UNL     1      -5.314 -18.203  -7.590  1.00  0.00     0.214 A 
ATOM      3  C   UNL     1      -4.015 -17.754  -7.255  1.00  0.00     0.180 A 
ATOM      4  O   UNL     1      -2.988 -18.081  -8.030  1.00  0.00    -0.452 OA
ATOM      5  C   UNL     1      -5.504 -18.831  -8.829  1.00  0.00     0.239 A 
ATOM      6  C   UNL     1      -3.115 -18.741  -9.174  1.00  0.00     0.146 A 
ATOM      7  O   UNL     1      -6.668 -19.189  -9.147  1.00  0.00    -0.285 OA
ATOM      8  C   UNL     1      -4.396 -19.095  -9.668  1.00  0.00     0.111 A 
ATOM      9  C   UNL     1      -1.962 -19.070  -9.890  1.00  0.00     0.094 A 
ATOM     10  C   UNL     1      -4.483 -19.731 -10.942  1.00  0.00     0.134 A 
ATOM     11  C   UNL     1      -2.054 -19.760 -11.101  1.00  0.00     0.123 A 
ATOM     12  C   UNL     1      -3.308 -20.086 -11.617  1.00  0.00     0.093 A 
BRANCH   3  13
ATOM     13  C   UNL     1      -3.742 -16.885  -6.095  1.00  0.00     0.025 A 
ATOM     14  C   UNL     1      -4.246 -15.578  -6.045  1.00  0.00     0.016 A 
ATOM     15  C   UNL     1      -3.942 -14.748  -4.966  1.00  0.00     0.051 A 
ATOM     16  C   UNL     1      -3.134 -15.204  -3.919  1.00  0.00     0.157 A 
ATOM     17  C   UNL     1      -2.931 -17.349  -5.048  1.00  0.00     0.062 A 
ATOM     18  C   UNL     1      -2.630 -16.526  -3.954  1.00  0.00     0.158 A 
BRANCH  16  19
ATOM     19  O   UNL     1      -2.857 -14.318  -2.875  1.00  0.00    -0.504 OA
ATOM     20  H   UNL     1      -3.429 -13.512  -2.651  1.00  0.00     0.293 HD
ENDBRANCH  16  19
BRANCH  18  21
ATOM     21  O   UNL     1      -1.833 -17.058  -2.938  1.00  0.00    -0.504 OA
ATOM     22  H   UNL     1      -2.086 -17.866  -2.390  1.00  0.00     0.293 HD
ENDBRANCH  18  21
ENDBRANCH   3  13
BRANCH  10  23
ATOM     23  O   UNL     1      -5.688 -20.004 -11.591  1.00  0.00    -0.507 OA
ATOM     24  H   UNL     1      -5.933 -19.648 -12.505  1.00  0.00     0.293 HD
ENDBRANCH  10  23
BRANCH  11  25
ATOM     25  O   UNL     1      -0.906 -20.120 -11.803  1.00  0.00    -0.508 OA
ATOM     26  H   UNL     1      -0.640 -21.090 -11.915  1.00  0.00     0.293 HD
ENDBRANCH  11  25
ENDBRANCH   1   2
BRANCH   1  27
ATOM     27  C   UNL     1      -7.228 -19.142  -6.240  1.00  0.00     0.339 C 
ATOM     28  C   UNL     1      -8.740 -18.838  -6.275  1.00  0.00     0.214 C 
ATOM     29  O   UNL     1      -6.780 -19.556  -4.957  1.00  0.00    -0.332 OA
ATOM     30  C   UNL     1      -9.124 -17.786  -5.233  1.00  0.00     0.180 C 
ATOM     31  C   UNL     1      -7.112 -18.682  -3.881  1.00  0.00     0.179 C 
ATOM     32  C   UNL     1      -8.593 -18.207  -3.857  1.00  0.00     0.177 C 
BRANCH  28  33
ATOM     33  O   UNL     1      -9.124 -18.429  -7.563  1.00  0.00    -0.384 OA
ATOM     34  H   UNL     1      -9.187 -19.250  -8.120  1.00  0.00     0.211 HD
ENDBRANCH  28  33
BRANCH  30  35
ATOM     35  O   UNL     1      -8.629 -16.522  -5.597  1.00  0.00    -0.387 OA
ATOM     36  H   UNL     1      -9.217 -15.840  -5.178  1.00  0.00     0.211 HD
ENDBRANCH  30  35
BRANCH  31  37
ATOM     37  C   UNL     1      -6.038 -17.592  -3.634  1.00  0.00     0.191 C 
BRANCH  37  38
ATOM     38  O   UNL     1      -6.522 -16.294  -3.848  1.00  0.00    -0.394 OA
ATOM     39  H   UNL     1      -6.184 -15.726  -3.107  1.00  0.00     0.210 HD
ENDBRANCH  37  38
ENDBRANCH  31  37
BRANCH  32  40
ATOM     40  O   UNL     1      -8.763 -17.171  -2.920  1.00  0.00    -0.387 OA
ATOM     41  H   UNL     1      -7.954 -16.600  -2.972  1.00  0.00     0.211 HD
ENDBRANCH  32  40
ENDBRANCH   1  27
TORSDOF 12
ENDMDL
