MODEL 1
REMARK VINA RESULT:    -5.987      0.000      0.000
REMARK INTER + INTRA:          -7.352
REMARK INTER:                  -7.037
REMARK INTRA:                  -0.315
REMARK UNBOUND:                -0.315
REMARK SMILES O=c1cc(-c2ccc(O)c(O)c2)oc2cc(O)cc(O)c12
REMARK SMILES IDX 4 1 3 2 2 3 1 4 21 5 19 6 18 7 16 8 15 9 14 10 13 11 5 12
REMARK SMILES IDX 6 13 7 14 8 15 12 16 10 17 9 18 11 20 20 22 17 24
REMARK H PARENT 9 19 11 21 20 23 17 25
REMARK Flexibility Score: inf
ROOT
ATOM      1  C   UNL     1      25.948 -16.873   9.492  1.00  0.00     0.138 A 
ATOM      2  C   UNL     1      26.927 -16.052  10.067  1.00  0.00     0.100 A 
ATOM      3  C   UNL     1      28.012 -15.629   9.297  1.00  0.00     0.197 A 
ATOM      4  O   UNL     1      28.907 -14.944   9.857  1.00  0.00    -0.289 OA
ATOM      5  C   UNL     1      28.098 -16.006   7.935  1.00  0.00     0.107 A 
ATOM      6  C   UNL     1      29.136 -15.600   7.044  1.00  0.00     0.134 A 
ATOM      7  C   UNL     1      29.179 -16.130   5.749  1.00  0.00     0.093 A 
ATOM      8  C   UNL     1      28.190 -17.002   5.293  1.00  0.00     0.123 A 
ATOM      9  C   UNL     1      27.141 -17.363   6.139  1.00  0.00     0.094 A 
ATOM     10  C   UNL     1      27.089 -16.878   7.448  1.00  0.00     0.146 A 
ATOM     11  O   UNL     1      26.081 -17.258   8.226  1.00  0.00    -0.456 OA
ENDROOT
BRANCH   1  12
ATOM     12  C   UNL     1      24.774 -17.351  10.265  1.00  0.00     0.021 A 
ATOM     13  C   UNL     1      24.452 -16.734  11.484  1.00  0.00     0.016 A 
ATOM     14  C   UNL     1      23.357 -17.169  12.233  1.00  0.00     0.051 A 
ATOM     15  C   UNL     1      22.566 -18.234  11.789  1.00  0.00     0.157 A 
ATOM     16  C   UNL     1      23.987 -18.432   9.825  1.00  0.00     0.062 A 
ATOM     17  C   UNL     1      22.888 -18.877  10.571  1.00  0.00     0.158 A 
BRANCH  15  18
ATOM     18  O   UNL     1      21.482 -18.616  12.583  1.00  0.00    -0.504 OA
ATOM     19  H   UNL     1      20.543 -18.265  12.461  1.00  0.00     0.293 HD
ENDBRANCH  15  18
BRANCH  17  20
ATOM     20  O   UNL     1      22.156 -19.956  10.072  1.00  0.00    -0.504 OA
ATOM     21  H   UNL     1      21.756 -20.682  10.649  1.00  0.00     0.293 HD
ENDBRANCH  17  20
ENDBRANCH   1  12
BRANCH   6  22
ATOM     22  O   UNL     1      30.125 -14.669   7.370  1.00  0.00    -0.507 OA
ATOM     23  H   UNL     1      29.952 -13.758   7.767  1.00  0.00     0.293 HD
ENDBRANCH   6  22
BRANCH   8  24
ATOM     24  O   UNL     1      28.257 -17.498   3.993  1.00  0.00    -0.508 OA
ATOM     25  H   UNL     1      27.456 -17.934   3.549  1.00  0.00     0.293 HD
ENDBRANCH   8  24
TORSDOF 5
ENDMDL
MODEL 2
REMARK VINA RESULT:    -5.827     14.854     16.195
REMARK INTER + INTRA:          -7.164
REMARK INTER:                  -6.856
REMARK INTRA:                  -0.308
REMARK UNBOUND:                -0.315
REMARK SMILES O=c1cc(-c2ccc(O)c(O)c2)oc2cc(O)cc(O)c12
REMARK SMILES IDX 4 1 3 2 2 3 1 4 21 5 19 6 18 7 16 8 15 9 14 10 13 11 5 12
REMARK SMILES IDX 6 13 7 14 8 15 12 16 10 17 9 18 11 20 20 22 17 24
REMARK H PARENT 9 19 11 21 20 23 17 25
REMARK Flexibility Score: inf
ROOT
ATOM      1  C   UNL     1      13.964 -14.436  17.440  1.00  0.00     0.138 A 
ATOM      2  C   UNL     1      13.623 -15.294  16.385  1.00  0.00     0.100 A 
ATOM      3  C   UNL     1      12.901 -14.798  15.299  1.00  0.00     0.197 A 
ATOM      4  O   UNL     1      12.556 -15.605  14.397  1.00  0.00    -0.289 OA
ATOM      5  C   UNL     1      12.548 -13.428  15.255  1.00  0.00     0.107 A 
ATOM      6  C   UNL     1      11.849 -12.804  14.179  1.00  0.00     0.134 A 
ATOM      7  C   UNL     1      11.452 -11.467  14.299  1.00  0.00     0.093 A 
ATOM      8  C   UNL     1      11.779 -10.715  15.427  1.00  0.00     0.123 A 
ATOM      9  C   UNL     1      12.510 -11.301  16.461  1.00  0.00     0.094 A 
ATOM     10  C   UNL     1      12.891 -12.643  16.387  1.00  0.00     0.146 A 
ATOM     11  O   UNL     1      13.573 -13.167  17.400  1.00  0.00    -0.456 OA
ENDROOT
BRANCH   1  12
ATOM     12  C   UNL     1      14.732 -14.911  18.619  1.00  0.00     0.021 A 
ATOM     13  C   UNL     1      15.609 -15.998  18.480  1.00  0.00     0.016 A 
ATOM     14  C   UNL     1      16.337 -16.468  19.575  1.00  0.00     0.051 A 
ATOM     15  C   UNL     1      16.198 -15.873  20.833  1.00  0.00     0.157 A 
ATOM     16  C   UNL     1      14.580 -14.321  19.888  1.00  0.00     0.062 A 
ATOM     17  C   UNL     1      15.305 -14.788  20.993  1.00  0.00     0.158 A 
BRANCH  15  18
ATOM     18  O   UNL     1      16.959 -16.386  21.885  1.00  0.00    -0.504 OA
ATOM     19  H   UNL     1      17.657 -15.857  22.388  1.00  0.00     0.293 HD
ENDBRANCH  15  18
BRANCH  17  20
ATOM     20  O   UNL     1      15.101 -14.153  22.220  1.00  0.00    -0.504 OA
ATOM     21  H   UNL     1      15.722 -14.242  23.011  1.00  0.00     0.293 HD
ENDBRANCH  17  20
ENDBRANCH   1  12
BRANCH   6  22
ATOM     22  O   UNL     1      11.545 -13.439  12.972  1.00  0.00    -0.507 OA
ATOM     23  H   UNL     1      10.821 -14.130  12.849  1.00  0.00     0.293 HD
ENDBRANCH   6  22
BRANCH   8  24
ATOM     24  O   UNL     1      11.380  -9.383  15.505  1.00  0.00    -0.508 OA
ATOM     25  H   UNL     1      11.204  -8.933  16.397  1.00  0.00     0.293 HD
ENDBRANCH   8  24
TORSDOF 5
ENDMDL
MODEL 3
REMARK VINA RESULT:    -5.737     14.393     16.196
REMARK INTER + INTRA:          -7.058
REMARK INTER:                  -6.773
REMARK INTRA:                  -0.285
REMARK UNBOUND:                -0.315
REMARK SMILES O=c1cc(-c2ccc(O)c(O)c2)oc2cc(O)cc(O)c12
REMARK SMILES IDX 4 1 3 2 2 3 1 4 21 5 19 6 18 7 16 8 15 9 14 10 13 11 5 12
REMARK SMILES IDX 6 13 7 14 8 15 12 16 10 17 9 18 11 20 20 22 17 24
REMARK H PARENT 9 19 11 21 20 23 17 25
REMARK Flexibility Score: inf
ROOT
ATOM      1  C   UNL     1      13.754 -14.794  16.890  1.00  0.00     0.138 A 
ATOM      2  C   UNL     1      14.525 -15.962  16.809  1.00  0.00     0.100 A 
ATOM      3  C   UNL     1      15.262 -16.381  17.917  1.00  0.00     0.197 A 
ATOM      4  O   UNL     1      15.993 -17.398  17.795  1.00  0.00    -0.289 OA
ATOM      5  C   UNL     1      15.201 -15.642  19.123  1.00  0.00     0.107 A 
ATOM      6  C   UNL     1      15.877 -15.997  20.329  1.00  0.00     0.134 A 
ATOM      7  C   UNL     1      15.835 -15.127  21.424  1.00  0.00     0.093 A 
ATOM      8  C   UNL     1      15.094 -13.946  21.381  1.00  0.00     0.123 A 
ATOM      9  C   UNL     1      14.385 -13.616  20.225  1.00  0.00     0.094 A 
ATOM     10  C   UNL     1      14.435 -14.446  19.103  1.00  0.00     0.146 A 
ATOM     11  O   UNL     1      13.757 -14.088  18.017  1.00  0.00    -0.456 OA
ENDROOT
BRANCH   1  12
ATOM     12  C   UNL     1      12.951 -14.304  15.742  1.00  0.00     0.021 A 
ATOM     13  C   UNL     1      12.820 -12.922  15.530  1.00  0.00     0.016 A 
ATOM     14  C   UNL     1      12.064 -12.436  14.461  1.00  0.00     0.051 A 
ATOM     15  C   UNL     1      11.416 -13.315  13.588  1.00  0.00     0.157 A 
ATOM     16  C   UNL     1      12.286 -15.189  14.872  1.00  0.00     0.062 A 
ATOM     17  C   UNL     1      11.524 -14.709  13.798  1.00  0.00     0.158 A 
BRANCH  15  18
ATOM     18  O   UNL     1      10.681 -12.764  12.535  1.00  0.00    -0.504 OA
ATOM     19  H   UNL     1      11.087 -12.221  11.787  1.00  0.00     0.293 HD
ENDBRANCH  15  18
BRANCH  17  20
ATOM     20  O   UNL     1      10.891 -15.647  12.979  1.00  0.00    -0.504 OA
ATOM     21  H   UNL     1      11.277 -15.989  12.111  1.00  0.00     0.293 HD
ENDBRANCH  17  20
ENDBRANCH   1  12
BRANCH   6  22
ATOM     22  O   UNL     1      16.575 -17.194  20.509  1.00  0.00    -0.507 OA
ATOM     23  H   UNL     1      17.303 -17.340  21.190  1.00  0.00     0.293 HD
ENDBRANCH   6  22
BRANCH   8  24
ATOM     24  O   UNL     1      15.063 -13.112  22.495  1.00  0.00    -0.508 OA
ATOM     25  H   UNL     1      15.867 -12.555  22.764  1.00  0.00     0.293 HD
ENDBRANCH   8  24
TORSDOF 5
ENDMDL
MODEL 4
REMARK VINA RESULT:    -5.539     14.061     15.869
REMARK INTER + INTRA:          -6.825
REMARK INTER:                  -6.529
REMARK INTRA:                  -0.296
REMARK UNBOUND:                -0.315
REMARK SMILES O=c1cc(-c2ccc(O)c(O)c2)oc2cc(O)cc(O)c12
REMARK SMILES IDX 4 1 3 2 2 3 1 4 21 5 19 6 18 7 16 8 15 9 14 10 13 11 5 12
REMARK SMILES IDX 6 13 7 14 8 15 12 16 10 17 9 18 11 20 20 22 17 24
REMARK H PARENT 9 19 11 21 20 23 17 25
REMARK Flexibility Score: inf
ROOT
ATOM      1  C   UNL     1      13.611 -14.437  16.256  1.00  0.00     0.138 A 
ATOM      2  C   UNL     1      12.997 -15.352  15.390  1.00  0.00     0.100 A 
ATOM      3  C   UNL     1      12.065 -14.899  14.456  1.00  0.00     0.197 A 
ATOM      4  O   UNL     1      11.484 -15.751  13.735  1.00  0.00    -0.289 OA
ATOM      5  C   UNL     1      11.771 -13.517  14.369  1.00  0.00     0.107 A 
ATOM      6  C   UNL     1      10.870 -12.936  13.427  1.00  0.00     0.134 A 
ATOM      7  C   UNL     1      10.571 -11.571  13.511  1.00  0.00     0.093 A 
ATOM      8  C   UNL     1      11.184 -10.754  14.461  1.00  0.00     0.123 A 
ATOM      9  C   UNL     1      12.109 -11.302  15.352  1.00  0.00     0.094 A 
ATOM     10  C   UNL     1      12.402 -12.668  15.316  1.00  0.00     0.146 A 
ATOM     11  O   UNL     1      13.277 -13.152  16.191  1.00  0.00    -0.456 OA
ENDROOT
BRANCH   1  12
ATOM     12  C   UNL     1      14.610 -14.866  17.269  1.00  0.00     0.021 A 
ATOM     13  C   UNL     1      15.035 -13.954  18.248  1.00  0.00     0.016 A 
ATOM     14  C   UNL     1      15.978 -14.331  19.207  1.00  0.00     0.051 A 
ATOM     15  C   UNL     1      16.524 -15.618  19.203  1.00  0.00     0.157 A 
ATOM     16  C   UNL     1      15.170 -16.157  17.255  1.00  0.00     0.062 A 
ATOM     17  C   UNL     1      16.119 -16.542  18.212  1.00  0.00     0.158 A 
BRANCH  15  18
ATOM     18  O   UNL     1      17.459 -15.933  20.193  1.00  0.00    -0.504 OA
ATOM     19  H   UNL     1      18.060 -16.744  20.164  1.00  0.00     0.293 HD
ENDBRANCH  15  18
BRANCH  17  20
ATOM     20  O   UNL     1      16.633 -17.838  18.135  1.00  0.00    -0.504 OA
ATOM     21  H   UNL     1      17.245 -18.245  18.827  1.00  0.00     0.293 HD
ENDBRANCH  17  20
ENDBRANCH   1  12
BRANCH   6  22
ATOM     22  O   UNL     1      10.267 -13.644  12.384  1.00  0.00    -0.507 OA
ATOM     23  H   UNL     1       9.788 -13.224  11.603  1.00  0.00     0.293 HD
ENDBRANCH   6  22
BRANCH   8  24
ATOM     24  O   UNL     1      10.873  -9.398  14.506  1.00  0.00    -0.508 OA
ATOM     25  H   UNL     1      10.372  -8.994  15.290  1.00  0.00     0.293 HD
ENDBRANCH   8  24
TORSDOF 5
ENDMDL
MODEL 5
REMARK VINA RESULT:    -5.442     14.290     16.202
REMARK INTER + INTRA:          -6.711
REMARK INTER:                  -6.402
REMARK INTRA:                  -0.309
REMARK UNBOUND:                -0.315
REMARK SMILES O=c1cc(-c2ccc(O)c(O)c2)oc2cc(O)cc(O)c12
REMARK SMILES IDX 4 1 3 2 2 3 1 4 21 5 19 6 18 7 16 8 15 9 14 10 13 11 5 12
REMARK SMILES IDX 6 13 7 14 8 15 12 16 10 17 9 18 11 20 20 22 17 24
REMARK H PARENT 9 19 11 21 20 23 17 25
REMARK Flexibility Score: inf
ROOT
ATOM      1  C   UNL     1      13.195 -14.259  15.897  1.00  0.00     0.138 A 
ATOM      2  C   UNL     1      12.561 -15.185  15.057  1.00  0.00     0.100 A 
ATOM      3  C   UNL     1      11.647 -14.737  14.102  1.00  0.00     0.197 A 
ATOM      4  O   UNL     1      11.048 -15.596  13.405  1.00  0.00    -0.289 OA
ATOM      5  C   UNL     1      11.391 -13.351  13.969  1.00  0.00     0.107 A 
ATOM      6  C   UNL     1      10.511 -12.777  13.003  1.00  0.00     0.134 A 
ATOM      7  C   UNL     1      10.248 -11.402  13.042  1.00  0.00     0.093 A 
ATOM      8  C   UNL     1      10.878 -10.572  13.969  1.00  0.00     0.123 A 
ATOM      9  C   UNL     1      11.782 -11.116  14.883  1.00  0.00     0.094 A 
ATOM     10  C   UNL     1      12.039 -12.489  14.892  1.00  0.00     0.146 A 
ATOM     11  O   UNL     1      12.896 -12.969  15.788  1.00  0.00    -0.456 OA
ENDROOT
BRANCH   1  12
ATOM     12  C   UNL     1      14.175 -14.682  16.929  1.00  0.00     0.021 A 
ATOM     13  C   UNL     1      14.884 -15.882  16.758  1.00  0.00     0.016 A 
ATOM     14  C   UNL     1      15.807 -16.304  17.718  1.00  0.00     0.051 A 
ATOM     15  C   UNL     1      16.035 -15.546  18.870  1.00  0.00     0.157 A 
ATOM     16  C   UNL     1      14.394 -13.926  18.096  1.00  0.00     0.062 A 
ATOM     17  C   UNL     1      15.316 -14.343  19.065  1.00  0.00     0.158 A 
BRANCH  15  18
ATOM     18  O   UNL     1      16.976 -16.021  19.788  1.00  0.00    -0.504 OA
ATOM     19  H   UNL     1      16.747 -16.327  20.723  1.00  0.00     0.293 HD
ENDBRANCH  15  18
BRANCH  17  20
ATOM     20  O   UNL     1      15.479 -13.543  20.198  1.00  0.00    -0.504 OA
ATOM     21  H   UNL     1      16.119 -13.752  20.949  1.00  0.00     0.293 HD
ENDBRANCH  17  20
ENDBRANCH   1  12
BRANCH   6  22
ATOM     22  O   UNL     1       9.895 -13.501  11.980  1.00  0.00    -0.507 OA
ATOM     23  H   UNL     1       9.583 -13.112  11.104  1.00  0.00     0.293 HD
ENDBRANCH   6  22
BRANCH   8  24
ATOM     24  O   UNL     1      10.604  -9.207  13.968  1.00  0.00    -0.508 OA
ATOM     25  H   UNL     1      10.196  -8.748  13.161  1.00  0.00     0.293 HD
ENDBRANCH   8  24
TORSDOF 5
ENDMDL
MODEL 6
REMARK VINA RESULT:    -5.435     14.036     16.097
REMARK INTER + INTRA:          -6.702
REMARK INTER:                  -6.405
REMARK INTRA:                  -0.297
REMARK UNBOUND:                -0.315
REMARK SMILES O=c1cc(-c2ccc(O)c(O)c2)oc2cc(O)cc(O)c12
REMARK SMILES IDX 4 1 3 2 2 3 1 4 21 5 19 6 18 7 16 8 15 9 14 10 13 11 5 12
REMARK SMILES IDX 6 13 7 14 8 15 12 16 10 17 9 18 11 20 20 22 17 24
REMARK H PARENT 9 19 11 21 20 23 17 25
REMARK Flexibility Score: inf
ROOT
ATOM      1  C   UNL     1      13.185 -13.767  16.986  1.00  0.00     0.138 A 
ATOM      2  C   UNL     1      13.102 -13.184  18.258  1.00  0.00     0.100 A 
ATOM      3  C   UNL     1      13.848 -13.715  19.311  1.00  0.00     0.197 A 
ATOM      4  O   UNL     1      13.705 -13.210  20.454  1.00  0.00    -0.289 OA
ATOM      5  C   UNL     1      14.706 -14.817  19.079  1.00  0.00     0.107 A 
ATOM      6  C   UNL     1      15.544 -15.415  20.067  1.00  0.00     0.134 A 
ATOM      7  C   UNL     1      16.263 -16.574  19.750  1.00  0.00     0.093 A 
ATOM      8  C   UNL     1      16.222 -17.122  18.468  1.00  0.00     0.123 A 
ATOM      9  C   UNL     1      15.448 -16.513  17.479  1.00  0.00     0.094 A 
ATOM     10  C   UNL     1      14.692 -15.375  17.773  1.00  0.00     0.146 A 
ATOM     11  O   UNL     1      13.956 -14.835  16.807  1.00  0.00    -0.456 OA
ENDROOT
BRANCH   1  12
ATOM     12  C   UNL     1      12.413 -13.241  15.831  1.00  0.00     0.021 A 
ATOM     13  C   UNL     1      12.289 -11.854  15.658  1.00  0.00     0.016 A 
ATOM     14  C   UNL     1      11.562 -11.335  14.584  1.00  0.00     0.051 A 
ATOM     15  C   UNL     1      10.938 -12.186  13.667  1.00  0.00     0.157 A 
ATOM     16  C   UNL     1      11.773 -14.098  14.917  1.00  0.00     0.062 A 
ATOM     17  C   UNL     1      11.040 -13.586  13.838  1.00  0.00     0.158 A 
BRANCH  15  18
ATOM     18  O   UNL     1      10.232 -11.602  12.612  1.00  0.00    -0.504 OA
ATOM     19  H   UNL     1      10.622 -10.913  11.985  1.00  0.00     0.293 HD
ENDBRANCH  15  18
BRANCH  17  20
ATOM     20  O   UNL     1      10.430 -14.498  12.973  1.00  0.00    -0.504 OA
ATOM     21  H   UNL     1       9.989 -14.241  12.102  1.00  0.00     0.293 HD
ENDBRANCH  17  20
ENDBRANCH   1  12
BRANCH   6  22
ATOM     22  O   UNL     1      15.724 -14.901  21.353  1.00  0.00    -0.507 OA
ATOM     23  H   UNL     1      14.980 -14.669  21.991  1.00  0.00     0.293 HD
ENDBRANCH   6  22
BRANCH   8  24
ATOM     24  O   UNL     1      16.962 -18.267  18.185  1.00  0.00    -0.508 OA
ATOM     25  H   UNL     1      16.952 -18.692  17.264  1.00  0.00     0.293 HD
ENDBRANCH   8  24
TORSDOF 5
ENDMDL
MODEL 7
REMARK VINA RESULT:    -5.392     15.230     16.332
REMARK INTER + INTRA:          -6.652
REMARK INTER:                  -6.388
REMARK INTRA:                  -0.264
REMARK UNBOUND:                -0.315
REMARK SMILES O=c1cc(-c2ccc(O)c(O)c2)oc2cc(O)cc(O)c12
REMARK SMILES IDX 4 1 3 2 2 3 1 4 21 5 19 6 18 7 16 8 15 9 14 10 13 11 5 12
REMARK SMILES IDX 6 13 7 14 8 15 12 16 10 17 9 18 11 20 20 22 17 24
REMARK H PARENT 9 19 11 21 20 23 17 25
REMARK Flexibility Score: inf
ROOT
ATOM      1  C   UNL     1      13.929 -13.475  18.142  1.00  0.00     0.138 A 
ATOM      2  C   UNL     1      13.939 -12.077  18.238  1.00  0.00     0.100 A 
ATOM      3  C   UNL     1      13.296 -11.313  17.263  1.00  0.00     0.197 A 
ATOM      4  O   UNL     1      13.375 -10.060  17.342  1.00  0.00    -0.289 OA
ATOM      5  C   UNL     1      12.610 -11.957  16.205  1.00  0.00     0.107 A 
ATOM      6  C   UNL     1      11.884 -11.282  15.179  1.00  0.00     0.134 A 
ATOM      7  C   UNL     1      11.344 -12.019  14.118  1.00  0.00     0.093 A 
ATOM      8  C   UNL     1      11.450 -13.409  14.077  1.00  0.00     0.123 A 
ATOM      9  C   UNL     1      12.111 -14.083  15.104  1.00  0.00     0.094 A 
ATOM     10  C   UNL     1      12.691 -13.374  16.158  1.00  0.00     0.146 A 
ATOM     11  O   UNL     1      13.325 -14.053  17.109  1.00  0.00    -0.456 OA
ENDROOT
BRANCH   1  12
ATOM     12  C   UNL     1      14.597 -14.335  19.152  1.00  0.00     0.021 A 
ATOM     13  C   UNL     1      15.929 -14.730  18.950  1.00  0.00     0.016 A 
ATOM     14  C   UNL     1      16.578 -15.544  19.881  1.00  0.00     0.051 A 
ATOM     15  C   UNL     1      15.911 -15.989  21.026  1.00  0.00     0.157 A 
ATOM     16  C   UNL     1      13.921 -14.795  20.297  1.00  0.00     0.062 A 
ATOM     17  C   UNL     1      14.563 -15.614  21.236  1.00  0.00     0.158 A 
BRANCH  15  18
ATOM     18  O   UNL     1      16.619 -16.795  21.921  1.00  0.00    -0.504 OA
ATOM     19  H   UNL     1      16.802 -17.777  21.771  1.00  0.00     0.293 HD
ENDBRANCH  15  18
BRANCH  17  20
ATOM     20  O   UNL     1      13.828 -16.033  22.346  1.00  0.00    -0.504 OA
ATOM     21  H   UNL     1      13.890 -16.957  22.748  1.00  0.00     0.293 HD
ENDBRANCH  17  20
ENDBRANCH   1  12
BRANCH   6  22
ATOM     22  O   UNL     1      11.646  -9.905  15.167  1.00  0.00    -0.507 OA
ATOM     23  H   UNL     1      12.344  -9.197  15.331  1.00  0.00     0.293 HD
ENDBRANCH   6  22
BRANCH   8  24
ATOM     24  O   UNL     1      10.887 -14.110  13.013  1.00  0.00    -0.508 OA
ATOM     25  H   UNL     1      10.610 -13.643  12.157  1.00  0.00     0.293 HD
ENDBRANCH   8  24
TORSDOF 5
ENDMDL
MODEL 8
REMARK VINA RESULT:    -5.369     13.962     16.656
REMARK INTER + INTRA:          -6.626
REMARK INTER:                  -6.308
REMARK INTRA:                  -0.317
REMARK UNBOUND:                -0.315
REMARK SMILES O=c1cc(-c2ccc(O)c(O)c2)oc2cc(O)cc(O)c12
REMARK SMILES IDX 4 1 3 2 2 3 1 4 21 5 19 6 18 7 16 8 15 9 14 10 13 11 5 12
REMARK SMILES IDX 6 13 7 14 8 15 12 16 10 17 9 18 11 20 20 22 17 24
REMARK H PARENT 9 19 11 21 20 23 17 25
REMARK Flexibility Score: inf
ROOT
ATOM      1  C   UNL     1      14.566 -11.761  19.081  1.00  0.00     0.138 A 
ATOM      2  C   UNL     1      14.702 -11.968  20.461  1.00  0.00     0.100 A 
ATOM      3  C   UNL     1      15.152 -13.202  20.932  1.00  0.00     0.197 A 
ATOM      4  O   UNL     1      15.204 -13.379  22.177  1.00  0.00    -0.289 OA
ATOM      5  C   UNL     1      15.498 -14.222  20.014  1.00  0.00     0.107 A 
ATOM      6  C   UNL     1      16.007 -15.505  20.379  1.00  0.00     0.134 A 
ATOM      7  C   UNL     1      16.204 -16.475  19.389  1.00  0.00     0.093 A 
ATOM      8  C   UNL     1      15.969 -16.192  18.044  1.00  0.00     0.123 A 
ATOM      9  C   UNL     1      15.523 -14.923  17.671  1.00  0.00     0.094 A 
ATOM     10  C   UNL     1      15.284 -13.944  18.638  1.00  0.00     0.146 A 
ATOM     11  O   UNL     1      14.845 -12.754  18.243  1.00  0.00    -0.456 OA
ENDROOT
BRANCH   1  12
ATOM     12  C   UNL     1      14.092 -10.468  18.526  1.00  0.00     0.021 A 
ATOM     13  C   UNL     1      13.920  -9.370  19.384  1.00  0.00     0.016 A 
ATOM     14  C   UNL     1      13.469  -8.145  18.887  1.00  0.00     0.051 A 
ATOM     15  C   UNL     1      13.171  -7.991  17.530  1.00  0.00     0.157 A 
ATOM     16  C   UNL     1      13.779 -10.318  17.162  1.00  0.00     0.062 A 
ATOM     17  C   UNL     1      13.323  -9.093  16.656  1.00  0.00     0.158 A 
BRANCH  15  18
ATOM     18  O   UNL     1      12.730  -6.739  17.096  1.00  0.00    -0.504 OA
ATOM     19  H   UNL     1      11.827  -6.573  16.675  1.00  0.00     0.293 HD
ENDBRANCH  15  18
BRANCH  17  20
ATOM     20  O   UNL     1      13.030  -9.021  15.292  1.00  0.00    -0.504 OA
ATOM     21  H   UNL     1      13.563  -9.491  14.575  1.00  0.00     0.293 HD
ENDBRANCH  17  20
ENDBRANCH   1  12
BRANCH   6  22
ATOM     22  O   UNL     1      16.355 -15.864  21.683  1.00  0.00    -0.507 OA
ATOM     23  H   UNL     1      15.803 -16.453  22.287  1.00  0.00     0.293 HD
ENDBRANCH   6  22
BRANCH   8  24
ATOM     24  O   UNL     1      16.191 -17.177  17.085  1.00  0.00    -0.508 OA
ATOM     25  H   UNL     1      16.363 -18.142  17.345  1.00  0.00     0.293 HD
ENDBRANCH   8  24
TORSDOF 5
ENDMDL
MODEL 9
REMARK VINA RESULT:    -3.341      1.636      2.837
REMARK INTER + INTRA:          -4.242
REMARK INTER:                  -3.945
REMARK INTRA:                  -0.297
REMARK UNBOUND:                -0.315
REMARK SMILES O=c1cc(-c2ccc(O)c(O)c2)oc2cc(O)cc(O)c12
REMARK SMILES IDX 4 1 3 2 2 3 1 4 21 5 19 6 18 7 16 8 15 9 14 10 13 11 5 12
REMARK SMILES IDX 6 13 7 14 8 15 12 16 10 17 9 18 11 20 20 22 17 24
REMARK H PARENT 9 19 11 21 20 23 17 25
REMARK Flexibility Score: inf
ROOT
ATOM      1  C   UNL     1      25.725 -17.468   9.806  1.00  0.00     0.138 A 
ATOM      2  C   UNL     1      26.182 -18.320   8.791  1.00  0.00     0.100 A 
ATOM      3  C   UNL     1      27.389 -18.042   8.148  1.00  0.00     0.197 A 
ATOM      4  O   UNL     1      27.742 -18.789   7.199  1.00  0.00    -0.289 OA
ATOM      5  C   UNL     1      28.158 -16.922   8.548  1.00  0.00     0.107 A 
ATOM      6  C   UNL     1      29.423 -16.566   7.993  1.00  0.00     0.134 A 
ATOM      7  C   UNL     1      30.037 -15.371   8.387  1.00  0.00     0.093 A 
ATOM      8  C   UNL     1      29.463 -14.551   9.359  1.00  0.00     0.123 A 
ATOM      9  C   UNL     1      28.251 -14.918   9.947  1.00  0.00     0.094 A 
ATOM     10  C   UNL     1      27.597 -16.087   9.550  1.00  0.00     0.146 A 
ATOM     11  O   UNL     1      26.439 -16.393  10.125  1.00  0.00    -0.456 OA
ENDROOT
BRANCH   1  12
ATOM     12  C   UNL     1      24.448 -17.717  10.522  1.00  0.00     0.021 A 
ATOM     13  C   UNL     1      24.073 -16.872  11.578  1.00  0.00     0.016 A 
ATOM     14  C   UNL     1      22.881 -17.089  12.272  1.00  0.00     0.051 A 
ATOM     15  C   UNL     1      22.044 -18.157  11.936  1.00  0.00     0.157 A 
ATOM     16  C   UNL     1      23.614 -18.801  10.192  1.00  0.00     0.062 A 
ATOM     17  C   UNL     1      22.417 -19.028  10.885  1.00  0.00     0.158 A 
BRANCH  15  18
ATOM     18  O   UNL     1      20.862 -18.316  12.665  1.00  0.00    -0.504 OA
ATOM     19  H   UNL     1      20.827 -18.393  13.671  1.00  0.00     0.293 HD
ENDBRANCH  15  18
BRANCH  17  20
ATOM     20  O   UNL     1      21.641 -20.125  10.503  1.00  0.00    -0.504 OA
ATOM     21  H   UNL     1      20.880 -20.496  11.053  1.00  0.00     0.293 HD
ENDBRANCH  17  20
ENDBRANCH   1  12
BRANCH   6  22
ATOM     22  O   UNL     1      30.125 -17.356   7.079  1.00  0.00    -0.507 OA
ATOM     23  H   UNL     1      30.734 -17.001   6.358  1.00  0.00     0.293 HD
ENDBRANCH   6  22
BRANCH   8  24
ATOM     24  O   UNL     1      30.109 -13.377   9.737  1.00  0.00    -0.508 OA
ATOM     25  H   UNL     1      31.039 -13.152   9.402  1.00  0.00     0.293 HD
ENDBRANCH   8  24
TORSDOF 5
ENDMDL
