MODEL 1
REMARK VINA RESULT:    -5.066      0.000      0.000
REMARK INTER + INTRA:         -17.323
REMARK INTER:                 -13.358
REMARK INTRA:                  -3.965
REMARK UNBOUND:                -3.965
REMARK SMILES CCCCCCCCCCCCCCCCCCCCCCCCCCCCCC(=O)[O-]
REMARK SMILES IDX 16 1 17 2 18 3 19 4 20 5 21 6 22 7 23 8 24 9 25 10 26 11
REMARK SMILES IDX 27 12 28 13 29 14 30 15 31 16 32 17 15 18 14 19 13 20 12 21
REMARK SMILES IDX 11 22 10 23 9 24 8 25 7 26 6 27 5 28 4 29 3 30 2 31 1 32
REMARK H PARENT
REMARK Flexibility Score: inf
ROOT
ATOM      1  C   UNL     1      22.746 119.047 299.989  1.00  0.00     0.000 C 
ENDROOT
BRANCH   1   2
ATOM      2  C   UNL     1      22.165 120.400 299.528  1.00  0.00     0.000 C 
BRANCH   2   3
ATOM      3  C   UNL     1      22.241 121.477 300.626  1.00  0.00     0.000 C 
BRANCH   3   4
ATOM      4  C   UNL     1      23.686 121.939 300.916  1.00  0.00     0.000 C 
BRANCH   4   5
ATOM      5  C   UNL     1      24.117 121.754 302.383  1.00  0.00     0.000 C 
BRANCH   5   6
ATOM      6  C   UNL     1      24.905 120.455 302.617  1.00  0.00     0.000 C 
BRANCH   6   7
ATOM      7  C   UNL     1      26.429 120.658 302.565  1.00  0.00     0.000 C 
BRANCH   7   8
ATOM      8  C   UNL     1      27.007 120.521 301.146  1.00  0.00     0.000 C 
BRANCH   8   9
ATOM      9  C   UNL     1      26.350 119.376 300.354  1.00  0.00     0.000 C 
BRANCH   9  10
ATOM     10  C   UNL     1      27.300 118.774 299.304  1.00  0.00     0.000 C 
BRANCH  10  11
ATOM     11  C   UNL     1      26.905 119.155 297.866  1.00  0.00     0.000 C 
BRANCH  11  12
ATOM     12  C   UNL     1      25.842 120.278 297.792  1.00  0.00     0.000 C 
BRANCH  12  13
ATOM     13  C   UNL     1      24.836 120.097 296.641  1.00  0.00     0.006 C 
BRANCH  13  14
ATOM     14  C   UNL     1      25.340 119.180 295.518  1.00  0.00     0.053 C 
BRANCH  14  15
ATOM     15  C   UNL     1      25.010 119.729 294.164  1.00  0.00     0.041 C 
ATOM     16  O   UNL     1      23.923 119.430 293.604  1.00  0.00    -0.550 OA
ATOM     17  O   UNL     1      25.899 120.584 293.525  1.00  0.00    -0.550 OA
ENDBRANCH  14  15
ENDBRANCH  13  14
ENDBRANCH  12  13
ENDBRANCH  11  12
ENDBRANCH  10  11
ENDBRANCH   9  10
ENDBRANCH   8   9
ENDBRANCH   7   8
ENDBRANCH   6   7
ENDBRANCH   5   6
ENDBRANCH   4   5
ENDBRANCH   3   4
ENDBRANCH   2   3
ENDBRANCH   1   2
BRANCH   1  18
ATOM     18  C   UNL     1      22.899 118.009 298.864  1.00  0.00     0.000 C 
BRANCH  18  19
ATOM     19  C   UNL     1      21.601 117.777 298.072  1.00  0.00     0.000 C 
BRANCH  19  20
ATOM     20  C   UNL     1      21.856 117.258 296.649  1.00  0.00     0.000 C 
BRANCH  20  21
ATOM     21  C   UNL     1      21.224 118.149 295.566  1.00  0.00     0.000 C 
BRANCH  21  22
ATOM     22  C   UNL     1      21.265 119.645 295.944  1.00  0.00     0.000 C 
BRANCH  22  23
ATOM     23  C   UNL     1      19.884 120.248 296.258  1.00  0.00     0.000 C 
BRANCH  23  24
ATOM     24  C   UNL     1      19.123 120.691 295.000  1.00  0.00    -0.000 C 
BRANCH  24  25
ATOM     25  C   UNL     1      17.603 120.600 295.207  1.00  0.00    -0.000 C 
BRANCH  25  26
ATOM     26  C   UNL     1      16.921 119.651 294.204  1.00  0.00    -0.000 C 
BRANCH  26  27
ATOM     27  C   UNL     1      16.885 118.173 294.634  1.00  0.00    -0.000 C 
BRANCH  27  28
ATOM     28  C   UNL     1      17.840 117.248 293.859  1.00  0.00    -0.000 C 
BRANCH  28  29
ATOM     29  C   UNL     1      17.351 116.899 292.437  1.00  0.00    -0.000 C 
BRANCH  29  30
ATOM     30  C   UNL     1      18.457 116.262 291.576  1.00  0.00    -0.000 C 
BRANCH  30  31
ATOM     31  C   UNL     1      17.905 115.618 290.295  1.00  0.00    -0.003 C 
ATOM     32  C   UNL     1      17.164 114.309 290.566  1.00  0.00     0.004 C 
ENDBRANCH  30  31
ENDBRANCH  29  30
ENDBRANCH  28  29
ENDBRANCH  27  28
ENDBRANCH  26  27
ENDBRANCH  25  26
ENDBRANCH  24  25
ENDBRANCH  23  24
ENDBRANCH  22  23
ENDBRANCH  21  22
ENDBRANCH  20  21
ENDBRANCH  19  20
ENDBRANCH  18  19
ENDBRANCH   1  18
TORSDOF 28
ENDMDL
MODEL 2
REMARK VINA RESULT:    -4.987      2.563      4.610
REMARK INTER + INTRA:         -17.115
REMARK INTER:                 -13.665
REMARK INTRA:                  -3.450
REMARK UNBOUND:                -3.965
REMARK SMILES CCCCCCCCCCCCCCCCCCCCCCCCCCCCCC(=O)[O-]
REMARK SMILES IDX 16 1 17 2 18 3 19 4 20 5 21 6 22 7 23 8 24 9 25 10 26 11
REMARK SMILES IDX 27 12 28 13 29 14 30 15 31 16 32 17 15 18 14 19 13 20 12 21
REMARK SMILES IDX 11 22 10 23 9 24 8 25 7 26 6 27 5 28 4 29 3 30 2 31 1 32
REMARK H PARENT
REMARK Flexibility Score: inf
ROOT
ATOM      1  C   UNL     1      23.311 121.570 302.783  1.00  0.00     0.000 C 
ENDROOT
BRANCH   1   2
ATOM      2  C   UNL     1      24.519 121.475 301.828  1.00  0.00     0.000 C 
BRANCH   2   3
ATOM      3  C   UNL     1      25.065 120.040 301.712  1.00  0.00     0.000 C 
BRANCH   3   4
ATOM      4  C   UNL     1      24.847 119.424 300.312  1.00  0.00     0.000 C 
BRANCH   4   5
ATOM      5  C   UNL     1      24.918 120.447 299.164  1.00  0.00     0.000 C 
BRANCH   5   6
ATOM      6  C   UNL     1      25.397 119.829 297.839  1.00  0.00     0.000 C 
BRANCH   6   7
ATOM      7  C   UNL     1      24.532 120.242 296.636  1.00  0.00     0.000 C 
BRANCH   7   8
ATOM      8  C   UNL     1      24.939 119.535 295.331  1.00  0.00     0.000 C 
BRANCH   8   9
ATOM      9  C   UNL     1      23.912 118.477 294.893  1.00  0.00     0.000 C 
BRANCH   9  10
ATOM     10  C   UNL     1      23.805 118.367 293.362  1.00  0.00     0.000 C 
BRANCH  10  11
ATOM     11  C   UNL     1      24.963 119.078 292.639  1.00  0.00     0.000 C 
BRANCH  11  12
ATOM     12  C   UNL     1      25.444 118.344 291.365  1.00  0.00     0.000 C 
BRANCH  12  13
ATOM     13  C   UNL     1      24.333 118.134 290.320  1.00  0.00     0.006 C 
BRANCH  13  14
ATOM     14  C   UNL     1      24.656 118.736 288.945  1.00  0.00     0.053 C 
BRANCH  14  15
ATOM     15  C   UNL     1      23.441 118.808 288.072  1.00  0.00     0.041 C 
ATOM     16  O   UNL     1      22.722 117.790 287.898  1.00  0.00    -0.550 OA
ATOM     17  O   UNL     1      23.095 120.005 287.459  1.00  0.00    -0.550 OA
ENDBRANCH  14  15
ENDBRANCH  13  14
ENDBRANCH  12  13
ENDBRANCH  11  12
ENDBRANCH  10  11
ENDBRANCH   9  10
ENDBRANCH   8   9
ENDBRANCH   7   8
ENDBRANCH   6   7
ENDBRANCH   5   6
ENDBRANCH   4   5
ENDBRANCH   3   4
ENDBRANCH   2   3
ENDBRANCH   1   2
BRANCH   1  18
ATOM     18  C   UNL     1      21.996 121.031 302.194  1.00  0.00     0.000 C 
BRANCH  18  19
ATOM     19  C   UNL     1      21.655 121.634 300.820  1.00  0.00     0.000 C 
BRANCH  19  20
ATOM     20  C   UNL     1      21.309 120.567 299.771  1.00  0.00     0.000 C 
BRANCH  20  21
ATOM     21  C   UNL     1      21.209 119.152 300.368  1.00  0.00     0.000 C 
BRANCH  21  22
ATOM     22  C   UNL     1      21.256 118.056 299.281  1.00  0.00     0.000 C 
BRANCH  22  23
ATOM     23  C   UNL     1      21.700 118.568 297.898  1.00  0.00     0.000 C 
BRANCH  23  24
ATOM     24  C   UNL     1      20.667 118.292 296.797  1.00  0.00    -0.000 C 
BRANCH  24  25
ATOM     25  C   UNL     1      20.010 119.593 296.309  1.00  0.00    -0.000 C 
BRANCH  25  26
ATOM     26  C   UNL     1      19.730 119.587 294.795  1.00  0.00    -0.000 C 
BRANCH  26  27
ATOM     27  C   UNL     1      19.492 118.193 294.186  1.00  0.00    -0.000 C 
BRANCH  27  28
ATOM     28  C   UNL     1      18.062 117.649 294.348  1.00  0.00    -0.000 C 
BRANCH  28  29
ATOM     29  C   UNL     1      17.324 117.428 293.011  1.00  0.00    -0.000 C 
BRANCH  29  30
ATOM     30  C   UNL     1      18.077 116.462 292.078  1.00  0.00    -0.000 C 
BRANCH  30  31
ATOM     31  C   UNL     1      17.131 115.497 291.345  1.00  0.00    -0.003 C 
ATOM     32  C   UNL     1      17.834 114.710 290.241  1.00  0.00     0.004 C 
ENDBRANCH  30  31
ENDBRANCH  29  30
ENDBRANCH  28  29
ENDBRANCH  27  28
ENDBRANCH  26  27
ENDBRANCH  25  26
ENDBRANCH  24  25
ENDBRANCH  23  24
ENDBRANCH  22  23
ENDBRANCH  21  22
ENDBRANCH  20  21
ENDBRANCH  19  20
ENDBRANCH  18  19
ENDBRANCH   1  18
TORSDOF 28
ENDMDL
MODEL 3
REMARK VINA RESULT:    -4.906      1.556      2.440
REMARK INTER + INTRA:         -16.903
REMARK INTER:                 -13.429
REMARK INTRA:                  -3.474
REMARK UNBOUND:                -3.965
REMARK SMILES CCCCCCCCCCCCCCCCCCCCCCCCCCCCCC(=O)[O-]
REMARK SMILES IDX 16 1 17 2 18 3 19 4 20 5 21 6 22 7 23 8 24 9 25 10 26 11
REMARK SMILES IDX 27 12 28 13 29 14 30 15 31 16 32 17 15 18 14 19 13 20 12 21
REMARK SMILES IDX 11 22 10 23 9 24 8 25 7 26 6 27 5 28 4 29 3 30 2 31 1 32
REMARK H PARENT
REMARK Flexibility Score: inf
ROOT
ATOM      1  C   UNL     1      23.391 119.532 301.324  1.00  0.00     0.000 C 
ENDROOT
BRANCH   1   2
ATOM      2  C   UNL     1      23.677 120.978 300.867  1.00  0.00     0.000 C 
BRANCH   2   3
ATOM      3  C   UNL     1      24.260 121.847 301.998  1.00  0.00     0.000 C 
BRANCH   3   4
ATOM      4  C   UNL     1      24.749 121.016 303.204  1.00  0.00     0.000 C 
BRANCH   4   5
ATOM      5  C   UNL     1      26.282 120.916 303.310  1.00  0.00     0.000 C 
BRANCH   5   6
ATOM      6  C   UNL     1      26.828 119.556 302.844  1.00  0.00     0.000 C 
BRANCH   6   7
ATOM      7  C   UNL     1      27.313 119.572 301.384  1.00  0.00     0.000 C 
BRANCH   7   8
ATOM      8  C   UNL     1      27.340 118.173 300.743  1.00  0.00     0.000 C 
BRANCH   8   9
ATOM      9  C   UNL     1      27.220 118.229 299.210  1.00  0.00     0.000 C 
BRANCH   9  10
ATOM     10  C   UNL     1      25.911 118.895 298.752  1.00  0.00     0.000 C 
BRANCH  10  11
ATOM     11  C   UNL     1      26.151 120.256 298.072  1.00  0.00     0.000 C 
BRANCH  11  12
ATOM     12  C   UNL     1      26.670 120.140 296.619  1.00  0.00     0.000 C 
BRANCH  12  13
ATOM     13  C   UNL     1      25.763 119.294 295.707  1.00  0.00     0.006 C 
BRANCH  13  14
ATOM     14  C   UNL     1      25.443 119.963 294.363  1.00  0.00     0.053 C 
BRANCH  14  15
ATOM     15  C   UNL     1      25.858 121.403 294.347  1.00  0.00     0.041 C 
ATOM     16  O   UNL     1      26.798 121.786 293.603  1.00  0.00    -0.550 OA
ATOM     17  O   UNL     1      25.196 122.325 295.147  1.00  0.00    -0.550 OA
ENDBRANCH  14  15
ENDBRANCH  13  14
ENDBRANCH  12  13
ENDBRANCH  11  12
ENDBRANCH  10  11
ENDBRANCH   9  10
ENDBRANCH   8   9
ENDBRANCH   7   8
ENDBRANCH   6   7
ENDBRANCH   5   6
ENDBRANCH   4   5
ENDBRANCH   3   4
ENDBRANCH   2   3
ENDBRANCH   1   2
BRANCH   1  18
ATOM     18  C   UNL     1      21.895 119.190 301.436  1.00  0.00     0.000 C 
BRANCH  18  19
ATOM     19  C   UNL     1      21.350 118.443 300.206  1.00  0.00     0.000 C 
BRANCH  19  20
ATOM     20  C   UNL     1      20.561 119.356 299.257  1.00  0.00     0.000 C 
BRANCH  20  21
ATOM     21  C   UNL     1      21.431 119.943 298.131  1.00  0.00     0.000 C 
BRANCH  21  22
ATOM     22  C   UNL     1      22.388 118.893 297.527  1.00  0.00     0.000 C 
BRANCH  22  23
ATOM     23  C   UNL     1      21.755 118.040 296.413  1.00  0.00     0.000 C 
BRANCH  23  24
ATOM     24  C   UNL     1      21.277 116.667 296.906  1.00  0.00    -0.000 C 
BRANCH  24  25
ATOM     25  C   UNL     1      19.743 116.612 297.002  1.00  0.00    -0.000 C 
BRANCH  25  26
ATOM     26  C   UNL     1      19.052 117.665 296.116  1.00  0.00    -0.000 C 
BRANCH  26  27
ATOM     27  C   UNL     1      18.026 117.097 295.119  1.00  0.00    -0.000 C 
BRANCH  27  28
ATOM     28  C   UNL     1      18.055 117.739 293.721  1.00  0.00    -0.000 C 
BRANCH  28  29
ATOM     29  C   UNL     1      17.394 116.876 292.625  1.00  0.00    -0.000 C 
BRANCH  29  30
ATOM     30  C   UNL     1      18.425 116.262 291.661  1.00  0.00    -0.000 C 
BRANCH  30  31
ATOM     31  C   UNL     1      17.788 115.786 290.346  1.00  0.00    -0.003 C 
ATOM     32  C   UNL     1      17.220 114.370 290.446  1.00  0.00     0.004 C 
ENDBRANCH  30  31
ENDBRANCH  29  30
ENDBRANCH  28  29
ENDBRANCH  27  28
ENDBRANCH  26  27
ENDBRANCH  25  26
ENDBRANCH  24  25
ENDBRANCH  23  24
ENDBRANCH  22  23
ENDBRANCH  21  22
ENDBRANCH  20  21
ENDBRANCH  19  20
ENDBRANCH  18  19
ENDBRANCH   1  18
TORSDOF 28
ENDMDL
MODEL 4
REMARK VINA RESULT:    -4.898      1.609      2.686
REMARK INTER + INTRA:         -16.882
REMARK INTER:                 -12.603
REMARK INTRA:                  -4.279
REMARK UNBOUND:                -3.965
REMARK SMILES CCCCCCCCCCCCCCCCCCCCCCCCCCCCCC(=O)[O-]
REMARK SMILES IDX 16 1 17 2 18 3 19 4 20 5 21 6 22 7 23 8 24 9 25 10 26 11
REMARK SMILES IDX 27 12 28 13 29 14 30 15 31 16 32 17 15 18 14 19 13 20 12 21
REMARK SMILES IDX 11 22 10 23 9 24 8 25 7 26 6 27 5 28 4 29 3 30 2 31 1 32
REMARK H PARENT
REMARK Flexibility Score: inf
ROOT
ATOM      1  C   UNL     1      20.808 118.681 301.380  1.00  0.00     0.000 C 
ENDROOT
BRANCH   1   2
ATOM      2  C   UNL     1      21.818 118.409 300.246  1.00  0.00     0.000 C 
BRANCH   2   3
ATOM      3  C   UNL     1      23.186 119.066 300.507  1.00  0.00     0.000 C 
BRANCH   3   4
ATOM      4  C   UNL     1      23.363 120.404 299.756  1.00  0.00     0.000 C 
BRANCH   4   5
ATOM      5  C   UNL     1      23.273 121.645 300.664  1.00  0.00     0.000 C 
BRANCH   5   6
ATOM      6  C   UNL     1      24.625 122.029 301.289  1.00  0.00     0.000 C 
BRANCH   6   7
ATOM      7  C   UNL     1      24.756 121.584 302.756  1.00  0.00     0.000 C 
BRANCH   7   8
ATOM      8  C   UNL     1      26.014 120.736 303.018  1.00  0.00     0.000 C 
BRANCH   8   9
ATOM      9  C   UNL     1      26.818 120.469 301.734  1.00  0.00     0.000 C 
BRANCH   9  10
ATOM     10  C   UNL     1      26.901 118.969 301.399  1.00  0.00     0.000 C 
BRANCH  10  11
ATOM     11  C   UNL     1      27.163 118.714 299.904  1.00  0.00     0.000 C 
BRANCH  11  12
ATOM     12  C   UNL     1      26.872 119.940 299.005  1.00  0.00     0.000 C 
BRANCH  12  13
ATOM     13  C   UNL     1      26.602 119.573 297.534  1.00  0.00     0.006 C 
BRANCH  13  14
ATOM     14  C   UNL     1      25.515 120.434 296.874  1.00  0.00     0.053 C 
BRANCH  14  15
ATOM     15  C   UNL     1      26.031 121.139 295.657  1.00  0.00     0.041 C 
ATOM     16  O   UNL     1      27.172 121.671 295.666  1.00  0.00    -0.550 OA
ATOM     17  O   UNL     1      25.255 121.198 294.506  1.00  0.00    -0.550 OA
ENDBRANCH  14  15
ENDBRANCH  13  14
ENDBRANCH  12  13
ENDBRANCH  11  12
ENDBRANCH  10  11
ENDBRANCH   9  10
ENDBRANCH   8   9
ENDBRANCH   7   8
ENDBRANCH   6   7
ENDBRANCH   5   6
ENDBRANCH   4   5
ENDBRANCH   3   4
ENDBRANCH   2   3
ENDBRANCH   1   2
BRANCH   1  18
ATOM     18  C   UNL     1      19.481 119.300 300.909  1.00  0.00     0.000 C 
BRANCH  18  19
ATOM     19  C   UNL     1      19.470 120.837 300.978  1.00  0.00     0.000 C 
BRANCH  19  20
ATOM     20  C   UNL     1      19.786 121.495 299.627  1.00  0.00     0.000 C 
BRANCH  20  21
ATOM     21  C   UNL     1      18.671 121.290 298.586  1.00  0.00     0.000 C 
BRANCH  21  22
ATOM     22  C   UNL     1      19.234 120.959 297.187  1.00  0.00     0.000 C 
BRANCH  22  23
ATOM     23  C   UNL     1      20.614 120.277 297.215  1.00  0.00     0.000 C 
BRANCH  23  24
ATOM     24  C   UNL     1      20.617 118.900 296.537  1.00  0.00    -0.000 C 
BRANCH  24  25
ATOM     25  C   UNL     1      19.512 117.995 297.105  1.00  0.00    -0.000 C 
BRANCH  25  26
ATOM     26  C   UNL     1      18.325 117.825 296.139  1.00  0.00    -0.000 C 
BRANCH  26  27
ATOM     27  C   UNL     1      18.581 118.328 294.707  1.00  0.00    -0.000 C 
BRANCH  27  28
ATOM     28  C   UNL     1      17.411 118.121 293.728  1.00  0.00    -0.000 C 
BRANCH  28  29
ATOM     29  C   UNL     1      17.269 116.670 293.224  1.00  0.00    -0.000 C 
BRANCH  29  30
ATOM     30  C   UNL     1      18.143 116.389 291.989  1.00  0.00    -0.000 C 
BRANCH  30  31
ATOM     31  C   UNL     1      17.669 115.156 291.203  1.00  0.00    -0.003 C 
ATOM     32  C   UNL     1      17.374 115.470 289.736  1.00  0.00     0.004 C 
ENDBRANCH  30  31
ENDBRANCH  29  30
ENDBRANCH  28  29
ENDBRANCH  27  28
ENDBRANCH  26  27
ENDBRANCH  25  26
ENDBRANCH  24  25
ENDBRANCH  23  24
ENDBRANCH  22  23
ENDBRANCH  21  22
ENDBRANCH  20  21
ENDBRANCH  19  20
ENDBRANCH  18  19
ENDBRANCH   1  18
TORSDOF 28
ENDMDL
MODEL 5
REMARK VINA RESULT:    -4.793      2.442      4.992
REMARK INTER + INTRA:         -16.604
REMARK INTER:                 -11.939
REMARK INTRA:                  -4.665
REMARK UNBOUND:                -3.965
REMARK SMILES CCCCCCCCCCCCCCCCCCCCCCCCCCCCCC(=O)[O-]
REMARK SMILES IDX 16 1 17 2 18 3 19 4 20 5 21 6 22 7 23 8 24 9 25 10 26 11
REMARK SMILES IDX 27 12 28 13 29 14 30 15 31 16 32 17 15 18 14 19 13 20 12 21
REMARK SMILES IDX 11 22 10 23 9 24 8 25 7 26 6 27 5 28 4 29 3 30 2 31 1 32
REMARK H PARENT
REMARK Flexibility Score: inf
ROOT
ATOM      1  C   UNL     1      19.738 120.785 297.508  1.00  0.00     0.000 C 
ENDROOT
BRANCH   1   2
ATOM      2  C   UNL     1      20.889 119.949 298.106  1.00  0.00     0.000 C 
BRANCH   2   3
ATOM      3  C   UNL     1      20.379 118.768 298.952  1.00  0.00     0.000 C 
BRANCH   3   4
ATOM      4  C   UNL     1      20.769 117.394 298.364  1.00  0.00     0.000 C 
BRANCH   4   5
ATOM      5  C   UNL     1      21.020 117.415 296.845  1.00  0.00     0.000 C 
BRANCH   5   6
ATOM      6  C   UNL     1      22.301 116.668 296.439  1.00  0.00     0.000 C 
BRANCH   6   7
ATOM      7  C   UNL     1      23.090 117.386 295.329  1.00  0.00     0.000 C 
BRANCH   7   8
ATOM      8  C   UNL     1      22.798 118.896 295.265  1.00  0.00     0.000 C 
BRANCH   8   9
ATOM      9  C   UNL     1      23.740 119.633 294.297  1.00  0.00     0.000 C 
BRANCH   9  10
ATOM     10  C   UNL     1      25.222 119.439 294.664  1.00  0.00     0.000 C 
BRANCH  10  11
ATOM     11  C   UNL     1      25.872 120.733 295.188  1.00  0.00     0.000 C 
BRANCH  11  12
ATOM     12  C   UNL     1      25.751 120.912 296.720  1.00  0.00     0.000 C 
BRANCH  12  13
ATOM     13  C   UNL     1      25.736 119.583 297.496  1.00  0.00     0.006 C 
BRANCH  13  14
ATOM     14  C   UNL     1      24.582 119.468 298.501  1.00  0.00     0.053 C 
BRANCH  14  15
ATOM     15  C   UNL     1      25.035 119.753 299.901  1.00  0.00     0.041 C 
ATOM     16  O   UNL     1      24.368 119.335 300.883  1.00  0.00    -0.550 OA
ATOM     17  O   UNL     1      26.203 120.471 300.120  1.00  0.00    -0.550 OA
ENDBRANCH  14  15
ENDBRANCH  13  14
ENDBRANCH  12  13
ENDBRANCH  11  12
ENDBRANCH  10  11
ENDBRANCH   9  10
ENDBRANCH   8   9
ENDBRANCH   7   8
ENDBRANCH   6   7
ENDBRANCH   5   6
ENDBRANCH   4   5
ENDBRANCH   3   4
ENDBRANCH   2   3
ENDBRANCH   1   2
BRANCH   1  18
ATOM     18  C   UNL     1      19.731 120.842 295.971  1.00  0.00     0.000 C 
BRANCH  18  19
ATOM     19  C   UNL     1      18.673 121.804 295.404  1.00  0.00     0.000 C 
BRANCH  19  20
ATOM     20  C   UNL     1      17.926 121.222 294.195  1.00  0.00     0.000 C 
BRANCH  20  21
ATOM     21  C   UNL     1      16.718 122.075 293.770  1.00  0.00     0.000 C 
BRANCH  21  22
ATOM     22  C   UNL     1      15.626 121.234 293.074  1.00  0.00     0.000 C 
BRANCH  22  23
ATOM     23  C   UNL     1      15.395 119.855 293.719  1.00  0.00     0.000 C 
BRANCH  23  24
ATOM     24  C   UNL     1      14.468 119.912 294.941  1.00  0.00    -0.000 C 
BRANCH  24  25
ATOM     25  C   UNL     1      15.257 119.733 296.249  1.00  0.00    -0.000 C 
BRANCH  25  26
ATOM     26  C   UNL     1      15.761 118.292 296.447  1.00  0.00    -0.000 C 
BRANCH  26  27
ATOM     27  C   UNL     1      17.269 118.096 296.206  1.00  0.00    -0.000 C 
BRANCH  27  28
ATOM     28  C   UNL     1      17.629 116.955 295.239  1.00  0.00    -0.000 C 
BRANCH  28  29
ATOM     29  C   UNL     1      18.159 117.440 293.873  1.00  0.00    -0.000 C 
BRANCH  29  30
ATOM     30  C   UNL     1      17.321 116.909 292.696  1.00  0.00    -0.000 C 
BRANCH  30  31
ATOM     31  C   UNL     1      18.182 116.212 291.630  1.00  0.00    -0.003 C 
ATOM     32  C   UNL     1      17.456 115.049 290.955  1.00  0.00     0.004 C 
ENDBRANCH  30  31
ENDBRANCH  29  30
ENDBRANCH  28  29
ENDBRANCH  27  28
ENDBRANCH  26  27
ENDBRANCH  25  26
ENDBRANCH  24  25
ENDBRANCH  23  24
ENDBRANCH  22  23
ENDBRANCH  21  22
ENDBRANCH  20  21
ENDBRANCH  19  20
ENDBRANCH  18  19
ENDBRANCH   1  18
TORSDOF 28
ENDMDL
MODEL 6
REMARK VINA RESULT:    -4.769      2.653      4.659
REMARK INTER + INTRA:         -16.539
REMARK INTER:                 -12.318
REMARK INTRA:                  -4.221
REMARK UNBOUND:                -3.965
REMARK SMILES CCCCCCCCCCCCCCCCCCCCCCCCCCCCCC(=O)[O-]
REMARK SMILES IDX 16 1 17 2 18 3 19 4 20 5 21 6 22 7 23 8 24 9 25 10 26 11
REMARK SMILES IDX 27 12 28 13 29 14 30 15 31 16 32 17 15 18 14 19 13 20 12 21
REMARK SMILES IDX 11 22 10 23 9 24 8 25 7 26 6 27 5 28 4 29 3 30 2 31 1 32
REMARK H PARENT
REMARK Flexibility Score: inf
ROOT
ATOM      1  C   UNL     1      23.903 119.406 294.220  1.00  0.00     0.000 C 
ENDROOT
BRANCH   1   2
ATOM      2  C   UNL     1      25.319 119.999 294.376  1.00  0.00     0.000 C 
BRANCH   2   3
ATOM      3  C   UNL     1      25.316 121.331 295.149  1.00  0.00     0.000 C 
BRANCH   3   4
ATOM      4  C   UNL     1      25.490 121.143 296.672  1.00  0.00     0.000 C 
BRANCH   4   5
ATOM      5  C   UNL     1      26.514 120.058 297.053  1.00  0.00     0.000 C 
BRANCH   5   6
ATOM      6  C   UNL     1      25.958 119.035 298.057  1.00  0.00     0.000 C 
BRANCH   6   7
ATOM      7  C   UNL     1      26.680 119.072 299.415  1.00  0.00     0.000 C 
BRANCH   7   8
ATOM      8  C   UNL     1      26.610 120.449 300.097  1.00  0.00     0.000 C 
BRANCH   8   9
ATOM      9  C   UNL     1      25.164 120.886 300.390  1.00  0.00     0.000 C 
BRANCH   9  10
ATOM     10  C   UNL     1      24.730 120.540 301.825  1.00  0.00     0.000 C 
BRANCH  10  11
ATOM     11  C   UNL     1      23.627 119.467 301.862  1.00  0.00     0.000 C 
BRANCH  11  12
ATOM     12  C   UNL     1      22.224 120.005 301.490  1.00  0.00     0.000 C 
BRANCH  12  13
ATOM     13  C   UNL     1      22.053 121.511 301.757  1.00  0.00     0.006 C 
BRANCH  13  14
ATOM     14  C   UNL     1      21.364 122.267 300.611  1.00  0.00     0.053 C 
BRANCH  14  15
ATOM     15  C   UNL     1      19.877 122.305 300.787  1.00  0.00     0.041 C 
ATOM     16  O   UNL     1      19.120 122.381 299.785  1.00  0.00    -0.550 OA
ATOM     17  O   UNL     1      19.326 122.242 302.060  1.00  0.00    -0.550 OA
ENDBRANCH  14  15
ENDBRANCH  13  14
ENDBRANCH  12  13
ENDBRANCH  11  12
ENDBRANCH  10  11
ENDBRANCH   9  10
ENDBRANCH   8   9
ENDBRANCH   7   8
ENDBRANCH   6   7
ENDBRANCH   5   6
ENDBRANCH   4   5
ENDBRANCH   3   4
ENDBRANCH   2   3
ENDBRANCH   1   2
BRANCH   1  18
ATOM     18  C   UNL     1      23.664 118.120 295.030  1.00  0.00     0.000 C 
BRANCH  18  19
ATOM     19  C   UNL     1      22.174 117.831 295.283  1.00  0.00     0.000 C 
BRANCH  19  20
ATOM     20  C   UNL     1      21.896 117.356 296.717  1.00  0.00     0.000 C 
BRANCH  20  21
ATOM     21  C   UNL     1      22.680 118.153 297.774  1.00  0.00     0.000 C 
BRANCH  21  22
ATOM     22  C   UNL     1      22.169 119.604 297.907  1.00  0.00     0.000 C 
BRANCH  22  23
ATOM     23  C   UNL     1      20.642 119.716 298.059  1.00  0.00     0.000 C 
BRANCH  23  24
ATOM     24  C   UNL     1      19.993 120.587 296.974  1.00  0.00    -0.000 C 
BRANCH  24  25
ATOM     25  C   UNL     1      18.604 120.055 296.588  1.00  0.00    -0.000 C 
BRANCH  25  26
ATOM     26  C   UNL     1      18.665 118.941 295.527  1.00  0.00    -0.000 C 
BRANCH  26  27
ATOM     27  C   UNL     1      17.917 117.650 295.902  1.00  0.00    -0.000 C 
BRANCH  27  28
ATOM     28  C   UNL     1      17.438 116.806 294.706  1.00  0.00    -0.000 C 
BRANCH  28  29
ATOM     29  C   UNL     1      18.057 117.230 293.357  1.00  0.00    -0.000 C 
BRANCH  29  30
ATOM     30  C   UNL     1      17.314 116.622 292.154  1.00  0.00    -0.000 C 
BRANCH  30  31
ATOM     31  C   UNL     1      18.243 115.805 291.242  1.00  0.00    -0.003 C 
ATOM     32  C   UNL     1      17.543 114.600 290.616  1.00  0.00     0.004 C 
ENDBRANCH  30  31
ENDBRANCH  29  30
ENDBRANCH  28  29
ENDBRANCH  27  28
ENDBRANCH  26  27
ENDBRANCH  25  26
ENDBRANCH  24  25
ENDBRANCH  23  24
ENDBRANCH  22  23
ENDBRANCH  21  22
ENDBRANCH  20  21
ENDBRANCH  19  20
ENDBRANCH  18  19
ENDBRANCH   1  18
TORSDOF 28
ENDMDL
MODEL 7
REMARK VINA RESULT:    -4.730      3.505      5.940
REMARK INTER + INTRA:         -16.437
REMARK INTER:                 -11.426
REMARK INTRA:                  -5.011
REMARK UNBOUND:                -3.965
REMARK SMILES CCCCCCCCCCCCCCCCCCCCCCCCCCCCCC(=O)[O-]
REMARK SMILES IDX 16 1 17 2 18 3 19 4 20 5 21 6 22 7 23 8 24 9 25 10 26 11
REMARK SMILES IDX 27 12 28 13 29 14 30 15 31 16 32 17 15 18 14 19 13 20 12 21
REMARK SMILES IDX 11 22 10 23 9 24 8 25 7 26 6 27 5 28 4 29 3 30 2 31 1 32
REMARK H PARENT
REMARK Flexibility Score: inf
ROOT
ATOM      1  C   UNL     1      17.627 120.388 298.600  1.00  0.00     0.000 C 
ENDROOT
BRANCH   1   2
ATOM      2  C   UNL     1      16.171 120.585 298.127  1.00  0.00     0.000 C 
BRANCH   2   3
ATOM      3  C   UNL     1      15.567 121.912 298.622  1.00  0.00     0.000 C 
BRANCH   3   4
ATOM      4  C   UNL     1      15.998 122.270 300.061  1.00  0.00     0.000 C 
BRANCH   4   5
ATOM      5  C   UNL     1      16.777 123.594 300.168  1.00  0.00     0.000 C 
BRANCH   5   6
ATOM      6  C   UNL     1      18.238 123.397 300.603  1.00  0.00     0.000 C 
BRANCH   6   7
ATOM      7  C   UNL     1      18.477 123.749 302.082  1.00  0.00     0.000 C 
BRANCH   7   8
ATOM      8  C   UNL     1      18.722 122.511 302.963  1.00  0.00     0.000 C 
BRANCH   8   9
ATOM      9  C   UNL     1      18.776 121.210 302.144  1.00  0.00     0.000 C 
BRANCH   9  10
ATOM     10  C   UNL     1      20.168 120.555 302.181  1.00  0.00     0.000 C 
BRANCH  10  11
ATOM     11  C   UNL     1      20.662 120.146 300.781  1.00  0.00     0.000 C 
BRANCH  11  12
ATOM     12  C   UNL     1      21.293 121.310 299.980  1.00  0.00     0.000 C 
BRANCH  12  13
ATOM     13  C   UNL     1      22.189 122.228 300.831  1.00  0.00     0.006 C 
BRANCH  13  14
ATOM     14  C   UNL     1      23.674 121.838 300.805  1.00  0.00     0.053 C 
BRANCH  14  15
ATOM     15  C   UNL     1      24.205 121.585 302.183  1.00  0.00     0.041 C 
ATOM     16  O   UNL     1      25.424 121.324 302.357  1.00  0.00    -0.550 OA
ATOM     17  O   UNL     1      23.354 121.651 303.279  1.00  0.00    -0.550 OA
ENDBRANCH  14  15
ENDBRANCH  13  14
ENDBRANCH  12  13
ENDBRANCH  11  12
ENDBRANCH  10  11
ENDBRANCH   9  10
ENDBRANCH   8   9
ENDBRANCH   7   8
ENDBRANCH   6   7
ENDBRANCH   5   6
ENDBRANCH   4   5
ENDBRANCH   3   4
ENDBRANCH   2   3
ENDBRANCH   1   2
BRANCH   1  18
ATOM     18  C   UNL     1      18.679 121.070 297.709  1.00  0.00     0.000 C 
BRANCH  18  19
ATOM     19  C   UNL     1      18.280 121.113 296.224  1.00  0.00     0.000 C 
BRANCH  19  20
ATOM     20  C   UNL     1      19.470 121.398 295.296  1.00  0.00     0.000 C 
BRANCH  20  21
ATOM     21  C   UNL     1      19.990 120.137 294.583  1.00  0.00     0.000 C 
BRANCH  21  22
ATOM     22  C   UNL     1      21.447 119.808 294.972  1.00  0.00     0.000 C 
BRANCH  22  23
ATOM     23  C   UNL     1      21.599 118.503 295.774  1.00  0.00     0.000 C 
BRANCH  23  24
ATOM     24  C   UNL     1      21.170 118.647 297.241  1.00  0.00    -0.000 C 
BRANCH  24  25
ATOM     25  C   UNL     1      20.249 117.493 297.669  1.00  0.00    -0.000 C 
BRANCH  25  26
ATOM     26  C   UNL     1      19.417 116.931 296.502  1.00  0.00    -0.000 C 
BRANCH  26  27
ATOM     27  C   UNL     1      17.978 117.473 296.415  1.00  0.00    -0.000 C 
BRANCH  27  28
ATOM     28  C   UNL     1      17.202 117.054 295.153  1.00  0.00    -0.000 C 
BRANCH  28  29
ATOM     29  C   UNL     1      17.964 117.318 293.837  1.00  0.00    -0.000 C 
BRANCH  29  30
ATOM     30  C   UNL     1      17.278 116.668 292.622  1.00  0.00    -0.000 C 
BRANCH  30  31
ATOM     31  C   UNL     1      18.288 116.135 291.594  1.00  0.00    -0.003 C 
ATOM     32  C   UNL     1      17.655 115.169 290.593  1.00  0.00     0.004 C 
ENDBRANCH  30  31
ENDBRANCH  29  30
ENDBRANCH  28  29
ENDBRANCH  27  28
ENDBRANCH  26  27
ENDBRANCH  25  26
ENDBRANCH  24  25
ENDBRANCH  23  24
ENDBRANCH  22  23
ENDBRANCH  21  22
ENDBRANCH  20  21
ENDBRANCH  19  20
ENDBRANCH  18  19
ENDBRANCH   1  18
TORSDOF 28
ENDMDL
MODEL 8
REMARK VINA RESULT:    -4.725      3.282      8.057
REMARK INTER + INTRA:         -16.424
REMARK INTER:                 -10.558
REMARK INTRA:                  -5.866
REMARK UNBOUND:                -3.965
REMARK SMILES CCCCCCCCCCCCCCCCCCCCCCCCCCCCCC(=O)[O-]
REMARK SMILES IDX 16 1 17 2 18 3 19 4 20 5 21 6 22 7 23 8 24 9 25 10 26 11
REMARK SMILES IDX 27 12 28 13 29 14 30 15 31 16 32 17 15 18 14 19 13 20 12 21
REMARK SMILES IDX 11 22 10 23 9 24 8 25 7 26 6 27 5 28 4 29 3 30 2 31 1 32
REMARK H PARENT
REMARK Flexibility Score: inf
ROOT
ATOM      1  C   UNL     1      21.548 119.205 299.018  1.00  0.00     0.000 C 
ENDROOT
BRANCH   1   2
ATOM      2  C   UNL     1      22.630 118.107 298.960  1.00  0.00     0.000 C 
BRANCH   2   3
ATOM      3  C   UNL     1      24.041 118.656 299.243  1.00  0.00     0.000 C 
BRANCH   3   4
ATOM      4  C   UNL     1      24.775 119.117 297.965  1.00  0.00     0.000 C 
BRANCH   4   5
ATOM      5  C   UNL     1      25.150 120.610 297.966  1.00  0.00     0.000 C 
BRANCH   5   6
ATOM      6  C   UNL     1      26.206 120.963 296.905  1.00  0.00     0.000 C 
BRANCH   6   7
ATOM      7  C   UNL     1      25.591 121.327 295.542  1.00  0.00     0.000 C 
BRANCH   7   8
ATOM      8  C   UNL     1      26.604 121.963 294.575  1.00  0.00     0.000 C 
BRANCH   8   9
ATOM      9  C   UNL     1      26.912 121.057 293.370  1.00  0.00     0.000 C 
BRANCH   9  10
ATOM     10  C   UNL     1      26.465 119.603 293.604  1.00  0.00     0.000 C 
BRANCH  10  11
ATOM     11  C   UNL     1      25.468 119.116 292.537  1.00  0.00     0.000 C 
BRANCH  11  12
ATOM     12  C   UNL     1      24.088 118.717 293.113  1.00  0.00     0.000 C 
BRANCH  12  13
ATOM     13  C   UNL     1      24.155 118.189 294.557  1.00  0.00     0.006 C 
BRANCH  13  14
ATOM     14  C   UNL     1      22.824 117.616 295.067  1.00  0.00     0.053 C 
BRANCH  14  15
ATOM     15  C   UNL     1      21.814 118.695 295.311  1.00  0.00     0.041 C 
ATOM     16  O   UNL     1      20.584 118.454 295.187  1.00  0.00    -0.550 OA
ATOM     17  O   UNL     1      22.230 119.965 295.688  1.00  0.00    -0.550 OA
ENDBRANCH  14  15
ENDBRANCH  13  14
ENDBRANCH  12  13
ENDBRANCH  11  12
ENDBRANCH  10  11
ENDBRANCH   9  10
ENDBRANCH   8   9
ENDBRANCH   7   8
ENDBRANCH   6   7
ENDBRANCH   5   6
ENDBRANCH   4   5
ENDBRANCH   3   4
ENDBRANCH   2   3
ENDBRANCH   1   2
BRANCH   1  18
ATOM     18  C   UNL     1      21.399 119.873 300.397  1.00  0.00     0.000 C 
BRANCH  18  19
ATOM     19  C   UNL     1      21.709 121.380 300.377  1.00  0.00     0.000 C 
BRANCH  19  20
ATOM     20  C   UNL     1      22.817 121.772 301.366  1.00  0.00     0.000 C 
BRANCH  20  21
ATOM     21  C   UNL     1      23.226 120.617 302.296  1.00  0.00     0.000 C 
BRANCH  21  22
ATOM     22  C   UNL     1      24.758 120.516 302.460  1.00  0.00     0.000 C 
BRANCH  22  23
ATOM     23  C   UNL     1      25.550 121.404 301.484  1.00  0.00     0.000 C 
BRANCH  23  24
ATOM     24  C   UNL     1      26.960 120.869 301.196  1.00  0.00    -0.000 C 
BRANCH  24  25
ATOM     25  C   UNL     1      27.062 119.368 301.509  1.00  0.00    -0.000 C 
BRANCH  25  26
ATOM     26  C   UNL     1      28.235 118.686 300.781  1.00  0.00    -0.000 C 
BRANCH  26  27
ATOM     27  C   UNL     1      27.843 117.907 299.512  1.00  0.00    -0.000 C 
BRANCH  27  28
ATOM     28  C   UNL     1      28.573 118.346 298.230  1.00  0.00    -0.000 C 
BRANCH  28  29
ATOM     29  C   UNL     1      29.310 119.696 298.364  1.00  0.00    -0.000 C 
BRANCH  29  30
ATOM     30  C   UNL     1      29.985 120.128 297.050  1.00  0.00    -0.000 C 
BRANCH  30  31
ATOM     31  C   UNL     1      29.461 119.345 295.835  1.00  0.00    -0.003 C 
ATOM     32  C   UNL     1      30.123 119.777 294.527  1.00  0.00     0.004 C 
ENDBRANCH  30  31
ENDBRANCH  29  30
ENDBRANCH  28  29
ENDBRANCH  27  28
ENDBRANCH  26  27
ENDBRANCH  25  26
ENDBRANCH  24  25
ENDBRANCH  23  24
ENDBRANCH  22  23
ENDBRANCH  21  22
ENDBRANCH  20  21
ENDBRANCH  19  20
ENDBRANCH  18  19
ENDBRANCH   1  18
TORSDOF 28
ENDMDL
MODEL 9
REMARK VINA RESULT:    -4.702      3.131      6.840
REMARK INTER + INTRA:         -16.364
REMARK INTER:                 -11.294
REMARK INTRA:                  -5.070
REMARK UNBOUND:                -3.965
REMARK SMILES CCCCCCCCCCCCCCCCCCCCCCCCCCCCCC(=O)[O-]
REMARK SMILES IDX 16 1 17 2 18 3 19 4 20 5 21 6 22 7 23 8 24 9 25 10 26 11
REMARK SMILES IDX 27 12 28 13 29 14 30 15 31 16 32 17 15 18 14 19 13 20 12 21
REMARK SMILES IDX 11 22 10 23 9 24 8 25 7 26 6 27 5 28 4 29 3 30 2 31 1 32
REMARK H PARENT
REMARK Flexibility Score: inf
ROOT
ATOM      1  C   UNL     1      26.995 120.245 299.933  1.00  0.00     0.000 C 
ENDROOT
BRANCH   1   2
ATOM      2  C   UNL     1      26.760 121.007 301.254  1.00  0.00     0.000 C 
BRANCH   2   3
ATOM      3  C   UNL     1      26.492 120.060 302.439  1.00  0.00     0.000 C 
BRANCH   3   4
ATOM      4  C   UNL     1      25.713 120.738 303.587  1.00  0.00     0.000 C 
BRANCH   4   5
ATOM      5  C   UNL     1      24.690 121.787 303.112  1.00  0.00     0.000 C 
BRANCH   5   6
ATOM      6  C   UNL     1      23.238 121.395 303.431  1.00  0.00     0.000 C 
BRANCH   6   7
ATOM      7  C   UNL     1      22.343 121.335 302.181  1.00  0.00     0.000 C 
BRANCH   7   8
ATOM      8  C   UNL     1      23.110 121.616 300.877  1.00  0.00     0.000 C 
BRANCH   8   9
ATOM      9  C   UNL     1      22.873 120.532 299.811  1.00  0.00     0.000 C 
BRANCH   9  10
ATOM     10  C   UNL     1      23.409 119.157 300.249  1.00  0.00     0.000 C 
BRANCH  10  11
ATOM     11  C   UNL     1      23.212 118.078 299.168  1.00  0.00     0.000 C 
BRANCH  11  12
ATOM     12  C   UNL     1      21.978 118.322 298.267  1.00  0.00     0.000 C 
BRANCH  12  13
ATOM     13  C   UNL     1      21.786 117.245 297.183  1.00  0.00     0.006 C 
BRANCH  13  14
ATOM     14  C   UNL     1      20.447 116.501 297.283  1.00  0.00     0.053 C 
BRANCH  14  15
ATOM     15  C   UNL     1      19.384 117.160 296.456  1.00  0.00     0.041 C 
ATOM     16  O   UNL     1      18.190 116.769 296.526  1.00  0.00    -0.550 OA
ATOM     17  O   UNL     1      19.712 118.217 295.617  1.00  0.00    -0.550 OA
ENDBRANCH  14  15
ENDBRANCH  13  14
ENDBRANCH  12  13
ENDBRANCH  11  12
ENDBRANCH  10  11
ENDBRANCH   9  10
ENDBRANCH   8   9
ENDBRANCH   7   8
ENDBRANCH   6   7
ENDBRANCH   5   6
ENDBRANCH   4   5
ENDBRANCH   3   4
ENDBRANCH   2   3
ENDBRANCH   1   2
BRANCH   1  18
ATOM     18  C   UNL     1      26.862 118.717 300.053  1.00  0.00     0.000 C 
BRANCH  18  19
ATOM     19  C   UNL     1      27.972 117.952 299.313  1.00  0.00     0.000 C 
BRANCH  19  20
ATOM     20  C   UNL     1      29.379 118.463 299.658  1.00  0.00     0.000 C 
BRANCH  20  21
ATOM     21  C   UNL     1      30.102 119.084 298.450  1.00  0.00     0.000 C 
BRANCH  21  22
ATOM     22  C   UNL     1      30.070 118.160 297.214  1.00  0.00     0.000 C 
BRANCH  22  23
ATOM     23  C   UNL     1      29.741 118.889 295.898  1.00  0.00     0.000 C 
BRANCH  23  24
ATOM     24  C   UNL     1      28.240 119.158 295.721  1.00  0.00    -0.000 C 
BRANCH  24  25
ATOM     25  C   UNL     1      27.954 120.663 295.592  1.00  0.00    -0.000 C 
BRANCH  25  26
ATOM     26  C   UNL     1      26.626 121.076 296.251  1.00  0.00    -0.000 C 
BRANCH  26  27
ATOM     27  C   UNL     1      25.721 119.904 296.672  1.00  0.00    -0.000 C 
BRANCH  27  28
ATOM     28  C   UNL     1      24.259 120.011 296.203  1.00  0.00    -0.000 C 
BRANCH  28  29
ATOM     29  C   UNL     1      24.090 119.930 294.671  1.00  0.00    -0.000 C 
BRANCH  29  30
ATOM     30  C   UNL     1      24.730 118.664 294.075  1.00  0.00    -0.000 C 
BRANCH  30  31
ATOM     31  C   UNL     1      25.408 118.930 292.722  1.00  0.00    -0.003 C 
ATOM     32  C   UNL     1      26.644 118.058 292.502  1.00  0.00     0.004 C 
ENDBRANCH  30  31
ENDBRANCH  29  30
ENDBRANCH  28  29
ENDBRANCH  27  28
ENDBRANCH  26  27
ENDBRANCH  25  26
ENDBRANCH  24  25
ENDBRANCH  23  24
ENDBRANCH  22  23
ENDBRANCH  21  22
ENDBRANCH  20  21
ENDBRANCH  19  20
ENDBRANCH  18  19
ENDBRANCH   1  18
TORSDOF 28
ENDMDL
