MODEL 1
REMARK VINA RESULT:    -6.496      0.000      0.000
REMARK INTER + INTRA:          -7.952
REMARK INTER:                  -7.635
REMARK INTRA:                  -0.317
REMARK UNBOUND:                -0.317
REMARK SMILES O=c1cc(-c2ccc(O)c(O)c2)oc2cc(O)cc(O)c12
REMARK SMILES IDX 4 1 3 2 2 3 1 4 21 5 19 6 18 7 16 8 15 9 14 10 13 11 5 12
REMARK SMILES IDX 6 13 7 14 8 15 12 16 10 17 9 18 11 20 20 22 17 24
REMARK H PARENT 9 19 11 21 20 23 17 25
REMARK Flexibility Score: inf
ROOT
ATOM      1  C   UNL     1       2.526  -4.357  21.797  1.00  0.00     0.138 A 
ATOM      2  C   UNL     1       2.981  -5.316  20.882  1.00  0.00     0.100 A 
ATOM      3  C   UNL     1       2.626  -5.209  19.536  1.00  0.00     0.197 A 
ATOM      4  O   UNL     1       3.003  -6.115  18.749  1.00  0.00    -0.289 OA
ATOM      5  C   UNL     1       1.840  -4.114  19.101  1.00  0.00     0.107 A 
ATOM      6  C   UNL     1       1.444  -3.883  17.748  1.00  0.00     0.134 A 
ATOM      7  C   UNL     1       0.584  -2.818  17.453  1.00  0.00     0.093 A 
ATOM      8  C   UNL     1       0.151  -1.944  18.452  1.00  0.00     0.123 A 
ATOM      9  C   UNL     1       0.571  -2.131  19.766  1.00  0.00     0.094 A 
ATOM     10  C   UNL     1       1.401  -3.204  20.099  1.00  0.00     0.146 A 
ATOM     11  O   UNL     1       1.763  -3.357  21.368  1.00  0.00    -0.456 OA
ENDROOT
BRANCH   1  12
ATOM     12  C   UNL     1       2.876  -4.420  23.239  1.00  0.00     0.021 A 
ATOM     13  C   UNL     1       3.823  -5.338  23.732  1.00  0.00     0.016 A 
ATOM     14  C   UNL     1       4.125  -5.381  25.095  1.00  0.00     0.051 A 
ATOM     15  C   UNL     1       3.485  -4.520  25.990  1.00  0.00     0.157 A 
ATOM     16  C   UNL     1       2.226  -3.564  24.146  1.00  0.00     0.062 A 
ATOM     17  C   UNL     1       2.530  -3.607  25.514  1.00  0.00     0.158 A 
BRANCH  15  18
ATOM     18  O   UNL     1       3.810  -4.586  27.344  1.00  0.00    -0.504 OA
ATOM     19  H   UNL     1       3.968  -3.754  27.901  1.00  0.00     0.293 HD
ENDBRANCH  15  18
BRANCH  17  20
ATOM     20  O   UNL     1       1.884  -2.747  26.403  1.00  0.00    -0.504 OA
ATOM     21  H   UNL     1       0.878  -2.768  26.526  1.00  0.00     0.293 HD
ENDBRANCH  17  20
ENDBRANCH   1  12
BRANCH   6  22
ATOM     22  O   UNL     1       1.883  -4.647  16.661  1.00  0.00    -0.507 OA
ATOM     23  H   UNL     1       2.704  -5.231  16.658  1.00  0.00     0.293 HD
ENDBRANCH   6  22
BRANCH   8  24
ATOM     24  O   UNL     1      -0.694  -0.878  18.147  1.00  0.00    -0.508 OA
ATOM     25  H   UNL     1      -1.477  -0.988  17.513  1.00  0.00     0.293 HD
ENDBRANCH   8  24
TORSDOF 5
ENDMDL
MODEL 2
REMARK VINA RESULT:    -6.457      1.842      6.709
REMARK INTER + INTRA:          -7.906
REMARK INTER:                  -7.632
REMARK INTRA:                  -0.273
REMARK UNBOUND:                -0.317
REMARK SMILES O=c1cc(-c2ccc(O)c(O)c2)oc2cc(O)cc(O)c12
REMARK SMILES IDX 4 1 3 2 2 3 1 4 21 5 19 6 18 7 16 8 15 9 14 10 13 11 5 12
REMARK SMILES IDX 6 13 7 14 8 15 12 16 10 17 9 18 11 20 20 22 17 24
REMARK H PARENT 9 19 11 21 20 23 17 25
REMARK Flexibility Score: inf
ROOT
ATOM      1  C   UNL     1       2.059  -3.969  21.784  1.00  0.00     0.138 A 
ATOM      2  C   UNL     1       3.207  -3.741  22.555  1.00  0.00     0.100 A 
ATOM      3  C   UNL     1       3.078  -3.419  23.907  1.00  0.00     0.197 A 
ATOM      4  O   UNL     1       4.123  -3.165  24.558  1.00  0.00    -0.289 OA
ATOM      5  C   UNL     1       1.792  -3.361  24.497  1.00  0.00     0.107 A 
ATOM      6  C   UNL     1       1.539  -3.076  25.873  1.00  0.00     0.134 A 
ATOM      7  C   UNL     1       0.218  -2.949  26.321  1.00  0.00     0.093 A 
ATOM      8  C   UNL     1      -0.859  -3.153  25.455  1.00  0.00     0.123 A 
ATOM      9  C   UNL     1      -0.623  -3.481  24.122  1.00  0.00     0.094 A 
ATOM     10  C   UNL     1       0.683  -3.581  23.637  1.00  0.00     0.146 A 
ATOM     11  O   UNL     1       0.862  -3.877  22.354  1.00  0.00    -0.456 OA
ENDROOT
BRANCH   1  12
ATOM     12  C   UNL     1       2.138  -4.318  20.342  1.00  0.00     0.021 A 
ATOM     13  C   UNL     1       2.733  -5.516  19.902  1.00  0.00     0.016 A 
ATOM     14  C   UNL     1       2.801  -5.813  18.538  1.00  0.00     0.051 A 
ATOM     15  C   UNL     1       2.289  -4.922  17.592  1.00  0.00     0.157 A 
ATOM     16  C   UNL     1       1.636  -3.418  19.385  1.00  0.00     0.062 A 
ATOM     17  C   UNL     1       1.704  -3.718  18.017  1.00  0.00     0.158 A 
BRANCH  15  18
ATOM     18  O   UNL     1       2.371  -5.248  16.240  1.00  0.00    -0.504 OA
ATOM     19  H   UNL     1       2.931  -6.024  15.906  1.00  0.00     0.293 HD
ENDBRANCH  15  18
BRANCH  17  20
ATOM     20  O   UNL     1       1.194  -2.821  17.077  1.00  0.00    -0.504 OA
ATOM     21  H   UNL     1       1.592  -1.897  16.955  1.00  0.00     0.293 HD
ENDBRANCH  17  20
ENDBRANCH   1  12
BRANCH   6  22
ATOM     22  O   UNL     1       2.540  -2.933  26.840  1.00  0.00    -0.507 OA
ATOM     23  H   UNL     1       2.458  -2.385  27.682  1.00  0.00     0.293 HD
ENDBRANCH   6  22
BRANCH   8  24
ATOM     24  O   UNL     1      -2.170  -3.039  25.912  1.00  0.00    -0.508 OA
ATOM     25  H   UNL     1      -2.437  -2.328  26.583  1.00  0.00     0.293 HD
ENDBRANCH   8  24
TORSDOF 5
ENDMDL
MODEL 3
REMARK VINA RESULT:    -6.095      1.410      7.227
REMARK INTER + INTRA:          -7.481
REMARK INTER:                  -7.189
REMARK INTRA:                  -0.291
REMARK UNBOUND:                -0.317
REMARK SMILES O=c1cc(-c2ccc(O)c(O)c2)oc2cc(O)cc(O)c12
REMARK SMILES IDX 4 1 3 2 2 3 1 4 21 5 19 6 18 7 16 8 15 9 14 10 13 11 5 12
REMARK SMILES IDX 6 13 7 14 8 15 12 16 10 17 9 18 11 20 20 22 17 24
REMARK H PARENT 9 19 11 21 20 23 17 25
REMARK Flexibility Score: inf
ROOT
ATOM      1  C   UNL     1       1.822  -3.975  21.979  1.00  0.00     0.138 A 
ATOM      2  C   UNL     1       0.908  -3.010  22.422  1.00  0.00     0.100 A 
ATOM      3  C   UNL     1       0.804  -2.731  23.785  1.00  0.00     0.197 A 
ATOM      4  O   UNL     1      -0.064  -1.900  24.156  1.00  0.00    -0.289 OA
ATOM      5  C   UNL     1       1.647  -3.399  24.706  1.00  0.00     0.107 A 
ATOM      6  C   UNL     1       1.654  -3.173  26.116  1.00  0.00     0.134 A 
ATOM      7  C   UNL     1       2.465  -3.965  26.938  1.00  0.00     0.093 A 
ATOM      8  C   UNL     1       3.311  -4.936  26.396  1.00  0.00     0.123 A 
ATOM      9  C   UNL     1       3.348  -5.130  25.018  1.00  0.00     0.094 A 
ATOM     10  C   UNL     1       2.526  -4.380  24.174  1.00  0.00     0.146 A 
ATOM     11  O   UNL     1       2.580  -4.611  22.867  1.00  0.00    -0.456 OA
ENDROOT
BRANCH   1  12
ATOM     12  C   UNL     1       1.976  -4.309  20.540  1.00  0.00     0.021 A 
ATOM     13  C   UNL     1       2.619  -5.489  20.119  1.00  0.00     0.016 A 
ATOM     14  C   UNL     1       2.758  -5.772  18.757  1.00  0.00     0.051 A 
ATOM     15  C   UNL     1       2.270  -4.884  17.795  1.00  0.00     0.157 A 
ATOM     16  C   UNL     1       1.499  -3.413  19.567  1.00  0.00     0.062 A 
ATOM     17  C   UNL     1       1.639  -3.698  18.201  1.00  0.00     0.158 A 
BRANCH  15  18
ATOM     18  O   UNL     1       2.424  -5.196  16.445  1.00  0.00    -0.504 OA
ATOM     19  H   UNL     1       2.406  -4.485  15.723  1.00  0.00     0.293 HD
ENDBRANCH  15  18
BRANCH  17  20
ATOM     20  O   UNL     1       1.153  -2.804  17.246  1.00  0.00    -0.504 OA
ATOM     21  H   UNL     1       0.846  -3.118  16.333  1.00  0.00     0.293 HD
ENDBRANCH  17  20
ENDBRANCH   1  12
BRANCH   6  22
ATOM     22  O   UNL     1       0.909  -2.175  26.754  1.00  0.00    -0.507 OA
ATOM     23  H   UNL     1       0.030  -2.320  27.225  1.00  0.00     0.293 HD
ENDBRANCH   6  22
BRANCH   8  24
ATOM     24  O   UNL     1       4.125  -5.709  27.221  1.00  0.00    -0.508 OA
ATOM     25  H   UNL     1       3.779  -6.551  27.667  1.00  0.00     0.293 HD
ENDBRANCH   8  24
TORSDOF 5
ENDMDL
MODEL 4
REMARK VINA RESULT:    -5.708      5.067      9.523
REMARK INTER + INTRA:          -7.026
REMARK INTER:                  -6.736
REMARK INTRA:                  -0.290
REMARK UNBOUND:                -0.317
REMARK SMILES O=c1cc(-c2ccc(O)c(O)c2)oc2cc(O)cc(O)c12
REMARK SMILES IDX 4 1 3 2 2 3 1 4 21 5 19 6 18 7 16 8 15 9 14 10 13 11 5 12
REMARK SMILES IDX 6 13 7 14 8 15 12 16 10 17 9 18 11 20 20 22 17 24
REMARK H PARENT 9 19 11 21 20 23 17 25
REMARK Flexibility Score: inf
ROOT
ATOM      1  C   UNL     1      -3.616  -0.842  21.910  1.00  0.00     0.138 A 
ATOM      2  C   UNL     1      -4.409  -0.328  22.944  1.00  0.00     0.100 A 
ATOM      3  C   UNL     1      -4.102  -0.639  24.270  1.00  0.00     0.197 A 
ATOM      4  O   UNL     1      -4.866  -0.209  25.172  1.00  0.00    -0.289 OA
ATOM      5  C   UNL     1      -2.973  -1.442  24.561  1.00  0.00     0.107 A 
ATOM      6  C   UNL     1      -2.543  -1.798  25.876  1.00  0.00     0.134 A 
ATOM      7  C   UNL     1      -1.467  -2.679  26.035  1.00  0.00     0.093 A 
ATOM      8  C   UNL     1      -0.769  -3.172  24.930  1.00  0.00     0.123 A 
ATOM      9  C   UNL     1      -1.148  -2.792  23.646  1.00  0.00     0.094 A 
ATOM     10  C   UNL     1      -2.240  -1.941  23.452  1.00  0.00     0.146 A 
ATOM     11  O   UNL     1      -2.579  -1.619  22.209  1.00  0.00    -0.456 OA
ENDROOT
BRANCH   1  12
ATOM     12  C   UNL     1      -3.893  -0.540  20.483  1.00  0.00     0.021 A 
ATOM     13  C   UNL     1      -2.892  -0.635  19.497  1.00  0.00     0.016 A 
ATOM     14  C   UNL     1      -3.180  -0.335  18.163  1.00  0.00     0.051 A 
ATOM     15  C   UNL     1      -4.463   0.072  17.790  1.00  0.00     0.157 A 
ATOM     16  C   UNL     1      -5.180  -0.117  20.103  1.00  0.00     0.062 A 
ATOM     17  C   UNL     1      -5.469   0.183  18.764  1.00  0.00     0.158 A 
BRANCH  15  18
ATOM     18  O   UNL     1      -4.720   0.363  16.451  1.00  0.00    -0.504 OA
ATOM     19  H   UNL     1      -4.840   1.313  16.120  1.00  0.00     0.293 HD
ENDBRANCH  15  18
BRANCH  17  20
ATOM     20  O   UNL     1      -6.751   0.593  18.399  1.00  0.00    -0.504 OA
ATOM     21  H   UNL     1      -7.555   0.408  18.988  1.00  0.00     0.293 HD
ENDBRANCH  17  20
ENDBRANCH   1  12
BRANCH   6  22
ATOM     22  O   UNL     1      -3.119  -1.300  27.050  1.00  0.00    -0.507 OA
ATOM     23  H   UNL     1      -2.612  -0.860  27.802  1.00  0.00     0.293 HD
ENDBRANCH   6  22
BRANCH   8  24
ATOM     24  O   UNL     1       0.310  -4.037  25.099  1.00  0.00    -0.508 OA
ATOM     25  H   UNL     1       1.144  -3.962  24.527  1.00  0.00     0.293 HD
ENDBRANCH   8  24
TORSDOF 5
ENDMDL
MODEL 5
REMARK VINA RESULT:    -5.691      5.319      7.034
REMARK INTER + INTRA:          -7.006
REMARK INTER:                  -6.688
REMARK INTRA:                  -0.318
REMARK UNBOUND:                -0.317
REMARK SMILES O=c1cc(-c2ccc(O)c(O)c2)oc2cc(O)cc(O)c12
REMARK SMILES IDX 4 1 3 2 2 3 1 4 21 5 19 6 18 7 16 8 15 9 14 10 13 11 5 12
REMARK SMILES IDX 6 13 7 14 8 15 12 16 10 17 9 18 11 20 20 22 17 24
REMARK H PARENT 9 19 11 21 20 23 17 25
REMARK Flexibility Score: inf
ROOT
ATOM      1  C   UNL     1      -2.325  -1.302  23.742  1.00  0.00     0.138 A 
ATOM      2  C   UNL     1      -2.662  -0.155  24.474  1.00  0.00     0.100 A 
ATOM      3  C   UNL     1      -3.715   0.654  24.044  1.00  0.00     0.197 A 
ATOM      4  O   UNL     1      -3.956   1.706  24.690  1.00  0.00    -0.289 OA
ATOM      5  C   UNL     1      -4.457   0.291  22.894  1.00  0.00     0.107 A 
ATOM      6  C   UNL     1      -5.572   1.021  22.381  1.00  0.00     0.134 A 
ATOM      7  C   UNL     1      -6.166   0.617  21.178  1.00  0.00     0.093 A 
ATOM      8  C   UNL     1      -5.723  -0.521  20.502  1.00  0.00     0.123 A 
ATOM      9  C   UNL     1      -4.668  -1.268  21.020  1.00  0.00     0.094 A 
ATOM     10  C   UNL     1      -4.032  -0.872  22.199  1.00  0.00     0.146 A 
ATOM     11  O   UNL     1      -3.018  -1.603  22.649  1.00  0.00    -0.456 OA
ENDROOT
BRANCH   1  12
ATOM     12  C   UNL     1      -1.217  -2.200  24.156  1.00  0.00     0.021 A 
ATOM     13  C   UNL     1      -0.364  -1.878  25.229  1.00  0.00     0.016 A 
ATOM     14  C   UNL     1       0.677  -2.738  25.589  1.00  0.00     0.051 A 
ATOM     15  C   UNL     1       0.891  -3.925  24.884  1.00  0.00     0.157 A 
ATOM     16  C   UNL     1      -0.989  -3.390  23.442  1.00  0.00     0.062 A 
ATOM     17  C   UNL     1       0.055  -4.253  23.805  1.00  0.00     0.158 A 
BRANCH  15  18
ATOM     18  O   UNL     1       1.937  -4.763  25.269  1.00  0.00    -0.504 OA
ATOM     19  H   UNL     1       2.159  -4.934  26.243  1.00  0.00     0.293 HD
ENDBRANCH  15  18
BRANCH  17  20
ATOM     20  O   UNL     1       0.266  -5.435  23.094  1.00  0.00    -0.504 OA
ATOM     21  H   UNL     1       1.189  -5.705  22.774  1.00  0.00     0.293 HD
ENDBRANCH  17  20
ENDBRANCH   1  12
BRANCH   6  22
ATOM     22  O   UNL     1      -6.147   2.125  23.019  1.00  0.00    -0.507 OA
ATOM     23  H   UNL     1      -6.507   2.128  23.960  1.00  0.00     0.293 HD
ENDBRANCH   6  22
BRANCH   8  24
ATOM     24  O   UNL     1      -6.329  -0.923  19.313  1.00  0.00    -0.508 OA
ATOM     25  H   UNL     1      -7.323  -0.799  19.158  1.00  0.00     0.293 HD
ENDBRANCH   8  24
TORSDOF 5
ENDMDL
MODEL 6
REMARK VINA RESULT:    -5.675      2.078      7.320
REMARK INTER + INTRA:          -6.987
REMARK INTER:                  -6.676
REMARK INTRA:                  -0.311
REMARK UNBOUND:                -0.317
REMARK SMILES O=c1cc(-c2ccc(O)c(O)c2)oc2cc(O)cc(O)c12
REMARK SMILES IDX 4 1 3 2 2 3 1 4 21 5 19 6 18 7 16 8 15 9 14 10 13 11 5 12
REMARK SMILES IDX 6 13 7 14 8 15 12 16 10 17 9 18 11 20 20 22 17 24
REMARK H PARENT 9 19 11 21 20 23 17 25
REMARK Flexibility Score: inf
ROOT
ATOM      1  C   UNL     1       2.178  -4.227  24.212  1.00  0.00     0.138 A 
ATOM      2  C   UNL     1       3.153  -4.853  25.001  1.00  0.00     0.100 A 
ATOM      3  C   UNL     1       3.085  -4.752  26.392  1.00  0.00     0.197 A 
ATOM      4  O   UNL     1       4.005  -5.277  27.070  1.00  0.00    -0.289 OA
ATOM      5  C   UNL     1       2.013  -4.050  26.995  1.00  0.00     0.107 A 
ATOM      6  C   UNL     1       1.822  -3.910  28.403  1.00  0.00     0.134 A 
ATOM      7  C   UNL     1       0.777  -3.108  28.881  1.00  0.00     0.093 A 
ATOM      8  C   UNL     1      -0.116  -2.489  28.004  1.00  0.00     0.123 A 
ATOM      9  C   UNL     1       0.033  -2.660  26.630  1.00  0.00     0.094 A 
ATOM     10  C   UNL     1       1.085  -3.426  26.120  1.00  0.00     0.146 A 
ATOM     11  O   UNL     1       1.201  -3.547  24.803  1.00  0.00    -0.456 OA
ENDROOT
BRANCH   1  12
ATOM     12  C   UNL     1       2.200  -4.304  22.729  1.00  0.00     0.021 A 
ATOM     13  C   UNL     1       2.883  -5.332  22.051  1.00  0.00     0.016 A 
ATOM     14  C   UNL     1       2.894  -5.374  20.655  1.00  0.00     0.051 A 
ATOM     15  C   UNL     1       2.235  -4.392  19.911  1.00  0.00     0.157 A 
ATOM     16  C   UNL     1       1.549  -3.311  21.976  1.00  0.00     0.062 A 
ATOM     17  C   UNL     1       1.560  -3.354  20.574  1.00  0.00     0.158 A 
BRANCH  15  18
ATOM     18  O   UNL     1       2.264  -4.462  18.519  1.00  0.00    -0.504 OA
ATOM     19  H   UNL     1       3.021  -4.912  18.018  1.00  0.00     0.293 HD
ENDBRANCH  15  18
BRANCH  17  20
ATOM     20  O   UNL     1       0.904  -2.367  19.838  1.00  0.00    -0.504 OA
ATOM     21  H   UNL     1       0.868  -1.405  20.153  1.00  0.00     0.293 HD
ENDBRANCH  17  20
ENDBRANCH   1  12
BRANCH   6  22
ATOM     22  O   UNL     1       2.606  -4.550  29.368  1.00  0.00    -0.507 OA
ATOM     23  H   UNL     1       2.275  -5.249  30.014  1.00  0.00     0.293 HD
ENDBRANCH   6  22
BRANCH   8  24
ATOM     24  O   UNL     1      -1.160  -1.705  28.489  1.00  0.00    -0.508 OA
ATOM     25  H   UNL     1      -1.667  -1.066  27.887  1.00  0.00     0.293 HD
ENDBRANCH   8  24
TORSDOF 5
ENDMDL
MODEL 7
REMARK VINA RESULT:    -5.611      4.299      8.822
REMARK INTER + INTRA:          -6.911
REMARK INTER:                  -6.642
REMARK INTRA:                  -0.269
REMARK UNBOUND:                -0.317
REMARK SMILES O=c1cc(-c2ccc(O)c(O)c2)oc2cc(O)cc(O)c12
REMARK SMILES IDX 4 1 3 2 2 3 1 4 21 5 19 6 18 7 16 8 15 9 14 10 13 11 5 12
REMARK SMILES IDX 6 13 7 14 8 15 12 16 10 17 9 18 11 20 20 22 17 24
REMARK H PARENT 9 19 11 21 20 23 17 25
REMARK Flexibility Score: inf
ROOT
ATOM      1  C   UNL     1      -2.645  -1.098  22.959  1.00  0.00     0.138 A 
ATOM      2  C   UNL     1      -2.675  -0.321  24.125  1.00  0.00     0.100 A 
ATOM      3  C   UNL     1      -1.801  -0.613  25.173  1.00  0.00     0.197 A 
ATOM      4  O   UNL     1      -1.891   0.067  26.227  1.00  0.00    -0.289 OA
ATOM      5  C   UNL     1      -0.869  -1.670  25.038  1.00  0.00     0.107 A 
ATOM      6  C   UNL     1       0.094  -2.039  26.027  1.00  0.00     0.134 A 
ATOM      7  C   UNL     1       0.899  -3.166  25.819  1.00  0.00     0.093 A 
ATOM      8  C   UNL     1       0.818  -3.902  24.635  1.00  0.00     0.123 A 
ATOM      9  C   UNL     1      -0.082  -3.520  23.643  1.00  0.00     0.094 A 
ATOM     10  C   UNL     1      -0.924  -2.422  23.834  1.00  0.00     0.146 A 
ATOM     11  O   UNL     1      -1.781  -2.104  22.870  1.00  0.00    -0.456 OA
ENDROOT
BRANCH   1  12
ATOM     12  C   UNL     1      -3.548  -0.829  21.812  1.00  0.00     0.021 A 
ATOM     13  C   UNL     1      -4.884  -1.276  21.801  1.00  0.00     0.016 A 
ATOM     14  C   UNL     1      -5.708  -1.016  20.703  1.00  0.00     0.051 A 
ATOM     15  C   UNL     1      -5.216  -0.318  19.597  1.00  0.00     0.157 A 
ATOM     16  C   UNL     1      -3.055  -0.138  20.691  1.00  0.00     0.062 A 
ATOM     17  C   UNL     1      -3.883   0.123  19.590  1.00  0.00     0.158 A 
BRANCH  15  18
ATOM     18  O   UNL     1      -6.064  -0.073  18.518  1.00  0.00    -0.504 OA
ATOM     19  H   UNL     1      -7.049  -0.311  18.543  1.00  0.00     0.293 HD
ENDBRANCH  15  18
BRANCH  17  20
ATOM     20  O   UNL     1      -3.384   0.817  18.487  1.00  0.00    -0.504 OA
ATOM     21  H   UNL     1      -2.455   0.640  18.125  1.00  0.00     0.293 HD
ENDBRANCH  17  20
ENDBRANCH   1  12
BRANCH   6  22
ATOM     22  O   UNL     1       0.314  -1.326  27.210  1.00  0.00    -0.507 OA
ATOM     23  H   UNL     1      -0.132  -1.517  28.093  1.00  0.00     0.293 HD
ENDBRANCH   6  22
BRANCH   8  24
ATOM     24  O   UNL     1       1.634  -5.013  24.431  1.00  0.00    -0.508 OA
ATOM     25  H   UNL     1       2.101  -5.476  25.203  1.00  0.00     0.293 HD
ENDBRANCH   8  24
TORSDOF 5
ENDMDL
MODEL 8
REMARK VINA RESULT:    -5.533      3.681      5.577
REMARK INTER + INTRA:          -6.820
REMARK INTER:                  -6.548
REMARK INTRA:                  -0.273
REMARK UNBOUND:                -0.317
REMARK SMILES O=c1cc(-c2ccc(O)c(O)c2)oc2cc(O)cc(O)c12
REMARK SMILES IDX 4 1 3 2 2 3 1 4 21 5 19 6 18 7 16 8 15 9 14 10 13 11 5 12
REMARK SMILES IDX 6 13 7 14 8 15 12 16 10 17 9 18 11 20 20 22 17 24
REMARK H PARENT 9 19 11 21 20 23 17 25
REMARK Flexibility Score: inf
ROOT
ATOM      1  C   UNL     1      -0.131  -2.909  23.781  1.00  0.00     0.138 A 
ATOM      2  C   UNL     1      -0.117  -2.426  22.465  1.00  0.00     0.100 A 
ATOM      3  C   UNL     1       0.756  -2.988  21.532  1.00  0.00     0.197 A 
ATOM      4  O   UNL     1       0.784  -2.496  20.376  1.00  0.00    -0.289 OA
ATOM      5  C   UNL     1       1.594  -4.064  21.912  1.00  0.00     0.107 A 
ATOM      6  C   UNL     1       2.500  -4.739  21.038  1.00  0.00     0.134 A 
ATOM      7  C   UNL     1       3.350  -5.726  21.553  1.00  0.00     0.093 A 
ATOM      8  C   UNL     1       3.286  -6.103  22.896  1.00  0.00     0.123 A 
ATOM      9  C   UNL     1       2.371  -5.486  23.746  1.00  0.00     0.094 A 
ATOM     10  C   UNL     1       1.533  -4.474  23.271  1.00  0.00     0.146 A 
ATOM     11  O   UNL     1       0.688  -3.900  24.120  1.00  0.00    -0.456 OA
ENDROOT
BRANCH   1  12
ATOM     12  C   UNL     1      -1.041  -2.351  24.813  1.00  0.00     0.021 A 
ATOM     13  C   UNL     1      -0.577  -1.992  26.093  1.00  0.00     0.016 A 
ATOM     14  C   UNL     1      -1.459  -1.478  27.048  1.00  0.00     0.051 A 
ATOM     15  C   UNL     1      -2.815  -1.322  26.748  1.00  0.00     0.157 A 
ATOM     16  C   UNL     1      -2.409  -2.204  24.522  1.00  0.00     0.062 A 
ATOM     17  C   UNL     1      -3.294  -1.688  25.480  1.00  0.00     0.158 A 
BRANCH  15  18
ATOM     18  O   UNL     1      -3.669  -0.805  27.721  1.00  0.00    -0.504 OA
ATOM     19  H   UNL     1      -4.180  -1.403  28.361  1.00  0.00     0.293 HD
ENDBRANCH  15  18
BRANCH  17  20
ATOM     20  O   UNL     1      -4.647  -1.539  25.176  1.00  0.00    -0.504 OA
ATOM     21  H   UNL     1      -5.248  -0.925  25.714  1.00  0.00     0.293 HD
ENDBRANCH  17  20
ENDBRANCH   1  12
BRANCH   6  22
ATOM     22  O   UNL     1       2.589  -4.497  19.663  1.00  0.00    -0.507 OA
ATOM     23  H   UNL     1       1.806  -4.444  19.032  1.00  0.00     0.293 HD
ENDBRANCH   6  22
BRANCH   8  24
ATOM     24  O   UNL     1       4.125  -7.097  23.396  1.00  0.00    -0.508 OA
ATOM     25  H   UNL     1       3.757  -7.972  23.752  1.00  0.00     0.293 HD
ENDBRANCH   8  24
TORSDOF 5
ENDMDL
MODEL 9
REMARK VINA RESULT:    -5.384      3.837      6.408
REMARK INTER + INTRA:          -6.645
REMARK INTER:                  -6.351
REMARK INTRA:                  -0.294
REMARK UNBOUND:                -0.317
REMARK SMILES O=c1cc(-c2ccc(O)c(O)c2)oc2cc(O)cc(O)c12
REMARK SMILES IDX 4 1 3 2 2 3 1 4 21 5 19 6 18 7 16 8 15 9 14 10 13 11 5 12
REMARK SMILES IDX 6 13 7 14 8 15 12 16 10 17 9 18 11 20 20 22 17 24
REMARK H PARENT 9 19 11 21 20 23 17 25
REMARK Flexibility Score: inf
ROOT
ATOM      1  C   UNL     1      -0.233  -2.633  24.064  1.00  0.00     0.138 A 
ATOM      2  C   UNL     1       0.463  -3.029  25.215  1.00  0.00     0.100 A 
ATOM      3  C   UNL     1       1.594  -3.837  25.093  1.00  0.00     0.197 A 
ATOM      4  O   UNL     1       2.164  -4.222  26.146  1.00  0.00    -0.289 OA
ATOM      5  C   UNL     1       2.051  -4.220  23.808  1.00  0.00     0.107 A 
ATOM      6  C   UNL     1       3.211  -5.014  23.560  1.00  0.00     0.134 A 
ATOM      7  C   UNL     1       3.509  -5.411  22.250  1.00  0.00     0.093 A 
ATOM      8  C   UNL     1       2.720  -4.995  21.175  1.00  0.00     0.123 A 
ATOM      9  C   UNL     1       1.614  -4.180  21.401  1.00  0.00     0.094 A 
ATOM     10  C   UNL     1       1.272  -3.795  22.700  1.00  0.00     0.146 A 
ATOM     11  O   UNL     1       0.198  -3.032  22.872  1.00  0.00    -0.456 OA
ENDROOT
BRANCH   1  12
ATOM     12  C   UNL     1      -1.440  -1.771  24.135  1.00  0.00     0.021 A 
ATOM     13  C   UNL     1      -1.501  -0.650  24.985  1.00  0.00     0.016 A 
ATOM     14  C   UNL     1      -2.655   0.138  25.037  1.00  0.00     0.051 A 
ATOM     15  C   UNL     1      -3.767  -0.181  24.254  1.00  0.00     0.157 A 
ATOM     16  C   UNL     1      -2.567  -2.095  23.359  1.00  0.00     0.062 A 
ATOM     17  C   UNL     1      -3.724  -1.304  23.411  1.00  0.00     0.158 A 
BRANCH  15  18
ATOM     18  O   UNL     1      -4.901   0.625  24.328  1.00  0.00    -0.504 OA
ATOM     19  H   UNL     1      -4.847   1.611  24.552  1.00  0.00     0.293 HD
ENDBRANCH  15  18
BRANCH  17  20
ATOM     20  O   UNL     1      -4.832  -1.631  22.629  1.00  0.00    -0.504 OA
ATOM     21  H   UNL     1      -4.851  -2.468  22.058  1.00  0.00     0.293 HD
ENDBRANCH  17  20
ENDBRANCH   1  12
BRANCH   6  22
ATOM     22  O   UNL     1       4.113  -5.416  24.551  1.00  0.00    -0.507 OA
ATOM     23  H   UNL     1       4.911  -6.012  24.401  1.00  0.00     0.293 HD
ENDBRANCH   6  22
BRANCH   8  24
ATOM     24  O   UNL     1       3.032  -5.384  19.873  1.00  0.00    -0.508 OA
ATOM     25  H   UNL     1       3.930  -5.792  19.643  1.00  0.00     0.293 HD
ENDBRANCH   8  24
TORSDOF 5
ENDMDL
