MODEL 1
REMARK VINA RESULT:    -4.534      0.000      0.000
REMARK INTER + INTRA:          -9.955
REMARK INTER:                  -8.245
REMARK INTRA:                  -1.711
REMARK UNBOUND:                -1.711
REMARK SMILES CCCCCCCCCCCCCCCC(=O)[O-]
REMARK SMILES IDX 9 1 10 2 11 3 12 4 13 5 14 6 15 7 16 8 17 9 18 10 8 11 7 12
REMARK SMILES IDX 6 13 5 14 4 15 3 16 2 17 1 18
REMARK H PARENT
REMARK Flexibility Score: inf
ROOT
ATOM      1  C   UNL     1      51.133  77.054  44.736  1.00  0.00     0.000 C 
ENDROOT
BRANCH   1   2
ATOM      2  C   UNL     1      49.948  77.846  44.149  1.00  0.00     0.000 C 
BRANCH   2   3
ATOM      3  C   UNL     1      48.938  77.010  43.339  1.00  0.00     0.000 C 
BRANCH   3   4
ATOM      4  C   UNL     1      48.704  77.493  41.896  1.00  0.00     0.000 C 
BRANCH   4   5
ATOM      5  C   UNL     1      50.010  77.826  41.159  1.00  0.00     0.000 C 
BRANCH   5   6
ATOM      6  C   UNL     1      50.159  79.342  40.965  1.00  0.00     0.006 C 
BRANCH   6   7
ATOM      7  C   UNL     1      51.614  79.755  40.703  1.00  0.00     0.053 C 
BRANCH   7   8
ATOM      8  C   UNL     1      52.175  80.562  41.833  1.00  0.00     0.041 C 
ATOM      9  O   UNL     1      52.635  79.989  42.856  1.00  0.00    -0.550 OA
ATOM     10  O   UNL     1      52.220  81.948  41.741  1.00  0.00    -0.550 OA
ENDBRANCH   7   8
ENDBRANCH   6   7
ENDBRANCH   5   6
ENDBRANCH   4   5
ENDBRANCH   3   4
ENDBRANCH   2   3
ENDBRANCH   1   2
BRANCH   1  11
ATOM     11  C   UNL     1      51.000  75.524  44.645  1.00  0.00     0.000 C 
BRANCH  11  12
ATOM     12  C   UNL     1      51.885  74.916  43.546  1.00  0.00    -0.000 C 
BRANCH  12  13
ATOM     13  C   UNL     1      51.513  73.448  43.292  1.00  0.00    -0.000 C 
BRANCH  13  14
ATOM     14  C   UNL     1      50.175  73.288  42.550  1.00  0.00    -0.000 C 
BRANCH  14  15
ATOM     15  C   UNL     1      50.097  74.094  41.236  1.00  0.00    -0.000 C 
BRANCH  15  16
ATOM     16  C   UNL     1      48.868  73.711  40.394  1.00  0.00    -0.000 C 
BRANCH  16  17
ATOM     17  C   UNL     1      47.877  72.824  41.164  1.00  0.00    -0.003 C 
ATOM     18  C   UNL     1      46.432  73.015  40.705  1.00  0.00     0.004 C 
ENDBRANCH  16  17
ENDBRANCH  15  16
ENDBRANCH  14  15
ENDBRANCH  13  14
ENDBRANCH  12  13
ENDBRANCH  11  12
ENDBRANCH   1  11
TORSDOF 14
ENDMDL
MODEL 2
REMARK VINA RESULT:    -4.413      1.302      1.996
REMARK INTER + INTRA:          -9.736
REMARK INTER:                  -8.249
REMARK INTRA:                  -1.487
REMARK UNBOUND:                -1.711
REMARK SMILES CCCCCCCCCCCCCCCC(=O)[O-]
REMARK SMILES IDX 9 1 10 2 11 3 12 4 13 5 14 6 15 7 16 8 17 9 18 10 8 11 7 12
REMARK SMILES IDX 6 13 5 14 4 15 3 16 2 17 1 18
REMARK H PARENT
REMARK Flexibility Score: inf
ROOT
ATOM      1  C   UNL     1      49.479  76.637  42.370  1.00  0.00     0.000 C 
ENDROOT
BRANCH   1   2
ATOM      2  C   UNL     1      48.680  77.953  42.445  1.00  0.00     0.000 C 
BRANCH   2   3
ATOM      3  C   UNL     1      49.125  79.048  41.455  1.00  0.00     0.000 C 
BRANCH   3   4
ATOM      4  C   UNL     1      50.377  78.705  40.627  1.00  0.00     0.000 C 
BRANCH   4   5
ATOM      5  C   UNL     1      51.458  79.793  40.702  1.00  0.00     0.000 C 
BRANCH   5   6
ATOM      6  C   UNL     1      51.468  80.464  42.083  1.00  0.00     0.006 C 
BRANCH   6   7
ATOM      7  C   UNL     1      52.466  79.803  43.043  1.00  0.00     0.053 C 
BRANCH   7   8
ATOM      8  C   UNL     1      53.746  80.576  43.133  1.00  0.00     0.041 C 
ATOM      9  O   UNL     1      54.618  80.467  42.230  1.00  0.00    -0.550 OA
ATOM     10  O   UNL     1      53.962  81.442  44.197  1.00  0.00    -0.550 OA
ENDBRANCH   7   8
ENDBRANCH   6   7
ENDBRANCH   5   6
ENDBRANCH   4   5
ENDBRANCH   3   4
ENDBRANCH   2   3
ENDBRANCH   1   2
BRANCH   1  11
ATOM     11  C   UNL     1      50.199  76.239  43.671  1.00  0.00     0.000 C 
BRANCH  11  12
ATOM     12  C   UNL     1      51.337  75.235  43.438  1.00  0.00    -0.000 C 
BRANCH  12  13
ATOM     13  C   UNL     1      50.943  74.194  42.381  1.00  0.00    -0.000 C 
BRANCH  13  14
ATOM     14  C   UNL     1      49.959  73.139  42.916  1.00  0.00    -0.000 C 
BRANCH  14  15
ATOM     15  C   UNL     1      49.177  72.405  41.807  1.00  0.00    -0.000 C 
BRANCH  15  16
ATOM     16  C   UNL     1      48.966  73.288  40.565  1.00  0.00    -0.000 C 
BRANCH  16  17
ATOM     17  C   UNL     1      47.596  73.984  40.561  1.00  0.00    -0.003 C 
ATOM     18  C   UNL     1      46.431  72.997  40.633  1.00  0.00     0.004 C 
ENDBRANCH  16  17
ENDBRANCH  15  16
ENDBRANCH  14  15
ENDBRANCH  13  14
ENDBRANCH  12  13
ENDBRANCH  11  12
ENDBRANCH   1  11
TORSDOF 14
ENDMDL
MODEL 3
REMARK VINA RESULT:    -4.336     10.439     12.417
REMARK INTER + INTRA:          -9.596
REMARK INTER:                  -7.905
REMARK INTRA:                  -1.691
REMARK UNBOUND:                -1.711
REMARK SMILES CCCCCCCCCCCCCCCC(=O)[O-]
REMARK SMILES IDX 9 1 10 2 11 3 12 4 13 5 14 6 15 7 16 8 17 9 18 10 8 11 7 12
REMARK SMILES IDX 6 13 5 14 4 15 3 16 2 17 1 18
REMARK H PARENT
REMARK Flexibility Score: inf
ROOT
ATOM      1  C   UNL     1      60.695  76.410  44.510  1.00  0.00     0.000 C 
ENDROOT
BRANCH   1   2
ATOM      2  C   UNL     1      61.485  77.673  44.116  1.00  0.00     0.000 C 
BRANCH   2   3
ATOM      3  C   UNL     1      62.736  77.958  44.971  1.00  0.00     0.000 C 
BRANCH   3   4
ATOM      4  C   UNL     1      63.881  78.671  44.229  1.00  0.00     0.000 C 
BRANCH   4   5
ATOM      5  C   UNL     1      64.871  77.694  43.578  1.00  0.00     0.000 C 
BRANCH   5   6
ATOM      6  C   UNL     1      65.001  76.409  44.410  1.00  0.00     0.006 C 
BRANCH   6   7
ATOM      7  C   UNL     1      64.623  75.157  43.608  1.00  0.00     0.053 C 
BRANCH   7   8
ATOM      8  C   UNL     1      63.690  74.268  44.372  1.00  0.00     0.041 C 
ATOM      9  O   UNL     1      62.883  73.519  43.762  1.00  0.00    -0.550 OA
ATOM     10  O   UNL     1      63.736  74.244  45.761  1.00  0.00    -0.550 OA
ENDBRANCH   7   8
ENDBRANCH   6   7
ENDBRANCH   5   6
ENDBRANCH   4   5
ENDBRANCH   3   4
ENDBRANCH   2   3
ENDBRANCH   1   2
BRANCH   1  11
ATOM     11  C   UNL     1      59.275  76.672  45.042  1.00  0.00     0.000 C 
BRANCH  11  12
ATOM     12  C   UNL     1      58.997  75.958  46.372  1.00  0.00    -0.000 C 
BRANCH  12  13
ATOM     13  C   UNL     1      60.290  75.386  46.970  1.00  0.00    -0.000 C 
BRANCH  13  14
ATOM     14  C   UNL     1      60.254  73.856  47.125  1.00  0.00    -0.000 C 
BRANCH  14  15
ATOM     15  C   UNL     1      58.835  73.258  47.018  1.00  0.00    -0.000 C 
BRANCH  15  16
ATOM     16  C   UNL     1      58.724  72.228  45.880  1.00  0.00    -0.000 C 
BRANCH  16  17
ATOM     17  C   UNL     1      59.806  72.418  44.805  1.00  0.00    -0.003 C 
ATOM     18  C   UNL     1      59.371  71.907  43.432  1.00  0.00     0.004 C 
ENDBRANCH  16  17
ENDBRANCH  15  16
ENDBRANCH  14  15
ENDBRANCH  13  14
ENDBRANCH  12  13
ENDBRANCH  11  12
ENDBRANCH   1  11
TORSDOF 14
ENDMDL
MODEL 4
REMARK VINA RESULT:    -4.285      1.483      3.942
REMARK INTER + INTRA:          -9.503
REMARK INTER:                  -7.491
REMARK INTRA:                  -2.013
REMARK UNBOUND:                -1.711
REMARK SMILES CCCCCCCCCCCCCCCC(=O)[O-]
REMARK SMILES IDX 9 1 10 2 11 3 12 4 13 5 14 6 15 7 16 8 17 9 18 10 8 11 7 12
REMARK SMILES IDX 6 13 5 14 4 15 3 16 2 17 1 18
REMARK H PARENT
REMARK Flexibility Score: inf
ROOT
ATOM      1  C   UNL     1      49.033  73.748  40.499  1.00  0.00     0.000 C 
ENDROOT
BRANCH   1   2
ATOM      2  C   UNL     1      47.592  74.287  40.406  1.00  0.00     0.000 C 
BRANCH   2   3
ATOM      3  C   UNL     1      47.417  75.764  40.813  1.00  0.00     0.000 C 
BRANCH   3   4
ATOM      4  C   UNL     1      48.622  76.383  41.545  1.00  0.00     0.000 C 
BRANCH   4   5
ATOM      5  C   UNL     1      48.249  77.630  42.359  1.00  0.00     0.000 C 
BRANCH   5   6
ATOM      6  C   UNL     1      48.795  78.903  41.694  1.00  0.00     0.006 C 
BRANCH   6   7
ATOM      7  C   UNL     1      50.123  78.655  40.966  1.00  0.00     0.053 C 
BRANCH   7   8
ATOM      8  C   UNL     1      51.118  79.740  41.241  1.00  0.00     0.041 C 
ATOM      9  O   UNL     1      51.394  80.588  40.353  1.00  0.00    -0.550 OA
ATOM     10  O   UNL     1      51.717  79.833  42.491  1.00  0.00    -0.550 OA
ENDBRANCH   7   8
ENDBRANCH   6   7
ENDBRANCH   5   6
ENDBRANCH   4   5
ENDBRANCH   3   4
ENDBRANCH   2   3
ENDBRANCH   1   2
BRANCH   1  11
ATOM     11  C   UNL     1      49.229  72.586  41.489  1.00  0.00     0.000 C 
BRANCH  11  12
ATOM     12  C   UNL     1      48.271  72.658  42.687  1.00  0.00    -0.000 C 
BRANCH  12  13
ATOM     13  C   UNL     1      49.043  72.584  44.012  1.00  0.00    -0.000 C 
BRANCH  13  14
ATOM     14  C   UNL     1      48.658  73.706  44.993  1.00  0.00    -0.000 C 
BRANCH  14  15
ATOM     15  C   UNL     1      49.807  74.697  45.279  1.00  0.00    -0.000 C 
BRANCH  15  16
ATOM     16  C   UNL     1      51.038  74.426  44.397  1.00  0.00    -0.000 C 
BRANCH  16  17
ATOM     17  C   UNL     1      51.588  75.704  43.743  1.00  0.00    -0.003 C 
ATOM     18  C   UNL     1      51.224  76.969  44.519  1.00  0.00     0.004 C 
ENDBRANCH  16  17
ENDBRANCH  15  16
ENDBRANCH  14  15
ENDBRANCH  13  14
ENDBRANCH  12  13
ENDBRANCH  11  12
ENDBRANCH   1  11
TORSDOF 14
ENDMDL
MODEL 5
REMARK VINA RESULT:    -4.277     11.033     13.401
REMARK INTER + INTRA:          -9.489
REMARK INTER:                  -7.178
REMARK INTRA:                  -2.310
REMARK UNBOUND:                -1.711
REMARK SMILES CCCCCCCCCCCCCCCC(=O)[O-]
REMARK SMILES IDX 9 1 10 2 11 3 12 4 13 5 14 6 15 7 16 8 17 9 18 10 8 11 7 12
REMARK SMILES IDX 6 13 5 14 4 15 3 16 2 17 1 18
REMARK H PARENT
REMARK Flexibility Score: inf
ROOT
ATOM      1  C   UNL     1      62.432  77.845  46.607  1.00  0.00     0.000 C 
ENDROOT
BRANCH   1   2
ATOM      2  C   UNL     1      61.181  78.079  45.738  1.00  0.00     0.000 C 
BRANCH   2   3
ATOM      3  C   UNL     1      61.148  77.296  44.410  1.00  0.00     0.000 C 
BRANCH   3   4
ATOM      4  C   UNL     1      60.320  75.999  44.442  1.00  0.00     0.000 C 
BRANCH   4   5
ATOM      5  C   UNL     1      59.751  75.688  45.834  1.00  0.00     0.000 C 
BRANCH   5   6
ATOM      6  C   UNL     1      59.670  74.173  46.069  1.00  0.00     0.006 C 
BRANCH   6   7
ATOM      7  C   UNL     1      60.075  73.369  44.825  1.00  0.00     0.053 C 
BRANCH   7   8
ATOM      8  C   UNL     1      59.388  72.040  44.774  1.00  0.00     0.041 C 
ATOM      9  O   UNL     1      59.583  71.260  43.805  1.00  0.00    -0.550 OA
ATOM     10  O   UNL     1      58.556  71.647  45.816  1.00  0.00    -0.550 OA
ENDBRANCH   7   8
ENDBRANCH   6   7
ENDBRANCH   5   6
ENDBRANCH   4   5
ENDBRANCH   3   4
ENDBRANCH   2   3
ENDBRANCH   1   2
BRANCH   1  11
ATOM     11  C   UNL     1      63.533  78.911  46.462  1.00  0.00     0.000 C 
BRANCH  11  12
ATOM     12  C   UNL     1      64.844  78.338  45.904  1.00  0.00    -0.000 C 
BRANCH  12  13
ATOM     13  C   UNL     1      65.092  78.828  44.470  1.00  0.00    -0.000 C 
BRANCH  13  14
ATOM     14  C   UNL     1      64.682  77.797  43.405  1.00  0.00    -0.000 C 
BRANCH  14  15
ATOM     15  C   UNL     1      65.000  76.340  43.802  1.00  0.00    -0.000 C 
BRANCH  15  16
ATOM     16  C   UNL     1      63.990  75.343  43.207  1.00  0.00    -0.000 C 
BRANCH  16  17
ATOM     17  C   UNL     1      63.676  74.179  44.161  1.00  0.00    -0.003 C 
ATOM     18  C   UNL     1      63.726  74.590  45.632  1.00  0.00     0.004 C 
ENDBRANCH  16  17
ENDBRANCH  15  16
ENDBRANCH  14  15
ENDBRANCH  13  14
ENDBRANCH  12  13
ENDBRANCH  11  12
ENDBRANCH   1  11
TORSDOF 14
ENDMDL
MODEL 6
REMARK VINA RESULT:    -4.270     10.797     13.252
REMARK INTER + INTRA:          -9.475
REMARK INTER:                  -7.348
REMARK INTRA:                  -2.127
REMARK UNBOUND:                -1.711
REMARK SMILES CCCCCCCCCCCCCCCC(=O)[O-]
REMARK SMILES IDX 9 1 10 2 11 3 12 4 13 5 14 6 15 7 16 8 17 9 18 10 8 11 7 12
REMARK SMILES IDX 6 13 5 14 4 15 3 16 2 17 1 18
REMARK H PARENT
REMARK Flexibility Score: inf
ROOT
ATOM      1  C   UNL     1      62.040  77.969  43.434  1.00  0.00     0.000 C 
ENDROOT
BRANCH   1   2
ATOM      2  C   UNL     1      61.171  77.686  44.675  1.00  0.00     0.000 C 
BRANCH   2   3
ATOM      3  C   UNL     1      60.155  76.537  44.516  1.00  0.00     0.000 C 
BRANCH   3   4
ATOM      4  C   UNL     1      58.987  76.560  45.519  1.00  0.00     0.000 C 
BRANCH   4   5
ATOM      5  C   UNL     1      59.170  75.563  46.672  1.00  0.00     0.000 C 
BRANCH   5   6
ATOM      6  C   UNL     1      60.088  74.404  46.255  1.00  0.00     0.006 C 
BRANCH   6   7
ATOM      7  C   UNL     1      59.297  73.147  45.869  1.00  0.00     0.053 C 
BRANCH   7   8
ATOM      8  C   UNL     1      59.817  72.529  44.607  1.00  0.00     0.041 C 
ATOM      9  O   UNL     1      59.230  71.539  44.096  1.00  0.00    -0.550 OA
ATOM     10  O   UNL     1      60.931  73.070  43.977  1.00  0.00    -0.550 OA
ENDBRANCH   7   8
ENDBRANCH   6   7
ENDBRANCH   5   6
ENDBRANCH   4   5
ENDBRANCH   3   4
ENDBRANCH   2   3
ENDBRANCH   1   2
BRANCH   1  11
ATOM     11  C   UNL     1      63.393  78.641  43.727  1.00  0.00     0.000 C 
BRANCH  11  12
ATOM     12  C   UNL     1      63.770  78.592  45.215  1.00  0.00    -0.000 C 
BRANCH  12  13
ATOM     13  C   UNL     1      65.234  78.168  45.396  1.00  0.00    -0.000 C 
BRANCH  13  14
ATOM     14  C   UNL     1      65.381  76.724  45.907  1.00  0.00    -0.000 C 
BRANCH  14  15
ATOM     15  C   UNL     1      64.054  76.105  46.398  1.00  0.00    -0.000 C 
BRANCH  15  16
ATOM     16  C   UNL     1      63.653  74.867  45.577  1.00  0.00    -0.000 C 
BRANCH  16  17
ATOM     17  C   UNL     1      64.480  74.719  44.290  1.00  0.00    -0.003 C 
ATOM     18  C   UNL     1      63.682  75.059  43.032  1.00  0.00     0.004 C 
ENDBRANCH  16  17
ENDBRANCH  15  16
ENDBRANCH  14  15
ENDBRANCH  13  14
ENDBRANCH  12  13
ENDBRANCH  11  12
ENDBRANCH   1  11
TORSDOF 14
ENDMDL
MODEL 7
REMARK VINA RESULT:    -4.237      2.974      6.345
REMARK INTER + INTRA:          -9.416
REMARK INTER:                  -7.931
REMARK INTRA:                  -1.485
REMARK UNBOUND:                -1.711
REMARK SMILES CCCCCCCCCCCCCCCC(=O)[O-]
REMARK SMILES IDX 9 1 10 2 11 3 12 4 13 5 14 6 15 7 16 8 17 9 18 10 8 11 7 12
REMARK SMILES IDX 6 13 5 14 4 15 3 16 2 17 1 18
REMARK H PARENT
REMARK Flexibility Score: inf
ROOT
ATOM      1  C   UNL     1      51.467  75.771  44.555  1.00  0.00     0.000 C 
ENDROOT
BRANCH   1   2
ATOM      2  C   UNL     1      51.677  74.585  43.593  1.00  0.00     0.000 C 
BRANCH   2   3
ATOM      3  C   UNL     1      51.078  73.245  44.063  1.00  0.00     0.000 C 
BRANCH   3   4
ATOM      4  C   UNL     1      50.375  72.427  42.964  1.00  0.00     0.000 C 
BRANCH   4   5
ATOM      5  C   UNL     1      49.195  73.175  42.327  1.00  0.00     0.000 C 
BRANCH   5   6
ATOM      6  C   UNL     1      49.546  73.649  40.909  1.00  0.00     0.006 C 
BRANCH   6   7
ATOM      7  C   UNL     1      48.344  73.578  39.958  1.00  0.00     0.053 C 
BRANCH   7   8
ATOM      8  C   UNL     1      47.131  74.229  40.546  1.00  0.00     0.041 C 
ATOM      9  O   UNL     1      47.074  75.482  40.660  1.00  0.00    -0.550 OA
ATOM     10  O   UNL     1      46.047  73.454  40.940  1.00  0.00    -0.550 OA
ENDBRANCH   7   8
ENDBRANCH   6   7
ENDBRANCH   5   6
ENDBRANCH   4   5
ENDBRANCH   3   4
ENDBRANCH   2   3
ENDBRANCH   1   2
BRANCH   1  11
ATOM     11  C   UNL     1      51.016  77.080  43.883  1.00  0.00     0.000 C 
BRANCH  11  12
ATOM     12  C   UNL     1      50.209  76.842  42.598  1.00  0.00    -0.000 C 
BRANCH  12  13
ATOM     13  C   UNL     1      49.021  77.810  42.508  1.00  0.00    -0.000 C 
BRANCH  13  14
ATOM     14  C   UNL     1      49.293  79.010  41.585  1.00  0.00    -0.000 C 
BRANCH  14  15
ATOM     15  C   UNL     1      50.461  78.780  40.602  1.00  0.00    -0.000 C 
BRANCH  15  16
ATOM     16  C   UNL     1      51.509  79.905  40.675  1.00  0.00    -0.000 C 
BRANCH  16  17
ATOM     17  C   UNL     1      51.792  80.356  42.116  1.00  0.00    -0.003 C 
ATOM     18  C   UNL     1      53.263  80.699  42.351  1.00  0.00     0.004 C 
ENDBRANCH  16  17
ENDBRANCH  15  16
ENDBRANCH  14  15
ENDBRANCH  13  14
ENDBRANCH  12  13
ENDBRANCH  11  12
ENDBRANCH   1  11
TORSDOF 14
ENDMDL
MODEL 8
REMARK VINA RESULT:    -4.237      2.335      3.232
REMARK INTER + INTRA:          -9.415
REMARK INTER:                  -7.840
REMARK INTRA:                  -1.575
REMARK UNBOUND:                -1.711
REMARK SMILES CCCCCCCCCCCCCCCC(=O)[O-]
REMARK SMILES IDX 9 1 10 2 11 3 12 4 13 5 14 6 15 7 16 8 17 9 18 10 8 11 7 12
REMARK SMILES IDX 6 13 5 14 4 15 3 16 2 17 1 18
REMARK H PARENT
REMARK Flexibility Score: inf
ROOT
ATOM      1  C   UNL     1      51.870  74.556  43.298  1.00  0.00     0.000 C 
ENDROOT
BRANCH   1   2
ATOM      2  C   UNL     1      51.027  75.525  44.150  1.00  0.00     0.000 C 
BRANCH   2   3
ATOM      3  C   UNL     1      50.648  76.849  43.456  1.00  0.00     0.000 C 
BRANCH   3   4
ATOM      4  C   UNL     1      49.576  76.722  42.359  1.00  0.00     0.000 C 
BRANCH   4   5
ATOM      5  C   UNL     1      49.718  77.787  41.261  1.00  0.00     0.000 C 
BRANCH   5   6
ATOM      6  C   UNL     1      48.734  78.944  41.488  1.00  0.00     0.006 C 
BRANCH   6   7
ATOM      7  C   UNL     1      47.518  78.518  42.321  1.00  0.00     0.053 C 
BRANCH   7   8
ATOM      8  C   UNL     1      47.244  79.480  43.436  1.00  0.00     0.041 C 
ATOM      9  O   UNL     1      46.095  79.551  43.946  1.00  0.00    -0.550 OA
ATOM     10  O   UNL     1      48.268  80.276  43.934  1.00  0.00    -0.550 OA
ENDBRANCH   7   8
ENDBRANCH   6   7
ENDBRANCH   5   6
ENDBRANCH   4   5
ENDBRANCH   3   4
ENDBRANCH   2   3
ENDBRANCH   1   2
BRANCH   1  11
ATOM     11  C   UNL     1      51.460  73.076  43.401  1.00  0.00     0.000 C 
BRANCH  11  12
ATOM     12  C   UNL     1      50.767  72.742  44.729  1.00  0.00    -0.000 C 
BRANCH  12  13
ATOM     13  C   UNL     1      49.392  72.104  44.486  1.00  0.00    -0.000 C 
BRANCH  13  14
ATOM     14  C   UNL     1      48.532  72.895  43.487  1.00  0.00    -0.000 C 
BRANCH  14  15
ATOM     15  C   UNL     1      48.337  72.177  42.135  1.00  0.00    -0.000 C 
BRANCH  15  16
ATOM     16  C   UNL     1      47.220  72.818  41.293  1.00  0.00    -0.000 C 
BRANCH  16  17
ATOM     17  C   UNL     1      47.731  73.969  40.412  1.00  0.00    -0.003 C 
ATOM     18  C   UNL     1      49.204  73.817  40.035  1.00  0.00     0.004 C 
ENDBRANCH  16  17
ENDBRANCH  15  16
ENDBRANCH  14  15
ENDBRANCH  13  14
ENDBRANCH  12  13
ENDBRANCH  11  12
ENDBRANCH   1  11
TORSDOF 14
ENDMDL
MODEL 9
REMARK VINA RESULT:    -4.208      3.092      5.896
REMARK INTER + INTRA:          -9.362
REMARK INTER:                  -7.300
REMARK INTRA:                  -2.062
REMARK UNBOUND:                -1.711
REMARK SMILES CCCCCCCCCCCCCCCC(=O)[O-]
REMARK SMILES IDX 9 1 10 2 11 3 12 4 13 5 14 6 15 7 16 8 17 9 18 10 8 11 7 12
REMARK SMILES IDX 6 13 5 14 4 15 3 16 2 17 1 18
REMARK H PARENT
REMARK Flexibility Score: inf
ROOT
ATOM      1  C   UNL     1      51.811  77.285  44.466  1.00  0.00     0.000 C 
ENDROOT
BRANCH   1   2
ATOM      2  C   UNL     1      50.689  76.257  44.716  1.00  0.00     0.000 C 
BRANCH   2   3
ATOM      3  C   UNL     1      51.082  74.786  44.471  1.00  0.00     0.000 C 
BRANCH   3   4
ATOM      4  C   UNL     1      51.508  74.460  43.029  1.00  0.00     0.000 C 
BRANCH   4   5
ATOM      5  C   UNL     1      50.446  73.662  42.258  1.00  0.00     0.000 C 
BRANCH   5   6
ATOM      6  C   UNL     1      49.994  74.420  41.002  1.00  0.00     0.006 C 
BRANCH   6   7
ATOM      7  C   UNL     1      48.938  73.644  40.203  1.00  0.00     0.053 C 
BRANCH   7   8
ATOM      8  C   UNL     1      47.548  73.964  40.662  1.00  0.00     0.041 C 
ATOM      9  O   UNL     1      47.109  75.141  40.586  1.00  0.00    -0.550 OA
ATOM     10  O   UNL     1      46.726  72.953  41.144  1.00  0.00    -0.550 OA
ENDBRANCH   7   8
ENDBRANCH   6   7
ENDBRANCH   5   6
ENDBRANCH   4   5
ENDBRANCH   3   4
ENDBRANCH   2   3
ENDBRANCH   1   2
BRANCH   1  11
ATOM     11  C   UNL     1      51.443  78.742  44.801  1.00  0.00     0.000 C 
BRANCH  11  12
ATOM     12  C   UNL     1      49.946  78.925  45.091  1.00  0.00    -0.000 C 
BRANCH  12  13
ATOM     13  C   UNL     1      49.369  80.094  44.280  1.00  0.00    -0.000 C 
BRANCH  13  14
ATOM     14  C   UNL     1      48.113  79.708  43.481  1.00  0.00    -0.000 C 
BRANCH  14  15
ATOM     15  C   UNL     1      48.161  78.274  42.911  1.00  0.00    -0.000 C 
BRANCH  15  16
ATOM     16  C   UNL     1      48.606  78.250  41.438  1.00  0.00    -0.000 C 
BRANCH  16  17
ATOM     17  C   UNL     1      50.129  78.109  41.284  1.00  0.00    -0.003 C 
ATOM     18  C   UNL     1      50.805  79.416  40.872  1.00  0.00     0.004 C 
ENDBRANCH  16  17
ENDBRANCH  15  16
ENDBRANCH  14  15
ENDBRANCH  13  14
ENDBRANCH  12  13
ENDBRANCH  11  12
ENDBRANCH   1  11
TORSDOF 14
ENDMDL
