MODEL 1
REMARK VINA RESULT:    -4.515      0.000      0.000
REMARK INTER + INTRA:         -10.232
REMARK INTER:                  -8.737
REMARK INTRA:                  -1.495
REMARK UNBOUND:                -1.495
REMARK SMILES CCCCCCCCCCCCCCCCCC(=O)[O-]
REMARK SMILES IDX 10 1 11 2 12 3 13 4 14 5 15 6 16 7 17 8 18 9 19 10 20 11
REMARK SMILES IDX 9 12 8 13 7 14 6 15 5 16 4 17 3 18 2 19 1 20
REMARK H PARENT
REMARK Flexibility Score: inf
ROOT
ATOM      1  C   UNL     1      17.334   3.270  -1.192  1.00  0.00     0.000 C 
ENDROOT
BRANCH   1   2
ATOM      2  C   UNL     1      17.097   4.729  -0.761  1.00  0.00     0.000 C 
BRANCH   2   3
ATOM      3  C   UNL     1      18.367   5.522  -0.378  1.00  0.00     0.000 C 
BRANCH   3   4
ATOM      4  C   UNL     1      18.360   6.145   1.029  1.00  0.00     0.000 C 
BRANCH   4   5
ATOM      5  C   UNL     1      19.535   5.674   1.900  1.00  0.00     0.000 C 
BRANCH   5   6
ATOM      6  C   UNL     1      19.114   4.641   2.958  1.00  0.00     0.000 C 
BRANCH   6   7
ATOM      7  C   UNL     1      17.585   4.553   3.165  1.00  0.00     0.006 C 
BRANCH   7   8
ATOM      8  C   UNL     1      17.110   3.147   3.571  1.00  0.00     0.053 C 
BRANCH   8   9
ATOM      9  C   UNL     1      16.871   2.280   2.372  1.00  0.00     0.041 C 
ATOM     10  O   UNL     1      17.780   1.518   1.950  1.00  0.00    -0.550 OA
ATOM     11  O   UNL     1      15.654   2.332   1.705  1.00  0.00    -0.550 OA
ENDBRANCH   8   9
ENDBRANCH   7   8
ENDBRANCH   6   7
ENDBRANCH   5   6
ENDBRANCH   4   5
ENDBRANCH   3   4
ENDBRANCH   2   3
ENDBRANCH   1   2
BRANCH   1  12
ATOM     12  C   UNL     1      18.686   3.059  -1.897  1.00  0.00     0.000 C 
BRANCH  12  13
ATOM     13  C   UNL     1      18.537   2.312  -3.230  1.00  0.00    -0.000 C 
BRANCH  13  14
ATOM     14  C   UNL     1      17.518   2.967  -4.178  1.00  0.00    -0.000 C 
BRANCH  14  15
ATOM     15  C   UNL     1      16.920   1.948  -5.170  1.00  0.00    -0.000 C 
BRANCH  15  16
ATOM     16  C   UNL     1      16.318   2.595  -6.436  1.00  0.00    -0.000 C 
BRANCH  16  17
ATOM     17  C   UNL     1      17.119   3.778  -7.006  1.00  0.00    -0.000 C 
BRANCH  17  18
ATOM     18  C   UNL     1      16.298   5.078  -7.057  1.00  0.00    -0.000 C 
BRANCH  18  19
ATOM     19  C   UNL     1      14.943   4.947  -6.342  1.00  0.00    -0.003 C 
ATOM     20  C   UNL     1      13.924   5.992  -6.797  1.00  0.00     0.004 C 
ENDBRANCH  18  19
ENDBRANCH  17  18
ENDBRANCH  16  17
ENDBRANCH  15  16
ENDBRANCH  14  15
ENDBRANCH  13  14
ENDBRANCH  12  13
ENDBRANCH   1  12
TORSDOF 16
ENDMDL
MODEL 2
REMARK VINA RESULT:    -4.441      1.585      2.487
REMARK INTER + INTRA:         -10.089
REMARK INTER:                  -8.019
REMARK INTRA:                  -2.069
REMARK UNBOUND:                -1.495
REMARK SMILES CCCCCCCCCCCCCCCCCC(=O)[O-]
REMARK SMILES IDX 10 1 11 2 12 3 13 4 14 5 15 6 16 7 17 8 18 9 19 10 20 11
REMARK SMILES IDX 9 12 8 13 7 14 6 15 5 16 4 17 3 18 2 19 1 20
REMARK H PARENT
REMARK Flexibility Score: inf
ROOT
ATOM      1  C   UNL     1      18.138   3.289  -3.326  1.00  0.00     0.000 C 
ENDROOT
BRANCH   1   2
ATOM      2  C   UNL     1      19.171   4.283  -3.888  1.00  0.00     0.000 C 
BRANCH   2   3
ATOM      3  C   UNL     1      19.697   5.332  -2.883  1.00  0.00     0.000 C 
BRANCH   3   4
ATOM      4  C   UNL     1      19.526   4.970  -1.396  1.00  0.00     0.000 C 
BRANCH   4   5
ATOM      5  C   UNL     1      18.396   5.757  -0.713  1.00  0.00     0.000 C 
BRANCH   5   6
ATOM      6  C   UNL     1      17.884   5.071   0.564  1.00  0.00     0.000 C 
BRANCH   6   7
ATOM      7  C   UNL     1      18.310   3.591   0.688  1.00  0.00     0.006 C 
BRANCH   7   8
ATOM      8  C   UNL     1      17.245   2.611   0.166  1.00  0.00     0.053 C 
BRANCH   8   9
ATOM      9  C   UNL     1      15.985   2.686   0.974  1.00  0.00     0.041 C 
ATOM     10  O   UNL     1      15.979   2.310   2.175  1.00  0.00    -0.550 OA
ATOM     11  O   UNL     1      14.811   3.147   0.393  1.00  0.00    -0.550 OA
ENDBRANCH   8   9
ENDBRANCH   7   8
ENDBRANCH   6   7
ENDBRANCH   5   6
ENDBRANCH   4   5
ENDBRANCH   3   4
ENDBRANCH   2   3
ENDBRANCH   1   2
BRANCH   1  12
ATOM     12  C   UNL     1      16.942   3.061  -4.268  1.00  0.00     0.000 C 
BRANCH  12  13
ATOM     13  C   UNL     1      17.099   1.787  -5.111  1.00  0.00    -0.000 C 
BRANCH  13  14
ATOM     14  C   UNL     1      16.808   2.012  -6.604  1.00  0.00    -0.000 C 
BRANCH  14  15
ATOM     15  C   UNL     1      18.103   2.220  -7.416  1.00  0.00    -0.000 C 
BRANCH  15  16
ATOM     16  C   UNL     1      18.505   3.702  -7.574  1.00  0.00    -0.000 C 
BRANCH  16  17
ATOM     17  C   UNL     1      17.383   4.632  -8.065  1.00  0.00    -0.000 C 
BRANCH  17  18
ATOM     18  C   UNL     1      17.060   5.750  -7.060  1.00  0.00    -0.000 C 
BRANCH  18  19
ATOM     19  C   UNL     1      15.559   6.082  -7.009  1.00  0.00    -0.003 C 
ATOM     20  C   UNL     1      14.729   4.989  -6.334  1.00  0.00     0.004 C 
ENDBRANCH  18  19
ENDBRANCH  17  18
ENDBRANCH  16  17
ENDBRANCH  15  16
ENDBRANCH  14  15
ENDBRANCH  13  14
ENDBRANCH  12  13
ENDBRANCH   1  12
TORSDOF 16
ENDMDL
MODEL 3
REMARK VINA RESULT:    -4.364      1.524      2.354
REMARK INTER + INTRA:          -9.941
REMARK INTER:                  -8.030
REMARK INTRA:                  -1.911
REMARK UNBOUND:                -1.495
REMARK SMILES CCCCCCCCCCCCCCCCCC(=O)[O-]
REMARK SMILES IDX 10 1 11 2 12 3 13 4 14 5 15 6 16 7 17 8 18 9 19 10 20 11
REMARK SMILES IDX 9 12 8 13 7 14 6 15 5 16 4 17 3 18 2 19 1 20
REMARK H PARENT
REMARK Flexibility Score: inf
ROOT
ATOM      1  C   UNL     1      19.502   4.141  -3.526  1.00  0.00     0.000 C 
ENDROOT
BRANCH   1   2
ATOM      2  C   UNL     1      19.828   4.575  -2.085  1.00  0.00     0.000 C 
BRANCH   2   3
ATOM      3  C   UNL     1      18.956   5.720  -1.524  1.00  0.00     0.000 C 
BRANCH   3   4
ATOM      4  C   UNL     1      18.049   5.342  -0.338  1.00  0.00     0.000 C 
BRANCH   4   5
ATOM      5  C   UNL     1      16.854   4.468  -0.751  1.00  0.00     0.000 C 
BRANCH   5   6
ATOM      6  C   UNL     1      16.994   3.011  -0.281  1.00  0.00     0.000 C 
BRANCH   6   7
ATOM      7  C   UNL     1      17.833   2.852   1.006  1.00  0.00     0.006 C 
BRANCH   7   8
ATOM      8  C   UNL     1      16.989   2.922   2.290  1.00  0.00     0.053 C 
BRANCH   8   9
ATOM      9  C   UNL     1      17.565   3.895   3.275  1.00  0.00     0.041 C 
ATOM     10  O   UNL     1      18.585   4.568   2.976  1.00  0.00    -0.550 OA
ATOM     11  O   UNL     1      16.991   4.038   4.531  1.00  0.00    -0.550 OA
ENDBRANCH   8   9
ENDBRANCH   7   8
ENDBRANCH   6   7
ENDBRANCH   5   6
ENDBRANCH   4   5
ENDBRANCH   3   4
ENDBRANCH   2   3
ENDBRANCH   1   2
BRANCH   1  12
ATOM     12  C   UNL     1      18.857   2.745  -3.607  1.00  0.00     0.000 C 
BRANCH  12  13
ATOM     13  C   UNL     1      17.364   2.813  -3.961  1.00  0.00    -0.000 C 
BRANCH  13  14
ATOM     14  C   UNL     1      16.917   1.683  -4.903  1.00  0.00    -0.000 C 
BRANCH  14  15
ATOM     15  C   UNL     1      16.261   2.232  -6.187  1.00  0.00    -0.000 C 
BRANCH  15  16
ATOM     16  C   UNL     1      17.243   2.383  -7.368  1.00  0.00    -0.000 C 
BRANCH  16  17
ATOM     17  C   UNL     1      17.480   3.829  -7.836  1.00  0.00    -0.000 C 
BRANCH  17  18
ATOM     18  C   UNL     1      17.108   4.866  -6.763  1.00  0.00    -0.000 C 
BRANCH  18  19
ATOM     19  C   UNL     1      16.004   5.829  -7.231  1.00  0.00    -0.003 C 
ATOM     20  C   UNL     1      14.676   5.611  -6.505  1.00  0.00     0.004 C 
ENDBRANCH  18  19
ENDBRANCH  17  18
ENDBRANCH  16  17
ENDBRANCH  15  16
ENDBRANCH  14  15
ENDBRANCH  13  14
ENDBRANCH  12  13
ENDBRANCH   1  12
TORSDOF 16
ENDMDL
MODEL 4
REMARK VINA RESULT:    -4.336      2.912      7.734
REMARK INTER + INTRA:          -9.885
REMARK INTER:                  -7.611
REMARK INTRA:                  -2.274
REMARK UNBOUND:                -1.495
REMARK SMILES CCCCCCCCCCCCCCCCCC(=O)[O-]
REMARK SMILES IDX 10 1 11 2 12 3 13 4 14 5 15 6 16 7 17 8 18 9 19 10 20 11
REMARK SMILES IDX 9 12 8 13 7 14 6 15 5 16 4 17 3 18 2 19 1 20
REMARK H PARENT
REMARK Flexibility Score: inf
ROOT
ATOM      1  C   UNL     1      18.247   5.650  -0.228  1.00  0.00     0.000 C 
ENDROOT
BRANCH   1   2
ATOM      2  C   UNL     1      19.471   4.789  -0.591  1.00  0.00     0.000 C 
BRANCH   2   3
ATOM      3  C   UNL     1      19.163   3.492  -1.371  1.00  0.00     0.000 C 
BRANCH   3   4
ATOM      4  C   UNL     1      17.868   3.511  -2.204  1.00  0.00     0.000 C 
BRANCH   4   5
ATOM      5  C   UNL     1      18.051   2.921  -3.611  1.00  0.00     0.000 C 
BRANCH   5   6
ATOM      6  C   UNL     1      18.527   3.964  -4.635  1.00  0.00     0.000 C 
BRANCH   6   7
ATOM      7  C   UNL     1      18.111   3.642  -6.088  1.00  0.00     0.006 C 
BRANCH   7   8
ATOM      8  C   UNL     1      17.115   4.659  -6.671  1.00  0.00     0.053 C 
BRANCH   8   9
ATOM      9  C   UNL     1      15.696   4.228  -6.449  1.00  0.00     0.041 C 
ATOM     10  O   UNL     1      14.791   5.088  -6.292  1.00  0.00    -0.550 OA
ATOM     11  O   UNL     1      15.379   2.878  -6.390  1.00  0.00    -0.550 OA
ENDBRANCH   8   9
ENDBRANCH   7   8
ENDBRANCH   6   7
ENDBRANCH   5   6
ENDBRANCH   4   5
ENDBRANCH   3   4
ENDBRANCH   2   3
ENDBRANCH   1   2
BRANCH   1  12
ATOM     12  C   UNL     1      18.246   6.112   1.240  1.00  0.00     0.000 C 
BRANCH  12  13
ATOM     13  C   UNL     1      19.649   6.079   1.863  1.00  0.00    -0.000 C 
BRANCH  13  14
ATOM     14  C   UNL     1      19.744   5.151   3.086  1.00  0.00    -0.000 C 
BRANCH  14  15
ATOM     15  C   UNL     1      18.350   4.798   3.647  1.00  0.00    -0.000 C 
BRANCH  15  16
ATOM     16  C   UNL     1      18.008   3.296   3.557  1.00  0.00    -0.000 C 
BRANCH  16  17
ATOM     17  C   UNL     1      18.619   2.560   2.352  1.00  0.00    -0.000 C 
BRANCH  17  18
ATOM     18  C   UNL     1      17.556   1.868   1.482  1.00  0.00    -0.000 C 
BRANCH  18  19
ATOM     19  C   UNL     1      16.138   2.398   1.751  1.00  0.00    -0.003 C 
ATOM     20  C   UNL     1      15.452   2.932   0.493  1.00  0.00     0.004 C 
ENDBRANCH  18  19
ENDBRANCH  17  18
ENDBRANCH  16  17
ENDBRANCH  15  16
ENDBRANCH  14  15
ENDBRANCH  13  14
ENDBRANCH  12  13
ENDBRANCH   1  12
TORSDOF 16
ENDMDL
MODEL 5
REMARK VINA RESULT:    -4.293      3.048      7.514
REMARK INTER + INTRA:          -9.804
REMARK INTER:                  -7.474
REMARK INTRA:                  -2.330
REMARK UNBOUND:                -1.495
REMARK SMILES CCCCCCCCCCCCCCCCCC(=O)[O-]
REMARK SMILES IDX 10 1 11 2 12 3 13 4 14 5 15 6 16 7 17 8 18 9 19 10 20 11
REMARK SMILES IDX 9 12 8 13 7 14 6 15 5 16 4 17 3 18 2 19 1 20
REMARK H PARENT
REMARK Flexibility Score: inf
ROOT
ATOM      1  C   UNL     1      18.351   6.063   1.130  1.00  0.00     0.000 C 
ENDROOT
BRANCH   1   2
ATOM      2  C   UNL     1      17.936   5.485  -0.235  1.00  0.00     0.000 C 
BRANCH   2   3
ATOM      3  C   UNL     1      18.974   5.648  -1.367  1.00  0.00     0.000 C 
BRANCH   3   4
ATOM      4  C   UNL     1      19.276   4.376  -2.179  1.00  0.00     0.000 C 
BRANCH   4   5
ATOM      5  C   UNL     1      18.621   3.117  -1.587  1.00  0.00     0.000 C 
BRANCH   5   6
ATOM      6  C   UNL     1      17.577   2.493  -2.528  1.00  0.00     0.000 C 
BRANCH   6   7
ATOM      7  C   UNL     1      17.530   3.151  -3.925  1.00  0.00     0.006 C 
BRANCH   7   8
ATOM      8  C   UNL     1      16.975   2.216  -5.015  1.00  0.00     0.053 C 
BRANCH   8   9
ATOM      9  C   UNL     1      16.138   2.965  -6.008  1.00  0.00     0.041 C 
ATOM     10  O   UNL     1      15.137   2.415  -6.536  1.00  0.00    -0.550 OA
ATOM     11  O   UNL     1      16.481   4.261  -6.371  1.00  0.00    -0.550 OA
ENDBRANCH   8   9
ENDBRANCH   7   8
ENDBRANCH   6   7
ENDBRANCH   5   6
ENDBRANCH   4   5
ENDBRANCH   3   4
ENDBRANCH   2   3
ENDBRANCH   1   2
BRANCH   1  12
ATOM     12  C   UNL     1      19.551   5.331   1.759  1.00  0.00     0.000 C 
BRANCH  12  13
ATOM     13  C   UNL     1      19.739   5.688   3.241  1.00  0.00    -0.000 C 
BRANCH  13  14
ATOM     14  C   UNL     1      19.516   4.491   4.181  1.00  0.00    -0.000 C 
BRANCH  14  15
ATOM     15  C   UNL     1      18.043   4.378   4.626  1.00  0.00    -0.000 C 
BRANCH  15  16
ATOM     16  C   UNL     1      17.347   3.088   4.145  1.00  0.00    -0.000 C 
BRANCH  16  17
ATOM     17  C   UNL     1      18.130   2.277   3.098  1.00  0.00    -0.000 C 
BRANCH  17  18
ATOM     18  C   UNL     1      17.351   2.101   1.783  1.00  0.00    -0.000 C 
BRANCH  18  19
ATOM     19  C   UNL     1      16.110   3.006   1.708  1.00  0.00    -0.003 C 
ATOM     20  C   UNL     1      15.327   2.838   0.406  1.00  0.00     0.004 C 
ENDBRANCH  18  19
ENDBRANCH  17  18
ENDBRANCH  16  17
ENDBRANCH  15  16
ENDBRANCH  14  15
ENDBRANCH  13  14
ENDBRANCH  12  13
ENDBRANCH   1  12
TORSDOF 16
ENDMDL
MODEL 6
REMARK VINA RESULT:    -4.293      1.131      1.943
REMARK INTER + INTRA:          -9.802
REMARK INTER:                  -7.716
REMARK INTRA:                  -2.087
REMARK UNBOUND:                -1.495
REMARK SMILES CCCCCCCCCCCCCCCCCC(=O)[O-]
REMARK SMILES IDX 10 1 11 2 12 3 13 4 14 5 15 6 16 7 17 8 18 9 19 10 20 11
REMARK SMILES IDX 9 12 8 13 7 14 6 15 5 16 4 17 3 18 2 19 1 20
REMARK H PARENT
REMARK Flexibility Score: inf
ROOT
ATOM      1  C   UNL     1      17.506   3.182  -0.107  1.00  0.00     0.000 C 
ENDROOT
BRANCH   1   2
ATOM      2  C   UNL     1      17.132   4.619  -0.513  1.00  0.00     0.000 C 
BRANCH   2   3
ATOM      3  C   UNL     1      18.241   5.675  -0.310  1.00  0.00     0.000 C 
BRANCH   3   4
ATOM      4  C   UNL     1      18.284   6.333   1.081  1.00  0.00     0.000 C 
BRANCH   4   5
ATOM      5  C   UNL     1      19.546   5.969   1.879  1.00  0.00     0.000 C 
BRANCH   5   6
ATOM      6  C   UNL     1      19.225   5.308   3.229  1.00  0.00     0.000 C 
BRANCH   6   7
ATOM      7  C   UNL     1      17.846   4.612   3.267  1.00  0.00     0.006 C 
BRANCH   7   8
ATOM      8  C   UNL     1      17.924   3.140   3.707  1.00  0.00     0.053 C 
BRANCH   8   9
ATOM      9  C   UNL     1      16.561   2.524   3.812  1.00  0.00     0.041 C 
ATOM     10  O   UNL     1      16.042   1.963   2.813  1.00  0.00    -0.550 OA
ATOM     11  O   UNL     1      15.854   2.596   5.005  1.00  0.00    -0.550 OA
ENDBRANCH   8   9
ENDBRANCH   7   8
ENDBRANCH   6   7
ENDBRANCH   5   6
ENDBRANCH   4   5
ENDBRANCH   3   4
ENDBRANCH   2   3
ENDBRANCH   1   2
BRANCH   1  12
ATOM     12  C   UNL     1      18.974   2.830  -0.408  1.00  0.00     0.000 C 
BRANCH  12  13
ATOM     13  C   UNL     1      19.122   2.005  -1.696  1.00  0.00    -0.000 C 
BRANCH  13  14
ATOM     14  C   UNL     1      19.729   2.808  -2.859  1.00  0.00    -0.000 C 
BRANCH  14  15
ATOM     15  C   UNL     1      18.639   3.415  -3.767  1.00  0.00    -0.000 C 
BRANCH  15  16
ATOM     16  C   UNL     1      17.300   2.649  -3.725  1.00  0.00    -0.000 C 
BRANCH  16  17
ATOM     17  C   UNL     1      17.104   1.619  -4.850  1.00  0.00    -0.000 C 
BRANCH  17  18
ATOM     18  C   UNL     1      16.981   2.273  -6.236  1.00  0.00    -0.000 C 
BRANCH  18  19
ATOM     19  C   UNL     1      15.598   2.903  -6.470  1.00  0.00    -0.003 C 
ATOM     20  C   UNL     1      15.624   4.431  -6.442  1.00  0.00     0.004 C 
ENDBRANCH  18  19
ENDBRANCH  17  18
ENDBRANCH  16  17
ENDBRANCH  15  16
ENDBRANCH  14  15
ENDBRANCH  13  14
ENDBRANCH  12  13
ENDBRANCH   1  12
TORSDOF 16
ENDMDL
MODEL 7
REMARK VINA RESULT:    -4.291      1.589      2.126
REMARK INTER + INTRA:          -9.800
REMARK INTER:                  -8.077
REMARK INTRA:                  -1.723
REMARK UNBOUND:                -1.495
REMARK SMILES CCCCCCCCCCCCCCCCCC(=O)[O-]
REMARK SMILES IDX 10 1 11 2 12 3 13 4 14 5 15 6 16 7 17 8 18 9 19 10 20 11
REMARK SMILES IDX 9 12 8 13 7 14 6 15 5 16 4 17 3 18 2 19 1 20
REMARK H PARENT
REMARK Flexibility Score: inf
ROOT
ATOM      1  C   UNL     1      19.145   2.919  -0.664  1.00  0.00     0.000 C 
ENDROOT
BRANCH   1   2
ATOM      2  C   UNL     1      17.657   3.262  -0.471  1.00  0.00     0.000 C 
BRANCH   2   3
ATOM      3  C   UNL     1      17.271   4.729  -0.765  1.00  0.00     0.000 C 
BRANCH   3   4
ATOM      4  C   UNL     1      18.344   5.778  -0.426  1.00  0.00     0.000 C 
BRANCH   4   5
ATOM      5  C   UNL     1      18.347   6.177   1.059  1.00  0.00     0.000 C 
BRANCH   5   6
ATOM      6  C   UNL     1      19.699   5.913   1.741  1.00  0.00     0.000 C 
BRANCH   6   7
ATOM      7  C   UNL     1      19.620   4.894   2.900  1.00  0.00     0.006 C 
BRANCH   7   8
ATOM      8  C   UNL     1      18.223   4.272   3.064  1.00  0.00     0.053 C 
BRANCH   8   9
ATOM      9  C   UNL     1      17.752   4.344   4.485  1.00  0.00     0.041 C 
ATOM     10  O   UNL     1      16.646   3.840   4.812  1.00  0.00    -0.550 OA
ATOM     11  O   UNL     1      18.522   4.990   5.443  1.00  0.00    -0.550 OA
ENDBRANCH   8   9
ENDBRANCH   7   8
ENDBRANCH   6   7
ENDBRANCH   5   6
ENDBRANCH   4   5
ENDBRANCH   3   4
ENDBRANCH   2   3
ENDBRANCH   1   2
BRANCH   1  12
ATOM     12  C   UNL     1      19.428   2.167  -1.977  1.00  0.00     0.000 C 
BRANCH  12  13
ATOM     13  C   UNL     1      19.618   3.122  -3.165  1.00  0.00    -0.000 C 
BRANCH  13  14
ATOM     14  C   UNL     1      18.827   2.695  -4.413  1.00  0.00    -0.000 C 
BRANCH  14  15
ATOM     15  C   UNL     1      17.332   3.057  -4.296  1.00  0.00    -0.000 C 
BRANCH  15  16
ATOM     16  C   UNL     1      16.440   2.358  -5.343  1.00  0.00    -0.000 C 
BRANCH  16  17
ATOM     17  C   UNL     1      16.066   3.221  -6.560  1.00  0.00    -0.000 C 
BRANCH  17  18
ATOM     18  C   UNL     1      16.797   4.574  -6.572  1.00  0.00    -0.000 C 
BRANCH  18  19
ATOM     19  C   UNL     1      15.910   5.718  -7.089  1.00  0.00    -0.003 C 
ATOM     20  C   UNL     1      14.476   5.645  -6.566  1.00  0.00     0.004 C 
ENDBRANCH  18  19
ENDBRANCH  17  18
ENDBRANCH  16  17
ENDBRANCH  15  16
ENDBRANCH  14  15
ENDBRANCH  13  14
ENDBRANCH  12  13
ENDBRANCH   1  12
TORSDOF 16
ENDMDL
MODEL 8
REMARK VINA RESULT:    -4.246      3.114      8.388
REMARK INTER + INTRA:          -9.712
REMARK INTER:                  -8.232
REMARK INTRA:                  -1.481
REMARK UNBOUND:                -1.495
REMARK SMILES CCCCCCCCCCCCCCCCCC(=O)[O-]
REMARK SMILES IDX 10 1 11 2 12 3 13 4 14 5 15 6 16 7 17 8 18 9 19 10 20 11
REMARK SMILES IDX 9 12 8 13 7 14 6 15 5 16 4 17 3 18 2 19 1 20
REMARK H PARENT
REMARK Flexibility Score: inf
ROOT
ATOM      1  C   UNL     1      16.908   4.604  -0.723  1.00  0.00     0.000 C 
ENDROOT
BRANCH   1   2
ATOM      2  C   UNL     1      17.172   3.102  -0.935  1.00  0.00     0.000 C 
BRANCH   2   3
ATOM      3  C   UNL     1      18.251   2.760  -1.986  1.00  0.00     0.000 C 
BRANCH   3   4
ATOM      4  C   UNL     1      17.744   2.036  -3.246  1.00  0.00     0.000 C 
BRANCH   4   5
ATOM      5  C   UNL     1      17.195   2.998  -4.312  1.00  0.00     0.000 C 
BRANCH   5   6
ATOM      6  C   UNL     1      17.536   2.554  -5.744  1.00  0.00     0.000 C 
BRANCH   6   7
ATOM      7  C   UNL     1      16.523   3.044  -6.803  1.00  0.00     0.006 C 
BRANCH   7   8
ATOM      8  C   UNL     1      15.350   3.834  -6.197  1.00  0.00     0.053 C 
BRANCH   8   9
ATOM      9  C   UNL     1      15.385   5.275  -6.609  1.00  0.00     0.041 C 
ATOM     10  O   UNL     1      16.469   5.804  -6.969  1.00  0.00    -0.550 OA
ATOM     11  O   UNL     1      14.226   6.039  -6.570  1.00  0.00    -0.550 OA
ENDBRANCH   8   9
ENDBRANCH   7   8
ENDBRANCH   6   7
ENDBRANCH   5   6
ENDBRANCH   4   5
ENDBRANCH   3   4
ENDBRANCH   2   3
ENDBRANCH   1   2
BRANCH   1  12
ATOM     12  C   UNL     1      18.197   5.423  -0.524  1.00  0.00     0.000 C 
BRANCH  12  13
ATOM     13  C   UNL     1      18.200   6.190   0.806  1.00  0.00    -0.000 C 
BRANCH  13  14
ATOM     14  C   UNL     1      19.450   5.913   1.658  1.00  0.00    -0.000 C 
BRANCH  14  15
ATOM     15  C   UNL     1      19.087   5.296   3.025  1.00  0.00    -0.000 C 
BRANCH  15  16
ATOM     16  C   UNL     1      17.739   4.545   3.028  1.00  0.00    -0.000 C 
BRANCH  16  17
ATOM     17  C   UNL     1      17.835   3.034   2.755  1.00  0.00    -0.000 C 
BRANCH  17  18
ATOM     18  C   UNL     1      16.461   2.342   2.772  1.00  0.00    -0.000 C 
BRANCH  18  19
ATOM     19  C   UNL     1      16.234   1.512   4.046  1.00  0.00    -0.003 C 
ATOM     20  C   UNL     1      15.574   2.311   5.169  1.00  0.00     0.004 C 
ENDBRANCH  18  19
ENDBRANCH  17  18
ENDBRANCH  16  17
ENDBRANCH  15  16
ENDBRANCH  14  15
ENDBRANCH  13  14
ENDBRANCH  12  13
ENDBRANCH   1  12
TORSDOF 16
ENDMDL
MODEL 9
REMARK VINA RESULT:    -4.206      3.081      7.852
REMARK INTER + INTRA:          -9.636
REMARK INTER:                  -7.425
REMARK INTRA:                  -2.211
REMARK UNBOUND:                -1.495
REMARK SMILES CCCCCCCCCCCCCCCCCC(=O)[O-]
REMARK SMILES IDX 10 1 11 2 12 3 13 4 14 5 15 6 16 7 17 8 18 9 19 10 20 11
REMARK SMILES IDX 9 12 8 13 7 14 6 15 5 16 4 17 3 18 2 19 1 20
REMARK H PARENT
REMARK Flexibility Score: inf
ROOT
ATOM      1  C   UNL     1      19.302   3.565  -1.005  1.00  0.00     0.000 C 
ENDROOT
BRANCH   1   2
ATOM      2  C   UNL     1      18.901   4.259  -2.319  1.00  0.00     0.000 C 
BRANCH   2   3
ATOM      3  C   UNL     1      19.675   3.800  -3.575  1.00  0.00     0.000 C 
BRANCH   3   4
ATOM      4  C   UNL     1      18.827   3.114  -4.662  1.00  0.00     0.000 C 
BRANCH   4   5
ATOM      5  C   UNL     1      17.648   2.313  -4.087  1.00  0.00     0.000 C 
BRANCH   5   6
ATOM      6  C   UNL     1      16.806   1.630  -5.178  1.00  0.00     0.000 C 
BRANCH   6   7
ATOM      7  C   UNL     1      16.645   2.479  -6.459  1.00  0.00     0.006 C 
BRANCH   7   8
ATOM      8  C   UNL     1      15.319   3.258  -6.504  1.00  0.00     0.053 C 
BRANCH   8   9
ATOM      9  C   UNL     1      15.552   4.739  -6.537  1.00  0.00     0.041 C 
ATOM     10  O   UNL     1      14.596   5.535  -6.347  1.00  0.00    -0.550 OA
ATOM     11  O   UNL     1      16.820   5.239  -6.802  1.00  0.00    -0.550 OA
ENDBRANCH   8   9
ENDBRANCH   7   8
ENDBRANCH   6   7
ENDBRANCH   5   6
ENDBRANCH   4   5
ENDBRANCH   3   4
ENDBRANCH   2   3
ENDBRANCH   1   2
BRANCH   1  12
ATOM     12  C   UNL     1      18.238   2.578  -0.493  1.00  0.00     0.000 C 
BRANCH  12  13
ATOM     13  C   UNL     1      16.821   3.166  -0.554  1.00  0.00    -0.000 C 
BRANCH  13  14
ATOM     14  C   UNL     1      16.059   3.045   0.777  1.00  0.00    -0.000 C 
BRANCH  14  15
ATOM     15  C   UNL     1      16.858   2.240   1.823  1.00  0.00    -0.000 C 
BRANCH  15  16
ATOM     16  C   UNL     1      17.338   3.085   3.022  1.00  0.00    -0.000 C 
BRANCH  16  17
ATOM     17  C   UNL     1      18.862   3.120   3.224  1.00  0.00    -0.000 C 
BRANCH  17  18
ATOM     18  C   UNL     1      19.515   4.355   2.580  1.00  0.00    -0.000 C 
BRANCH  18  19
ATOM     19  C   UNL     1      18.583   5.578   2.572  1.00  0.00    -0.003 C 
ATOM     20  C   UNL     1      18.381   6.165   1.175  1.00  0.00     0.004 C 
ENDBRANCH  18  19
ENDBRANCH  17  18
ENDBRANCH  16  17
ENDBRANCH  15  16
ENDBRANCH  14  15
ENDBRANCH  13  14
ENDBRANCH  12  13
ENDBRANCH   1  12
TORSDOF 16
ENDMDL
