MODEL 1
REMARK VINA RESULT:    -7.027      0.000      0.000
REMARK INTER + INTRA:          -8.567
REMARK INTER:                  -8.259
REMARK INTRA:                  -0.307
REMARK UNBOUND:                -0.307
REMARK SMILES O=c1cc(-c2ccc(O)c(O)c2)oc2cc(O)cc(O)c12
REMARK SMILES IDX 4 1 3 2 2 3 1 4 21 5 19 6 18 7 16 8 15 9 14 10 13 11 5 12
REMARK SMILES IDX 6 13 7 14 8 15 12 16 10 17 9 18 11 20 20 22 17 24
REMARK H PARENT 9 19 11 21 20 23 17 25
REMARK Flexibility Score: inf
ROOT
ATOM      1  C   UNL     1      31.929   0.349 166.133  1.00  0.00     0.138 A 
ATOM      2  C   UNL     1      31.318   0.606 167.371  1.00  0.00     0.100 A 
ATOM      3  C   UNL     1      30.193  -0.128 167.749  1.00  0.00     0.197 A 
ATOM      4  O   UNL     1      29.651   0.111 168.861  1.00  0.00    -0.289 OA
ATOM      5  C   UNL     1      29.683  -1.114 166.880  1.00  0.00     0.107 A 
ATOM      6  C   UNL     1      28.548  -1.904 167.185  1.00  0.00     0.134 A 
ATOM      7  C   UNL     1      28.101  -2.861 166.264  1.00  0.00     0.093 A 
ATOM      8  C   UNL     1      28.765  -3.043 165.045  1.00  0.00     0.123 A 
ATOM      9  C   UNL     1      29.884  -2.268 164.740  1.00  0.00     0.094 A 
ATOM     10  C   UNL     1      30.347  -1.307 165.646  1.00  0.00     0.146 A 
ATOM     11  O   UNL     1      31.416  -0.583 165.332  1.00  0.00    -0.456 OA
ENDROOT
BRANCH   1  12
ATOM     12  C   UNL     1      33.127   1.100 165.679  1.00  0.00     0.021 A 
ATOM     13  C   UNL     1      33.326   2.417 166.123  1.00  0.00     0.016 A 
ATOM     14  C   UNL     1      34.441   3.148 165.706  1.00  0.00     0.051 A 
ATOM     15  C   UNL     1      35.372   2.577 164.829  1.00  0.00     0.157 A 
ATOM     16  C   UNL     1      34.059   0.536 164.786  1.00  0.00     0.062 A 
ATOM     17  C   UNL     1      35.177   1.266 164.364  1.00  0.00     0.158 A 
BRANCH  15  18
ATOM     18  O   UNL     1      36.485   3.308 164.415  1.00  0.00    -0.504 OA
ATOM     19  H   UNL     1      37.392   3.185 164.849  1.00  0.00     0.293 HD
ENDBRANCH  15  18
BRANCH  17  20
ATOM     20  O   UNL     1      36.079   0.673 163.481  1.00  0.00    -0.504 OA
ATOM     21  H   UNL     1      36.643   1.219 162.841  1.00  0.00     0.293 HD
ENDBRANCH  17  20
ENDBRANCH   1  12
BRANCH   6  22
ATOM     22  O   UNL     1      27.866  -1.743 168.392  1.00  0.00    -0.507 OA
ATOM     23  H   UNL     1      27.917  -0.881 168.922  1.00  0.00     0.293 HD
ENDBRANCH   6  22
BRANCH   8  24
ATOM     24  O   UNL     1      28.320  -3.995 164.130  1.00  0.00    -0.508 OA
ATOM     25  H   UNL     1      27.352  -4.293 164.104  1.00  0.00     0.293 HD
ENDBRANCH   8  24
TORSDOF 5
ENDMDL
MODEL 2
REMARK VINA RESULT:    -6.929      1.400      2.803
REMARK INTER + INTRA:          -8.451
REMARK INTER:                  -8.186
REMARK INTRA:                  -0.265
REMARK UNBOUND:                -0.307
REMARK SMILES O=c1cc(-c2ccc(O)c(O)c2)oc2cc(O)cc(O)c12
REMARK SMILES IDX 4 1 3 2 2 3 1 4 21 5 19 6 18 7 16 8 15 9 14 10 13 11 5 12
REMARK SMILES IDX 6 13 7 14 8 15 12 16 10 17 9 18 11 20 20 22 17 24
REMARK H PARENT 9 19 11 21 20 23 17 25
REMARK Flexibility Score: inf
ROOT
ATOM      1  C   UNL     1      32.345  -0.177 165.442  1.00  0.00     0.138 A 
ATOM      2  C   UNL     1      32.183  -0.884 164.240  1.00  0.00     0.100 A 
ATOM      3  C   UNL     1      31.066  -1.704 164.069  1.00  0.00     0.197 A 
ATOM      4  O   UNL     1      30.931  -2.335 162.987  1.00  0.00    -0.289 OA
ATOM      5  C   UNL     1      30.119  -1.812 165.107  1.00  0.00     0.107 A 
ATOM      6  C   UNL     1      28.959  -2.620 165.016  1.00  0.00     0.134 A 
ATOM      7  C   UNL     1      28.068  -2.678 166.096  1.00  0.00     0.093 A 
ATOM      8  C   UNL     1      28.314  -1.947 167.264  1.00  0.00     0.123 A 
ATOM      9  C   UNL     1      29.455  -1.150 167.358  1.00  0.00     0.094 A 
ATOM     10  C   UNL     1      30.358  -1.077 166.292  1.00  0.00     0.146 A 
ATOM     11  O   UNL     1      31.436  -0.310 166.407  1.00  0.00    -0.456 OA
ENDROOT
BRANCH   1  12
ATOM     12  C   UNL     1      33.513   0.709 165.680  1.00  0.00     0.021 A 
ATOM     13  C   UNL     1      33.334   2.102 165.683  1.00  0.00     0.016 A 
ATOM     14  C   UNL     1      34.418   2.957 165.897  1.00  0.00     0.051 A 
ATOM     15  C   UNL     1      35.701   2.435 166.102  1.00  0.00     0.157 A 
ATOM     16  C   UNL     1      34.808   0.190 165.873  1.00  0.00     0.062 A 
ATOM     17  C   UNL     1      35.896   1.045 166.085  1.00  0.00     0.158 A 
BRANCH  15  18
ATOM     18  O   UNL     1      36.780   3.291 166.317  1.00  0.00    -0.504 OA
ATOM     19  H   UNL     1      36.662   4.192 166.766  1.00  0.00     0.293 HD
ENDBRANCH  15  18
BRANCH  17  20
ATOM     20  O   UNL     1      37.164   0.493 166.274  1.00  0.00    -0.504 OA
ATOM     21  H   UNL     1      37.953   0.746 165.692  1.00  0.00     0.293 HD
ENDBRANCH  17  20
ENDBRANCH   1  12
BRANCH   6  22
ATOM     22  O   UNL     1      28.690  -3.360 163.864  1.00  0.00    -0.507 OA
ATOM     23  H   UNL     1      28.906  -3.006 162.940  1.00  0.00     0.293 HD
ENDBRANCH   6  22
BRANCH   8  24
ATOM     24  O   UNL     1      27.428  -2.006 168.338  1.00  0.00    -0.508 OA
ATOM     25  H   UNL     1      26.999  -2.879 168.624  1.00  0.00     0.293 HD
ENDBRANCH   8  24
TORSDOF 5
ENDMDL
MODEL 3
REMARK VINA RESULT:    -6.900      1.420      3.084
REMARK INTER + INTRA:          -8.418
REMARK INTER:                  -8.139
REMARK INTRA:                  -0.278
REMARK UNBOUND:                -0.307
REMARK SMILES O=c1cc(-c2ccc(O)c(O)c2)oc2cc(O)cc(O)c12
REMARK SMILES IDX 4 1 3 2 2 3 1 4 21 5 19 6 18 7 16 8 15 9 14 10 13 11 5 12
REMARK SMILES IDX 6 13 7 14 8 15 12 16 10 17 9 18 11 20 20 22 17 24
REMARK H PARENT 9 19 11 21 20 23 17 25
REMARK Flexibility Score: inf
ROOT
ATOM      1  C   UNL     1      32.338  -0.343 165.317  1.00  0.00     0.138 A 
ATOM      2  C   UNL     1      32.121  -1.067 164.133  1.00  0.00     0.100 A 
ATOM      3  C   UNL     1      30.974  -1.851 164.007  1.00  0.00     0.197 A 
ATOM      4  O   UNL     1      30.788  -2.498 162.941  1.00  0.00    -0.289 OA
ATOM      5  C   UNL     1      30.051  -1.907 165.070  1.00  0.00     0.107 A 
ATOM      6  C   UNL     1      28.862  -2.675 165.025  1.00  0.00     0.134 A 
ATOM      7  C   UNL     1      27.997  -2.682 166.129  1.00  0.00     0.093 A 
ATOM      8  C   UNL     1      28.298  -1.938 167.275  1.00  0.00     0.123 A 
ATOM      9  C   UNL     1      29.468  -1.180 167.325  1.00  0.00     0.094 A 
ATOM     10  C   UNL     1      30.344  -1.158 166.234  1.00  0.00     0.146 A 
ATOM     11  O   UNL     1      31.451  -0.427 166.306  1.00  0.00    -0.456 OA
ENDROOT
BRANCH   1  12
ATOM     12  C   UNL     1      33.542   0.505 165.507  1.00  0.00     0.021 A 
ATOM     13  C   UNL     1      34.817  -0.081 165.453  1.00  0.00     0.016 A 
ATOM     14  C   UNL     1      35.965   0.693 165.636  1.00  0.00     0.051 A 
ATOM     15  C   UNL     1      35.858   2.067 165.886  1.00  0.00     0.157 A 
ATOM     16  C   UNL     1      33.440   1.885 165.773  1.00  0.00     0.062 A 
ATOM     17  C   UNL     1      34.589   2.664 165.959  1.00  0.00     0.158 A 
BRANCH  15  18
ATOM     18  O   UNL     1      37.005   2.838 166.067  1.00  0.00    -0.504 OA
ATOM     19  H   UNL     1      37.929   2.469 165.874  1.00  0.00     0.293 HD
ENDBRANCH  15  18
BRANCH  17  20
ATOM     20  O   UNL     1      34.448   4.027 166.219  1.00  0.00    -0.504 OA
ATOM     21  H   UNL     1      35.191   4.690 166.035  1.00  0.00     0.293 HD
ENDBRANCH  17  20
ENDBRANCH   1  12
BRANCH   6  22
ATOM     22  O   UNL     1      28.537  -3.428 163.895  1.00  0.00    -0.507 OA
ATOM     23  H   UNL     1      29.194  -4.079 163.482  1.00  0.00     0.293 HD
ENDBRANCH   6  22
BRANCH   8  24
ATOM     24  O   UNL     1      27.439  -1.946 168.372  1.00  0.00    -0.508 OA
ATOM     25  H   UNL     1      26.434  -1.889 168.259  1.00  0.00     0.293 HD
ENDBRANCH   8  24
TORSDOF 5
ENDMDL
MODEL 4
REMARK VINA RESULT:    -6.879      1.364      7.285
REMARK INTER + INTRA:          -8.392
REMARK INTER:                  -8.099
REMARK INTRA:                  -0.294
REMARK UNBOUND:                -0.307
REMARK SMILES O=c1cc(-c2ccc(O)c(O)c2)oc2cc(O)cc(O)c12
REMARK SMILES IDX 4 1 3 2 2 3 1 4 21 5 19 6 18 7 16 8 15 9 14 10 13 11 5 12
REMARK SMILES IDX 6 13 7 14 8 15 12 16 10 17 9 18 11 20 20 22 17 24
REMARK H PARENT 9 19 11 21 20 23 17 25
REMARK Flexibility Score: inf
ROOT
ATOM      1  C   UNL     1      32.024  -0.471 165.447  1.00  0.00     0.138 A 
ATOM      2  C   UNL     1      32.442  -1.138 164.284  1.00  0.00     0.100 A 
ATOM      3  C   UNL     1      33.593  -0.710 163.621  1.00  0.00     0.197 A 
ATOM      4  O   UNL     1      33.959  -1.315 162.578  1.00  0.00    -0.289 OA
ATOM      5  C   UNL     1      34.317   0.389 164.126  1.00  0.00     0.107 A 
ATOM      6  C   UNL     1      35.494   0.887 163.516  1.00  0.00     0.134 A 
ATOM      7  C   UNL     1      36.153   1.990 164.078  1.00  0.00     0.093 A 
ATOM      8  C   UNL     1      35.659   2.602 165.236  1.00  0.00     0.123 A 
ATOM      9  C   UNL     1      34.500   2.115 165.840  1.00  0.00     0.094 A 
ATOM     10  C   UNL     1      33.827   1.016 165.296  1.00  0.00     0.146 A 
ATOM     11  O   UNL     1      32.726   0.570 165.891  1.00  0.00    -0.456 OA
ENDROOT
BRANCH   1  12
ATOM     12  C   UNL     1      30.808  -0.882 166.193  1.00  0.00     0.021 A 
ATOM     13  C   UNL     1      30.639  -0.465 167.524  1.00  0.00     0.016 A 
ATOM     14  C   UNL     1      29.508  -0.844 168.250  1.00  0.00     0.051 A 
ATOM     15  C   UNL     1      28.529  -1.655 167.661  1.00  0.00     0.157 A 
ATOM     16  C   UNL     1      29.827  -1.709 165.611  1.00  0.00     0.062 A 
ATOM     17  C   UNL     1      28.693  -2.093 166.337  1.00  0.00     0.158 A 
BRANCH  15  18
ATOM     18  O   UNL     1      27.400  -2.031 168.388  1.00  0.00    -0.504 OA
ATOM     19  H   UNL     1      27.469  -2.350 169.347  1.00  0.00     0.293 HD
ENDBRANCH  15  18
BRANCH  17  20
ATOM     20  O   UNL     1      27.743  -2.911 165.726  1.00  0.00    -0.504 OA
ATOM     21  H   UNL     1      27.223  -2.614 164.909  1.00  0.00     0.293 HD
ENDBRANCH  17  20
ENDBRANCH   1  12
BRANCH   6  22
ATOM     22  O   UNL     1      36.009   0.297 162.361  1.00  0.00    -0.507 OA
ATOM     23  H   UNL     1      35.661   0.537 161.440  1.00  0.00     0.293 HD
ENDBRANCH   6  22
BRANCH   8  24
ATOM     24  O   UNL     1      36.314   3.698 165.793  1.00  0.00    -0.508 OA
ATOM     25  H   UNL     1      36.495   3.759 166.788  1.00  0.00     0.293 HD
ENDBRANCH   8  24
TORSDOF 5
ENDMDL
MODEL 5
REMARK VINA RESULT:    -6.873      1.922      6.985
REMARK INTER + INTRA:          -8.386
REMARK INTER:                  -8.090
REMARK INTRA:                  -0.296
REMARK UNBOUND:                -0.307
REMARK SMILES O=c1cc(-c2ccc(O)c(O)c2)oc2cc(O)cc(O)c12
REMARK SMILES IDX 4 1 3 2 2 3 1 4 21 5 19 6 18 7 16 8 15 9 14 10 13 11 5 12
REMARK SMILES IDX 6 13 7 14 8 15 12 16 10 17 9 18 11 20 20 22 17 24
REMARK H PARENT 9 19 11 21 20 23 17 25
REMARK Flexibility Score: inf
ROOT
ATOM      1  C   UNL     1      32.660   1.138 165.805  1.00  0.00     0.138 A 
ATOM      2  C   UNL     1      33.067   2.473 165.956  1.00  0.00     0.100 A 
ATOM      3  C   UNL     1      34.081   2.979 165.141  1.00  0.00     0.197 A 
ATOM      4  O   UNL     1      34.440   4.178 165.286  1.00  0.00    -0.289 OA
ATOM      5  C   UNL     1      34.683   2.142 164.181  1.00  0.00     0.107 A 
ATOM      6  C   UNL     1      35.716   2.575 163.315  1.00  0.00     0.134 A 
ATOM      7  C   UNL     1      36.268   1.677 162.390  1.00  0.00     0.093 A 
ATOM      8  C   UNL     1      35.808   0.357 162.315  1.00  0.00     0.123 A 
ATOM      9  C   UNL     1      34.790  -0.074 163.167  1.00  0.00     0.094 A 
ATOM     10  C   UNL     1      34.226   0.806 164.096  1.00  0.00     0.146 A 
ATOM     11  O   UNL     1      33.257   0.371 164.895  1.00  0.00    -0.456 OA
ENDROOT
BRANCH   1  12
ATOM     12  C   UNL     1      31.587   0.545 166.644  1.00  0.00     0.021 A 
ATOM     13  C   UNL     1      31.049  -0.705 166.297  1.00  0.00     0.016 A 
ATOM     14  C   UNL     1      30.035  -1.281 167.065  1.00  0.00     0.051 A 
ATOM     15  C   UNL     1      29.533  -0.612 168.189  1.00  0.00     0.157 A 
ATOM     16  C   UNL     1      31.069   1.219 167.767  1.00  0.00     0.062 A 
ATOM     17  C   UNL     1      30.050   0.646 168.538  1.00  0.00     0.158 A 
BRANCH  15  18
ATOM     18  O   UNL     1      28.521  -1.190 168.955  1.00  0.00    -0.504 OA
ATOM     19  H   UNL     1      28.658  -2.071 169.438  1.00  0.00     0.293 HD
ENDBRANCH  15  18
BRANCH  17  20
ATOM     20  O   UNL     1      29.564   1.343 169.644  1.00  0.00    -0.504 OA
ATOM     21  H   UNL     1      28.882   2.086 169.555  1.00  0.00     0.293 HD
ENDBRANCH  17  20
ENDBRANCH   1  12
BRANCH   6  22
ATOM     22  O   UNL     1      36.196   3.884 163.368  1.00  0.00    -0.507 OA
ATOM     23  H   UNL     1      37.061   4.154 162.915  1.00  0.00     0.293 HD
ENDBRANCH   6  22
BRANCH   8  24
ATOM     24  O   UNL     1      36.358  -0.534 161.396  1.00  0.00    -0.508 OA
ATOM     25  H   UNL     1      37.170  -0.292 160.842  1.00  0.00     0.293 HD
ENDBRANCH   8  24
TORSDOF 5
ENDMDL
MODEL 6
REMARK VINA RESULT:    -6.865      1.422      6.726
REMARK INTER + INTRA:          -8.376
REMARK INTER:                  -8.066
REMARK INTRA:                  -0.310
REMARK UNBOUND:                -0.307
REMARK SMILES O=c1cc(-c2ccc(O)c(O)c2)oc2cc(O)cc(O)c12
REMARK SMILES IDX 4 1 3 2 2 3 1 4 21 5 19 6 18 7 16 8 15 9 14 10 13 11 5 12
REMARK SMILES IDX 6 13 7 14 8 15 12 16 10 17 9 18 11 20 20 22 17 24
REMARK H PARENT 9 19 11 21 20 23 17 25
REMARK Flexibility Score: inf
ROOT
ATOM      1  C   UNL     1      31.900   0.204 165.943  1.00  0.00     0.138 A 
ATOM      2  C   UNL     1      32.413   1.436 166.382  1.00  0.00     0.100 A 
ATOM      3  C   UNL     1      33.525   1.984 165.743  1.00  0.00     0.197 A 
ATOM      4  O   UNL     1      33.979   3.089 166.145  1.00  0.00    -0.289 OA
ATOM      5  C   UNL     1      34.120   1.293 164.669  1.00  0.00     0.107 A 
ATOM      6  C   UNL     1      35.249   1.778 163.966  1.00  0.00     0.134 A 
ATOM      7  C   UNL     1      35.786   1.025 162.911  1.00  0.00     0.093 A 
ATOM      8  C   UNL     1      35.216  -0.200 162.547  1.00  0.00     0.123 A 
ATOM      9  C   UNL     1      34.104  -0.682 163.237  1.00  0.00     0.094 A 
ATOM     10  C   UNL     1      33.553   0.052 164.292  1.00  0.00     0.146 A 
ATOM     11  O   UNL     1      32.492  -0.428 164.932  1.00  0.00    -0.456 OA
ENDROOT
BRANCH   1  12
ATOM     12  C   UNL     1      30.719  -0.427 166.586  1.00  0.00     0.021 A 
ATOM     13  C   UNL     1      30.411  -0.117 167.921  1.00  0.00     0.016 A 
ATOM     14  C   UNL     1      29.311  -0.703 168.552  1.00  0.00     0.051 A 
ATOM     15  C   UNL     1      28.504  -1.616 167.861  1.00  0.00     0.157 A 
ATOM     16  C   UNL     1      29.912  -1.357 165.901  1.00  0.00     0.062 A 
ATOM     17  C   UNL     1      28.810  -1.947 166.531  1.00  0.00     0.158 A 
BRANCH  15  18
ATOM     18  O   UNL     1      27.405  -2.197 168.492  1.00  0.00    -0.504 OA
ATOM     19  H   UNL     1      27.225  -2.057 169.480  1.00  0.00     0.293 HD
ENDBRANCH  15  18
BRANCH  17  20
ATOM     20  O   UNL     1      28.033  -2.861 165.820  1.00  0.00    -0.504 OA
ATOM     21  H   UNL     1      27.326  -2.566 165.157  1.00  0.00     0.293 HD
ENDBRANCH  17  20
ENDBRANCH   1  12
BRANCH   6  22
ATOM     22  O   UNL     1      35.839   2.996 164.307  1.00  0.00    -0.507 OA
ATOM     23  H   UNL     1      35.861   3.327 165.265  1.00  0.00     0.293 HD
ENDBRANCH   6  22
BRANCH   8  24
ATOM     24  O   UNL     1      35.751  -0.947 161.500  1.00  0.00    -0.508 OA
ATOM     25  H   UNL     1      36.751  -1.028 161.362  1.00  0.00     0.293 HD
ENDBRANCH   8  24
TORSDOF 5
ENDMDL
MODEL 7
REMARK VINA RESULT:    -6.781      2.069      7.649
REMARK INTER + INTRA:          -8.277
REMARK INTER:                  -7.962
REMARK INTRA:                  -0.315
REMARK UNBOUND:                -0.307
REMARK SMILES O=c1cc(-c2ccc(O)c(O)c2)oc2cc(O)cc(O)c12
REMARK SMILES IDX 4 1 3 2 2 3 1 4 21 5 19 6 18 7 16 8 15 9 14 10 13 11 5 12
REMARK SMILES IDX 6 13 7 14 8 15 12 16 10 17 9 18 11 20 20 22 17 24
REMARK H PARENT 9 19 11 21 20 23 17 25
REMARK Flexibility Score: inf
ROOT
ATOM      1  C   UNL     1      32.628   1.183 165.767  1.00  0.00     0.138 A 
ATOM      2  C   UNL     1      32.913   0.697 164.481  1.00  0.00     0.100 A 
ATOM      3  C   UNL     1      33.920   1.300 163.725  1.00  0.00     0.197 A 
ATOM      4  O   UNL     1      34.167   0.858 162.572  1.00  0.00    -0.289 OA
ATOM      5  C   UNL     1      34.633   2.391 164.263  1.00  0.00     0.107 A 
ATOM      6  C   UNL     1      35.668   3.058 163.565  1.00  0.00     0.134 A 
ATOM      7  C   UNL     1      36.326   4.140 164.168  1.00  0.00     0.093 A 
ATOM      8  C   UNL     1      35.968   4.566 165.453  1.00  0.00     0.123 A 
ATOM      9  C   UNL     1      34.949   3.911 166.144  1.00  0.00     0.094 A 
ATOM     10  C   UNL     1      34.280   2.829 165.561  1.00  0.00     0.146 A 
ATOM     11  O   UNL     1      33.314   2.222 166.241  1.00  0.00    -0.456 OA
ENDROOT
BRANCH   1  12
ATOM     12  C   UNL     1      31.568   0.582 166.615  1.00  0.00     0.021 A 
ATOM     13  C   UNL     1      31.026  -0.666 166.263  1.00  0.00     0.016 A 
ATOM     14  C   UNL     1      30.023  -1.250 167.040  1.00  0.00     0.051 A 
ATOM     15  C   UNL     1      29.537  -0.593 168.177  1.00  0.00     0.157 A 
ATOM     16  C   UNL     1      31.065   1.244 167.752  1.00  0.00     0.062 A 
ATOM     17  C   UNL     1      30.057   0.662 168.531  1.00  0.00     0.158 A 
BRANCH  15  18
ATOM     18  O   UNL     1      28.536  -1.180 168.951  1.00  0.00    -0.504 OA
ATOM     19  H   UNL     1      28.486  -1.035 169.953  1.00  0.00     0.293 HD
ENDBRANCH  15  18
BRANCH  17  20
ATOM     20  O   UNL     1      29.586   1.347 169.651  1.00  0.00    -0.504 OA
ATOM     21  H   UNL     1      28.818   0.999 170.212  1.00  0.00     0.293 HD
ENDBRANCH  17  20
ENDBRANCH   1  12
BRANCH   6  22
ATOM     22  O   UNL     1      36.045   2.656 162.283  1.00  0.00    -0.507 OA
ATOM     23  H   UNL     1      35.889   3.245 161.473  1.00  0.00     0.293 HD
ENDBRANCH   6  22
BRANCH   8  24
ATOM     24  O   UNL     1      36.622   5.641 166.051  1.00  0.00    -0.508 OA
ATOM     25  H   UNL     1      37.621   5.627 166.221  1.00  0.00     0.293 HD
ENDBRANCH   8  24
TORSDOF 5
ENDMDL
MODEL 8
REMARK VINA RESULT:    -6.589      1.825      7.463
REMARK INTER + INTRA:          -8.052
REMARK INTER:                  -7.734
REMARK INTRA:                  -0.318
REMARK UNBOUND:                -0.307
REMARK SMILES O=c1cc(-c2ccc(O)c(O)c2)oc2cc(O)cc(O)c12
REMARK SMILES IDX 4 1 3 2 2 3 1 4 21 5 19 6 18 7 16 8 15 9 14 10 13 11 5 12
REMARK SMILES IDX 6 13 7 14 8 15 12 16 10 17 9 18 11 20 20 22 17 24
REMARK H PARENT 9 19 11 21 20 23 17 25
REMARK Flexibility Score: inf
ROOT
ATOM      1  C   UNL     1      32.748   0.222 165.715  1.00  0.00     0.138 A 
ATOM      2  C   UNL     1      33.106  -0.513 164.573  1.00  0.00     0.100 A 
ATOM      3  C   UNL     1      34.219  -0.126 163.826  1.00  0.00     0.197 A 
ATOM      4  O   UNL     1      34.532  -0.791 162.802  1.00  0.00    -0.289 OA
ATOM      5  C   UNL     1      34.966   1.000 164.227  1.00  0.00     0.107 A 
ATOM      6  C   UNL     1      36.108   1.461 163.528  1.00  0.00     0.134 A 
ATOM      7  C   UNL     1      36.794   2.594 163.989  1.00  0.00     0.093 A 
ATOM      8  C   UNL     1      36.359   3.274 165.133  1.00  0.00     0.123 A 
ATOM      9  C   UNL     1      35.235   2.824 165.824  1.00  0.00     0.094 A 
ATOM     10  C   UNL     1      34.537   1.695 165.382  1.00  0.00     0.146 A 
ATOM     11  O   UNL     1      33.469   1.286 166.060  1.00  0.00    -0.456 OA
ENDROOT
BRANCH   1  12
ATOM     12  C   UNL     1      31.573  -0.144 166.546  1.00  0.00     0.021 A 
ATOM     13  C   UNL     1      30.839  -1.300 166.233  1.00  0.00     0.016 A 
ATOM     14  C   UNL     1      29.725  -1.663 166.995  1.00  0.00     0.051 A 
ATOM     15  C   UNL     1      29.321  -0.871 168.077  1.00  0.00     0.157 A 
ATOM     16  C   UNL     1      31.154   0.655 167.627  1.00  0.00     0.062 A 
ATOM     17  C   UNL     1      30.037   0.296 168.391  1.00  0.00     0.158 A 
BRANCH  15  18
ATOM     18  O   UNL     1      28.210  -1.236 168.836  1.00  0.00    -0.504 OA
ATOM     19  H   UNL     1      28.063  -0.874 169.771  1.00  0.00     0.293 HD
ENDBRANCH  15  18
BRANCH  17  20
ATOM     20  O   UNL     1      29.653   1.112 169.455  1.00  0.00    -0.504 OA
ATOM     21  H   UNL     1      30.311   1.709 169.940  1.00  0.00     0.293 HD
ENDBRANCH  17  20
ENDBRANCH   1  12
BRANCH   6  22
ATOM     22  O   UNL     1      36.563   0.803 162.384  1.00  0.00    -0.507 OA
ATOM     23  H   UNL     1      35.949   0.225 161.823  1.00  0.00     0.293 HD
ENDBRANCH   6  22
BRANCH   8  24
ATOM     24  O   UNL     1      37.041   4.400 165.590  1.00  0.00    -0.508 OA
ATOM     25  H   UNL     1      37.934   4.325 166.060  1.00  0.00     0.293 HD
ENDBRANCH   8  24
TORSDOF 5
ENDMDL
MODEL 9
REMARK VINA RESULT:    -6.551      1.530      2.067
REMARK INTER + INTRA:          -8.008
REMARK INTER:                  -7.690
REMARK INTRA:                  -0.317
REMARK UNBOUND:                -0.307
REMARK SMILES O=c1cc(-c2ccc(O)c(O)c2)oc2cc(O)cc(O)c12
REMARK SMILES IDX 4 1 3 2 2 3 1 4 21 5 19 6 18 7 16 8 15 9 14 10 13 11 5 12
REMARK SMILES IDX 6 13 7 14 8 15 12 16 10 17 9 18 11 20 20 22 17 24
REMARK H PARENT 9 19 11 21 20 23 17 25
REMARK Flexibility Score: inf
ROOT
ATOM      1  C   UNL     1      32.408  -0.344 165.063  1.00  0.00     0.138 A 
ATOM      2  C   UNL     1      32.319   0.297 166.309  1.00  0.00     0.100 A 
ATOM      3  C   UNL     1      31.232   0.032 167.143  1.00  0.00     0.197 A 
ATOM      4  O   UNL     1      31.160   0.613 168.259  1.00  0.00    -0.289 OA
ATOM      5  C   UNL     1      30.237  -0.872 166.720  1.00  0.00     0.107 A 
ATOM      6  C   UNL     1      29.103  -1.198 167.502  1.00  0.00     0.134 A 
ATOM      7  C   UNL     1      28.154  -2.103 167.006  1.00  0.00     0.093 A 
ATOM      8  C   UNL     1      28.317  -2.688 165.745  1.00  0.00     0.123 A 
ATOM      9  C   UNL     1      29.433  -2.370 164.971  1.00  0.00     0.094 A 
ATOM     10  C   UNL     1      30.392  -1.469 165.446  1.00  0.00     0.146 A 
ATOM     11  O   UNL     1      31.446  -1.184 164.690  1.00  0.00    -0.456 OA
ENDROOT
BRANCH   1  12
ATOM     12  C   UNL     1      33.542  -0.099 164.135  1.00  0.00     0.021 A 
ATOM     13  C   UNL     1      34.455   0.930 164.416  1.00  0.00     0.016 A 
ATOM     14  C   UNL     1      35.526   1.186 163.556  1.00  0.00     0.051 A 
ATOM     15  C   UNL     1      35.697   0.422 162.395  1.00  0.00     0.157 A 
ATOM     16  C   UNL     1      33.712  -0.855 162.958  1.00  0.00     0.062 A 
ATOM     17  C   UNL     1      34.783  -0.600 162.093  1.00  0.00     0.158 A 
BRANCH  15  18
ATOM     18  O   UNL     1      36.768   0.678 161.539  1.00  0.00    -0.504 OA
ATOM     19  H   UNL     1      37.430  -0.046 161.286  1.00  0.00     0.293 HD
ENDBRANCH  15  18
BRANCH  17  20
ATOM     20  O   UNL     1      34.919  -1.371 160.939  1.00  0.00    -0.504 OA
ATOM     21  H   UNL     1      34.122  -1.638 160.373  1.00  0.00     0.293 HD
ENDBRANCH  17  20
ENDBRANCH   1  12
BRANCH   6  22
ATOM     22  O   UNL     1      28.914  -0.629 168.763  1.00  0.00    -0.507 OA
ATOM     23  H   UNL     1      28.684  -1.193 169.572  1.00  0.00     0.293 HD
ENDBRANCH   6  22
BRANCH   8  24
ATOM     24  O   UNL     1      27.374  -3.587 165.253  1.00  0.00    -0.508 OA
ATOM     25  H   UNL     1      26.605  -3.916 165.825  1.00  0.00     0.293 HD
ENDBRANCH   8  24
TORSDOF 5
ENDMDL
