MODEL 1
REMARK VINA RESULT:    -5.993      0.000      0.000
REMARK INTER + INTRA:          -6.568
REMARK INTER:                  -6.518
REMARK INTRA:                  -0.050
REMARK UNBOUND:                -0.050
REMARK SMILES COc1cc2ccc(=O)oc2cc1O
REMARK SMILES IDX 3 1 13 2 12 3 11 4 5 5 4 6 6 7 7 8 8 9 9 10 10 11 2 12 1 13
REMARK SMILES IDX 14 14
REMARK H PARENT 14 15
REMARK Flexibility Score: inf
ROOT
ATOM      1  C   UNL     1     -32.878  -3.503 -17.864  1.00  0.00     0.161 A 
ATOM      2  C   UNL     1     -31.716  -3.780 -17.129  1.00  0.00     0.161 A 
ATOM      3  C   UNL     1     -30.452  -3.498 -17.669  1.00  0.00     0.098 A 
ATOM      4  C   UNL     1     -30.340  -2.939 -18.944  1.00  0.00     0.142 A 
ATOM      5  C   UNL     1     -31.504  -2.656 -19.689  1.00  0.00     0.022 A 
ATOM      6  C   UNL     1     -32.766  -2.938 -19.151  1.00  0.00     0.062 A 
ATOM      7  C   UNL     1     -31.359  -2.097 -20.964  1.00  0.00     0.019 A 
ATOM      8  C   UNL     1     -30.081  -1.835 -21.455  1.00  0.00     0.094 A 
ATOM      9  C   UNL     1     -28.972  -2.140 -20.658  1.00  0.00     0.336 A 
ATOM     10  O   UNL     1     -27.809  -1.911 -21.084  1.00  0.00    -0.246 OA
ATOM     11  O   UNL     1     -29.138  -2.673 -19.451  1.00  0.00    -0.423 OA
ENDROOT
BRANCH   1  12
ATOM     12  O   UNL     1     -34.121  -3.803 -17.285  1.00  0.00    -0.493 OA
ATOM     13  C   UNL     1     -35.293  -3.009 -17.436  1.00  0.00     0.278 C 
ENDBRANCH   1  12
BRANCH   2  14
ATOM     14  O   UNL     1     -31.824  -4.339 -15.857  1.00  0.00    -0.504 OA
ATOM     15  H   UNL     1     -31.456  -5.260 -15.649  1.00  0.00     0.293 HD
ENDBRANCH   2  14
TORSDOF 2
ENDMDL
MODEL 2
REMARK VINA RESULT:    -5.954      5.705      8.442
REMARK INTER + INTRA:          -6.526
REMARK INTER:                  -6.468
REMARK INTRA:                  -0.059
REMARK UNBOUND:                -0.050
REMARK SMILES COc1cc2ccc(=O)oc2cc1O
REMARK SMILES IDX 3 1 13 2 12 3 11 4 5 5 4 6 6 7 7 8 8 9 9 10 10 11 2 12 1 13
REMARK SMILES IDX 14 14
REMARK H PARENT 14 15
REMARK Flexibility Score: inf
ROOT
ATOM      1  C   UNL     1     -38.790  -7.215 -13.564  1.00  0.00     0.161 A 
ATOM      2  C   UNL     1     -38.773  -8.045 -14.695  1.00  0.00     0.161 A 
ATOM      3  C   UNL     1     -37.757  -7.917 -15.653  1.00  0.00     0.098 A 
ATOM      4  C   UNL     1     -36.753  -6.960 -15.491  1.00  0.00     0.142 A 
ATOM      5  C   UNL     1     -36.763  -6.121 -14.357  1.00  0.00     0.022 A 
ATOM      6  C   UNL     1     -37.777  -6.249 -13.399  1.00  0.00     0.062 A 
ATOM      7  C   UNL     1     -35.743  -5.171 -14.223  1.00  0.00     0.019 A 
ATOM      8  C   UNL     1     -34.756  -5.083 -15.203  1.00  0.00     0.094 A 
ATOM      9  C   UNL     1     -34.810  -5.950 -16.300  1.00  0.00     0.336 A 
ATOM     10  O   UNL     1     -33.928  -5.886 -17.196  1.00  0.00    -0.246 OA
ATOM     11  O   UNL     1     -35.792  -6.842 -16.404  1.00  0.00    -0.423 OA
ENDROOT
BRANCH   1  12
ATOM     12  O   UNL     1     -39.827  -7.378 -12.631  1.00  0.00    -0.493 OA
ATOM     13  C   UNL     1     -40.729  -6.349 -12.239  1.00  0.00     0.278 C 
ENDBRANCH   1  12
BRANCH   2  14
ATOM     14  O   UNL     1     -39.775  -9.001 -14.860  1.00  0.00    -0.504 OA
ATOM     15  H   UNL     1     -39.712  -9.718 -15.574  1.00  0.00     0.293 HD
ENDBRANCH   2  14
TORSDOF 2
ENDMDL
MODEL 3
REMARK VINA RESULT:    -5.907      2.232      5.976
REMARK INTER + INTRA:          -6.474
REMARK INTER:                  -6.418
REMARK INTRA:                  -0.056
REMARK UNBOUND:                -0.050
REMARK SMILES COc1cc2ccc(=O)oc2cc1O
REMARK SMILES IDX 3 1 13 2 12 3 11 4 5 5 4 6 6 7 7 8 8 9 9 10 10 11 2 12 1 13
REMARK SMILES IDX 14 14
REMARK H PARENT 14 15
REMARK Flexibility Score: inf
ROOT
ATOM      1  C   UNL     1     -32.101  -2.943 -18.770  1.00  0.00     0.161 A 
ATOM      2  C   UNL     1     -33.176  -2.758 -19.652  1.00  0.00     0.161 A 
ATOM      3  C   UNL     1     -34.415  -3.363 -19.394  1.00  0.00     0.098 A 
ATOM      4  C   UNL     1     -34.589  -4.157 -18.258  1.00  0.00     0.142 A 
ATOM      5  C   UNL     1     -33.513  -4.347 -17.367  1.00  0.00     0.022 A 
ATOM      6  C   UNL     1     -32.275  -3.743 -17.623  1.00  0.00     0.062 A 
ATOM      7  C   UNL     1     -33.718  -5.148 -16.237  1.00  0.00     0.019 A 
ATOM      8  C   UNL     1     -34.968  -5.728 -16.027  1.00  0.00     0.094 A 
ATOM      9  C   UNL     1     -35.989  -5.493 -16.954  1.00  0.00     0.336 A 
ATOM     10  O   UNL     1     -37.125  -6.007 -16.781  1.00  0.00    -0.246 OA
ATOM     11  O   UNL     1     -35.767  -4.729 -18.020  1.00  0.00    -0.423 OA
ENDROOT
BRANCH   1  12
ATOM     12  O   UNL     1     -30.879  -2.318 -19.067  1.00  0.00    -0.493 OA
ATOM     13  C   UNL     1     -29.626  -2.990 -19.136  1.00  0.00     0.278 C 
ENDBRANCH   1  12
BRANCH   2  14
ATOM     14  O   UNL     1     -33.006  -1.967 -20.787  1.00  0.00    -0.504 OA
ATOM     15  H   UNL     1     -32.313  -2.192 -21.492  1.00  0.00     0.293 HD
ENDBRANCH   2  14
TORSDOF 2
ENDMDL
MODEL 4
REMARK VINA RESULT:    -5.847      2.039      5.429
REMARK INTER + INTRA:          -6.409
REMARK INTER:                  -6.345
REMARK INTRA:                  -0.064
REMARK UNBOUND:                -0.050
REMARK SMILES COc1cc2ccc(=O)oc2cc1O
REMARK SMILES IDX 3 1 13 2 12 3 11 4 5 5 4 6 6 7 7 8 8 9 9 10 10 11 2 12 1 13
REMARK SMILES IDX 14 14
REMARK H PARENT 14 15
REMARK Flexibility Score: inf
ROOT
ATOM      1  C   UNL     1     -32.030  -2.915 -18.656  1.00  0.00     0.161 A 
ATOM      2  C   UNL     1     -31.385  -3.517 -17.565  1.00  0.00     0.161 A 
ATOM      3  C   UNL     1     -32.062  -4.458 -16.774  1.00  0.00     0.098 A 
ATOM      4  C   UNL     1     -33.383  -4.803 -17.066  1.00  0.00     0.142 A 
ATOM      5  C   UNL     1     -34.038  -4.203 -18.162  1.00  0.00     0.022 A 
ATOM      6  C   UNL     1     -33.363  -3.263 -18.952  1.00  0.00     0.062 A 
ATOM      7  C   UNL     1     -35.362  -4.569 -18.428  1.00  0.00     0.019 A 
ATOM      8  C   UNL     1     -35.990  -5.510 -17.612  1.00  0.00     0.094 A 
ATOM      9  C   UNL     1     -35.277  -6.064 -16.544  1.00  0.00     0.336 A 
ATOM     10  O   UNL     1     -35.826  -6.915 -15.796  1.00  0.00    -0.246 OA
ATOM     11  O   UNL     1     -34.019  -5.697 -16.312  1.00  0.00    -0.423 OA
ENDROOT
BRANCH   1  12
ATOM     12  O   UNL     1     -31.315  -1.978 -19.419  1.00  0.00    -0.493 OA
ATOM     13  C   UNL     1     -30.687  -2.263 -20.665  1.00  0.00     0.278 C 
ENDBRANCH   1  12
BRANCH   2  14
ATOM     14  O   UNL     1     -30.067  -3.174 -17.270  1.00  0.00    -0.504 OA
ATOM     15  H   UNL     1     -29.324  -3.864 -17.277  1.00  0.00     0.293 HD
ENDBRANCH   2  14
TORSDOF 2
ENDMDL
MODEL 5
REMARK VINA RESULT:    -5.826      2.526      5.215
REMARK INTER + INTRA:          -6.387
REMARK INTER:                  -6.335
REMARK INTRA:                  -0.052
REMARK UNBOUND:                -0.050
REMARK SMILES COc1cc2ccc(=O)oc2cc1O
REMARK SMILES IDX 3 1 13 2 12 3 11 4 5 5 4 6 6 7 7 8 8 9 9 10 10 11 2 12 1 13
REMARK SMILES IDX 14 14
REMARK H PARENT 14 15
REMARK Flexibility Score: inf
ROOT
ATOM      1  C   UNL     1     -31.099  -5.169 -16.849  1.00  0.00     0.161 A 
ATOM      2  C   UNL     1     -30.894  -3.894 -17.397  1.00  0.00     0.161 A 
ATOM      3  C   UNL     1     -31.978  -3.151 -17.888  1.00  0.00     0.098 A 
ATOM      4  C   UNL     1     -33.272  -3.675 -17.836  1.00  0.00     0.142 A 
ATOM      5  C   UNL     1     -33.486  -4.956 -17.286  1.00  0.00     0.022 A 
ATOM      6  C   UNL     1     -32.404  -5.699 -16.795  1.00  0.00     0.062 A 
ATOM      7  C   UNL     1     -34.794  -5.454 -17.248  1.00  0.00     0.019 A 
ATOM      8  C   UNL     1     -35.837  -4.677 -17.749  1.00  0.00     0.094 A 
ATOM      9  C   UNL     1     -35.549  -3.414 -18.278  1.00  0.00     0.336 A 
ATOM     10  O   UNL     1     -36.477  -2.697 -18.735  1.00  0.00    -0.246 OA
ATOM     11  O   UNL     1     -34.296  -2.966 -18.303  1.00  0.00    -0.423 OA
ENDROOT
BRANCH   1  12
ATOM     12  O   UNL     1     -29.985  -5.877 -16.370  1.00  0.00    -0.493 OA
ATOM     13  C   UNL     1     -29.748  -7.261 -16.604  1.00  0.00     0.278 C 
ENDBRANCH   1  12
BRANCH   2  14
ATOM     14  O   UNL     1     -29.604  -3.369 -17.452  1.00  0.00    -0.504 OA
ATOM     15  H   UNL     1     -28.843  -3.874 -17.890  1.00  0.00     0.293 HD
ENDBRANCH   2  14
TORSDOF 2
ENDMDL
MODEL 6
REMARK VINA RESULT:    -5.736      9.393     11.172
REMARK INTER + INTRA:          -6.289
REMARK INTER:                  -6.242
REMARK INTRA:                  -0.047
REMARK UNBOUND:                -0.050
REMARK SMILES COc1cc2ccc(=O)oc2cc1O
REMARK SMILES IDX 3 1 13 2 12 3 11 4 5 5 4 6 6 7 7 8 8 9 9 10 10 11 2 12 1 13
REMARK SMILES IDX 14 14
REMARK H PARENT 14 15
REMARK Flexibility Score: inf
ROOT
ATOM      1  C   UNL     1     -38.421  -7.881 -13.805  1.00  0.00     0.161 A 
ATOM      2  C   UNL     1     -39.703  -8.129 -13.293  1.00  0.00     0.161 A 
ATOM      3  C   UNL     1     -40.412  -7.112 -12.636  1.00  0.00     0.098 A 
ATOM      4  C   UNL     1     -39.847  -5.844 -12.485  1.00  0.00     0.142 A 
ATOM      5  C   UNL     1     -38.558  -5.587 -12.998  1.00  0.00     0.022 A 
ATOM      6  C   UNL     1     -37.849  -6.601 -13.655  1.00  0.00     0.062 A 
ATOM      7  C   UNL     1     -38.019  -4.306 -12.831  1.00  0.00     0.019 A 
ATOM      8  C   UNL     1     -38.763  -3.330 -12.170  1.00  0.00     0.094 A 
ATOM      9  C   UNL     1     -40.036  -3.658 -11.690  1.00  0.00     0.336 A 
ATOM     10  O   UNL     1     -40.724  -2.790 -11.091  1.00  0.00    -0.246 OA
ATOM     11  O   UNL     1     -40.524  -4.883 -11.861  1.00  0.00    -0.423 OA
ENDROOT
BRANCH   1  12
ATOM     12  O   UNL     1     -37.748  -8.928 -14.455  1.00  0.00    -0.493 OA
ATOM     13  C   UNL     1     -36.745  -8.748 -15.450  1.00  0.00     0.278 C 
ENDBRANCH   1  12
BRANCH   2  14
ATOM     14  O   UNL     1     -40.270  -9.394 -13.441  1.00  0.00    -0.504 OA
ATOM     15  H   UNL     1     -40.383  -9.821 -14.353  1.00  0.00     0.293 HD
ENDBRANCH   2  14
TORSDOF 2
ENDMDL
MODEL 7
REMARK VINA RESULT:    -5.682      6.018     10.025
REMARK INTER + INTRA:          -6.230
REMARK INTER:                  -6.168
REMARK INTRA:                  -0.062
REMARK UNBOUND:                -0.050
REMARK SMILES COc1cc2ccc(=O)oc2cc1O
REMARK SMILES IDX 3 1 13 2 12 3 11 4 5 5 4 6 6 7 7 8 8 9 9 10 10 11 2 12 1 13
REMARK SMILES IDX 14 14
REMARK H PARENT 14 15
REMARK Flexibility Score: inf
ROOT
ATOM      1  C   UNL     1     -35.971  -5.230 -14.222  1.00  0.00     0.161 A 
ATOM      2  C   UNL     1     -37.169  -4.508 -14.336  1.00  0.00     0.161 A 
ATOM      3  C   UNL     1     -38.403  -5.157 -14.184  1.00  0.00     0.098 A 
ATOM      4  C   UNL     1     -38.451  -6.527 -13.919  1.00  0.00     0.142 A 
ATOM      5  C   UNL     1     -37.252  -7.259 -13.801  1.00  0.00     0.022 A 
ATOM      6  C   UNL     1     -36.018  -6.613 -13.953  1.00  0.00     0.062 A 
ATOM      7  C   UNL     1     -37.333  -8.631 -13.535  1.00  0.00     0.019 A 
ATOM      8  C   UNL     1     -38.584  -9.229 -13.393  1.00  0.00     0.094 A 
ATOM      9  C   UNL     1     -39.731  -8.438 -13.521  1.00  0.00     0.336 A 
ATOM     10  O   UNL     1     -40.871  -8.958 -13.396  1.00  0.00    -0.246 OA
ATOM     11  O   UNL     1     -39.626  -7.136 -13.776  1.00  0.00    -0.423 OA
ENDROOT
BRANCH   1  12
ATOM     12  O   UNL     1     -34.758  -4.540 -14.382  1.00  0.00    -0.493 OA
ATOM     13  C   UNL     1     -34.005  -4.502 -15.589  1.00  0.00     0.278 C 
ENDBRANCH   1  12
BRANCH   2  14
ATOM     14  O   UNL     1     -37.124  -3.141 -14.602  1.00  0.00    -0.504 OA
ATOM     15  H   UNL     1     -37.248  -2.453 -13.869  1.00  0.00     0.293 HD
ENDBRANCH   2  14
TORSDOF 2
ENDMDL
MODEL 8
REMARK VINA RESULT:    -5.655      7.857     10.130
REMARK INTER + INTRA:          -6.201
REMARK INTER:                  -6.135
REMARK INTRA:                  -0.065
REMARK UNBOUND:                -0.050
REMARK SMILES COc1cc2ccc(=O)oc2cc1O
REMARK SMILES IDX 3 1 13 2 12 3 11 4 5 5 4 6 6 7 7 8 8 9 9 10 10 11 2 12 1 13
REMARK SMILES IDX 14 14
REMARK H PARENT 14 15
REMARK Flexibility Score: inf
ROOT
ATOM      1  C   UNL     1     -37.277  -4.157 -13.331  1.00  0.00     0.161 A 
ATOM      2  C   UNL     1     -36.155  -4.997 -13.360  1.00  0.00     0.161 A 
ATOM      3  C   UNL     1     -36.313  -6.391 -13.378  1.00  0.00     0.098 A 
ATOM      4  C   UNL     1     -37.591  -6.954 -13.367  1.00  0.00     0.142 A 
ATOM      5  C   UNL     1     -38.725  -6.116 -13.338  1.00  0.00     0.022 A 
ATOM      6  C   UNL     1     -38.568  -4.724 -13.320  1.00  0.00     0.062 A 
ATOM      7  C   UNL     1     -39.992  -6.711 -13.327  1.00  0.00     0.019 A 
ATOM      8  C   UNL     1     -40.097  -8.101 -13.346  1.00  0.00     0.094 A 
ATOM      9  C   UNL     1     -38.927  -8.868 -13.375  1.00  0.00     0.336 A 
ATOM     10  O   UNL     1     -39.000 -10.125 -13.392  1.00  0.00    -0.246 OA
ATOM     11  O   UNL     1     -37.735  -8.277 -13.384  1.00  0.00    -0.423 OA
ENDROOT
BRANCH   1  12
ATOM     12  O   UNL     1     -37.071  -2.768 -13.314  1.00  0.00    -0.493 OA
ATOM     13  C   UNL     1     -37.176  -1.952 -12.152  1.00  0.00     0.278 C 
ENDBRANCH   1  12
BRANCH   2  14
ATOM     14  O   UNL     1     -34.878  -4.438 -13.371  1.00  0.00    -0.504 OA
ATOM     15  H   UNL     1     -34.636  -3.678 -13.996  1.00  0.00     0.293 HD
ENDBRANCH   2  14
TORSDOF 2
ENDMDL
MODEL 9
REMARK VINA RESULT:    -5.637      2.634      4.545
REMARK INTER + INTRA:          -6.181
REMARK INTER:                  -6.130
REMARK INTRA:                  -0.051
REMARK UNBOUND:                -0.050
REMARK SMILES COc1cc2ccc(=O)oc2cc1O
REMARK SMILES IDX 3 1 13 2 12 3 11 4 5 5 4 6 6 7 7 8 8 9 9 10 10 11 2 12 1 13
REMARK SMILES IDX 14 14
REMARK H PARENT 14 15
REMARK Flexibility Score: inf
ROOT
ATOM      1  C   UNL     1     -35.723  -5.755 -16.794  1.00  0.00     0.161 A 
ATOM      2  C   UNL     1     -36.036  -5.082 -17.985  1.00  0.00     0.161 A 
ATOM      3  C   UNL     1     -35.088  -4.249 -18.598  1.00  0.00     0.098 A 
ATOM      4  C   UNL     1     -33.824  -4.081 -18.028  1.00  0.00     0.142 A 
ATOM      5  C   UNL     1     -33.502  -4.755 -16.831  1.00  0.00     0.022 A 
ATOM      6  C   UNL     1     -34.448  -5.586 -16.218  1.00  0.00     0.062 A 
ATOM      7  C   UNL     1     -32.227  -4.566 -16.284  1.00  0.00     0.019 A 
ATOM      8  C   UNL     1     -31.321  -3.727 -16.931  1.00  0.00     0.094 A 
ATOM      9  C   UNL     1     -31.711  -3.094 -18.116  1.00  0.00     0.336 A 
ATOM     10  O   UNL     1     -30.907  -2.333 -18.717  1.00  0.00    -0.246 OA
ATOM     11  O   UNL     1     -32.929  -3.290 -18.614  1.00  0.00    -0.423 OA
ENDROOT
BRANCH   1  12
ATOM     12  O   UNL     1     -36.702  -6.577 -16.216  1.00  0.00    -0.493 OA
ATOM     13  C   UNL     1     -36.447  -7.858 -15.648  1.00  0.00     0.278 C 
ENDBRANCH   1  12
BRANCH   2  14
ATOM     14  O   UNL     1     -37.296  -5.247 -18.557  1.00  0.00    -0.504 OA
ATOM     15  H   UNL     1     -37.439  -5.173 -19.557  1.00  0.00     0.293 HD
ENDBRANCH   2  14
TORSDOF 2
ENDMDL
