MODEL 1
REMARK VINA RESULT:    -5.560      0.000      0.000
REMARK INTER + INTRA:          -6.923
REMARK INTER:                  -6.860
REMARK INTRA:                  -0.063
REMARK UNBOUND:                -0.063
REMARK SMILES Oc1cc(O)c2cc(O)c(-c3cc(O)c(O)c(O)c3)[o+]c2c1
REMARK SMILES IDX 10 1 20 2 21 3 22 4 2 5 3 6 4 7 6 8 7 9 8 10 11 11 12 12
REMARK SMILES IDX 13 13 19 14 15 15 17 16 14 17 16 19 18 21 9 23 1 25 5 27
REMARK H PARENT 14 18 16 20 18 22 9 24 1 26 5 28
REMARK Flexibility Score: inf
ROOT
ATOM      1  C   UNL     1      10.918  48.540  96.555  1.00  0.00     0.402 A 
ATOM      2  O   UNL     1      11.715  48.473  95.492  1.00  0.00    -0.202 OA
ATOM      3  C   UNL     1      12.912  49.047  95.441  1.00  0.00     0.368 A 
ATOM      4  C   UNL     1      13.678  48.918  94.280  1.00  0.00     0.162 A 
ATOM      5  C   UNL     1      14.940  49.508  94.198  1.00  0.00     0.128 A 
ATOM      6  C   UNL     1      15.443  50.230  95.287  1.00  0.00     0.093 A 
ATOM      7  C   UNL     1      14.695  50.374  96.462  1.00  0.00     0.136 A 
ATOM      8  C   UNL     1      13.410  49.778  96.547  1.00  0.00     0.125 A 
ATOM      9  C   UNL     1      12.585  49.880  97.678  1.00  0.00     0.078 A 
ATOM     10  C   UNL     1      11.326  49.270  97.686  1.00  0.00     0.223 A 
ENDROOT
BRANCH   1  11
ATOM     11  C   UNL     1       9.609  47.849  96.494  1.00  0.00     0.091 A 
ATOM     12  C   UNL     1       9.235  46.988  97.538  1.00  0.00     0.068 A 
ATOM     13  C   UNL     1       7.998  46.336  97.517  1.00  0.00     0.162 A 
ATOM     14  C   UNL     1       8.707  48.079  95.442  1.00  0.00     0.068 A 
ATOM     15  C   UNL     1       7.108  46.554  96.452  1.00  0.00     0.200 A 
ATOM     16  C   UNL     1       7.464  47.432  95.414  1.00  0.00     0.162 A 
BRANCH  13  17
ATOM     17  O   UNL     1       7.670  45.478  98.565  1.00  0.00    -0.504 OA
ATOM     18  H   UNL     1       8.275  44.715  98.847  1.00  0.00     0.293 HD
ENDBRANCH  13  17
BRANCH  15  19
ATOM     19  O   UNL     1       5.876  45.898  96.437  1.00  0.00    -0.502 OA
ATOM     20  H   UNL     1       5.001  46.386  96.590  1.00  0.00     0.293 HD
ENDBRANCH  15  19
BRANCH  16  21
ATOM     21  O   UNL     1       6.580  47.663  94.361  1.00  0.00    -0.504 OA
ATOM     22  H   UNL     1       6.883  48.101  93.499  1.00  0.00     0.293 HD
ENDBRANCH  16  21
ENDBRANCH   1  11
BRANCH  10  23
ATOM     23  O   UNL     1      10.486  49.413  98.791  1.00  0.00    -0.500 OA
ATOM     24  H   UNL     1      10.263  50.324  99.175  1.00  0.00     0.294 HD
ENDBRANCH  10  23
BRANCH   5  25
ATOM     25  O   UNL     1      15.689  49.368  93.032  1.00  0.00    -0.507 OA
ATOM     26  H   UNL     1      16.273  48.556  92.871  1.00  0.00     0.293 HD
ENDBRANCH   5  25
BRANCH   7  27
ATOM     27  O   UNL     1      15.267  51.109  97.504  1.00  0.00    -0.507 OA
ATOM     28  H   UNL     1      16.260  51.189  97.667  1.00  0.00     0.293 HD
ENDBRANCH   7  27
TORSDOF 7
ENDMDL
MODEL 2
REMARK VINA RESULT:    -5.204     14.687     15.848
REMARK INTER + INTRA:          -6.484
REMARK INTER:                  -6.104
REMARK INTRA:                  -0.380
REMARK UNBOUND:                -0.063
REMARK SMILES Oc1cc(O)c2cc(O)c(-c3cc(O)c(O)c(O)c3)[o+]c2c1
REMARK SMILES IDX 10 1 20 2 21 3 22 4 2 5 3 6 4 7 6 8 7 9 8 10 11 11 12 12
REMARK SMILES IDX 13 13 19 14 15 15 17 16 14 17 16 19 18 21 9 23 1 25 5 27
REMARK H PARENT 14 18 16 20 18 22 9 24 1 26 5 28
REMARK Flexibility Score: inf
ROOT
ATOM      1  C   UNL     1      11.485  36.365  86.821  1.00  0.00     0.402 A 
ATOM      2  O   UNL     1      11.859  36.006  85.595  1.00  0.00    -0.202 OA
ATOM      3  C   UNL     1      13.122  36.025  85.184  1.00  0.00     0.368 A 
ATOM      4  C   UNL     1      13.417  35.627  83.878  1.00  0.00     0.162 A 
ATOM      5  C   UNL     1      14.735  35.634  83.418  1.00  0.00     0.128 A 
ATOM      6  C   UNL     1      15.768  36.040  84.272  1.00  0.00     0.093 A 
ATOM      7  C   UNL     1      15.498  36.443  85.586  1.00  0.00     0.136 A 
ATOM      8  C   UNL     1      14.159  36.440  86.054  1.00  0.00     0.125 A 
ATOM      9  C   UNL     1      13.794  36.840  87.350  1.00  0.00     0.078 A 
ATOM     10  C   UNL     1      12.450  36.815  87.739  1.00  0.00     0.223 A 
ENDROOT
BRANCH   1  11
ATOM     11  C   UNL     1      10.046  36.291  87.164  1.00  0.00     0.091 A 
ATOM     12  C   UNL     1       9.224  37.405  86.936  1.00  0.00     0.068 A 
ATOM     13  C   UNL     1       7.858  37.359  87.232  1.00  0.00     0.162 A 
ATOM     14  C   UNL     1       9.471  35.109  87.660  1.00  0.00     0.068 A 
ATOM     15  C   UNL     1       7.292  36.180  87.748  1.00  0.00     0.200 A 
ATOM     16  C   UNL     1       8.102  35.052  87.959  1.00  0.00     0.162 A 
BRANCH  13  17
ATOM     17  O   UNL     1       7.079  38.493  87.006  1.00  0.00    -0.504 OA
ATOM     18  H   UNL     1       7.099  38.994  86.125  1.00  0.00     0.293 HD
ENDBRANCH  13  17
BRANCH  15  19
ATOM     19  O   UNL     1       5.929  36.143  88.045  1.00  0.00    -0.502 OA
ATOM     20  H   UNL     1       5.358  35.327  87.857  1.00  0.00     0.293 HD
ENDBRANCH  15  19
BRANCH  16  21
ATOM     21  O   UNL     1       7.545  33.875  88.457  1.00  0.00    -0.504 OA
ATOM     22  H   UNL     1       6.805  33.388  87.966  1.00  0.00     0.293 HD
ENDBRANCH  16  21
ENDBRANCH   1  11
BRANCH  10  23
ATOM     23  O   UNL     1      12.081  37.260  89.009  1.00  0.00    -0.500 OA
ATOM     24  H   UNL     1      11.110  37.326  89.289  1.00  0.00     0.294 HD
ENDBRANCH  10  23
BRANCH   5  25
ATOM     25  O   UNL     1      15.009  35.234  82.113  1.00  0.00    -0.507 OA
ATOM     26  H   UNL     1      15.852  34.720  81.882  1.00  0.00     0.293 HD
ENDBRANCH   5  25
BRANCH   7  27
ATOM     27  O   UNL     1      16.584  36.832  86.375  1.00  0.00    -0.507 OA
ATOM     28  H   UNL     1      16.608  37.669  86.938  1.00  0.00     0.293 HD
ENDBRANCH   7  27
TORSDOF 7
ENDMDL
MODEL 3
REMARK VINA RESULT:    -5.149     14.635     15.736
REMARK INTER + INTRA:          -6.417
REMARK INTER:                  -6.057
REMARK INTRA:                  -0.360
REMARK UNBOUND:                -0.063
REMARK SMILES Oc1cc(O)c2cc(O)c(-c3cc(O)c(O)c(O)c3)[o+]c2c1
REMARK SMILES IDX 10 1 20 2 21 3 22 4 2 5 3 6 4 7 6 8 7 9 8 10 11 11 12 12
REMARK SMILES IDX 13 13 19 14 15 15 17 16 14 17 16 19 18 21 9 23 1 25 5 27
REMARK H PARENT 14 18 16 20 18 22 9 24 1 26 5 28
REMARK Flexibility Score: inf
ROOT
ATOM      1  C   UNL     1      11.496  36.467  86.779  1.00  0.00     0.402 A 
ATOM      2  O   UNL     1      11.821  36.108  85.539  1.00  0.00    -0.202 OA
ATOM      3  C   UNL     1      13.073  36.057  85.100  1.00  0.00     0.368 A 
ATOM      4  C   UNL     1      13.315  35.666  83.781  1.00  0.00     0.162 A 
ATOM      5  C   UNL     1      14.621  35.601  83.292  1.00  0.00     0.128 A 
ATOM      6  C   UNL     1      15.695  35.928  84.129  1.00  0.00     0.093 A 
ATOM      7  C   UNL     1      15.478  36.323  85.455  1.00  0.00     0.136 A 
ATOM      8  C   UNL     1      14.152  36.393  85.953  1.00  0.00     0.125 A 
ATOM      9  C   UNL     1      13.840  36.791  87.264  1.00  0.00     0.078 A 
ATOM     10  C   UNL     1      12.506  36.841  87.683  1.00  0.00     0.223 A 
ENDROOT
BRANCH   1  11
ATOM     11  C   UNL     1      10.063  36.474  87.153  1.00  0.00     0.091 A 
ATOM     12  C   UNL     1       9.458  35.284  87.589  1.00  0.00     0.068 A 
ATOM     13  C   UNL     1       8.112  35.264  87.967  1.00  0.00     0.162 A 
ATOM     14  C   UNL     1       9.306  37.657  87.136  1.00  0.00     0.068 A 
ATOM     15  C   UNL     1       7.354  36.447  87.928  1.00  0.00     0.200 A 
ATOM     16  C   UNL     1       7.957  37.647  87.515  1.00  0.00     0.162 A 
BRANCH  13  17
ATOM     17  O   UNL     1       7.545  34.059  88.380  1.00  0.00    -0.504 OA
ATOM     18  H   UNL     1       6.826  33.589  87.842  1.00  0.00     0.293 HD
ENDBRANCH  13  17
BRANCH  15  19
ATOM     19  O   UNL     1       6.011  36.418  88.304  1.00  0.00    -0.502 OA
ATOM     20  H   UNL     1       5.380  35.687  87.999  1.00  0.00     0.293 HD
ENDBRANCH  15  19
BRANCH  16  21
ATOM     21  O   UNL     1       7.215  38.827  87.487  1.00  0.00    -0.504 OA
ATOM     22  H   UNL     1       7.331  39.544  88.194  1.00  0.00     0.293 HD
ENDBRANCH  16  21
ENDBRANCH   1  11
BRANCH  10  23
ATOM     23  O   UNL     1      12.193  37.285  88.968  1.00  0.00    -0.500 OA
ATOM     24  H   UNL     1      11.663  38.134  89.123  1.00  0.00     0.294 HD
ENDBRANCH  10  23
BRANCH   5  25
ATOM     25  O   UNL     1      14.842  35.208  81.974  1.00  0.00    -0.507 OA
ATOM     26  H   UNL     1      14.081  35.130  81.310  1.00  0.00     0.293 HD
ENDBRANCH   5  25
BRANCH   7  27
ATOM     27  O   UNL     1      16.603  36.632  86.225  1.00  0.00    -0.507 OA
ATOM     28  H   UNL     1      17.118  37.497  86.161  1.00  0.00     0.293 HD
ENDBRANCH   7  27
TORSDOF 7
ENDMDL
MODEL 4
REMARK VINA RESULT:    -4.968     14.169     16.619
REMARK INTER + INTRA:          -6.193
REMARK INTER:                  -5.852
REMARK INTRA:                  -0.342
REMARK UNBOUND:                -0.063
REMARK SMILES Oc1cc(O)c2cc(O)c(-c3cc(O)c(O)c(O)c3)[o+]c2c1
REMARK SMILES IDX 10 1 20 2 21 3 22 4 2 5 3 6 4 7 6 8 7 9 8 10 11 11 12 12
REMARK SMILES IDX 13 13 19 14 15 15 17 16 14 17 16 19 18 21 9 23 1 25 5 27
REMARK H PARENT 14 18 16 20 18 22 9 24 1 26 5 28
REMARK Flexibility Score: inf
ROOT
ATOM      1  C   UNL     1      10.787  36.278  86.751  1.00  0.00     0.402 A 
ATOM      2  O   UNL     1      10.205  37.473  86.705  1.00  0.00    -0.202 OA
ATOM      3  C   UNL     1       8.934  37.678  87.030  1.00  0.00     0.368 A 
ATOM      4  C   UNL     1       8.412  38.972  86.952  1.00  0.00     0.162 A 
ATOM      5  C   UNL     1       7.081  39.218  87.289  1.00  0.00     0.128 A 
ATOM      6  C   UNL     1       6.262  38.162  87.709  1.00  0.00     0.093 A 
ATOM      7  C   UNL     1       6.761  36.856  87.795  1.00  0.00     0.136 A 
ATOM      8  C   UNL     1       8.113  36.603  87.450  1.00  0.00     0.125 A 
ATOM      9  C   UNL     1       8.694  35.325  87.493  1.00  0.00     0.078 A 
ATOM     10  C   UNL     1      10.035  35.152  87.133  1.00  0.00     0.223 A 
ENDROOT
BRANCH   1  11
ATOM     11  C   UNL     1      12.216  36.179  86.375  1.00  0.00     0.091 A 
ATOM     12  C   UNL     1      13.202  36.521  87.314  1.00  0.00     0.068 A 
ATOM     13  C   UNL     1      14.559  36.419  86.995  1.00  0.00     0.162 A 
ATOM     14  C   UNL     1      12.611  35.697  85.116  1.00  0.00     0.068 A 
ATOM     15  C   UNL     1      14.949  35.957  85.726  1.00  0.00     0.200 A 
ATOM     16  C   UNL     1      13.970  35.591  84.787  1.00  0.00     0.162 A 
BRANCH  13  17
ATOM     17  O   UNL     1      15.507  36.783  87.951  1.00  0.00    -0.504 OA
ATOM     18  H   UNL     1      15.300  36.780  88.943  1.00  0.00     0.293 HD
ENDBRANCH  13  17
BRANCH  15  19
ATOM     19  O   UNL     1      16.306  35.862  85.413  1.00  0.00    -0.502 OA
ATOM     20  H   UNL     1      16.833  36.647  85.052  1.00  0.00     0.293 HD
ENDBRANCH  15  19
BRANCH  16  21
ATOM     21  O   UNL     1      14.349  35.117  83.532  1.00  0.00    -0.504 OA
ATOM     22  H   UNL     1      13.664  34.842  82.838  1.00  0.00     0.293 HD
ENDBRANCH  16  21
ENDBRANCH   1  11
BRANCH  10  23
ATOM     23  O   UNL     1      10.599  33.876  87.128  1.00  0.00    -0.500 OA
ATOM     24  H   UNL     1      10.425  33.214  87.875  1.00  0.00     0.294 HD
ENDBRANCH  10  23
BRANCH   5  25
ATOM     25  O   UNL     1       6.579  40.514  87.206  1.00  0.00    -0.507 OA
ATOM     26  H   UNL     1       5.951  40.793  86.462  1.00  0.00     0.293 HD
ENDBRANCH   5  25
BRANCH   7  27
ATOM     27  O   UNL     1       5.881  35.858  88.224  1.00  0.00    -0.507 OA
ATOM     28  H   UNL     1       4.936  35.749  87.888  1.00  0.00     0.293 HD
ENDBRANCH   7  27
TORSDOF 7
ENDMDL
MODEL 5
REMARK VINA RESULT:    -4.955      3.835      6.842
REMARK INTER + INTRA:          -6.177
REMARK INTER:                  -5.805
REMARK INTRA:                  -0.372
REMARK UNBOUND:                -0.063
REMARK SMILES Oc1cc(O)c2cc(O)c(-c3cc(O)c(O)c(O)c3)[o+]c2c1
REMARK SMILES IDX 10 1 20 2 21 3 22 4 2 5 3 6 4 7 6 8 7 9 8 10 11 11 12 12
REMARK SMILES IDX 13 13 19 14 15 15 17 16 14 17 16 19 18 21 9 23 1 25 5 27
REMARK H PARENT 14 18 16 20 18 22 9 24 1 26 5 28
REMARK Flexibility Score: inf
ROOT
ATOM      1  C   UNL     1      11.063  48.352  93.463  1.00  0.00     0.402 A 
ATOM      2  O   UNL     1      11.183  47.105  93.017  1.00  0.00    -0.202 OA
ATOM      3  C   UNL     1      10.577  46.662  91.921  1.00  0.00     0.368 A 
ATOM      4  C   UNL     1      10.766  45.334  91.530  1.00  0.00     0.162 A 
ATOM      5  C   UNL     1      10.144  44.841  90.382  1.00  0.00     0.128 A 
ATOM      6  C   UNL     1       9.326  45.682  89.617  1.00  0.00     0.093 A 
ATOM      7  C   UNL     1       9.121  47.016  89.988  1.00  0.00     0.136 A 
ATOM      8  C   UNL     1       9.749  47.520  91.156  1.00  0.00     0.125 A 
ATOM      9  C   UNL     1       9.590  48.839  91.611  1.00  0.00     0.078 A 
ATOM     10  C   UNL     1      10.239  49.262  92.776  1.00  0.00     0.223 A 
ENDROOT
BRANCH   1  11
ATOM     11  C   UNL     1      11.798  48.730  94.692  1.00  0.00     0.091 A 
ATOM     12  C   UNL     1      13.115  49.205  94.589  1.00  0.00     0.068 A 
ATOM     13  C   UNL     1      13.828  49.587  95.730  1.00  0.00     0.162 A 
ATOM     14  C   UNL     1      11.188  48.678  95.957  1.00  0.00     0.068 A 
ATOM     15  C   UNL     1      13.220  49.513  96.995  1.00  0.00     0.200 A 
ATOM     16  C   UNL     1      11.895  49.060  97.106  1.00  0.00     0.162 A 
BRANCH  13  17
ATOM     17  O   UNL     1      15.139  50.039  95.587  1.00  0.00    -0.504 OA
ATOM     18  H   UNL     1      15.931  49.406  95.580  1.00  0.00     0.293 HD
ENDBRANCH  13  17
BRANCH  15  19
ATOM     19  O   UNL     1      13.939  49.893  98.129  1.00  0.00    -0.502 OA
ATOM     20  H   UNL     1      14.672  50.591  98.096  1.00  0.00     0.293 HD
ENDBRANCH  15  19
BRANCH  16  21
ATOM     21  O   UNL     1      11.280  48.997  98.356  1.00  0.00    -0.504 OA
ATOM     22  H   UNL     1      11.041  48.112  98.787  1.00  0.00     0.293 HD
ENDBRANCH  16  21
ENDBRANCH   1  11
BRANCH  10  23
ATOM     23  O   UNL     1      10.041  50.557  93.256  1.00  0.00    -0.500 OA
ATOM     24  H   UNL     1      10.804  51.107  93.632  1.00  0.00     0.294 HD
ENDBRANCH  10  23
BRANCH   5  25
ATOM     25  O   UNL     1      10.345  43.515  90.007  1.00  0.00    -0.507 OA
ATOM     26  H   UNL     1      11.189  43.221  89.529  1.00  0.00     0.293 HD
ENDBRANCH   5  25
BRANCH   7  27
ATOM     27  O   UNL     1       8.293  47.791  89.171  1.00  0.00    -0.507 OA
ATOM     28  H   UNL     1       8.621  48.514  88.548  1.00  0.00     0.293 HD
ENDBRANCH   7  27
TORSDOF 7
ENDMDL
MODEL 6
REMARK VINA RESULT:    -4.908     12.190     13.322
REMARK INTER + INTRA:          -6.119
REMARK INTER:                  -5.876
REMARK INTRA:                  -0.244
REMARK UNBOUND:                -0.063
REMARK SMILES Oc1cc(O)c2cc(O)c(-c3cc(O)c(O)c(O)c3)[o+]c2c1
REMARK SMILES IDX 10 1 20 2 21 3 22 4 2 5 3 6 4 7 6 8 7 9 8 10 11 11 12 12
REMARK SMILES IDX 13 13 19 14 15 15 17 16 14 17 16 19 18 21 9 23 1 25 5 27
REMARK H PARENT 14 18 16 20 18 22 9 24 1 26 5 28
REMARK Flexibility Score: inf
ROOT
ATOM      1  C   UNL     1      10.643  37.760  88.368  1.00  0.00     0.402 A 
ATOM      2  O   UNL     1      10.458  38.819  89.152  1.00  0.00    -0.202 OA
ATOM      3  C   UNL     1      11.456  39.501  89.704  1.00  0.00     0.368 A 
ATOM      4  C   UNL     1      11.162  40.601  90.512  1.00  0.00     0.162 A 
ATOM      5  C   UNL     1      12.190  41.338  91.103  1.00  0.00     0.128 A 
ATOM      6  C   UNL     1      13.523  40.973  90.883  1.00  0.00     0.093 A 
ATOM      7  C   UNL     1      13.844  39.874  90.076  1.00  0.00     0.136 A 
ATOM      8  C   UNL     1      12.801  39.121  89.477  1.00  0.00     0.125 A 
ATOM      9  C   UNL     1      13.029  37.998  88.666  1.00  0.00     0.078 A 
ATOM     10  C   UNL     1      11.948  37.302  88.113  1.00  0.00     0.223 A 
ENDROOT
BRANCH   1  11
ATOM     11  C   UNL     1       9.449  37.090  87.803  1.00  0.00     0.091 A 
ATOM     12  C   UNL     1       9.101  35.806  88.251  1.00  0.00     0.068 A 
ATOM     13  C   UNL     1       7.969  35.156  87.751  1.00  0.00     0.162 A 
ATOM     14  C   UNL     1       8.621  37.733  86.867  1.00  0.00     0.068 A 
ATOM     15  C   UNL     1       7.156  35.796  86.799  1.00  0.00     0.200 A 
ATOM     16  C   UNL     1       7.483  37.090  86.360  1.00  0.00     0.162 A 
BRANCH  13  17
ATOM     17  O   UNL     1       7.667  33.876  88.211  1.00  0.00    -0.504 OA
ATOM     18  H   UNL     1       7.668  33.068  87.599  1.00  0.00     0.293 HD
ENDBRANCH  13  17
BRANCH  15  19
ATOM     19  O   UNL     1       6.030  35.140  86.302  1.00  0.00    -0.502 OA
ATOM     20  H   UNL     1       5.104  35.288  86.686  1.00  0.00     0.293 HD
ENDBRANCH  15  19
BRANCH  16  21
ATOM     21  O   UNL     1       6.674  37.737  85.428  1.00  0.00    -0.504 OA
ATOM     22  H   UNL     1       5.948  38.384  85.712  1.00  0.00     0.293 HD
ENDBRANCH  16  21
ENDBRANCH   1  11
BRANCH  10  23
ATOM     23  O   UNL     1      12.171  36.157  87.348  1.00  0.00    -0.500 OA
ATOM     24  H   UNL     1      11.515  35.385  87.342  1.00  0.00     0.294 HD
ENDBRANCH  10  23
BRANCH   5  25
ATOM     25  O   UNL     1      11.877  42.432  91.905  1.00  0.00    -0.507 OA
ATOM     26  H   UNL     1      12.572  42.871  92.498  1.00  0.00     0.293 HD
ENDBRANCH   5  25
BRANCH   7  27
ATOM     27  O   UNL     1      15.199  39.576  89.905  1.00  0.00    -0.507 OA
ATOM     28  H   UNL     1      15.648  39.458  89.009  1.00  0.00     0.293 HD
ENDBRANCH   7  27
TORSDOF 7
ENDMDL
MODEL 7
REMARK VINA RESULT:    -4.839      4.406      6.271
REMARK INTER + INTRA:          -6.033
REMARK INTER:                  -5.649
REMARK INTRA:                  -0.385
REMARK UNBOUND:                -0.063
REMARK SMILES Oc1cc(O)c2cc(O)c(-c3cc(O)c(O)c(O)c3)[o+]c2c1
REMARK SMILES IDX 10 1 20 2 21 3 22 4 2 5 3 6 4 7 6 8 7 9 8 10 11 11 12 12
REMARK SMILES IDX 13 13 19 14 15 15 17 16 14 17 16 19 18 21 9 23 1 25 5 27
REMARK H PARENT 14 18 16 20 18 22 9 24 1 26 5 28
REMARK Flexibility Score: inf
ROOT
ATOM      1  C   UNL     1      10.530  46.674  93.795  1.00  0.00     0.402 A 
ATOM      2  O   UNL     1      11.129  45.488  93.728  1.00  0.00    -0.202 OA
ATOM      3  C   UNL     1      11.212  44.776  92.610  1.00  0.00     0.368 A 
ATOM      4  C   UNL     1      11.863  43.540  92.638  1.00  0.00     0.162 A 
ATOM      5  C   UNL     1      11.968  42.771  91.478  1.00  0.00     0.128 A 
ATOM      6  C   UNL     1      11.419  43.241  90.279  1.00  0.00     0.093 A 
ATOM      7  C   UNL     1      10.761  44.475  90.225  1.00  0.00     0.136 A 
ATOM      8  C   UNL     1      10.650  45.258  91.403  1.00  0.00     0.125 A 
ATOM      9  C   UNL     1       9.997  46.501  91.445  1.00  0.00     0.078 A 
ATOM     10  C   UNL     1       9.923  47.214  92.647  1.00  0.00     0.223 A 
ENDROOT
BRANCH   1  11
ATOM     11  C   UNL     1      10.512  47.377  95.099  1.00  0.00     0.091 A 
ATOM     12  C   UNL     1       9.495  47.091  96.023  1.00  0.00     0.068 A 
ATOM     13  C   UNL     1       9.463  47.725  97.269  1.00  0.00     0.162 A 
ATOM     14  C   UNL     1      11.524  48.284  95.456  1.00  0.00     0.068 A 
ATOM     15  C   UNL     1      10.466  48.648  97.613  1.00  0.00     0.200 A 
ATOM     16  C   UNL     1      11.501  48.924  96.704  1.00  0.00     0.162 A 
BRANCH  13  17
ATOM     17  O   UNL     1       8.427  47.424  98.152  1.00  0.00    -0.504 OA
ATOM     18  H   UNL     1       8.528  46.733  98.887  1.00  0.00     0.293 HD
ENDBRANCH  13  17
BRANCH  15  19
ATOM     19  O   UNL     1      10.425  49.278  98.857  1.00  0.00    -0.502 OA
ATOM     20  H   UNL     1      10.972  48.953  99.646  1.00  0.00     0.293 HD
ENDBRANCH  15  19
BRANCH  16  21
ATOM     21  O   UNL     1      12.507  49.826  97.044  1.00  0.00    -0.504 OA
ATOM     22  H   UNL     1      13.041  50.318  96.337  1.00  0.00     0.293 HD
ENDBRANCH  16  21
ENDBRANCH   1  11
BRANCH  10  23
ATOM     23  O   UNL     1       9.231  48.424  92.700  1.00  0.00    -0.500 OA
ATOM     24  H   UNL     1       8.252  48.467  92.959  1.00  0.00     0.294 HD
ENDBRANCH  10  23
BRANCH   5  25
ATOM     25  O   UNL     1      12.622  41.543  91.526  1.00  0.00    -0.507 OA
ATOM     26  H   UNL     1      12.187  40.696  91.178  1.00  0.00     0.293 HD
ENDBRANCH   5  25
BRANCH   7  27
ATOM     27  O   UNL     1      10.241  44.874  88.990  1.00  0.00    -0.507 OA
ATOM     28  H   UNL     1       9.273  45.109  88.828  1.00  0.00     0.293 HD
ENDBRANCH   7  27
TORSDOF 7
ENDMDL
MODEL 8
REMARK VINA RESULT:    -4.838     13.473     14.574
REMARK INTER + INTRA:          -6.033
REMARK INTER:                  -5.746
REMARK INTRA:                  -0.287
REMARK UNBOUND:                -0.063
REMARK SMILES Oc1cc(O)c2cc(O)c(-c3cc(O)c(O)c(O)c3)[o+]c2c1
REMARK SMILES IDX 10 1 20 2 21 3 22 4 2 5 3 6 4 7 6 8 7 9 8 10 11 11 12 12
REMARK SMILES IDX 13 13 19 14 15 15 17 16 14 17 16 19 18 21 9 23 1 25 5 27
REMARK H PARENT 14 18 16 20 18 22 9 24 1 26 5 28
REMARK Flexibility Score: inf
ROOT
ATOM      1  C   UNL     1      11.249  37.191  87.799  1.00  0.00     0.402 A 
ATOM      2  O   UNL     1      12.210  36.562  87.128  1.00  0.00    -0.202 OA
ATOM      3  C   UNL     1      13.497  36.874  87.235  1.00  0.00     0.368 A 
ATOM      4  C   UNL     1      14.435  36.154  86.491  1.00  0.00     0.162 A 
ATOM      5  C   UNL     1      15.794  36.457  86.585  1.00  0.00     0.128 A 
ATOM      6  C   UNL     1      16.221  37.488  87.430  1.00  0.00     0.093 A 
ATOM      7  C   UNL     1      15.301  38.225  88.186  1.00  0.00     0.136 A 
ATOM      8  C   UNL     1      13.918  37.921  88.090  1.00  0.00     0.125 A 
ATOM      9  C   UNL     1      12.925  38.615  88.800  1.00  0.00     0.078 A 
ATOM     10  C   UNL     1      11.579  38.261  88.651  1.00  0.00     0.223 A 
ENDROOT
BRANCH   1  11
ATOM     11  C   UNL     1       9.851  36.744  87.603  1.00  0.00     0.091 A 
ATOM     12  C   UNL     1       8.971  37.538  86.850  1.00  0.00     0.068 A 
ATOM     13  C   UNL     1       7.651  37.132  86.632  1.00  0.00     0.162 A 
ATOM     14  C   UNL     1       9.397  35.514  88.108  1.00  0.00     0.068 A 
ATOM     15  C   UNL     1       7.197  35.910  87.157  1.00  0.00     0.200 A 
ATOM     16  C   UNL     1       8.075  35.098  87.893  1.00  0.00     0.162 A 
BRANCH  13  17
ATOM     17  O   UNL     1       6.805  37.956  85.891  1.00  0.00    -0.504 OA
ATOM     18  H   UNL     1       6.256  37.607  85.114  1.00  0.00     0.293 HD
ENDBRANCH  13  17
BRANCH  15  19
ATOM     19  O   UNL     1       5.877  35.514  86.938  1.00  0.00    -0.502 OA
ATOM     20  H   UNL     1       5.088  36.104  87.177  1.00  0.00     0.293 HD
ENDBRANCH  15  19
BRANCH  16  21
ATOM     21  O   UNL     1       7.636  33.878  88.405  1.00  0.00    -0.504 OA
ATOM     22  H   UNL     1       6.794  33.808  88.963  1.00  0.00     0.293 HD
ENDBRANCH  16  21
ENDBRANCH   1  11
BRANCH  10  23
ATOM     23  O   UNL     1      10.588  38.982  89.317  1.00  0.00    -0.500 OA
ATOM     24  H   UNL     1       9.645  39.053  88.952  1.00  0.00     0.294 HD
ENDBRANCH  10  23
BRANCH   5  25
ATOM     25  O   UNL     1      16.713  35.727  85.835  1.00  0.00    -0.507 OA
ATOM     26  H   UNL     1      16.787  35.839  84.831  1.00  0.00     0.293 HD
ENDBRANCH   5  25
BRANCH   7  27
ATOM     27  O   UNL     1      15.807  39.237  89.007  1.00  0.00    -0.507 OA
ATOM     28  H   UNL     1      15.425  39.484  89.908  1.00  0.00     0.293 HD
ENDBRANCH   7  27
TORSDOF 7
ENDMDL
MODEL 9
REMARK VINA RESULT:    -4.584     14.295     16.783
REMARK INTER + INTRA:          -5.719
REMARK INTER:                  -5.346
REMARK INTRA:                  -0.373
REMARK UNBOUND:                -0.063
REMARK SMILES Oc1cc(O)c2cc(O)c(-c3cc(O)c(O)c(O)c3)[o+]c2c1
REMARK SMILES IDX 10 1 20 2 21 3 22 4 2 5 3 6 4 7 6 8 7 9 8 10 11 11 12 12
REMARK SMILES IDX 13 13 19 14 15 15 17 16 14 17 16 19 18 21 9 23 1 25 5 27
REMARK H PARENT 14 18 16 20 18 22 9 24 1 26 5 28
REMARK Flexibility Score: inf
ROOT
ATOM      1  C   UNL     1      11.131  36.832  86.729  1.00  0.00     0.402 A 
ATOM      2  O   UNL     1      10.363  35.842  87.179  1.00  0.00    -0.202 OA
ATOM      3  C   UNL     1       9.060  35.974  87.402  1.00  0.00     0.368 A 
ATOM      4  C   UNL     1       8.337  34.875  87.872  1.00  0.00     0.162 A 
ATOM      5  C   UNL     1       6.967  34.982  88.113  1.00  0.00     0.128 A 
ATOM      6  C   UNL     1       6.312  36.197  87.880  1.00  0.00     0.093 A 
ATOM      7  C   UNL     1       7.014  37.313  87.409  1.00  0.00     0.136 A 
ATOM      8  C   UNL     1       8.408  37.208  87.166  1.00  0.00     0.125 A 
ATOM      9  C   UNL     1       9.194  38.277  86.706  1.00  0.00     0.078 A 
ATOM     10  C   UNL     1      10.566  38.099  86.495  1.00  0.00     0.223 A 
ENDROOT
BRANCH   1  11
ATOM     11  C   UNL     1      12.569  36.559  86.510  1.00  0.00     0.091 A 
ATOM     12  C   UNL     1      12.996  36.064  85.267  1.00  0.00     0.068 A 
ATOM     13  C   UNL     1      14.350  35.815  85.023  1.00  0.00     0.162 A 
ATOM     14  C   UNL     1      13.528  36.836  87.499  1.00  0.00     0.068 A 
ATOM     15  C   UNL     1      15.302  36.075  86.024  1.00  0.00     0.200 A 
ATOM     16  C   UNL     1      14.888  36.591  87.264  1.00  0.00     0.162 A 
BRANCH  13  17
ATOM     17  O   UNL     1      14.730  35.310  83.781  1.00  0.00    -0.504 OA
ATOM     18  H   UNL     1      14.703  34.319  83.570  1.00  0.00     0.293 HD
ENDBRANCH  13  17
BRANCH  15  19
ATOM     19  O   UNL     1      16.651  35.820  85.775  1.00  0.00    -0.502 OA
ATOM     20  H   UNL     1      17.392  36.358  86.208  1.00  0.00     0.293 HD
ENDBRANCH  15  19
BRANCH  16  21
ATOM     21  O   UNL     1      15.828  36.865  88.256  1.00  0.00    -0.504 OA
ATOM     22  H   UNL     1      15.551  37.084  89.205  1.00  0.00     0.293 HD
ENDBRANCH  16  21
ENDBRANCH   1  11
BRANCH  10  23
ATOM     23  O   UNL     1      11.356  39.174  86.086  1.00  0.00    -0.500 OA
ATOM     24  H   UNL     1      12.102  39.059  85.410  1.00  0.00     0.294 HD
ENDBRANCH  10  23
BRANCH   5  25
ATOM     25  O   UNL     1       6.263  33.875  88.581  1.00  0.00    -0.507 OA
ATOM     26  H   UNL     1       5.364  33.973  89.037  1.00  0.00     0.293 HD
ENDBRANCH   5  25
BRANCH   7  27
ATOM     27  O   UNL     1       6.288  38.490  87.201  1.00  0.00    -0.507 OA
ATOM     28  H   UNL     1       6.142  39.201  87.901  1.00  0.00     0.293 HD
ENDBRANCH   7  27
TORSDOF 7
ENDMDL
