MODEL 1
REMARK VINA RESULT:    -4.404      0.000      0.000
REMARK INTER + INTRA:          -5.693
REMARK INTER:                  -5.434
REMARK INTRA:                  -0.259
REMARK UNBOUND:                -0.259
REMARK SMILES C=CC(=C)CCC=C(C)C
REMARK SMILES IDX 5 1 6 2 7 3 9 4 8 5 10 6 3 7 4 8 2 9 1 10
REMARK H PARENT
REMARK Flexibility Score: inf
ROOT
ATOM      1  C   UNL     1     181.459 181.880 175.628  1.00  0.00     0.039 C 
ENDROOT
BRANCH   1   2
ATOM      2  C   UNL     1     182.942 182.256 175.721  1.00  0.00     0.032 C 
BRANCH   2   3
ATOM      3  C   UNL     1     183.163 183.339 176.749  1.00  0.00    -0.028 C 
ATOM      4  C   UNL     1     184.433 184.881 178.180  1.00  0.00     0.039 C 
ATOM      5  C   UNL     1     184.375 183.778 177.153  1.00  0.00    -0.080 C 
ATOM      6  C   UNL     1     185.661 183.190 176.623  1.00  0.00     0.039 C 
ENDBRANCH   2   3
ENDBRANCH   1   2
BRANCH   1   7
ATOM      7  C   UNL     1     181.203 180.534 176.271  1.00  0.00    -0.055 C 
ATOM      8  C   UNL     1     181.623 179.427 175.649  1.00  0.00     0.012 C 
BRANCH   7   9
ATOM      9  C   UNL     1     180.461 180.393 177.550  1.00  0.00    -0.005 C 
ATOM     10  C   UNL     1     179.980 179.238 178.011  1.00  0.00     0.009 C 
ENDBRANCH   7   9
ENDBRANCH   1   7
TORSDOF 4
ENDMDL
MODEL 2
REMARK VINA RESULT:    -4.362      9.393     11.337
REMARK INTER + INTRA:          -5.641
REMARK INTER:                  -5.358
REMARK INTRA:                  -0.283
REMARK UNBOUND:                -0.259
REMARK SMILES C=CC(=C)CCC=C(C)C
REMARK SMILES IDX 5 1 6 2 7 3 9 4 8 5 10 6 3 7 4 8 2 9 1 10
REMARK H PARENT
REMARK Flexibility Score: inf
ROOT
ATOM      1  C   UNL     1     171.002 183.499 176.011  1.00  0.00     0.039 C 
ENDROOT
BRANCH   1   2
ATOM      2  C   UNL     1     172.040 182.527 176.583  1.00  0.00     0.032 C 
BRANCH   2   3
ATOM      3  C   UNL     1     172.427 181.485 175.562  1.00  0.00    -0.028 C 
ATOM      4  C   UNL     1     173.828 180.372 173.879  1.00  0.00     0.039 C 
ATOM      5  C   UNL     1     173.577 181.495 174.853  1.00  0.00    -0.080 C 
ATOM      6  C   UNL     1     174.600 182.597 174.996  1.00  0.00     0.039 C 
ENDBRANCH   2   3
ENDBRANCH   1   2
BRANCH   1   7
ATOM      7  C   UNL     1     170.603 184.530 177.046  1.00  0.00    -0.055 C 
ATOM      8  C   UNL     1     171.030 185.790 176.906  1.00  0.00     0.012 C 
BRANCH   7   9
ATOM      9  C   UNL     1     169.789 184.183 178.239  1.00  0.00    -0.005 C 
ATOM     10  C   UNL     1     170.303 183.925 179.442  1.00  0.00     0.009 C 
ENDBRANCH   7   9
ENDBRANCH   1   7
TORSDOF 4
ENDMDL
MODEL 3
REMARK VINA RESULT:    -4.279      6.674      9.664
REMARK INTER + INTRA:          -5.539
REMARK INTER:                  -4.776
REMARK INTRA:                  -0.763
REMARK UNBOUND:                -0.259
REMARK SMILES C=CC(=C)CCC=C(C)C
REMARK SMILES IDX 5 1 6 2 7 3 9 4 8 5 10 6 3 7 4 8 2 9 1 10
REMARK H PARENT
REMARK Flexibility Score: inf
ROOT
ATOM      1  C   UNL     1     173.222 180.879 174.449  1.00  0.00     0.039 C 
ENDROOT
BRANCH   1   2
ATOM      2  C   UNL     1     172.411 180.489 175.690  1.00  0.00     0.032 C 
BRANCH   2   3
ATOM      3  C   UNL     1     172.809 179.122 176.191  1.00  0.00    -0.028 C 
ATOM      4  C   UNL     1     173.828 177.466 177.693  1.00  0.00     0.039 C 
ATOM      5  C   UNL     1     173.521 178.894 177.316  1.00  0.00    -0.080 C 
ATOM      6  C   UNL     1     174.028 180.017 178.189  1.00  0.00     0.039 C 
ENDBRANCH   2   3
ENDBRANCH   1   2
BRANCH   1   7
ATOM      7  C   UNL     1     174.408 181.739 174.830  1.00  0.00    -0.055 C 
ATOM      8  C   UNL     1     174.224 183.049 175.029  1.00  0.00     0.012 C 
BRANCH   7   9
ATOM      9  C   UNL     1     175.783 181.188 174.949  1.00  0.00    -0.005 C 
ATOM     10  C   UNL     1     176.544 181.310 176.036  1.00  0.00     0.009 C 
ENDBRANCH   7   9
ENDBRANCH   1   7
TORSDOF 4
ENDMDL
MODEL 4
REMARK VINA RESULT:    -4.263     10.243     11.929
REMARK INTER + INTRA:          -5.519
REMARK INTER:                  -4.760
REMARK INTRA:                  -0.759
REMARK UNBOUND:                -0.259
REMARK SMILES C=CC(=C)CCC=C(C)C
REMARK SMILES IDX 5 1 6 2 7 3 9 4 8 5 10 6 3 7 4 8 2 9 1 10
REMARK H PARENT
REMARK Flexibility Score: inf
ROOT
ATOM      1  C   UNL     1     173.768 173.395 174.473  1.00  0.00     0.039 C 
ENDROOT
BRANCH   1   2
ATOM      2  C   UNL     1     174.094 172.482 175.660  1.00  0.00     0.032 C 
BRANCH   2   3
ATOM      3  C   UNL     1     175.422 172.849 176.277  1.00  0.00    -0.028 C 
ATOM      4  C   UNL     1     176.964 173.818 177.926  1.00  0.00     0.039 C 
ATOM      5  C   UNL     1     175.568 173.542 177.428  1.00  0.00    -0.080 C 
ATOM      6  C   UNL     1     174.384 174.056 178.213  1.00  0.00     0.039 C 
ENDBRANCH   2   3
ENDBRANCH   1   2
BRANCH   1   7
ATOM      7  C   UNL     1     172.848 174.520 174.897  1.00  0.00    -0.055 C 
ATOM      8  C   UNL     1     171.546 174.266 175.068  1.00  0.00     0.012 C 
BRANCH   7   9
ATOM      9  C   UNL     1     173.333 175.912 175.088  1.00  0.00    -0.005 C 
ATOM     10  C   UNL     1     172.959 176.700 176.096  1.00  0.00     0.009 C 
ENDBRANCH   7   9
ENDBRANCH   1   7
TORSDOF 4
ENDMDL
MODEL 5
REMARK VINA RESULT:    -4.224      2.201      4.782
REMARK INTER + INTRA:          -5.471
REMARK INTER:                  -4.711
REMARK INTRA:                  -0.760
REMARK UNBOUND:                -0.259
REMARK SMILES C=CC(=C)CCC=C(C)C
REMARK SMILES IDX 5 1 6 2 7 3 9 4 8 5 10 6 3 7 4 8 2 9 1 10
REMARK H PARENT
REMARK Flexibility Score: inf
ROOT
ATOM      1  C   UNL     1     179.667 181.916 175.700  1.00  0.00     0.039 C 
ENDROOT
BRANCH   1   2
ATOM      2  C   UNL     1     178.838 180.791 176.329  1.00  0.00     0.032 C 
BRANCH   2   3
ATOM      3  C   UNL     1     178.993 180.778 177.830  1.00  0.00    -0.028 C 
ATOM      4  C   UNL     1     179.672 179.923 180.031  1.00  0.00     0.039 C 
ATOM      5  C   UNL     1     179.578 179.783 178.533  1.00  0.00    -0.080 C 
ATOM      6  C   UNL     1     180.119 178.539 177.868  1.00  0.00     0.039 C 
ENDBRANCH   2   3
ENDBRANCH   1   2
BRANCH   1   7
ATOM      7  C   UNL     1     181.124 181.518 175.597  1.00  0.00    -0.055 C 
ATOM      8  C   UNL     1     182.052 182.295 176.167  1.00  0.00     0.012 C 
BRANCH   7   9
ATOM      9  C   UNL     1     181.567 180.315 174.846  1.00  0.00    -0.005 C 
ATOM     10  C   UNL     1     182.749 179.723 175.015  1.00  0.00     0.009 C 
ENDBRANCH   7   9
ENDBRANCH   1   7
TORSDOF 4
ENDMDL
MODEL 6
REMARK VINA RESULT:    -4.207     10.617     11.993
REMARK INTER + INTRA:          -5.450
REMARK INTER:                  -4.677
REMARK INTRA:                  -0.773
REMARK UNBOUND:                -0.259
REMARK SMILES C=CC(=C)CCC=C(C)C
REMARK SMILES IDX 5 1 6 2 7 3 9 4 8 5 10 6 3 7 4 8 2 9 1 10
REMARK H PARENT
REMARK Flexibility Score: inf
ROOT
ATOM      1  C   UNL     1     174.802 172.518 175.700  1.00  0.00     0.039 C 
ENDROOT
BRANCH   1   2
ATOM      2  C   UNL     1     175.639 173.622 176.357  1.00  0.00     0.032 C 
BRANCH   2   3
ATOM      3  C   UNL     1     175.471 173.611 177.856  1.00  0.00    -0.028 C 
ATOM      4  C   UNL     1     174.763 174.424 180.064  1.00  0.00     0.039 C 
ATOM      5  C   UNL     1     174.868 174.588 178.569  1.00  0.00    -0.080 C 
ATOM      6  C   UNL     1     174.317 175.834 177.918  1.00  0.00     0.039 C 
ENDBRANCH   2   3
ENDBRANCH   1   2
BRANCH   1   7
ATOM      7  C   UNL     1     173.356 172.947 175.568  1.00  0.00    -0.055 C 
ATOM      8  C   UNL     1     172.401 172.195 176.126  1.00  0.00     0.012 C 
BRANCH   7   9
ATOM      9  C   UNL     1     172.954 174.153 174.798  1.00  0.00    -0.005 C 
ATOM     10  C   UNL     1     171.819 174.822 175.000  1.00  0.00     0.009 C 
ENDBRANCH   7   9
ENDBRANCH   1   7
TORSDOF 4
ENDMDL
MODEL 7
REMARK VINA RESULT:    -4.180      6.620      8.610
REMARK INTER + INTRA:          -5.417
REMARK INTER:                  -4.723
REMARK INTRA:                  -0.693
REMARK UNBOUND:                -0.259
REMARK SMILES C=CC(=C)CCC=C(C)C
REMARK SMILES IDX 5 1 6 2 7 3 9 4 8 5 10 6 3 7 4 8 2 9 1 10
REMARK H PARENT
REMARK Flexibility Score: inf
ROOT
ATOM      1  C   UNL     1     179.541 173.038 175.737  1.00  0.00     0.039 C 
ENDROOT
BRANCH   1   2
ATOM      2  C   UNL     1     179.040 174.326 176.401  1.00  0.00     0.032 C 
BRANCH   2   3
ATOM      3  C   UNL     1     179.381 174.346 177.870  1.00  0.00    -0.028 C 
ATOM      4  C   UNL     1     180.543 175.049 179.918  1.00  0.00     0.039 C 
ATOM      5  C   UNL     1     180.329 175.132 178.428  1.00  0.00    -0.080 C 
ATOM      6  C   UNL     1     181.182 176.068 177.606  1.00  0.00     0.039 C 
ENDBRANCH   2   3
ENDBRANCH   1   2
BRANCH   1   7
ATOM      7  C   UNL     1     180.973 173.197 175.271  1.00  0.00    -0.055 C 
ATOM      8  C   UNL     1     181.949 172.581 175.947  1.00  0.00     0.012 C 
BRANCH   7   9
ATOM      9  C   UNL     1     181.340 174.051 174.112  1.00  0.00    -0.005 C 
ATOM     10  C   UNL     1     180.574 174.214 173.033  1.00  0.00     0.009 C 
ENDBRANCH   7   9
ENDBRANCH   1   7
TORSDOF 4
ENDMDL
MODEL 8
REMARK VINA RESULT:    -4.167     10.815     11.857
REMARK INTER + INTRA:          -5.400
REMARK INTER:                  -4.676
REMARK INTRA:                  -0.725
REMARK UNBOUND:                -0.259
REMARK SMILES C=CC(=C)CCC=C(C)C
REMARK SMILES IDX 5 1 6 2 7 3 9 4 8 5 10 6 3 7 4 8 2 9 1 10
REMARK H PARENT
REMARK Flexibility Score: inf
ROOT
ATOM      1  C   UNL     1     173.048 174.846 175.934  1.00  0.00     0.039 C 
ENDROOT
BRANCH   1   2
ATOM      2  C   UNL     1     174.351 175.357 176.560  1.00  0.00     0.032 C 
BRANCH   2   3
ATOM      3  C   UNL     1     174.449 174.953 178.011  1.00  0.00    -0.028 C 
ATOM      4  C   UNL     1     175.289 173.735 179.973  1.00  0.00     0.039 C 
ATOM      5  C   UNL     1     175.298 174.018 178.492  1.00  0.00    -0.080 C 
ATOM      6  C   UNL     1     176.233 173.243 177.594  1.00  0.00     0.039 C 
ENDBRANCH   2   3
ENDBRANCH   1   2
BRANCH   1   7
ATOM      7  C   UNL     1     173.213 173.428 175.431  1.00  0.00    -0.055 C 
ATOM      8  C   UNL     1     172.502 172.449 176.001  1.00  0.00     0.012 C 
BRANCH   7   9
ATOM      9  C   UNL     1     174.174 173.075 174.354  1.00  0.00    -0.005 C 
ATOM     10  C   UNL     1     174.272 173.731 173.198  1.00  0.00     0.009 C 
ENDBRANCH   7   9
ENDBRANCH   1   7
TORSDOF 4
ENDMDL
MODEL 9
REMARK VINA RESULT:    -4.147      8.443     10.219
REMARK INTER + INTRA:          -5.376
REMARK INTER:                  -4.558
REMARK INTRA:                  -0.818
REMARK UNBOUND:                -0.259
REMARK SMILES C=CC(=C)CCC=C(C)C
REMARK SMILES IDX 5 1 6 2 7 3 9 4 8 5 10 6 3 7 4 8 2 9 1 10
REMARK H PARENT
REMARK Flexibility Score: inf
ROOT
ATOM      1  C   UNL     1     174.591 180.867 176.523  1.00  0.00     0.039 C 
ENDROOT
BRANCH   1   2
ATOM      2  C   UNL     1     174.029 180.157 177.760  1.00  0.00     0.032 C 
BRANCH   2   3
ATOM      3  C   UNL     1     174.386 178.691 177.753  1.00  0.00    -0.028 C 
ATOM      4  C   UNL     1     174.100 176.290 177.317  1.00  0.00     0.039 C 
ATOM      5  C   UNL     1     173.594 177.710 177.268  1.00  0.00    -0.080 C 
ATOM      6  C   UNL     1     172.223 177.991 176.700  1.00  0.00     0.039 C 
ENDBRANCH   2   3
ENDBRANCH   1   2
BRANCH   1   7
ATOM      7  C   UNL     1     173.488 181.170 175.530  1.00  0.00    -0.055 C 
ATOM      8  C   UNL     1     172.408 181.842 175.943  1.00  0.00     0.012 C 
BRANCH   7   9
ATOM      9  C   UNL     1     173.542 180.708 174.119  1.00  0.00    -0.005 C 
ATOM     10  C   UNL     1     173.946 179.493 173.747  1.00  0.00     0.009 C 
ENDBRANCH   7   9
ENDBRANCH   1   7
TORSDOF 4
ENDMDL
