MODEL 1
REMARK VINA RESULT:    -1.900      0.000      0.000
REMARK INTER + INTRA:          -4.665
REMARK INTER:                  -5.010
REMARK INTRA:                   0.345
REMARK UNBOUND:                 0.345
REMARK SMILES CCCCCCCCCCCCCCCCCCCCCCCCCCCCCC(=O)[O-]
REMARK SMILES IDX 16 1 17 2 18 3 19 4 20 5 21 6 22 7 23 8 24 9 25 10 26 11
REMARK SMILES IDX 27 12 28 13 29 14 30 15 31 16 32 17 15 18 14 19 13 20 12 21
REMARK SMILES IDX 11 22 10 23 9 24 8 25 7 26 6 27 5 28 4 29 3 30 2 31 1 32
REMARK H PARENT
REMARK Flexibility Score: inf
ROOT
ATOM      1  C   UNL     1      31.095  14.426  14.759  1.00  0.00     0.000 C 
ENDROOT
BRANCH   1   2
ATOM      2  C   UNL     1      31.593  15.038  16.084  1.00  0.00     0.000 C 
BRANCH   2   3
ATOM      3  C   UNL     1      32.101  16.487  15.984  1.00  0.00     0.000 C 
BRANCH   3   4
ATOM      4  C   UNL     1      32.852  16.945  17.246  1.00  0.00     0.000 C 
BRANCH   4   5
ATOM      5  C   UNL     1      31.933  17.050  18.474  1.00  0.00     0.000 C 
BRANCH   5   6
ATOM      6  C   UNL     1      32.715  17.042  19.799  1.00  0.00     0.000 C 
BRANCH   6   7
ATOM      7  C   UNL     1      31.799  17.123  21.034  1.00  0.00     0.000 C 
BRANCH   7   8
ATOM      8  C   UNL     1      30.561  16.205  20.993  1.00  0.00     0.000 C 
BRANCH   8   9
ATOM      9  C   UNL     1      29.205  16.933  20.964  1.00  0.00     0.000 C 
BRANCH   9  10
ATOM     10  C   UNL     1      28.388  16.727  22.248  1.00  0.00     0.000 C 
BRANCH  10  11
ATOM     11  C   UNL     1      28.958  15.570  23.082  1.00  0.00     0.000 C 
BRANCH  11  12
ATOM     12  C   UNL     1      29.797  14.591  22.244  1.00  0.00     0.000 C 
BRANCH  12  13
ATOM     13  C   UNL     1      30.446  13.487  23.096  1.00  0.00     0.006 C 
BRANCH  13  14
ATOM     14  C   UNL     1      31.528  12.720  22.322  1.00  0.00     0.053 C 
BRANCH  14  15
ATOM     15  C   UNL     1      32.365  13.633  21.479  1.00  0.00     0.041 C 
ATOM     16  O   UNL     1      32.375  13.504  20.225  1.00  0.00    -0.550 OA
ATOM     17  O   UNL     1      33.108  14.643  22.073  1.00  0.00    -0.550 OA
ENDBRANCH  14  15
ENDBRANCH  13  14
ENDBRANCH  12  13
ENDBRANCH  11  12
ENDBRANCH  10  11
ENDBRANCH   9  10
ENDBRANCH   8   9
ENDBRANCH   7   8
ENDBRANCH   6   7
ENDBRANCH   5   6
ENDBRANCH   4   5
ENDBRANCH   3   4
ENDBRANCH   2   3
ENDBRANCH   1   2
BRANCH   1  18
ATOM     18  C   UNL     1      31.663  15.079  13.484  1.00  0.00     0.000 C 
BRANCH  18  19
ATOM     19  C   UNL     1      30.622  15.797  12.604  1.00  0.00     0.000 C 
BRANCH  19  20
ATOM     20  C   UNL     1      30.021  17.080  13.216  1.00  0.00     0.000 C 
BRANCH  20  21
ATOM     21  C   UNL     1      28.819  16.858  14.152  1.00  0.00     0.000 C 
BRANCH  21  22
ATOM     22  C   UNL     1      29.156  17.121  15.630  1.00  0.00     0.000 C 
BRANCH  22  23
ATOM     23  C   UNL     1      27.914  17.094  16.534  1.00  0.00     0.000 C 
BRANCH  23  24
ATOM     24  C   UNL     1      27.534  15.674  16.985  1.00  0.00    -0.000 C 
BRANCH  24  25
ATOM     25  C   UNL     1      28.773  14.784  17.215  1.00  0.00    -0.000 C 
BRANCH  25  26
ATOM     26  C   UNL     1      29.095  14.552  18.702  1.00  0.00    -0.000 C 
BRANCH  26  27
ATOM     27  C   UNL     1      28.762  13.125  19.172  1.00  0.00    -0.000 C 
BRANCH  27  28
ATOM     28  C   UNL     1      27.850  13.107  20.416  1.00  0.00    -0.000 C 
BRANCH  28  29
ATOM     29  C   UNL     1      27.327  11.709  20.798  1.00  0.00    -0.000 C 
BRANCH  29  30
ATOM     30  C   UNL     1      27.507  11.359  22.288  1.00  0.00    -0.000 C 
BRANCH  30  31
ATOM     31  C   UNL     1      27.944   9.901  22.492  1.00  0.00    -0.003 C 
ATOM     32  C   UNL     1      29.327   9.651  21.896  1.00  0.00     0.004 C 
ENDBRANCH  30  31
ENDBRANCH  29  30
ENDBRANCH  28  29
ENDBRANCH  27  28
ENDBRANCH  26  27
ENDBRANCH  25  26
ENDBRANCH  24  25
ENDBRANCH  23  24
ENDBRANCH  22  23
ENDBRANCH  21  22
ENDBRANCH  20  21
ENDBRANCH  19  20
ENDBRANCH  18  19
ENDBRANCH   1  18
TORSDOF 28
ENDMDL
MODEL 2
REMARK VINA RESULT:    -1.058      1.869      6.132
REMARK INTER + INTRA:          -2.446
REMARK INTER:                  -2.848
REMARK INTRA:                   0.402
REMARK UNBOUND:                 0.345
REMARK SMILES CCCCCCCCCCCCCCCCCCCCCCCCCCCCCC(=O)[O-]
REMARK SMILES IDX 16 1 17 2 18 3 19 4 20 5 21 6 22 7 23 8 24 9 25 10 26 11
REMARK SMILES IDX 27 12 28 13 29 14 30 15 31 16 32 17 15 18 14 19 13 20 12 21
REMARK SMILES IDX 11 22 10 23 9 24 8 25 7 26 6 27 5 28 4 29 3 30 2 31 1 32
REMARK H PARENT
REMARK Flexibility Score: inf
ROOT
ATOM      1  C   UNL     1      32.266  13.874  21.205  1.00  0.00     0.000 C 
ENDROOT
BRANCH   1   2
ATOM      2  C   UNL     1      31.977  14.253  19.738  1.00  0.00     0.000 C 
BRANCH   2   3
ATOM      3  C   UNL     1      31.177  15.553  19.545  1.00  0.00     0.000 C 
BRANCH   3   4
ATOM      4  C   UNL     1      30.095  15.432  18.457  1.00  0.00     0.000 C 
BRANCH   4   5
ATOM      5  C   UNL     1      28.697  15.815  18.970  1.00  0.00     0.000 C 
BRANCH   5   6
ATOM      6  C   UNL     1      27.616  15.691  17.882  1.00  0.00     0.000 C 
BRANCH   6   7
ATOM      7  C   UNL     1      27.483  16.963  17.026  1.00  0.00     0.000 C 
BRANCH   7   8
ATOM      8  C   UNL     1      27.144  16.721  15.540  1.00  0.00     0.000 C 
BRANCH   8   9
ATOM      9  C   UNL     1      28.311  16.935  14.559  1.00  0.00     0.000 C 
BRANCH   9  10
ATOM     10  C   UNL     1      29.663  17.106  15.266  1.00  0.00     0.000 C 
BRANCH  10  11
ATOM     11  C   UNL     1      30.827  16.919  14.281  1.00  0.00     0.000 C 
BRANCH  11  12
ATOM     12  C   UNL     1      31.846  15.873  14.759  1.00  0.00     0.000 C 
BRANCH  12  13
ATOM     13  C   UNL     1      31.275  14.936  15.837  1.00  0.00     0.006 C 
BRANCH  13  14
ATOM     14  C   UNL     1      31.181  13.483  15.351  1.00  0.00     0.053 C 
BRANCH  14  15
ATOM     15  C   UNL     1      30.402  12.625  16.300  1.00  0.00     0.041 C 
ATOM     16  O   UNL     1      30.072  13.072  17.431  1.00  0.00    -0.550 OA
ATOM     17  O   UNL     1      30.015  11.346  15.926  1.00  0.00    -0.550 OA
ENDBRANCH  14  15
ENDBRANCH  13  14
ENDBRANCH  12  13
ENDBRANCH  11  12
ENDBRANCH  10  11
ENDBRANCH   9  10
ENDBRANCH   8   9
ENDBRANCH   7   8
ENDBRANCH   6   7
ENDBRANCH   5   6
ENDBRANCH   4   5
ENDBRANCH   3   4
ENDBRANCH   2   3
ENDBRANCH   1   2
BRANCH   1  18
ATOM     18  C   UNL     1      33.540  14.503  21.803  1.00  0.00     0.000 C 
BRANCH  18  19
ATOM     19  C   UNL     1      33.327  15.270  23.121  1.00  0.00     0.000 C 
BRANCH  19  20
ATOM     20  C   UNL     1      32.652  16.650  22.974  1.00  0.00     0.000 C 
BRANCH  20  21
ATOM     21  C   UNL     1      31.456  16.694  22.005  1.00  0.00     0.000 C 
BRANCH  21  22
ATOM     22  C   UNL     1      30.124  16.997  22.713  1.00  0.00     0.000 C 
BRANCH  22  23
ATOM     23  C   UNL     1      28.948  17.119  21.733  1.00  0.00     0.000 C 
BRANCH  23  24
ATOM     24  C   UNL     1      27.694  16.364  22.206  1.00  0.00    -0.000 C 
BRANCH  24  25
ATOM     25  C   UNL     1      28.042  15.174  23.124  1.00  0.00    -0.000 C 
BRANCH  25  26
ATOM     26  C   UNL     1      29.216  14.324  22.608  1.00  0.00    -0.000 C 
BRANCH  26  27
ATOM     27  C   UNL     1      28.757  13.062  21.856  1.00  0.00    -0.000 C 
BRANCH  27  28
ATOM     28  C   UNL     1      29.845  11.970  21.812  1.00  0.00    -0.000 C 
BRANCH  28  29
ATOM     29  C   UNL     1      29.495  10.695  22.603  1.00  0.00    -0.000 C 
BRANCH  29  30
ATOM     30  C   UNL     1      27.993  10.349  22.603  1.00  0.00    -0.000 C 
BRANCH  30  31
ATOM     31  C   UNL     1      27.717   8.962  22.006  1.00  0.00    -0.003 C 
ATOM     32  C   UNL     1      27.108   8.025  23.045  1.00  0.00     0.004 C 
ENDBRANCH  30  31
ENDBRANCH  29  30
ENDBRANCH  28  29
ENDBRANCH  27  28
ENDBRANCH  26  27
ENDBRANCH  25  26
ENDBRANCH  24  25
ENDBRANCH  23  24
ENDBRANCH  22  23
ENDBRANCH  21  22
ENDBRANCH  20  21
ENDBRANCH  19  20
ENDBRANCH  18  19
ENDBRANCH   1  18
TORSDOF 28
ENDMDL
