MODEL 1
REMARK VINA RESULT:    -7.740      0.000      0.000
REMARK INTER + INTRA:         -15.314
REMARK INTER:                 -12.717
REMARK INTRA:                  -2.597
REMARK UNBOUND:                -2.597
REMARK SMILES C[C@@H]1O[C@@H](OC[C@H]2O[C@@H](Oc3c(-c4ccc(O)c(O)c4)oc4cc(O)cc(O)c4c3=O)[C@@H](O)[C@H](O)[C@@H]2O)[C@H](O)[C@H](O)[C@@H]1O
REMARK SMILES IDX 7 1 36 2 34 3 32 4 9 5 8 6 6 7 5 8 4 9 1 10 2 11 42 12 3 13
REMARK SMILES IDX 40 14 38 15 43 16 41 18 39 20 37 22 35 24 10 26 11 27 12 28
REMARK SMILES IDX 30 29 21 30 29 31 31 32 22 33 27 34 23 35 26 36 24 37 13 38
REMARK SMILES IDX 20 39 14 40 18 41 15 42 16 43 19 44 17 46 28 48 25 50 33 52
REMARK H PARENT 43 17 41 19 39 21 37 23 35 25 19 45 17 47 28 49 25 51 33 53
REMARK Flexibility Score: inf
ROOT
ATOM      1  C   UNL     1      28.944  13.366  25.101  1.00  0.00     0.180 C 
ATOM      2  C   UNL     1      28.096  14.523  25.939  1.00  0.00     0.177 C 
ATOM      3  C   UNL     1      28.280  14.142  27.462  1.00  0.00     0.180 C 
ATOM      4  C   UNL     1      28.215  12.433  27.528  1.00  0.00     0.214 C 
ATOM      5  C   UNL     1      29.742  12.193  27.327  1.00  0.00     0.339 C 
ATOM      6  O   UNL     1      30.052  12.942  25.976  1.00  0.00    -0.332 OA
ENDROOT
BRANCH   1   7
ATOM      7  C   UNL     1      29.566  13.664  23.697  1.00  0.00     0.198 C 
BRANCH   7   8
ATOM      8  O   UNL     1      29.598  12.609  22.640  1.00  0.00    -0.347 OA
BRANCH   8   9
ATOM      9  C   UNL     1      30.669  11.521  22.668  1.00  0.00     0.281 C 
ATOM     10  C   UNL     1      31.919   8.604  20.835  1.00  0.00     0.041 C 
ATOM     11  C   UNL     1      30.811   9.832  20.727  1.00  0.00     0.150 C 
ATOM     12  C   UNL     1      29.424   9.085  21.116  1.00  0.00     0.174 C 
ATOM     13  O   UNL     1      31.161  11.082  21.310  1.00  0.00    -0.344 OA
ATOM     14  C   UNL     1      29.253   9.271  22.695  1.00  0.00     0.179 C 
ATOM     15  C   UNL     1      30.369  10.243  23.464  1.00  0.00     0.202 C 
BRANCH  12  16
ATOM     16  O   UNL     1      29.402   7.757  20.776  1.00  0.00    -0.388 OA
ATOM     17  H   UNL     1      29.272   7.122  21.612  1.00  0.00     0.211 HD
ENDBRANCH  12  16
BRANCH  14  18
ATOM     18  O   UNL     1      29.000   7.974  23.322  1.00  0.00    -0.387 OA
ATOM     19  H   UNL     1      28.044   7.820  23.103  1.00  0.00     0.211 HD
ENDBRANCH  14  18
BRANCH  15  20
ATOM     20  O   UNL     1      31.701   9.625  23.291  1.00  0.00    -0.385 OA
ATOM     21  H   UNL     1      32.302   9.868  24.112  1.00  0.00     0.211 HD
ENDBRANCH  15  20
ENDBRANCH   8   9
ENDBRANCH   7   8
ENDBRANCH   1   7
BRANCH   2  22
ATOM     22  O   UNL     1      26.686  14.523  25.713  1.00  0.00    -0.387 OA
ATOM     23  H   UNL     1      26.249  15.028  26.440  1.00  0.00     0.211 HD
ENDBRANCH   2  22
BRANCH   3  24
ATOM     24  O   UNL     1      27.613  14.869  28.430  1.00  0.00    -0.387 OA
ATOM     25  H   UNL     1      26.797  15.204  28.006  1.00  0.00     0.211 HD
ENDBRANCH   3  24
BRANCH   5  26
ATOM     26  O   UNL     1      30.398  12.663  28.599  1.00  0.00    -0.454 OA
BRANCH  26  27
ATOM     27  C   UNL     1      30.971  11.787  29.669  1.00  0.00     0.214 A 
ATOM     28  C   UNL     1      30.914  10.291  29.401  1.00  0.00     0.180 A 
ATOM     29  C   UNL     1      31.254  12.190  31.049  1.00  0.00     0.239 A 
ATOM     30  O   UNL     1      31.870   9.712  30.195  1.00  0.00    -0.452 OA
ATOM     31  C   UNL     1      31.903  11.246  31.928  1.00  0.00     0.111 A 
ATOM     32  O   UNL     1      30.209  12.742  31.500  1.00  0.00    -0.285 OA
ATOM     33  C   UNL     1      32.043   9.886  31.465  1.00  0.00     0.146 A 
ATOM     34  C   UNL     1      31.989  11.552  33.356  1.00  0.00     0.134 A 
ATOM     35  C   UNL     1      31.970   8.839  32.514  1.00  0.00     0.094 A 
ATOM     36  C   UNL     1      31.259  10.560  34.124  1.00  0.00     0.093 A 
ATOM     37  C   UNL     1      31.509   9.183  33.851  1.00  0.00     0.123 A 
BRANCH  28  38
ATOM     38  C   UNL     1      30.724   8.903  28.946  1.00  0.00     0.025 A 
ATOM     39  C   UNL     1      29.574   8.112  29.252  1.00  0.00     0.062 A 
ATOM     40  C   UNL     1      31.425   8.394  27.816  1.00  0.00     0.016 A 
ATOM     41  C   UNL     1      28.879   7.478  28.119  1.00  0.00     0.158 A 
ATOM     42  C   UNL     1      30.628   8.071  26.683  1.00  0.00     0.051 A 
ATOM     43  C   UNL     1      29.211   8.013  26.889  1.00  0.00     0.157 A 
BRANCH  41  44
ATOM     44  O   UNL     1      28.359   6.126  28.165  1.00  0.00    -0.504 OA
ATOM     45  H   UNL     1      27.908   5.788  29.016  1.00  0.00     0.293 HD
ENDBRANCH  41  44
BRANCH  43  46
ATOM     46  O   UNL     1      28.276   8.689  26.093  1.00  0.00    -0.504 OA
ATOM     47  H   UNL     1      27.336   8.473  26.317  1.00  0.00     0.293 HD
ENDBRANCH  43  46
ENDBRANCH  28  38
BRANCH  34  48
ATOM     48  O   UNL     1      33.125  11.499  34.095  1.00  0.00    -0.507 OA
ATOM     49  H   UNL     1      33.813  12.335  34.009  1.00  0.00     0.293 HD
ENDBRANCH  34  48
BRANCH  37  50
ATOM     50  O   UNL     1      30.967   8.136  34.679  1.00  0.00    -0.508 OA
ATOM     51  H   UNL     1      31.071   7.151  34.593  1.00  0.00     0.293 HD
ENDBRANCH  37  50
ENDBRANCH  26  27
ENDBRANCH   5  26
BRANCH   4  52
ATOM     52  O   UNL     1      27.866  11.510  28.524  1.00  0.00    -0.384 OA
ATOM     53  H   UNL     1      26.833  11.437  28.506  1.00  0.00     0.211 HD
ENDBRANCH   4  52
TORSDOF 16
ENDMDL
MODEL 2
REMARK VINA RESULT:    -7.525      0.701      1.137
REMARK INTER + INTRA:         -14.961
REMARK INTER:                 -12.554
REMARK INTRA:                  -2.407
REMARK UNBOUND:                -2.597
REMARK SMILES C[C@@H]1O[C@@H](OC[C@H]2O[C@@H](Oc3c(-c4ccc(O)c(O)c4)oc4cc(O)cc(O)c4c3=O)[C@@H](O)[C@H](O)[C@@H]2O)[C@H](O)[C@H](O)[C@@H]1O
REMARK SMILES IDX 7 1 36 2 34 3 32 4 9 5 8 6 6 7 5 8 4 9 1 10 2 11 42 12 3 13
REMARK SMILES IDX 40 14 38 15 43 16 41 18 39 20 37 22 35 24 10 26 11 27 12 28
REMARK SMILES IDX 30 29 21 30 29 31 31 32 22 33 27 34 23 35 26 36 24 37 13 38
REMARK SMILES IDX 20 39 14 40 18 41 15 42 16 43 19 44 17 46 28 48 25 50 33 52
REMARK H PARENT 43 17 41 19 39 21 37 23 35 25 19 45 17 47 28 49 25 51 33 53
REMARK Flexibility Score: inf
ROOT
ATOM      1  C   UNL     1      29.150  13.282  25.016  1.00  0.00     0.180 C 
ATOM      2  C   UNL     1      28.311  14.470  25.818  1.00  0.00     0.177 C 
ATOM      3  C   UNL     1      28.455  14.111  27.350  1.00  0.00     0.180 C 
ATOM      4  C   UNL     1      28.351  12.404  27.442  1.00  0.00     0.214 C 
ATOM      5  C   UNL     1      29.876  12.128  27.276  1.00  0.00     0.339 C 
ATOM      6  O   UNL     1      30.230  12.848  25.921  1.00  0.00    -0.332 OA
ENDROOT
BRANCH   1   7
ATOM      7  C   UNL     1      29.808  13.543  23.621  1.00  0.00     0.198 C 
BRANCH   7   8
ATOM      8  O   UNL     1      29.118  13.122  22.364  1.00  0.00    -0.347 OA
BRANCH   8   9
ATOM      9  C   UNL     1      29.698  12.004  21.504  1.00  0.00     0.281 C 
ATOM     10  C   UNL     1      29.392   8.427  20.763  1.00  0.00     0.041 C 
ATOM     11  C   UNL     1      28.677   9.642  21.635  1.00  0.00     0.150 C 
ATOM     12  C   UNL     1      29.221   9.359  23.138  1.00  0.00     0.174 C 
ATOM     13  O   UNL     1      28.703  10.950  21.078  1.00  0.00    -0.344 OA
ATOM     14  C   UNL     1      30.551  10.233  23.295  1.00  0.00     0.179 C 
ATOM     15  C   UNL     1      30.931  11.258  22.035  1.00  0.00     0.202 C 
BRANCH  12  16
ATOM     16  O   UNL     1      29.475   8.036  23.389  1.00  0.00    -0.388 OA
ATOM     17  H   UNL     1      29.484   7.809  24.422  1.00  0.00     0.211 HD
ENDBRANCH  12  16
BRANCH  14  18
ATOM     18  O   UNL     1      31.642   9.391  23.781  1.00  0.00    -0.387 OA
ATOM     19  H   UNL     1      31.326   9.142  24.688  1.00  0.00     0.211 HD
ENDBRANCH  14  18
BRANCH  15  20
ATOM     20  O   UNL     1      31.155  10.430  20.830  1.00  0.00    -0.385 OA
ATOM     21  H   UNL     1      32.115  10.019  20.869  1.00  0.00     0.211 HD
ENDBRANCH  15  20
ENDBRANCH   8   9
ENDBRANCH   7   8
ENDBRANCH   1   7
BRANCH   2  22
ATOM     22  O   UNL     1      26.906  14.498  25.563  1.00  0.00    -0.387 OA
ATOM     23  H   UNL     1      26.427  14.319  26.407  1.00  0.00     0.211 HD
ENDBRANCH   2  22
BRANCH   3  24
ATOM     24  O   UNL     1      27.785  14.867  28.293  1.00  0.00    -0.387 OA
ATOM     25  H   UNL     1      28.470  15.227  28.892  1.00  0.00     0.211 HD
ENDBRANCH   3  24
BRANCH   5  26
ATOM     26  O   UNL     1      30.516  12.604  28.554  1.00  0.00    -0.454 OA
BRANCH  26  27
ATOM     27  C   UNL     1      31.035  11.733  29.656  1.00  0.00     0.214 A 
ATOM     28  C   UNL     1      30.910  10.234  29.430  1.00  0.00     0.180 A 
ATOM     29  C   UNL     1      31.322  12.162  31.027  1.00  0.00     0.239 A 
ATOM     30  O   UNL     1      31.828   9.633  30.251  1.00  0.00    -0.452 OA
ATOM     31  C   UNL     1      31.915  11.215  31.941  1.00  0.00     0.111 A 
ATOM     32  O   UNL     1      30.299  12.776  31.449  1.00  0.00    -0.285 OA
ATOM     33  C   UNL     1      31.995   9.836  31.518  1.00  0.00     0.146 A 
ATOM     34  C   UNL     1      32.000  11.557  33.361  1.00  0.00     0.134 A 
ATOM     35  C   UNL     1      31.861   8.825  32.596  1.00  0.00     0.094 A 
ATOM     36  C   UNL     1      31.215  10.624  34.147  1.00  0.00     0.093 A 
ATOM     37  C   UNL     1      31.402   9.229  33.917  1.00  0.00     0.123 A 
BRANCH  28  38
ATOM     38  C   UNL     1      30.658   8.844  29.012  1.00  0.00     0.025 A 
ATOM     39  C   UNL     1      29.486   8.105  29.360  1.00  0.00     0.062 A 
ATOM     40  C   UNL     1      31.316   8.283  27.882  1.00  0.00     0.016 A 
ATOM     41  C   UNL     1      28.744   7.471  28.257  1.00  0.00     0.158 A 
ATOM     42  C   UNL     1      30.485   7.964  26.772  1.00  0.00     0.051 A 
ATOM     43  C   UNL     1      29.071   7.965  27.008  1.00  0.00     0.157 A 
BRANCH  41  44
ATOM     44  O   UNL     1      28.175   6.142  28.346  1.00  0.00    -0.504 OA
ATOM     45  H   UNL     1      28.541   5.481  29.032  1.00  0.00     0.293 HD
ENDBRANCH  41  44
BRANCH  43  46
ATOM     46  O   UNL     1      28.146   8.657  26.214  1.00  0.00    -0.504 OA
ATOM     47  H   UNL     1      28.544   9.053  25.398  1.00  0.00     0.293 HD
ENDBRANCH  43  46
ENDBRANCH  28  38
BRANCH  34  48
ATOM     48  O   UNL     1      33.124  11.472  34.115  1.00  0.00    -0.507 OA
ATOM     49  H   UNL     1      33.555  10.484  34.254  1.00  0.00     0.293 HD
ENDBRANCH  34  48
BRANCH  37  50
ATOM     50  O   UNL     1      30.801   8.234  34.767  1.00  0.00    -0.508 OA
ATOM     51  H   UNL     1      31.236   7.618  35.416  1.00  0.00     0.293 HD
ENDBRANCH  37  50
ENDBRANCH  26  27
ENDBRANCH   5  26
BRANCH   4  52
ATOM     52  O   UNL     1      27.962  11.505  28.444  1.00  0.00    -0.384 OA
ATOM     53  H   UNL     1      27.481  12.067  29.170  1.00  0.00     0.211 HD
ENDBRANCH   4  52
TORSDOF 16
ENDMDL
MODEL 3
REMARK VINA RESULT:    -7.465      1.750      9.311
REMARK INTER + INTRA:         -14.862
REMARK INTER:                 -12.386
REMARK INTRA:                  -2.476
REMARK UNBOUND:                -2.597
REMARK SMILES C[C@@H]1O[C@@H](OC[C@H]2O[C@@H](Oc3c(-c4ccc(O)c(O)c4)oc4cc(O)cc(O)c4c3=O)[C@@H](O)[C@H](O)[C@@H]2O)[C@H](O)[C@H](O)[C@@H]1O
REMARK SMILES IDX 7 1 36 2 34 3 32 4 9 5 8 6 6 7 5 8 4 9 1 10 2 11 42 12 3 13
REMARK SMILES IDX 40 14 38 15 43 16 41 18 39 20 37 22 35 24 10 26 11 27 12 28
REMARK SMILES IDX 30 29 21 30 29 31 31 32 22 33 27 34 23 35 26 36 24 37 13 38
REMARK SMILES IDX 20 39 14 40 18 41 15 42 16 43 19 44 17 46 28 48 25 50 33 52
REMARK H PARENT 43 17 41 19 39 21 37 23 35 25 19 45 17 47 28 49 25 51 33 53
REMARK Flexibility Score: inf
ROOT
ATOM      1  C   UNL     1      29.543   7.060  29.497  1.00  0.00     0.180 C 
ATOM      2  C   UNL     1      28.434   5.993  28.873  1.00  0.00     0.177 C 
ATOM      3  C   UNL     1      28.153   6.506  27.405  1.00  0.00     0.180 C 
ATOM      4  C   UNL     1      28.138   8.215  27.502  1.00  0.00     0.214 C 
ATOM      5  C   UNL     1      29.661   8.418  27.237  1.00  0.00     0.339 C 
ATOM      6  O   UNL     1      30.343   7.547  28.359  1.00  0.00    -0.332 OA
ENDROOT
BRANCH   1   7
ATOM      7  C   UNL     1      30.557   6.630  30.609  1.00  0.00     0.198 C 
BRANCH   7   8
ATOM      8  O   UNL     1      30.731   7.458  31.840  1.00  0.00    -0.347 OA
BRANCH   8   9
ATOM      9  C   UNL     1      31.628   8.693  31.820  1.00  0.00     0.281 C 
ATOM     10  C   UNL     1      32.834  11.463  33.893  1.00  0.00     0.041 C 
ATOM     11  C   UNL     1      31.934  10.074  33.973  1.00  0.00     0.150 C 
ATOM     12  C   UNL     1      30.414  10.643  33.968  1.00  0.00     0.174 C 
ATOM     13  O   UNL     1      32.318   8.996  33.128  1.00  0.00    -0.344 OA
ATOM     14  C   UNL     1      29.960  10.670  32.435  1.00  0.00     0.179 C 
ATOM     15  C   UNL     1      31.018  10.012  31.326  1.00  0.00     0.202 C 
BRANCH  12  16
ATOM     16  O   UNL     1      30.291  11.884  34.536  1.00  0.00    -0.388 OA
ATOM     17  H   UNL     1      31.113  12.515  34.323  1.00  0.00     0.211 HD
ENDBRANCH  12  16
BRANCH  14  18
ATOM     18  O   UNL     1      29.427  11.989  32.100  1.00  0.00    -0.387 OA
ATOM     19  H   UNL     1      28.683  12.085  32.750  1.00  0.00     0.211 HD
ENDBRANCH  14  18
BRANCH  15  20
ATOM     20  O   UNL     1      32.268  10.799  31.371  1.00  0.00    -0.385 OA
ATOM     21  H   UNL     1      32.096  11.689  31.892  1.00  0.00     0.211 HD
ENDBRANCH  15  20
ENDBRANCH   8   9
ENDBRANCH   7   8
ENDBRANCH   1   7
BRANCH   2  22
ATOM     22  O   UNL     1      27.163   5.989  29.525  1.00  0.00    -0.387 OA
ATOM     23  H   UNL     1      27.246   6.466  30.385  1.00  0.00     0.211 HD
ENDBRANCH   2  22
BRANCH   3  24
ATOM     24  O   UNL     1      27.192   5.877  26.636  1.00  0.00    -0.387 OA
ATOM     25  H   UNL     1      27.633   5.106  26.225  1.00  0.00     0.211 HD
ENDBRANCH   3  24
BRANCH   5  26
ATOM     26  O   UNL     1      29.873   8.056  25.790  1.00  0.00    -0.454 OA
BRANCH  26  27
ATOM     27  C   UNL     1      30.302   8.991  24.702  1.00  0.00     0.214 A 
ATOM     28  C   UNL     1      30.723  10.381  25.153  1.00  0.00     0.180 A 
ATOM     29  C   UNL     1      30.036   8.823  23.271  1.00  0.00     0.239 A 
ATOM     30  O   UNL     1      31.508  10.898  24.155  1.00  0.00    -0.452 OA
ATOM     31  C   UNL     1      30.609   9.770  22.344  1.00  0.00     0.111 A 
ATOM     32  O   UNL     1      28.797   8.602  23.144  1.00  0.00    -0.285 OA
ATOM     33  C   UNL     1      31.234  10.950  22.892  1.00  0.00     0.146 A 
ATOM     34  C   UNL     1      30.174   9.746  20.947  1.00  0.00     0.134 A 
ATOM     35  C   UNL     1      31.122  12.179  22.066  1.00  0.00     0.094 A 
ATOM     36  C   UNL     1      29.531  11.001  20.604  1.00  0.00     0.093 A 
ATOM     37  C   UNL     1      30.203  12.214  20.939  1.00  0.00     0.123 A 
BRANCH  28  38
ATOM     38  C   UNL     1      31.050  11.659  25.810  1.00  0.00     0.025 A 
ATOM     39  C   UNL     1      30.178  12.790  25.837  1.00  0.00     0.062 A 
ATOM     40  C   UNL     1      32.032  11.728  26.837  1.00  0.00     0.016 A 
ATOM     41  C   UNL     1      29.892  13.382  27.154  1.00  0.00     0.158 A 
ATOM     42  C   UNL     1      31.552  12.057  28.136  1.00  0.00     0.051 A 
ATOM     43  C   UNL     1      30.212  12.559  28.218  1.00  0.00     0.157 A 
BRANCH  41  44
ATOM     44  O   UNL     1      29.826  14.811  27.384  1.00  0.00    -0.504 OA
ATOM     45  H   UNL     1      30.430  15.237  28.087  1.00  0.00     0.293 HD
ENDBRANCH  41  44
BRANCH  43  46
ATOM     46  O   UNL     1      29.238  12.050  29.087  1.00  0.00    -0.504 OA
ATOM     47  H   UNL     1      29.227  12.494  29.972  1.00  0.00     0.293 HD
ENDBRANCH  43  46
ENDBRANCH  28  38
BRANCH  34  48
ATOM     48  O   UNL     1      31.003   9.711  19.875  1.00  0.00    -0.507 OA
ATOM     49  H   UNL     1      31.776  10.473  19.818  1.00  0.00     0.293 HD
ENDBRANCH  34  48
BRANCH  37  50
ATOM     50  O   UNL     1      29.728  13.494  20.481  1.00  0.00    -0.508 OA
ATOM     51  H   UNL     1      29.523  14.312  21.009  1.00  0.00     0.293 HD
ENDBRANCH  37  50
ENDBRANCH  26  27
ENDBRANCH   5  26
BRANCH   4  52
ATOM     52  O   UNL     1      27.536   9.228  26.742  1.00  0.00    -0.384 OA
ATOM     53  H   UNL     1      27.844  10.126  27.158  1.00  0.00     0.211 HD
ENDBRANCH   4  52
TORSDOF 16
ENDMDL
MODEL 4
REMARK VINA RESULT:    -7.393      2.875      4.579
REMARK INTER + INTRA:         -14.744
REMARK INTER:                 -11.589
REMARK INTRA:                  -3.154
REMARK UNBOUND:                -2.597
REMARK SMILES C[C@@H]1O[C@@H](OC[C@H]2O[C@@H](Oc3c(-c4ccc(O)c(O)c4)oc4cc(O)cc(O)c4c3=O)[C@@H](O)[C@H](O)[C@@H]2O)[C@H](O)[C@H](O)[C@@H]1O
REMARK SMILES IDX 7 1 36 2 34 3 32 4 9 5 8 6 6 7 5 8 4 9 1 10 2 11 42 12 3 13
REMARK SMILES IDX 40 14 38 15 43 16 41 18 39 20 37 22 35 24 10 26 11 27 12 28
REMARK SMILES IDX 30 29 21 30 29 31 31 32 22 33 27 34 23 35 26 36 24 37 13 38
REMARK SMILES IDX 20 39 14 40 18 41 15 42 16 43 19 44 17 46 28 48 25 50 33 52
REMARK H PARENT 43 17 41 19 39 21 37 23 35 25 19 45 17 47 28 49 25 51 33 53
REMARK Flexibility Score: inf
ROOT
ATOM      1  C   UNL     1      26.240  12.847  29.611  1.00  0.00     0.180 C 
ATOM      2  C   UNL     1      26.470  14.407  30.130  1.00  0.00     0.177 C 
ATOM      3  C   UNL     1      27.259  14.273  31.493  1.00  0.00     0.180 C 
ATOM      4  C   UNL     1      26.592  12.910  32.287  1.00  0.00     0.214 C 
ATOM      5  C   UNL     1      27.563  11.858  31.670  1.00  0.00     0.339 C 
ATOM      6  O   UNL     1      27.381  12.063  30.119  1.00  0.00    -0.332 OA
ENDROOT
BRANCH   1   7
ATOM      7  C   UNL     1      26.098  12.502  28.091  1.00  0.00     0.198 C 
BRANCH   7   8
ATOM      8  O   UNL     1      27.007  11.506  27.449  1.00  0.00    -0.347 OA
BRANCH   8   9
ATOM      9  C   UNL     1      27.942  11.930  26.320  1.00  0.00     0.281 C 
ATOM     10  C   UNL     1      31.480  12.247  25.417  1.00  0.00     0.041 C 
ATOM     11  C   UNL     1      30.489  11.686  26.622  1.00  0.00     0.150 C 
ATOM     12  C   UNL     1      30.591  12.864  27.734  1.00  0.00     0.174 C 
ATOM     13  O   UNL     1      29.231  11.147  26.236  1.00  0.00    -0.344 OA
ATOM     14  C   UNL     1      29.389  13.870  27.420  1.00  0.00     0.179 C 
ATOM     15  C   UNL     1      28.320  13.415  26.223  1.00  0.00     0.202 C 
BRANCH  12  16
ATOM     16  O   UNL     1      31.794  13.522  27.727  1.00  0.00    -0.388 OA
ATOM     17  H   UNL     1      32.621  12.864  27.749  1.00  0.00     0.211 HD
ENDBRANCH  12  16
BRANCH  14  18
ATOM     18  O   UNL     1      29.899  15.237  27.331  1.00  0.00    -0.387 OA
ATOM     19  H   UNL     1      29.801  15.558  28.265  1.00  0.00     0.211 HD
ENDBRANCH  14  18
BRANCH  15  20
ATOM     20  O   UNL     1      29.076  13.311  24.957  1.00  0.00    -0.385 OA
ATOM     21  H   UNL     1      28.452  13.575  24.161  1.00  0.00     0.211 HD
ENDBRANCH  15  20
ENDBRANCH   8   9
ENDBRANCH   7   8
ENDBRANCH   1   7
BRANCH   2  22
ATOM     22  O   UNL     1      25.275  15.122  30.450  1.00  0.00    -0.387 OA
ATOM     23  H   UNL     1      24.693  14.539  30.993  1.00  0.00     0.211 HD
ENDBRANCH   2  22
BRANCH   3  24
ATOM     24  O   UNL     1      27.531  15.406  32.237  1.00  0.00    -0.387 OA
ATOM     25  H   UNL     1      27.781  16.100  31.595  1.00  0.00     0.211 HD
ENDBRANCH   3  24
BRANCH   5  26
ATOM     26  O   UNL     1      28.906  12.126  32.298  1.00  0.00    -0.454 OA
BRANCH  26  27
ATOM     27  C   UNL     1      29.727  11.143  33.072  1.00  0.00     0.214 A 
ATOM     28  C   UNL     1      30.219   9.932  32.293  1.00  0.00     0.180 A 
ATOM     29  C   UNL     1      29.811  11.055  34.532  1.00  0.00     0.239 A 
ATOM     30  O   UNL     1      31.298   9.435  32.977  1.00  0.00    -0.452 OA
ATOM     31  C   UNL     1      30.732  10.110  35.118  1.00  0.00     0.111 A 
ATOM     32  O   UNL     1      28.626  11.022  34.974  1.00  0.00    -0.285 OA
ATOM     33  C   UNL     1      31.364   9.155  34.238  1.00  0.00     0.146 A 
ATOM     34  C   UNL     1      30.666   9.855  36.557  1.00  0.00     0.134 A 
ATOM     35  C   UNL     1      31.645   7.824  34.830  1.00  0.00     0.094 A 
ATOM     36  C   UNL     1      30.322   8.467  36.803  1.00  0.00     0.093 A 
ATOM     37  C   UNL     1      31.057   7.460  36.110  1.00  0.00     0.123 A 
BRANCH  28  38
ATOM     38  C   UNL     1      30.551   8.844  31.358  1.00  0.00     0.025 A 
ATOM     39  C   UNL     1      29.750   7.676  31.174  1.00  0.00     0.062 A 
ATOM     40  C   UNL     1      31.425   9.060  30.255  1.00  0.00     0.016 A 
ATOM     41  C   UNL     1      29.365   7.340  29.793  1.00  0.00     0.158 A 
ATOM     42  C   UNL     1      30.834   8.963  28.964  1.00  0.00     0.051 A 
ATOM     43  C   UNL     1      29.525   8.383  28.900  1.00  0.00     0.157 A 
BRANCH  41  44
ATOM     44  O   UNL     1      29.360   5.986  29.278  1.00  0.00    -0.504 OA
ATOM     45  H   UNL     1      28.909   5.244  29.814  1.00  0.00     0.293 HD
ENDBRANCH  41  44
BRANCH  43  46
ATOM     46  O   UNL     1      28.437   8.978  28.245  1.00  0.00    -0.504 OA
ATOM     47  H   UNL     1      28.060   9.754  28.731  1.00  0.00     0.293 HD
ENDBRANCH  43  46
ENDBRANCH  28  38
BRANCH  34  48
ATOM     48  O   UNL     1      31.726   9.893  37.403  1.00  0.00    -0.507 OA
ATOM     49  H   UNL     1      31.631  10.509  38.293  1.00  0.00     0.293 HD
ENDBRANCH  34  48
BRANCH  37  50
ATOM     50  O   UNL     1      30.905   6.063  36.423  1.00  0.00    -0.508 OA
ATOM     51  H   UNL     1      30.901   5.280  35.809  1.00  0.00     0.293 HD
ENDBRANCH  37  50
ENDBRANCH  26  27
ENDBRANCH   5  26
BRANCH   4  52
ATOM     52  O   UNL     1      26.493  12.517  33.629  1.00  0.00    -0.384 OA
ATOM     53  H   UNL     1      25.694  11.860  33.682  1.00  0.00     0.211 HD
ENDBRANCH   4  52
TORSDOF 16
ENDMDL
MODEL 5
REMARK VINA RESULT:    -7.153      2.782      4.564
REMARK INTER + INTRA:         -14.349
REMARK INTER:                 -11.751
REMARK INTRA:                  -2.599
REMARK UNBOUND:                -2.597
REMARK SMILES C[C@@H]1O[C@@H](OC[C@H]2O[C@@H](Oc3c(-c4ccc(O)c(O)c4)oc4cc(O)cc(O)c4c3=O)[C@@H](O)[C@H](O)[C@@H]2O)[C@H](O)[C@H](O)[C@@H]1O
REMARK SMILES IDX 7 1 36 2 34 3 32 4 9 5 8 6 6 7 5 8 4 9 1 10 2 11 42 12 3 13
REMARK SMILES IDX 40 14 38 15 43 16 41 18 39 20 37 22 35 24 10 26 11 27 12 28
REMARK SMILES IDX 30 29 21 30 29 31 31 32 22 33 27 34 23 35 26 36 24 37 13 38
REMARK SMILES IDX 20 39 14 40 18 41 15 42 16 43 19 44 17 46 28 48 25 50 33 52
REMARK H PARENT 43 17 41 19 39 21 37 23 35 25 19 45 17 47 28 49 25 51 33 53
REMARK Flexibility Score: inf
ROOT
ATOM      1  C   UNL     1      26.878  12.533  29.930  1.00  0.00     0.180 C 
ATOM      2  C   UNL     1      26.749  14.070  30.545  1.00  0.00     0.177 C 
ATOM      3  C   UNL     1      27.128  13.933  32.073  1.00  0.00     0.180 C 
ATOM      4  C   UNL     1      26.442  12.453  32.593  1.00  0.00     0.214 C 
ATOM      5  C   UNL     1      27.674  11.561  32.251  1.00  0.00     0.339 C 
ATOM      6  O   UNL     1      27.916  11.850  30.722  1.00  0.00    -0.332 OA
ENDROOT
BRANCH   1   7
ATOM      7  C   UNL     1      27.219  12.280  28.424  1.00  0.00     0.198 C 
BRANCH   7   8
ATOM      8  O   UNL     1      28.452  11.528  28.040  1.00  0.00    -0.347 OA
BRANCH   8   9
ATOM      9  C   UNL     1      29.571  12.223  27.269  1.00  0.00     0.281 C 
ATOM     10  C   UNL     1      31.331  12.243  24.055  1.00  0.00     0.041 C 
ATOM     11  C   UNL     1      30.046  11.540  24.831  1.00  0.00     0.150 C 
ATOM     12  C   UNL     1      30.635  10.081  25.228  1.00  0.00     0.174 C 
ATOM     13  O   UNL     1      29.343  12.332  25.781  1.00  0.00    -0.344 OA
ATOM     14  C   UNL     1      31.244  10.238  26.698  1.00  0.00     0.179 C 
ATOM     15  C   UNL     1      31.002  11.702  27.460  1.00  0.00     0.202 C 
BRANCH  12  16
ATOM     16  O   UNL     1      31.583   9.616  24.354  1.00  0.00    -0.388 OA
ATOM     17  H   UNL     1      31.967  10.374  23.724  1.00  0.00     0.211 HD
ENDBRANCH  12  16
BRANCH  14  18
ATOM     18  O   UNL     1      32.614   9.727  26.724  1.00  0.00    -0.387 OA
ATOM     19  H   UNL     1      32.683   9.363  27.644  1.00  0.00     0.211 HD
ENDBRANCH  14  18
BRANCH  15  20
ATOM     20  O   UNL     1      31.668  12.747  26.654  1.00  0.00    -0.385 OA
ATOM     21  H   UNL     1      31.858  12.374  25.696  1.00  0.00     0.211 HD
ENDBRANCH  15  20
ENDBRANCH   8   9
ENDBRANCH   7   8
ENDBRANCH   1   7
BRANCH   2  22
ATOM     22  O   UNL     1      25.433  14.623  30.526  1.00  0.00    -0.387 OA
ATOM     23  H   UNL     1      25.195  14.845  29.595  1.00  0.00     0.211 HD
ENDBRANCH   2  22
BRANCH   3  24
ATOM     24  O   UNL     1      27.030  15.036  32.901  1.00  0.00    -0.387 OA
ATOM     25  H   UNL     1      27.603  14.849  33.673  1.00  0.00     0.211 HD
ENDBRANCH   3  24
BRANCH   5  26
ATOM     26  O   UNL     1      28.736  11.934  33.251  1.00  0.00    -0.454 OA
BRANCH  26  27
ATOM     27  C   UNL     1      29.509  10.983  34.110  1.00  0.00     0.214 A 
ATOM     28  C   UNL     1      30.199   9.841  33.379  1.00  0.00     0.180 A 
ATOM     29  C   UNL     1      29.388  10.845  35.564  1.00  0.00     0.239 A 
ATOM     30  O   UNL     1      31.202   9.396  34.200  1.00  0.00    -0.452 OA
ATOM     31  C   UNL     1      30.284   9.947  36.253  1.00  0.00     0.111 A 
ATOM     32  O   UNL     1      28.157  10.712  35.826  1.00  0.00    -0.285 OA
ATOM     33  C   UNL     1      31.106   9.074  35.449  1.00  0.00     0.146 A 
ATOM     34  C   UNL     1      30.029   9.633  37.659  1.00  0.00     0.134 A 
ATOM     35  C   UNL     1      31.399   7.744  36.039  1.00  0.00     0.094 A 
ATOM     36  C   UNL     1      29.759   8.216  37.814  1.00  0.00     0.093 A 
ATOM     37  C   UNL     1      30.661   7.291  37.209  1.00  0.00     0.123 A 
BRANCH  28  38
ATOM     38  C   UNL     1      30.745   8.815  32.473  1.00  0.00     0.025 A 
ATOM     39  C   UNL     1      30.098   7.574  32.190  1.00  0.00     0.062 A 
ATOM     40  C   UNL     1      31.703   9.148  31.475  1.00  0.00     0.016 A 
ATOM     41  C   UNL     1      29.901   7.231  30.772  1.00  0.00     0.158 A 
ATOM     42  C   UNL     1      31.267   9.018  30.126  1.00  0.00     0.051 A 
ATOM     43  C   UNL     1      30.042   8.305  29.913  1.00  0.00     0.157 A 
BRANCH  41  44
ATOM     44  O   UNL     1      30.097   5.896  30.245  1.00  0.00    -0.504 OA
ATOM     45  H   UNL     1      29.964   5.723  29.248  1.00  0.00     0.293 HD
ENDBRANCH  41  44
BRANCH  43  46
ATOM     46  O   UNL     1      28.973   8.796  29.151  1.00  0.00    -0.504 OA
ATOM     47  H   UNL     1      28.591   8.128  28.528  1.00  0.00     0.293 HD
ENDBRANCH  43  46
ENDBRANCH  28  38
BRANCH  34  48
ATOM     48  O   UNL     1      30.950   9.714  38.652  1.00  0.00    -0.507 OA
ATOM     49  H   UNL     1      31.555  10.615  38.697  1.00  0.00     0.293 HD
ENDBRANCH  34  48
BRANCH  37  50
ATOM     50  O   UNL     1      30.572   5.875  37.457  1.00  0.00    -0.508 OA
ATOM     51  H   UNL     1      29.764   5.311  37.591  1.00  0.00     0.293 HD
ENDBRANCH  37  50
ENDBRANCH  26  27
ENDBRANCH   5  26
BRANCH   4  52
ATOM     52  O   UNL     1      26.015  11.960  33.835  1.00  0.00    -0.384 OA
ATOM     53  H   UNL     1      26.152  10.934  33.804  1.00  0.00     0.211 HD
ENDBRANCH   4  52
TORSDOF 16
ENDMDL
MODEL 6
REMARK VINA RESULT:    -7.095      2.171      9.508
REMARK INTER + INTRA:         -14.254
REMARK INTER:                 -12.296
REMARK INTRA:                  -1.959
REMARK UNBOUND:                -2.597
REMARK SMILES C[C@@H]1O[C@@H](OC[C@H]2O[C@@H](Oc3c(-c4ccc(O)c(O)c4)oc4cc(O)cc(O)c4c3=O)[C@@H](O)[C@H](O)[C@@H]2O)[C@H](O)[C@H](O)[C@@H]1O
REMARK SMILES IDX 7 1 36 2 34 3 32 4 9 5 8 6 6 7 5 8 4 9 1 10 2 11 42 12 3 13
REMARK SMILES IDX 40 14 38 15 43 16 41 18 39 20 37 22 35 24 10 26 11 27 12 28
REMARK SMILES IDX 30 29 21 30 29 31 31 32 22 33 27 34 23 35 26 36 24 37 13 38
REMARK SMILES IDX 20 39 14 40 18 41 15 42 16 43 19 44 17 46 28 48 25 50 33 52
REMARK H PARENT 43 17 41 19 39 21 37 23 35 25 19 45 17 47 28 49 25 51 33 53
REMARK Flexibility Score: inf
ROOT
ATOM      1  C   UNL     1      31.678   9.157  31.790  1.00  0.00     0.180 C 
ATOM      2  C   UNL     1      31.796  10.595  32.612  1.00  0.00     0.177 C 
ATOM      3  C   UNL     1      31.528  11.711  31.525  1.00  0.00     0.180 C 
ATOM      4  C   UNL     1      32.298  11.166  30.096  1.00  0.00     0.214 C 
ATOM      5  C   UNL     1      31.077  10.380  29.529  1.00  0.00     0.339 C 
ATOM      6  O   UNL     1      30.720   9.378  30.692  1.00  0.00    -0.332 OA
ENDROOT
BRANCH   1   7
ATOM      7  C   UNL     1      31.243   7.837  32.508  1.00  0.00     0.198 C 
BRANCH   7   8
ATOM      8  O   UNL     1      31.954   7.369  33.736  1.00  0.00    -0.347 OA
BRANCH   8   9
ATOM      9  C   UNL     1      31.164   6.940  34.969  1.00  0.00     0.281 C 
ATOM     10  C   UNL     1      28.227   7.776  36.996  1.00  0.00     0.041 C 
ATOM     11  C   UNL     1      29.008   8.203  35.598  1.00  0.00     0.150 C 
ATOM     12  C   UNL     1      29.786   9.559  36.033  1.00  0.00     0.174 C 
ATOM     13  O   UNL     1      29.674   7.171  34.880  1.00  0.00    -0.344 OA
ATOM     14  C   UNL     1      31.235   9.095  36.524  1.00  0.00     0.179 C 
ATOM     15  C   UNL     1      31.614   7.482  36.333  1.00  0.00     0.202 C 
BRANCH  12  16
ATOM     16  O   UNL     1      29.143  10.269  37.013  1.00  0.00    -0.388 OA
ATOM     17  H   UNL     1      28.812  11.218  36.682  1.00  0.00     0.211 HD
ENDBRANCH  12  16
BRANCH  14  18
ATOM     18  O   UNL     1      31.517   9.663  37.841  1.00  0.00    -0.387 OA
ATOM     19  H   UNL     1      32.474   9.430  37.968  1.00  0.00     0.211 HD
ENDBRANCH  14  18
BRANCH  15  20
ATOM     20  O   UNL     1      30.663   6.695  37.146  1.00  0.00    -0.385 OA
ATOM     21  H   UNL     1      30.076   7.346  37.716  1.00  0.00     0.211 HD
ENDBRANCH  15  20
ENDBRANCH   8   9
ENDBRANCH   7   8
ENDBRANCH   1   7
BRANCH   2  22
ATOM     22  O   UNL     1      33.088  10.885  33.145  1.00  0.00    -0.387 OA
ATOM     23  H   UNL     1      33.151  10.499  34.051  1.00  0.00     0.211 HD
ENDBRANCH   2  22
BRANCH   3  24
ATOM     24  O   UNL     1      31.644  13.043  31.874  1.00  0.00    -0.387 OA
ATOM     25  H   UNL     1      31.149  13.150  32.711  1.00  0.00     0.211 HD
ENDBRANCH   3  24
BRANCH   5  26
ATOM     26  O   UNL     1      30.073  11.427  29.122  1.00  0.00    -0.454 OA
BRANCH  26  27
ATOM     27  C   UNL     1      29.529  11.635  27.744  1.00  0.00     0.214 A 
ATOM     28  C   UNL     1      29.011  10.390  27.041  1.00  0.00     0.180 A 
ATOM     29  C   UNL     1      29.755  12.811  26.900  1.00  0.00     0.239 A 
ATOM     30  O   UNL     1      28.149  10.817  26.065  1.00  0.00    -0.452 OA
ATOM     31  C   UNL     1      29.071  12.896  25.631  1.00  0.00     0.111 A 
ATOM     32  O   UNL     1      31.002  13.019  26.873  1.00  0.00    -0.285 OA
ATOM     33  C   UNL     1      28.371  11.722  25.167  1.00  0.00     0.146 A 
ATOM     34  C   UNL     1      29.456  13.947  24.688  1.00  0.00     0.134 A 
ATOM     35  C   UNL     1      28.350  11.525  23.696  1.00  0.00     0.094 A 
ATOM     36  C   UNL     1      29.979  13.357  23.470  1.00  0.00     0.093 A 
ATOM     37  C   UNL     1      29.221  12.322  22.845  1.00  0.00     0.123 A 
BRANCH  28  38
ATOM     38  C   UNL     1      28.603   9.061  26.552  1.00  0.00     0.025 A 
ATOM     39  C   UNL     1      29.286   8.344  25.522  1.00  0.00     0.062 A 
ATOM     40  C   UNL     1      27.798   8.198  27.347  1.00  0.00     0.016 A 
ATOM     41  C   UNL     1      29.686   6.960  25.825  1.00  0.00     0.158 A 
ATOM     42  C   UNL     1      28.424   7.001  27.795  1.00  0.00     0.051 A 
ATOM     43  C   UNL     1      29.668   6.655  27.172  1.00  0.00     0.157 A 
BRANCH  41  44
ATOM     44  O   UNL     1      29.571   5.876  24.871  1.00  0.00    -0.504 OA
ATOM     45  H   UNL     1      30.345   5.221  24.755  1.00  0.00     0.293 HD
ENDBRANCH  41  44
BRANCH  43  46
ATOM     46  O   UNL     1      30.834   6.335  27.882  1.00  0.00    -0.504 OA
ATOM     47  H   UNL     1      30.727   5.561  28.490  1.00  0.00     0.293 HD
ENDBRANCH  43  46
ENDBRANCH  28  38
BRANCH  34  48
ATOM     48  O   UNL     1      28.593  14.797  24.077  1.00  0.00    -0.507 OA
ATOM     49  H   UNL     1      28.010  14.404  23.249  1.00  0.00     0.293 HD
ENDBRANCH  34  48
BRANCH  37  50
ATOM     50  O   UNL     1      29.571  11.806  21.547  1.00  0.00    -0.508 OA
ATOM     51  H   UNL     1      28.985  11.635  20.762  1.00  0.00     0.293 HD
ENDBRANCH  37  50
ENDBRANCH  26  27
ENDBRANCH   5  26
BRANCH   4  52
ATOM     52  O   UNL     1      32.825  11.810  28.968  1.00  0.00    -0.384 OA
ATOM     53  H   UNL     1      32.540  12.804  29.039  1.00  0.00     0.211 HD
ENDBRANCH   4  52
TORSDOF 16
ENDMDL
MODEL 7
REMARK VINA RESULT:    -7.093      2.435      6.036
REMARK INTER + INTRA:         -14.252
REMARK INTER:                 -11.479
REMARK INTRA:                  -2.773
REMARK UNBOUND:                -2.597
REMARK SMILES C[C@@H]1O[C@@H](OC[C@H]2O[C@@H](Oc3c(-c4ccc(O)c(O)c4)oc4cc(O)cc(O)c4c3=O)[C@@H](O)[C@H](O)[C@@H]2O)[C@H](O)[C@H](O)[C@@H]1O
REMARK SMILES IDX 7 1 36 2 34 3 32 4 9 5 8 6 6 7 5 8 4 9 1 10 2 11 42 12 3 13
REMARK SMILES IDX 40 14 38 15 43 16 41 18 39 20 37 22 35 24 10 26 11 27 12 28
REMARK SMILES IDX 30 29 21 30 29 31 31 32 22 33 27 34 23 35 26 36 24 37 13 38
REMARK SMILES IDX 20 39 14 40 18 41 15 42 16 43 19 44 17 46 28 48 25 50 33 52
REMARK H PARENT 43 17 41 19 39 21 37 23 35 25 19 45 17 47 28 49 25 51 33 53
REMARK Flexibility Score: inf
ROOT
ATOM      1  C   UNL     1      28.623  12.804  26.885  1.00  0.00     0.180 C 
ATOM      2  C   UNL     1      28.553  11.453  25.923  1.00  0.00     0.177 C 
ATOM      3  C   UNL     1      30.019  10.863  25.938  1.00  0.00     0.180 C 
ATOM      4  C   UNL     1      31.068  12.215  25.901  1.00  0.00     0.214 C 
ATOM      5  C   UNL     1      31.170  12.397  27.447  1.00  0.00     0.339 C 
ATOM      6  O   UNL     1      29.667  12.548  27.894  1.00  0.00    -0.332 OA
ENDROOT
BRANCH   1   7
ATOM      7  C   UNL     1      27.367  13.325  27.659  1.00  0.00     0.198 C 
BRANCH   7   8
ATOM      8  O   UNL     1      26.817  12.559  28.818  1.00  0.00    -0.347 OA
BRANCH   8   9
ATOM      9  C   UNL     1      27.640  12.391  30.093  1.00  0.00     0.281 C 
ATOM     10  C   UNL     1      27.360  12.088  33.734  1.00  0.00     0.041 C 
ATOM     11  C   UNL     1      26.437  12.169  32.360  1.00  0.00     0.150 C 
ATOM     12  C   UNL     1      25.925  13.710  32.375  1.00  0.00     0.174 C 
ATOM     13  O   UNL     1      26.970  11.584  31.178  1.00  0.00    -0.344 OA
ATOM     14  C   UNL     1      26.997  14.537  31.524  1.00  0.00     0.179 C 
ATOM     15  C   UNL     1      28.191  13.658  30.761  1.00  0.00     0.202 C 
BRANCH  12  16
ATOM     16  O   UNL     1      25.795  14.232  33.636  1.00  0.00    -0.388 OA
ATOM     17  H   UNL     1      26.192  13.599  34.385  1.00  0.00     0.211 HD
ENDBRANCH  12  16
BRANCH  14  18
ATOM     18  O   UNL     1      27.451  15.695  32.292  1.00  0.00    -0.387 OA
ATOM     19  H   UNL     1      28.369  15.425  32.554  1.00  0.00     0.211 HD
ENDBRANCH  14  18
BRANCH  15  20
ATOM     20  O   UNL     1      28.979  12.966  31.803  1.00  0.00    -0.385 OA
ATOM     21  H   UNL     1      29.561  13.666  32.317  1.00  0.00     0.211 HD
ENDBRANCH  15  20
ENDBRANCH   8   9
ENDBRANCH   7   8
ENDBRANCH   1   7
BRANCH   2  22
ATOM     22  O   UNL     1      28.256  11.702  24.549  1.00  0.00    -0.387 OA
ATOM     23  H   UNL     1      29.090  11.950  24.084  1.00  0.00     0.211 HD
ENDBRANCH   2  22
BRANCH   3  24
ATOM     24  O   UNL     1      30.320   9.768  25.149  1.00  0.00    -0.387 OA
ATOM     25  H   UNL     1      29.512   9.217  25.126  1.00  0.00     0.211 HD
ENDBRANCH   3  24
BRANCH   5  26
ATOM     26  O   UNL     1      31.974  11.224  27.942  1.00  0.00    -0.454 OA
BRANCH  26  27
ATOM     27  C   UNL     1      31.927  10.643  29.320  1.00  0.00     0.214 A 
ATOM     28  C   UNL     1      31.200   9.313  29.454  1.00  0.00     0.180 A 
ATOM     29  C   UNL     1      32.195  11.366  30.566  1.00  0.00     0.239 A 
ATOM     30  O   UNL     1      31.661   8.726  30.604  1.00  0.00    -0.452 OA
ATOM     31  C   UNL     1      32.205  10.628  31.807  1.00  0.00     0.111 A 
ATOM     32  O   UNL     1      31.491  12.416  30.550  1.00  0.00    -0.285 OA
ATOM     33  C   UNL     1      31.738   9.262  31.779  1.00  0.00     0.146 A 
ATOM     34  C   UNL     1      32.249  11.367  33.070  1.00  0.00     0.134 A 
ATOM     35  C   UNL     1      31.049   8.793  33.007  1.00  0.00     0.094 A 
ATOM     36  C   UNL     1      31.048  11.108  33.842  1.00  0.00     0.093 A 
ATOM     37  C   UNL     1      30.646   9.752  34.024  1.00  0.00     0.123 A 
BRANCH  28  38
ATOM     38  C   UNL     1      30.431   8.061  29.350  1.00  0.00     0.025 A 
ATOM     39  C   UNL     1      29.015   7.977  29.512  1.00  0.00     0.062 A 
ATOM     40  C   UNL     1      30.947   6.936  28.647  1.00  0.00     0.016 A 
ATOM     41  C   UNL     1      28.258   7.311  28.439  1.00  0.00     0.158 A 
ATOM     42  C   UNL     1      30.250   6.571  27.461  1.00  0.00     0.051 A 
ATOM     43  C   UNL     1      28.965   7.172  27.260  1.00  0.00     0.157 A 
BRANCH  41  44
ATOM     44  O   UNL     1      27.154   6.407  28.692  1.00  0.00    -0.504 OA
ATOM     45  H   UNL     1      27.278   5.406  28.542  1.00  0.00     0.293 HD
ENDBRANCH  41  44
BRANCH  43  46
ATOM     46  O   UNL     1      28.582   7.823  26.079  1.00  0.00    -0.504 OA
ATOM     47  H   UNL     1      29.299   8.381  25.685  1.00  0.00     0.293 HD
ENDBRANCH  43  46
ENDBRANCH  28  38
BRANCH  34  48
ATOM     48  O   UNL     1      33.124  11.128  34.079  1.00  0.00    -0.507 OA
ATOM     49  H   UNL     1      34.167  10.989  33.810  1.00  0.00     0.293 HD
ENDBRANCH  34  48
BRANCH  37  50
ATOM     50  O   UNL     1      29.575   9.394  34.918  1.00  0.00    -0.508 OA
ATOM     51  H   UNL     1      29.623   9.087  35.863  1.00  0.00     0.293 HD
ENDBRANCH  37  50
ENDBRANCH  26  27
ENDBRANCH   5  26
BRANCH   4  52
ATOM     52  O   UNL     1      32.383  12.415  25.460  1.00  0.00    -0.384 OA
ATOM     53  H   UNL     1      32.955  12.574  26.310  1.00  0.00     0.211 HD
ENDBRANCH   4  52
TORSDOF 16
ENDMDL
MODEL 8
REMARK VINA RESULT:    -7.044      1.742      9.342
REMARK INTER + INTRA:         -14.171
REMARK INTER:                 -12.431
REMARK INTRA:                  -1.740
REMARK UNBOUND:                -2.597
REMARK SMILES C[C@@H]1O[C@@H](OC[C@H]2O[C@@H](Oc3c(-c4ccc(O)c(O)c4)oc4cc(O)cc(O)c4c3=O)[C@@H](O)[C@H](O)[C@@H]2O)[C@H](O)[C@H](O)[C@@H]1O
REMARK SMILES IDX 7 1 36 2 34 3 32 4 9 5 8 6 6 7 5 8 4 9 1 10 2 11 42 12 3 13
REMARK SMILES IDX 40 14 38 15 43 16 41 18 39 20 37 22 35 24 10 26 11 27 12 28
REMARK SMILES IDX 30 29 21 30 29 31 31 32 22 33 27 34 23 35 26 36 24 37 13 38
REMARK SMILES IDX 20 39 14 40 18 41 15 42 16 43 19 44 17 46 28 48 25 50 33 52
REMARK H PARENT 43 17 41 19 39 21 37 23 35 25 19 45 17 47 28 49 25 51 33 53
REMARK Flexibility Score: inf
ROOT
ATOM      1  C   UNL     1      29.508   8.351  29.726  1.00  0.00     0.180 C 
ATOM      2  C   UNL     1      30.394   7.161  28.980  1.00  0.00     0.177 C 
ATOM      3  C   UNL     1      29.649   6.892  27.612  1.00  0.00     0.180 C 
ATOM      4  C   UNL     1      27.977   6.994  27.963  1.00  0.00     0.214 C 
ATOM      5  C   UNL     1      27.836   8.523  27.691  1.00  0.00     0.339 C 
ATOM      6  O   UNL     1      28.908   9.163  28.652  1.00  0.00    -0.332 OA
ENDROOT
BRANCH   1   7
ATOM      7  C   UNL     1      30.165   9.351  30.733  1.00  0.00     0.198 C 
BRANCH   7   8
ATOM      8  O   UNL     1      31.265   8.904  31.640  1.00  0.00    -0.347 OA
BRANCH   8   9
ATOM      9  C   UNL     1      31.771   9.823  32.749  1.00  0.00     0.281 C 
ATOM     10  C   UNL     1      31.671  10.360  36.373  1.00  0.00     0.041 C 
ATOM     11  C   UNL     1      31.190   9.290  35.202  1.00  0.00     0.150 C 
ATOM     12  C   UNL     1      29.615   9.645  35.032  1.00  0.00     0.174 C 
ATOM     13  O   UNL     1      32.035   9.137  34.069  1.00  0.00    -0.344 OA
ATOM     14  C   UNL     1      29.534  10.731  33.861  1.00  0.00     0.179 C 
ATOM     15  C   UNL     1      30.955  11.084  33.062  1.00  0.00     0.202 C 
BRANCH  12  16
ATOM     16  O   UNL     1      29.032  10.118  36.178  1.00  0.00    -0.388 OA
ATOM     17  H   UNL     1      28.114  10.611  35.998  1.00  0.00     0.211 HD
ENDBRANCH  12  16
BRANCH  14  18
ATOM     18  O   UNL     1      28.752  11.883  34.308  1.00  0.00    -0.387 OA
ATOM     19  H   UNL     1      28.380  12.226  33.454  1.00  0.00     0.211 HD
ENDBRANCH  14  18
BRANCH  15  20
ATOM     20  O   UNL     1      31.899  11.651  34.049  1.00  0.00    -0.385 OA
ATOM     21  H   UNL     1      31.832  11.110  34.941  1.00  0.00     0.211 HD
ENDBRANCH  15  20
ENDBRANCH   8   9
ENDBRANCH   7   8
ENDBRANCH   1   7
BRANCH   2  22
ATOM     22  O   UNL     1      30.414   5.904  29.657  1.00  0.00    -0.387 OA
ATOM     23  H   UNL     1      31.329   5.735  29.986  1.00  0.00     0.211 HD
ENDBRANCH   2  22
BRANCH   3  24
ATOM     24  O   UNL     1      30.092   5.877  26.784  1.00  0.00    -0.387 OA
ATOM     25  H   UNL     1      30.945   6.181  26.413  1.00  0.00     0.211 HD
ENDBRANCH   3  24
BRANCH   5  26
ATOM     26  O   UNL     1      27.989   8.686  26.201  1.00  0.00    -0.454 OA
BRANCH  26  27
ATOM     27  C   UNL     1      29.069   9.454  25.506  1.00  0.00     0.214 A 
ATOM     28  C   UNL     1      29.405  10.812  26.103  1.00  0.00     0.180 A 
ATOM     29  C   UNL     1      29.575   9.195  24.156  1.00  0.00     0.239 A 
ATOM     30  O   UNL     1      30.669  11.129  25.678  1.00  0.00    -0.452 OA
ATOM     31  C   UNL     1      30.694   9.970  23.674  1.00  0.00     0.111 A 
ATOM     32  O   UNL     1      28.573   9.128  23.387  1.00  0.00    -0.285 OA
ATOM     33  C   UNL     1      31.115  11.102  24.464  1.00  0.00     0.146 A 
ATOM     34  C   UNL     1      31.063   9.878  22.261  1.00  0.00     0.134 A 
ATOM     35  C   UNL     1      31.652  12.255  23.699  1.00  0.00     0.094 A 
ATOM     36  C   UNL     1      30.909  11.170  21.619  1.00  0.00     0.093 A 
ATOM     37  C   UNL     1      31.486  12.309  22.255  1.00  0.00     0.123 A 
BRANCH  28  38
ATOM     38  C   UNL     1      29.535  12.090  26.826  1.00  0.00     0.025 A 
ATOM     39  C   UNL     1      28.468  13.024  26.995  1.00  0.00     0.062 A 
ATOM     40  C   UNL     1      30.567  12.293  27.784  1.00  0.00     0.016 A 
ATOM     41  C   UNL     1      28.184  13.473  28.368  1.00  0.00     0.158 A 
ATOM     42  C   UNL     1      30.142  12.446  29.134  1.00  0.00     0.051 A 
ATOM     43  C   UNL     1      28.742  12.670  29.345  1.00  0.00     0.157 A 
BRANCH  41  44
ATOM     44  O   UNL     1      27.864  14.846  28.704  1.00  0.00    -0.504 OA
ATOM     45  H   UNL     1      28.426  15.603  28.315  1.00  0.00     0.293 HD
ENDBRANCH  41  44
BRANCH  43  46
ATOM     46  O   UNL     1      27.959  11.931  30.242  1.00  0.00    -0.504 OA
ATOM     47  H   UNL     1      28.103  10.953  30.180  1.00  0.00     0.293 HD
ENDBRANCH  43  46
ENDBRANCH  28  38
BRANCH  34  48
ATOM     48  O   UNL     1      32.315   9.636  21.799  1.00  0.00    -0.507 OA
ATOM     49  H   UNL     1      32.405   9.055  20.886  1.00  0.00     0.293 HD
ENDBRANCH  34  48
BRANCH  37  50
ATOM     50  O   UNL     1      31.535  13.593  21.606  1.00  0.00    -0.508 OA
ATOM     51  H   UNL     1      31.895  13.830  20.709  1.00  0.00     0.293 HD
ENDBRANCH  37  50
ENDBRANCH  26  27
ENDBRANCH   5  26
BRANCH   4  52
ATOM     52  O   UNL     1      26.824   6.450  27.379  1.00  0.00    -0.384 OA
ATOM     53  H   UNL     1      26.629   7.017  26.534  1.00  0.00     0.211 HD
ENDBRANCH   4  52
TORSDOF 16
ENDMDL
MODEL 9
REMARK VINA RESULT:    -7.035      1.976      2.993
REMARK INTER + INTRA:         -14.156
REMARK INTER:                 -11.996
REMARK INTRA:                  -2.159
REMARK UNBOUND:                -2.597
REMARK SMILES C[C@@H]1O[C@@H](OC[C@H]2O[C@@H](Oc3c(-c4ccc(O)c(O)c4)oc4cc(O)cc(O)c4c3=O)[C@@H](O)[C@H](O)[C@@H]2O)[C@H](O)[C@H](O)[C@@H]1O
REMARK SMILES IDX 7 1 36 2 34 3 32 4 9 5 8 6 6 7 5 8 4 9 1 10 2 11 42 12 3 13
REMARK SMILES IDX 40 14 38 15 43 16 41 18 39 20 37 22 35 24 10 26 11 27 12 28
REMARK SMILES IDX 30 29 21 30 29 31 31 32 22 33 27 34 23 35 26 36 24 37 13 38
REMARK SMILES IDX 20 39 14 40 18 41 15 42 16 43 19 44 17 46 28 48 25 50 33 52
REMARK H PARENT 43 17 41 19 39 21 37 23 35 25 19 45 17 47 28 49 25 51 33 53
REMARK Flexibility Score: inf
ROOT
ATOM      1  C   UNL     1      28.816  11.927  25.940  1.00  0.00     0.180 C 
ATOM      2  C   UNL     1      30.110  12.969  25.909  1.00  0.00     0.177 C 
ATOM      3  C   UNL     1      30.635  13.013  27.400  1.00  0.00     0.180 C 
ATOM      4  C   UNL     1      29.238  12.984  28.389  1.00  0.00     0.214 C 
ATOM      5  C   UNL     1      29.144  11.432  28.512  1.00  0.00     0.339 C 
ATOM      6  O   UNL     1      29.087  10.953  27.012  1.00  0.00    -0.332 OA
ENDROOT
BRANCH   1   7
ATOM      7  C   UNL     1      28.399  11.103  24.677  1.00  0.00     0.198 C 
BRANCH   7   8
ATOM      8  O   UNL     1      29.393  10.240  23.970  1.00  0.00    -0.347 OA
BRANCH   8   9
ATOM      9  C   UNL     1      29.638  10.411  22.474  1.00  0.00     0.281 C 
ATOM     10  C   UNL     1      31.750  12.153  20.038  1.00  0.00     0.041 C 
ATOM     11  C   UNL     1      31.573  11.909  21.667  1.00  0.00     0.150 C 
ATOM     12  C   UNL     1      30.866  13.288  22.151  1.00  0.00     0.174 C 
ATOM     13  O   UNL     1      31.079  10.643  22.089  1.00  0.00    -0.344 OA
ATOM     14  C   UNL     1      29.291  13.019  22.091  1.00  0.00     0.179 C 
ATOM     15  C   UNL     1      28.806  11.464  21.728  1.00  0.00     0.202 C 
BRANCH  12  16
ATOM     16  O   UNL     1      31.205  14.375  21.388  1.00  0.00    -0.388 OA
ATOM     17  H   UNL     1      31.642  14.106  20.463  1.00  0.00     0.211 HD
ENDBRANCH  12  16
BRANCH  14  18
ATOM     18  O   UNL     1      28.636  14.083  21.333  1.00  0.00    -0.387 OA
ATOM     19  H   UNL     1      29.266  14.840  21.448  1.00  0.00     0.211 HD
ENDBRANCH  14  18
BRANCH  15  20
ATOM     20  O   UNL     1      29.304  11.140  20.375  1.00  0.00    -0.385 OA
ATOM     21  H   UNL     1      30.237  10.674  20.453  1.00  0.00     0.211 HD
ENDBRANCH  15  20
ENDBRANCH   8   9
ENDBRANCH   7   8
ENDBRANCH   1   7
BRANCH   2  22
ATOM     22  O   UNL     1      29.792  14.321  25.577  1.00  0.00    -0.387 OA
ATOM     23  H   UNL     1      28.943  14.333  25.074  1.00  0.00     0.211 HD
ENDBRANCH   2  22
BRANCH   3  24
ATOM     24  O   UNL     1      31.665  13.872  27.733  1.00  0.00    -0.387 OA
ATOM     25  H   UNL     1      32.127  13.461  28.492  1.00  0.00     0.211 HD
ENDBRANCH   3  24
BRANCH   5  26
ATOM     26  O   UNL     1      30.309  11.022  29.375  1.00  0.00    -0.454 OA
BRANCH  26  27
ATOM     27  C   UNL     1      30.301   9.938  30.406  1.00  0.00     0.214 A 
ATOM     28  C   UNL     1      29.829   8.573  29.929  1.00  0.00     0.180 A 
ATOM     29  C   UNL     1      30.368  10.132  31.857  1.00  0.00     0.239 A 
ATOM     30  O   UNL     1      30.333   7.651  30.810  1.00  0.00    -0.452 OA
ATOM     31  C   UNL     1      30.452   8.970  32.709  1.00  0.00     0.111 A 
ATOM     32  O   UNL     1      29.482  10.982  32.162  1.00  0.00    -0.285 OA
ATOM     33  C   UNL     1      30.250   7.676  32.100  1.00  0.00     0.146 A 
ATOM     34  C   UNL     1      30.295   9.138  34.154  1.00  0.00     0.134 A 
ATOM     35  C   UNL     1      29.599   6.656  32.960  1.00  0.00     0.094 A 
ATOM     36  C   UNL     1      29.126   8.414  34.617  1.00  0.00     0.093 A 
ATOM     37  C   UNL     1      28.974   7.054  34.212  1.00  0.00     0.123 A 
BRANCH  28  38
ATOM     38  C   UNL     1      29.313   7.367  29.258  1.00  0.00     0.025 A 
ATOM     39  C   UNL     1      27.992   7.251  28.728  1.00  0.00     0.062 A 
ATOM     40  C   UNL     1      30.194   6.408  28.685  1.00  0.00     0.016 A 
ATOM     41  C   UNL     1      27.870   6.815  27.327  1.00  0.00     0.158 A 
ATOM     42  C   UNL     1      30.149   6.290  27.268  1.00  0.00     0.051 A 
ATOM     43  C   UNL     1      29.044   6.918  26.606  1.00  0.00     0.157 A 
BRANCH  41  44
ATOM     44  O   UNL     1      26.862   5.879  26.873  1.00  0.00    -0.504 OA
ATOM     45  H   UNL     1      26.581   5.876  25.892  1.00  0.00     0.293 HD
ENDBRANCH  41  44
BRANCH  43  46
ATOM     46  O   UNL     1      29.179   7.794  25.520  1.00  0.00    -0.504 OA
ATOM     47  H   UNL     1      30.116   8.058  25.339  1.00  0.00     0.293 HD
ENDBRANCH  43  46
ENDBRANCH  28  38
BRANCH  34  48
ATOM     48  O   UNL     1      31.147   8.650  35.090  1.00  0.00    -0.507 OA
ATOM     49  H   UNL     1      31.883   9.337  35.498  1.00  0.00     0.293 HD
ENDBRANCH  34  48
BRANCH  37  50
ATOM     50  O   UNL     1      27.945   6.211  34.763  1.00  0.00    -0.508 OA
ATOM     51  H   UNL     1      27.097   6.470  35.214  1.00  0.00     0.293 HD
ENDBRANCH  37  50
ENDBRANCH  26  27
ENDBRANCH   5  26
BRANCH   4  52
ATOM     52  O   UNL     1      28.954  13.433  29.686  1.00  0.00    -0.384 OA
ATOM     53  H   UNL     1      28.528  14.372  29.583  1.00  0.00     0.211 HD
ENDBRANCH   4  52
TORSDOF 16
ENDMDL
