MODEL 1
REMARK VINA RESULT:    -6.371      0.000      0.000
REMARK INTER + INTRA:         -12.993
REMARK INTER:                 -10.468
REMARK INTRA:                  -2.525
REMARK UNBOUND:                -2.525
REMARK SMILES C[C@@H]1O[C@H](OC[C@@H]2O[C@H](Oc3c(-c4ccc(O)c(O)c4)oc4cc(O)cc(O)c4c3=O)[C@@H](O)[C@@H](O)[C@@H]2O)[C@H](O)[C@@H](O)[C@@H]1O
REMARK SMILES IDX 7 1 36 2 34 3 32 4 9 5 8 6 6 7 5 8 4 9 1 10 2 11 42 12 3 13
REMARK SMILES IDX 40 14 38 15 43 16 41 18 39 20 37 22 35 24 10 26 11 27 12 28
REMARK SMILES IDX 30 29 21 30 29 31 31 32 22 33 27 34 23 35 26 36 24 37 13 38
REMARK SMILES IDX 20 39 14 40 18 41 15 42 16 43 19 44 17 46 28 48 25 50 33 52
REMARK H PARENT 43 17 41 19 39 21 37 23 35 25 19 45 17 47 28 49 25 51 33 53
REMARK Flexibility Score: inf
ROOT
ATOM      1  C   UNL     1      55.632   6.443  83.106  1.00  0.00     0.180 C 
ATOM      2  C   UNL     1      57.104   6.924  83.252  1.00  0.00     0.177 C 
ATOM      3  C   UNL     1      57.471   7.941  82.163  1.00  0.00     0.180 C 
ATOM      4  C   UNL     1      56.403   9.040  82.056  1.00  0.00     0.214 C 
ATOM      5  C   UNL     1      55.009   8.411  81.894  1.00  0.00     0.339 C 
ATOM      6  O   UNL     1      54.704   7.512  82.952  1.00  0.00    -0.332 OA
ENDROOT
BRANCH   1   7
ATOM      7  C   UNL     1      55.405   5.349  82.044  1.00  0.00     0.198 C 
BRANCH   7   8
ATOM      8  O   UNL     1      54.024   5.106  81.871  1.00  0.00    -0.347 OA
BRANCH   8   9
ATOM      9  C   UNL     1      53.798   3.902  81.148  1.00  0.00     0.281 C 
ATOM     10  C   UNL     1      51.669   4.335  83.394  1.00  0.00     0.041 C 
ATOM     11  C   UNL     1      51.765   3.306  82.261  1.00  0.00     0.150 C 
ATOM     12  C   UNL     1      50.918   3.665  81.012  1.00  0.00     0.174 C 
ATOM     13  O   UNL     1      53.111   2.954  81.956  1.00  0.00    -0.344 OA
ATOM     14  C   UNL     1      51.632   4.703  80.144  1.00  0.00     0.179 C 
ATOM     15  C   UNL     1      53.045   4.199  79.836  1.00  0.00     0.202 C 
BRANCH  12  16
ATOM     16  O   UNL     1      49.650   4.152  81.381  1.00  0.00    -0.388 OA
ATOM     17  H   UNL     1      49.798   5.045  81.786  1.00  0.00     0.211 HD
ENDBRANCH  12  16
BRANCH  14  18
ATOM     18  O   UNL     1      50.918   4.874  78.946  1.00  0.00    -0.387 OA
ATOM     19  H   UNL     1      51.134   5.784  78.611  1.00  0.00     0.211 HD
ENDBRANCH  14  18
BRANCH  15  20
ATOM     20  O   UNL     1      53.740   5.167  79.090  1.00  0.00    -0.385 OA
ATOM     21  H   UNL     1      54.557   5.387  79.604  1.00  0.00     0.211 HD
ENDBRANCH  15  20
ENDBRANCH   8   9
ENDBRANCH   7   8
ENDBRANCH   1   7
BRANCH   2  22
ATOM     22  O   UNL     1      57.976   5.824  83.198  1.00  0.00    -0.387 OA
ATOM     23  H   UNL     1      58.776   6.103  82.671  1.00  0.00     0.211 HD
ENDBRANCH   2  22
BRANCH   3  24
ATOM     24  O   UNL     1      58.712   8.529  82.469  1.00  0.00    -0.387 OA
ATOM     25  H   UNL     1      58.691   8.784  83.428  1.00  0.00     0.211 HD
ENDBRANCH   3  24
BRANCH   5  26
ATOM     26  O   UNL     1      54.937   7.785  80.608  1.00  0.00    -0.454 OA
BRANCH  26  27
ATOM     27  C   UNL     1      54.411   8.338  79.424  1.00  0.00     0.214 A 
ATOM     28  C   UNL     1      55.308   8.693  78.400  1.00  0.00     0.180 A 
ATOM     29  C   UNL     1      53.033   8.563  79.221  1.00  0.00     0.239 A 
ATOM     30  O   UNL     1      54.863   9.266  77.289  1.00  0.00    -0.452 OA
ATOM     31  C   UNL     1      52.585   9.130  77.998  1.00  0.00     0.111 A 
ATOM     32  O   UNL     1      52.222   8.281  80.137  1.00  0.00    -0.285 OA
ATOM     33  C   UNL     1      53.579   9.502  77.056  1.00  0.00     0.146 A 
ATOM     34  C   UNL     1      51.217   9.381  77.677  1.00  0.00     0.134 A 
ATOM     35  C   UNL     1      53.225  10.138  75.863  1.00  0.00     0.094 A 
ATOM     36  C   UNL     1      50.901  10.063  76.494  1.00  0.00     0.093 A 
ATOM     37  C   UNL     1      51.893  10.433  75.588  1.00  0.00     0.123 A 
BRANCH  28  38
ATOM     38  C   UNL     1      56.766   8.512  78.556  1.00  0.00     0.025 A 
ATOM     39  C   UNL     1      57.340   7.229  78.582  1.00  0.00     0.062 A 
ATOM     40  C   UNL     1      57.594   9.634  78.698  1.00  0.00     0.016 A 
ATOM     41  C   UNL     1      58.699   7.059  78.853  1.00  0.00     0.158 A 
ATOM     42  C   UNL     1      58.966   9.472  78.925  1.00  0.00     0.051 A 
ATOM     43  C   UNL     1      59.521   8.186  79.025  1.00  0.00     0.157 A 
BRANCH  41  44
ATOM     44  O   UNL     1      59.214   5.766  78.961  1.00  0.00    -0.504 OA
ATOM     45  H   UNL     1      59.694   5.312  78.182  1.00  0.00     0.293 HD
ENDBRANCH  41  44
BRANCH  43  46
ATOM     46  O   UNL     1      60.882   8.026  79.288  1.00  0.00    -0.504 OA
ATOM     47  H   UNL     1      61.574   8.654  78.899  1.00  0.00     0.293 HD
ENDBRANCH  43  46
ENDBRANCH  28  38
BRANCH  34  48
ATOM     48  O   UNL     1      50.134   8.964  78.458  1.00  0.00    -0.507 OA
ATOM     49  H   UNL     1      49.991   8.028  78.805  1.00  0.00     0.293 HD
ENDBRANCH  34  48
BRANCH  37  50
ATOM     50  O   UNL     1      51.563  11.078  74.400  1.00  0.00    -0.508 OA
ATOM     51  H   UNL     1      51.468  10.572  73.527  1.00  0.00     0.293 HD
ENDBRANCH  37  50
ENDBRANCH  26  27
ENDBRANCH   5  26
BRANCH   4  52
ATOM     52  O   UNL     1      56.451   9.937  83.144  1.00  0.00    -0.384 OA
ATOM     53  H   UNL     1      56.866  10.782  82.830  1.00  0.00     0.211 HD
ENDBRANCH   4  52
TORSDOF 16
ENDMDL
MODEL 2
REMARK VINA RESULT:    -6.201      2.460      6.297
REMARK INTER + INTRA:         -12.714
REMARK INTER:                 -10.705
REMARK INTRA:                  -2.009
REMARK UNBOUND:                -2.525
REMARK SMILES C[C@@H]1O[C@H](OC[C@@H]2O[C@H](Oc3c(-c4ccc(O)c(O)c4)oc4cc(O)cc(O)c4c3=O)[C@@H](O)[C@@H](O)[C@@H]2O)[C@H](O)[C@@H](O)[C@@H]1O
REMARK SMILES IDX 7 1 36 2 34 3 32 4 9 5 8 6 6 7 5 8 4 9 1 10 2 11 42 12 3 13
REMARK SMILES IDX 40 14 38 15 43 16 41 18 39 20 37 22 35 24 10 26 11 27 12 28
REMARK SMILES IDX 30 29 21 30 29 31 31 32 22 33 27 34 23 35 26 36 24 37 13 38
REMARK SMILES IDX 20 39 14 40 18 41 15 42 16 43 19 44 17 46 28 48 25 50 33 52
REMARK H PARENT 43 17 41 19 39 21 37 23 35 25 19 45 17 47 28 49 25 51 33 53
REMARK Flexibility Score: inf
ROOT
ATOM      1  C   UNL     1      56.088   8.961  81.716  1.00  0.00     0.180 C 
ATOM      2  C   UNL     1      55.551   9.923  80.618  1.00  0.00     0.177 C 
ATOM      3  C   UNL     1      54.400   9.284  79.828  1.00  0.00     0.180 C 
ATOM      4  C   UNL     1      53.353   8.681  80.776  1.00  0.00     0.214 C 
ATOM      5  C   UNL     1      54.030   7.739  81.786  1.00  0.00     0.339 C 
ATOM      6  O   UNL     1      55.057   8.394  82.519  1.00  0.00    -0.332 OA
ENDROOT
BRANCH   1   7
ATOM      7  C   UNL     1      57.065   7.879  81.216  1.00  0.00     0.198 C 
BRANCH   7   8
ATOM      8  O   UNL     1      58.307   7.990  81.880  1.00  0.00    -0.347 OA
BRANCH   8   9
ATOM      9  C   UNL     1      58.614   9.348  82.177  1.00  0.00     0.281 C 
ATOM     10  C   UNL     1      60.050   7.370  84.125  1.00  0.00     0.041 C 
ATOM     11  C   UNL     1      60.183   8.885  83.925  1.00  0.00     0.150 C 
ATOM     12  C   UNL     1      61.379   9.298  83.028  1.00  0.00     0.174 C 
ATOM     13  O   UNL     1      58.951   9.496  83.551  1.00  0.00    -0.344 OA
ATOM     14  C   UNL     1      61.042   9.121  81.546  1.00  0.00     0.179 C 
ATOM     15  C   UNL     1      59.732   9.858  81.247  1.00  0.00     0.202 C 
BRANCH  12  16
ATOM     16  O   UNL     1      62.530   8.552  83.341  1.00  0.00    -0.388 OA
ATOM     17  H   UNL     1      63.019   9.065  84.034  1.00  0.00     0.211 HD
ENDBRANCH  12  16
BRANCH  14  18
ATOM     18  O   UNL     1      62.079   9.663  80.768  1.00  0.00    -0.387 OA
ATOM     19  H   UNL     1      61.711  10.471  80.322  1.00  0.00     0.211 HD
ENDBRANCH  14  18
BRANCH  15  20
ATOM     20  O   UNL     1      59.373   9.657  79.903  1.00  0.00    -0.385 OA
ATOM     21  H   UNL     1      58.787  10.415  79.652  1.00  0.00     0.211 HD
ENDBRANCH  15  20
ENDBRANCH   8   9
ENDBRANCH   7   8
ENDBRANCH   1   7
BRANCH   2  22
ATOM     22  O   UNL     1      56.592  10.283  79.746  1.00  0.00    -0.387 OA
ATOM     23  H   UNL     1      56.586   9.633  78.990  1.00  0.00     0.211 HD
ENDBRANCH   2  22
BRANCH   3  24
ATOM     24  O   UNL     1      53.788  10.259  79.020  1.00  0.00    -0.387 OA
ATOM     25  H   UNL     1      52.835  10.318  79.296  1.00  0.00     0.211 HD
ENDBRANCH   3  24
BRANCH   5  26
ATOM     26  O   UNL     1      54.510   6.587  81.084  1.00  0.00    -0.454 OA
BRANCH  26  27
ATOM     27  C   UNL     1      53.779   5.762  80.207  1.00  0.00     0.214 A 
ATOM     28  C   UNL     1      54.374   5.397  78.986  1.00  0.00     0.180 A 
ATOM     29  C   UNL     1      52.477   5.297  80.488  1.00  0.00     0.239 A 
ATOM     30  O   UNL     1      53.703   4.666  78.106  1.00  0.00    -0.452 OA
ATOM     31  C   UNL     1      51.807   4.472  79.546  1.00  0.00     0.111 A 
ATOM     32  O   UNL     1      51.919   5.639  81.559  1.00  0.00    -0.285 OA
ATOM     33  C   UNL     1      52.477   4.210  78.323  1.00  0.00     0.146 A 
ATOM     34  C   UNL     1      50.500   3.928  79.734  1.00  0.00     0.134 A 
ATOM     35  C   UNL     1      51.852   3.474  77.313  1.00  0.00     0.094 A 
ATOM     36  C   UNL     1      49.884   3.235  78.683  1.00  0.00     0.093 A 
ATOM     37  C   UNL     1      50.554   3.000  77.484  1.00  0.00     0.123 A 
BRANCH  28  38
ATOM     38  C   UNL     1      55.724   5.872  78.614  1.00  0.00     0.025 A 
ATOM     39  C   UNL     1      56.875   5.169  79.009  1.00  0.00     0.062 A 
ATOM     40  C   UNL     1      55.864   7.052  77.871  1.00  0.00     0.016 A 
ATOM     41  C   UNL     1      58.149   5.688  78.762  1.00  0.00     0.158 A 
ATOM     42  C   UNL     1      57.138   7.553  77.579  1.00  0.00     0.051 A 
ATOM     43  C   UNL     1      58.285   6.887  78.041  1.00  0.00     0.157 A 
BRANCH  41  44
ATOM     44  O   UNL     1      59.266   5.006  79.249  1.00  0.00    -0.504 OA
ATOM     45  H   UNL     1      59.864   5.404  79.973  1.00  0.00     0.293 HD
ENDBRANCH  41  44
BRANCH  43  46
ATOM     46  O   UNL     1      59.553   7.407  77.783  1.00  0.00    -0.504 OA
ATOM     47  H   UNL     1      59.780   8.373  77.984  1.00  0.00     0.293 HD
ENDBRANCH  43  46
ENDBRANCH  28  38
BRANCH  34  48
ATOM     48  O   UNL     1      49.776   4.010  80.929  1.00  0.00    -0.507 OA
ATOM     49  H   UNL     1      50.095   3.686  81.828  1.00  0.00     0.293 HD
ENDBRANCH  34  48
BRANCH  37  50
ATOM     50  O   UNL     1      49.945   2.280  76.461  1.00  0.00    -0.508 OA
ATOM     51  H   UNL     1      50.412   1.505  76.004  1.00  0.00     0.293 HD
ENDBRANCH  37  50
ENDBRANCH  26  27
ENDBRANCH   5  26
BRANCH   4  52
ATOM     52  O   UNL     1      52.583   9.674  81.419  1.00  0.00    -0.384 OA
ATOM     53  H   UNL     1      52.486   9.420  82.374  1.00  0.00     0.211 HD
ENDBRANCH   4  52
TORSDOF 16
ENDMDL
MODEL 3
REMARK VINA RESULT:    -6.197      2.700      6.968
REMARK INTER + INTRA:         -12.706
REMARK INTER:                 -11.450
REMARK INTRA:                  -1.256
REMARK UNBOUND:                -2.525
REMARK SMILES C[C@@H]1O[C@H](OC[C@@H]2O[C@H](Oc3c(-c4ccc(O)c(O)c4)oc4cc(O)cc(O)c4c3=O)[C@@H](O)[C@@H](O)[C@@H]2O)[C@H](O)[C@@H](O)[C@@H]1O
REMARK SMILES IDX 7 1 36 2 34 3 32 4 9 5 8 6 6 7 5 8 4 9 1 10 2 11 42 12 3 13
REMARK SMILES IDX 40 14 38 15 43 16 41 18 39 20 37 22 35 24 10 26 11 27 12 28
REMARK SMILES IDX 30 29 21 30 29 31 31 32 22 33 27 34 23 35 26 36 24 37 13 38
REMARK SMILES IDX 20 39 14 40 18 41 15 42 16 43 19 44 17 46 28 48 25 50 33 52
REMARK H PARENT 43 17 41 19 39 21 37 23 35 25 19 45 17 47 28 49 25 51 33 53
REMARK Flexibility Score: inf
ROOT
ATOM      1  C   UNL     1      53.324   4.395  83.767  1.00  0.00     0.180 C 
ATOM      2  C   UNL     1      52.311   3.269  84.125  1.00  0.00     0.177 C 
ATOM      3  C   UNL     1      52.419   2.090  83.149  1.00  0.00     0.180 C 
ATOM      4  C   UNL     1      53.882   1.657  82.970  1.00  0.00     0.214 C 
ATOM      5  C   UNL     1      54.752   2.870  82.599  1.00  0.00     0.339 C 
ATOM      6  O   UNL     1      54.648   3.914  83.558  1.00  0.00    -0.332 OA
ENDROOT
BRANCH   1   7
ATOM      7  C   UNL     1      52.883   5.332  82.626  1.00  0.00     0.198 C 
BRANCH   7   8
ATOM      8  O   UNL     1      53.907   6.255  82.321  1.00  0.00    -0.347 OA
BRANCH   8   9
ATOM      9  C   UNL     1      53.482   7.594  82.552  1.00  0.00     0.281 C 
ATOM     10  C   UNL     1      56.386   7.093  83.591  1.00  0.00     0.041 C 
ATOM     11  C   UNL     1      55.557   8.376  83.454  1.00  0.00     0.150 C 
ATOM     12  C   UNL     1      55.865   9.190  82.170  1.00  0.00     0.174 C 
ATOM     13  O   UNL     1      54.166   8.150  83.668  1.00  0.00    -0.344 OA
ATOM     14  C   UNL     1      55.156   8.589  80.955  1.00  0.00     0.179 C 
ATOM     15  C   UNL     1      53.665   8.441  81.277  1.00  0.00     0.202 C 
BRANCH  12  16
ATOM     16  O   UNL     1      57.249   9.249  81.927  1.00  0.00    -0.388 OA
ATOM     17  H   UNL     1      57.695   9.130  82.804  1.00  0.00     0.211 HD
ENDBRANCH  12  16
BRANCH  14  18
ATOM     18  O   UNL     1      55.320   9.446  79.854  1.00  0.00    -0.387 OA
ATOM     19  H   UNL     1      54.929  10.322  80.112  1.00  0.00     0.211 HD
ENDBRANCH  14  18
BRANCH  15  20
ATOM     20  O   UNL     1      53.006   7.833  80.195  1.00  0.00    -0.385 OA
ATOM     21  H   UNL     1      53.141   6.858  80.294  1.00  0.00     0.211 HD
ENDBRANCH  15  20
ENDBRANCH   8   9
ENDBRANCH   7   8
ENDBRANCH   1   7
BRANCH   2  22
ATOM     22  O   UNL     1      51.003   3.782  84.119  1.00  0.00    -0.387 OA
ATOM     23  H   UNL     1      51.072   4.776  84.148  1.00  0.00     0.211 HD
ENDBRANCH   2  22
BRANCH   3  24
ATOM     24  O   UNL     1      51.671   1.004  83.642  1.00  0.00    -0.387 OA
ATOM     25  H   UNL     1      51.627   0.323  82.921  1.00  0.00     0.211 HD
ENDBRANCH   3  24
BRANCH   5  26
ATOM     26  O   UNL     1      54.395   3.302  81.281  1.00  0.00    -0.454 OA
BRANCH  26  27
ATOM     27  C   UNL     1      55.090   4.222  80.473  1.00  0.00     0.214 A 
ATOM     28  C   UNL     1      54.439   4.732  79.335  1.00  0.00     0.180 A 
ATOM     29  C   UNL     1      56.408   4.646  80.742  1.00  0.00     0.239 A 
ATOM     30  O   UNL     1      55.073   5.560  78.515  1.00  0.00    -0.452 OA
ATOM     31  C   UNL     1      57.040   5.575  79.873  1.00  0.00     0.111 A 
ATOM     32  O   UNL     1      57.014   4.177  81.736  1.00  0.00    -0.285 OA
ATOM     33  C   UNL     1      56.313   5.983  78.724  1.00  0.00     0.146 A 
ATOM     34  C   UNL     1      58.359   6.088  80.059  1.00  0.00     0.134 A 
ATOM     35  C   UNL     1      56.895   6.832  77.779  1.00  0.00     0.094 A 
ATOM     36  C   UNL     1      58.929   6.900  79.069  1.00  0.00     0.093 A 
ATOM     37  C   UNL     1      58.204   7.278  77.941  1.00  0.00     0.123 A 
BRANCH  28  38
ATOM     38  C   UNL     1      53.069   4.309  78.976  1.00  0.00     0.025 A 
ATOM     39  C   UNL     1      52.007   4.442  79.888  1.00  0.00     0.062 A 
ATOM     40  C   UNL     1      52.822   3.751  77.715  1.00  0.00     0.016 A 
ATOM     41  C   UNL     1      50.742   3.928  79.590  1.00  0.00     0.158 A 
ATOM     42  C   UNL     1      51.546   3.275  77.393  1.00  0.00     0.051 A 
ATOM     43  C   UNL     1      50.506   3.342  78.335  1.00  0.00     0.157 A 
BRANCH  41  44
ATOM     44  O   UNL     1      49.736   3.998  80.556  1.00  0.00    -0.504 OA
ATOM     45  H   UNL     1      49.365   3.161  81.006  1.00  0.00     0.293 HD
ENDBRANCH  41  44
BRANCH  43  46
ATOM     46  O   UNL     1      49.244   2.833  78.027  1.00  0.00    -0.504 OA
ATOM     47  H   UNL     1      48.983   1.884  78.263  1.00  0.00     0.293 HD
ENDBRANCH  43  46
ENDBRANCH  28  38
BRANCH  34  48
ATOM     48  O   UNL     1      59.140   5.862  81.198  1.00  0.00    -0.507 OA
ATOM     49  H   UNL     1      59.655   6.568  81.701  1.00  0.00     0.293 HD
ENDBRANCH  34  48
BRANCH  37  50
ATOM     50  O   UNL     1      58.769   8.113  76.982  1.00  0.00    -0.508 OA
ATOM     51  H   UNL     1      58.340   8.994  76.724  1.00  0.00     0.293 HD
ENDBRANCH  37  50
ENDBRANCH  26  27
ENDBRANCH   5  26
BRANCH   4  52
ATOM     52  O   UNL     1      54.379   0.982  84.104  1.00  0.00    -0.384 OA
ATOM     53  H   UNL     1      54.927   0.215  83.792  1.00  0.00     0.211 HD
ENDBRANCH   4  52
TORSDOF 16
ENDMDL
MODEL 4
REMARK VINA RESULT:    -6.139      2.397      6.458
REMARK INTER + INTRA:         -12.611
REMARK INTER:                  -9.970
REMARK INTRA:                  -2.641
REMARK UNBOUND:                -2.525
REMARK SMILES C[C@@H]1O[C@H](OC[C@@H]2O[C@H](Oc3c(-c4ccc(O)c(O)c4)oc4cc(O)cc(O)c4c3=O)[C@@H](O)[C@@H](O)[C@@H]2O)[C@H](O)[C@@H](O)[C@@H]1O
REMARK SMILES IDX 7 1 36 2 34 3 32 4 9 5 8 6 6 7 5 8 4 9 1 10 2 11 42 12 3 13
REMARK SMILES IDX 40 14 38 15 43 16 41 18 39 20 37 22 35 24 10 26 11 27 12 28
REMARK SMILES IDX 30 29 21 30 29 31 31 32 22 33 27 34 23 35 26 36 24 37 13 38
REMARK SMILES IDX 20 39 14 40 18 41 15 42 16 43 19 44 17 46 28 48 25 50 33 52
REMARK H PARENT 43 17 41 19 39 21 37 23 35 25 19 45 17 47 28 49 25 51 33 53
REMARK Flexibility Score: inf
ROOT
ATOM      1  C   UNL     1      55.766   9.416  81.685  1.00  0.00     0.180 C 
ATOM      2  C   UNL     1      55.282  10.370  80.555  1.00  0.00     0.177 C 
ATOM      3  C   UNL     1      54.219   9.701  79.674  1.00  0.00     0.180 C 
ATOM      4  C   UNL     1      53.123   9.052  80.533  1.00  0.00     0.214 C 
ATOM      5  C   UNL     1      53.753   8.124  81.586  1.00  0.00     0.339 C 
ATOM      6  O   UNL     1      54.697   8.806  82.401  1.00  0.00    -0.332 OA
ENDROOT
BRANCH   1   7
ATOM      7  C   UNL     1      56.816   8.374  81.254  1.00  0.00     0.198 C 
BRANCH   7   8
ATOM      8  O   UNL     1      58.089   8.975  81.134  1.00  0.00    -0.347 OA
BRANCH   8   9
ATOM      9  C   UNL     1      59.129   8.031  81.364  1.00  0.00     0.281 C 
ATOM     10  C   UNL     1      60.135  10.512  79.752  1.00  0.00     0.041 C 
ATOM     11  C   UNL     1      60.884   9.331  80.383  1.00  0.00     0.150 C 
ATOM     12  C   UNL     1      61.496   9.644  81.773  1.00  0.00     0.174 C 
ATOM     13  O   UNL     1      60.124   8.126  80.352  1.00  0.00    -0.344 OA
ATOM     14  C   UNL     1      60.434   9.571  82.871  1.00  0.00     0.179 C 
ATOM     15  C   UNL     1      59.719   8.220  82.776  1.00  0.00     0.202 C 
BRANCH  12  16
ATOM     16  O   UNL     1      62.101  10.915  81.786  1.00  0.00    -0.388 OA
ATOM     17  H   UNL     1      62.948  10.819  82.291  1.00  0.00     0.211 HD
ENDBRANCH  12  16
BRANCH  14  18
ATOM     18  O   UNL     1      61.056   9.692  84.125  1.00  0.00    -0.387 OA
ATOM     19  H   UNL     1      60.442   9.281  84.790  1.00  0.00     0.211 HD
ENDBRANCH  14  18
BRANCH  15  20
ATOM     20  O   UNL     1      58.696   8.157  83.739  1.00  0.00    -0.385 OA
ATOM     21  H   UNL     1      58.488   9.091  83.989  1.00  0.00     0.211 HD
ENDBRANCH  15  20
ENDBRANCH   8   9
ENDBRANCH   7   8
ENDBRANCH   1   7
BRANCH   2  22
ATOM     22  O   UNL     1      56.374  10.775  79.769  1.00  0.00    -0.387 OA
ATOM     23  H   UNL     1      56.091  10.722  78.815  1.00  0.00     0.211 HD
ENDBRANCH   2  22
BRANCH   3  24
ATOM     24  O   UNL     1      53.637  10.662  78.828  1.00  0.00    -0.387 OA
ATOM     25  H   UNL     1      54.281  10.839  78.093  1.00  0.00     0.211 HD
ENDBRANCH   3  24
BRANCH   5  26
ATOM     26  O   UNL     1      54.326   6.996  80.915  1.00  0.00    -0.454 OA
BRANCH  26  27
ATOM     27  C   UNL     1      53.655   6.064  80.098  1.00  0.00     0.214 A 
ATOM     28  C   UNL     1      54.264   5.679  78.890  1.00  0.00     0.180 A 
ATOM     29  C   UNL     1      52.401   5.510  80.428  1.00  0.00     0.239 A 
ATOM     30  O   UNL     1      53.645   4.846  78.064  1.00  0.00    -0.452 OA
ATOM     31  C   UNL     1      51.790   4.579  79.546  1.00  0.00     0.111 A 
ATOM     32  O   UNL     1      51.830   5.867  81.488  1.00  0.00    -0.285 OA
ATOM     33  C   UNL     1      52.464   4.303  78.328  1.00  0.00     0.146 A 
ATOM     34  C   UNL     1      50.536   3.941  79.787  1.00  0.00     0.134 A 
ATOM     35  C   UNL     1      51.890   3.460  77.373  1.00  0.00     0.094 A 
ATOM     36  C   UNL     1      49.967   3.139  78.788  1.00  0.00     0.093 A 
ATOM     37  C   UNL     1      50.639   2.892  77.593  1.00  0.00     0.123 A 
BRANCH  28  38
ATOM     38  C   UNL     1      55.564   6.242  78.469  1.00  0.00     0.025 A 
ATOM     39  C   UNL     1      56.771   5.588  78.770  1.00  0.00     0.062 A 
ATOM     40  C   UNL     1      55.601   7.457  77.771  1.00  0.00     0.016 A 
ATOM     41  C   UNL     1      58.000   6.184  78.479  1.00  0.00     0.158 A 
ATOM     42  C   UNL     1      56.829   8.039  77.435  1.00  0.00     0.051 A 
ATOM     43  C   UNL     1      58.033   7.417  77.806  1.00  0.00     0.157 A 
BRANCH  41  44
ATOM     44  O   UNL     1      59.176   5.545  78.876  1.00  0.00    -0.504 OA
ATOM     45  H   UNL     1      59.200   4.547  79.087  1.00  0.00     0.293 HD
ENDBRANCH  41  44
BRANCH  43  46
ATOM     46  O   UNL     1      59.256   8.016  77.504  1.00  0.00    -0.504 OA
ATOM     47  H   UNL     1      59.896   7.606  76.834  1.00  0.00     0.293 HD
ENDBRANCH  43  46
ENDBRANCH  28  38
BRANCH  34  48
ATOM     48  O   UNL     1      49.822   4.032  80.988  1.00  0.00    -0.507 OA
ATOM     49  H   UNL     1      49.722   3.291  81.664  1.00  0.00     0.293 HD
ENDBRANCH  34  48
BRANCH  37  50
ATOM     50  O   UNL     1      50.080   2.065  76.623  1.00  0.00    -0.508 OA
ATOM     51  H   UNL     1      49.862   1.093  76.812  1.00  0.00     0.293 HD
ENDBRANCH  37  50
ENDBRANCH  26  27
ENDBRANCH   5  26
BRANCH   4  52
ATOM     52  O   UNL     1      52.272  10.012  81.122  1.00  0.00    -0.384 OA
ATOM     53  H   UNL     1      52.420  10.879  80.662  1.00  0.00     0.211 HD
ENDBRANCH   4  52
TORSDOF 16
ENDMDL
MODEL 5
REMARK VINA RESULT:    -6.100      1.667      7.734
REMARK INTER + INTRA:         -12.547
REMARK INTER:                 -10.985
REMARK INTRA:                  -1.562
REMARK UNBOUND:                -2.525
REMARK SMILES C[C@@H]1O[C@H](OC[C@@H]2O[C@H](Oc3c(-c4ccc(O)c(O)c4)oc4cc(O)cc(O)c4c3=O)[C@@H](O)[C@@H](O)[C@@H]2O)[C@H](O)[C@@H](O)[C@@H]1O
REMARK SMILES IDX 7 1 36 2 34 3 32 4 9 5 8 6 6 7 5 8 4 9 1 10 2 11 42 12 3 13
REMARK SMILES IDX 40 14 38 15 43 16 41 18 39 20 37 22 35 24 10 26 11 27 12 28
REMARK SMILES IDX 30 29 21 30 29 31 31 32 22 33 27 34 23 35 26 36 24 37 13 38
REMARK SMILES IDX 20 39 14 40 18 41 15 42 16 43 19 44 17 46 28 48 25 50 33 52
REMARK H PARENT 43 17 41 19 39 21 37 23 35 25 19 45 17 47 28 49 25 51 33 53
REMARK Flexibility Score: inf
ROOT
ATOM      1  C   UNL     1      54.088   9.446  77.905  1.00  0.00     0.180 C 
ATOM      2  C   UNL     1      52.701   9.801  77.297  1.00  0.00     0.177 C 
ATOM      3  C   UNL     1      51.555   9.256  78.160  1.00  0.00     0.180 C 
ATOM      4  C   UNL     1      51.763   9.617  79.639  1.00  0.00     0.214 C 
ATOM      5  C   UNL     1      53.165   9.186  80.099  1.00  0.00     0.339 C 
ATOM      6  O   UNL     1      54.189   9.753  79.292  1.00  0.00    -0.332 OA
ENDROOT
BRANCH   1   7
ATOM      7  C   UNL     1      54.582   8.016  77.613  1.00  0.00     0.198 C 
BRANCH   7   8
ATOM      8  O   UNL     1      55.846   7.798  78.206  1.00  0.00    -0.347 OA
BRANCH   8   9
ATOM      9  C   UNL     1      56.825   7.465  77.228  1.00  0.00     0.281 C 
ATOM     10  C   UNL     1      57.781   9.776  79.101  1.00  0.00     0.041 C 
ATOM     11  C   UNL     1      58.514   8.961  78.027  1.00  0.00     0.150 C 
ATOM     12  C   UNL     1      59.355   7.787  78.594  1.00  0.00     0.174 C 
ATOM     13  O   UNL     1      57.658   8.584  76.952  1.00  0.00    -0.344 OA
ATOM     14  C   UNL     1      58.469   6.584  78.920  1.00  0.00     0.179 C 
ATOM     15  C   UNL     1      57.636   6.235  77.683  1.00  0.00     0.202 C 
BRANCH  12  16
ATOM     16  O   UNL     1      60.061   8.179  79.746  1.00  0.00    -0.388 OA
ATOM     17  H   UNL     1      59.838   7.520  80.452  1.00  0.00     0.211 HD
ENDBRANCH  12  16
BRANCH  14  18
ATOM     18  O   UNL     1      59.283   5.492  79.267  1.00  0.00    -0.387 OA
ATOM     19  H   UNL     1      58.866   5.065  80.061  1.00  0.00     0.211 HD
ENDBRANCH  14  18
BRANCH  15  20
ATOM     20  O   UNL     1      56.770   5.168  77.981  1.00  0.00    -0.385 OA
ATOM     21  H   UNL     1      55.877   5.427  77.641  1.00  0.00     0.211 HD
ENDBRANCH  15  20
ENDBRANCH   8   9
ENDBRANCH   7   8
ENDBRANCH   1   7
BRANCH   2  22
ATOM     22  O   UNL     1      52.606   9.291  75.991  1.00  0.00    -0.387 OA
ATOM     23  H   UNL     1      51.915   8.572  76.001  1.00  0.00     0.211 HD
ENDBRANCH   2  22
BRANCH   3  24
ATOM     24  O   UNL     1      50.335   9.798  77.717  1.00  0.00    -0.387 OA
ATOM     25  H   UNL     1      50.113   9.363  76.852  1.00  0.00     0.211 HD
ENDBRANCH   3  24
BRANCH   5  26
ATOM     26  O   UNL     1      53.219   7.754  80.120  1.00  0.00    -0.454 OA
BRANCH  26  27
ATOM     27  C   UNL     1      54.287   6.952  80.567  1.00  0.00     0.214 A 
ATOM     28  C   UNL     1      54.248   5.575  80.283  1.00  0.00     0.180 A 
ATOM     29  C   UNL     1      55.384   7.460  81.293  1.00  0.00     0.239 A 
ATOM     30  O   UNL     1      55.205   4.772  80.729  1.00  0.00    -0.452 OA
ATOM     31  C   UNL     1      56.418   6.581  81.711  1.00  0.00     0.111 A 
ATOM     32  O   UNL     1      55.418   8.681  81.582  1.00  0.00    -0.285 OA
ATOM     33  C   UNL     1      56.252   5.202  81.420  1.00  0.00     0.146 A 
ATOM     34  C   UNL     1      57.582   6.987  82.431  1.00  0.00     0.134 A 
ATOM     35  C   UNL     1      57.186   4.264  81.867  1.00  0.00     0.094 A 
ATOM     36  C   UNL     1      58.474   6.015  82.905  1.00  0.00     0.093 A 
ATOM     37  C   UNL     1      58.286   4.665  82.620  1.00  0.00     0.123 A 
BRANCH  28  38
ATOM     38  C   UNL     1      53.115   4.970  79.551  1.00  0.00     0.025 A 
ATOM     39  C   UNL     1      51.891   4.713  80.193  1.00  0.00     0.062 A 
ATOM     40  C   UNL     1      53.264   4.631  78.200  1.00  0.00     0.016 A 
ATOM     41  C   UNL     1      50.868   4.030  79.531  1.00  0.00     0.158 A 
ATOM     42  C   UNL     1      52.225   3.987  77.517  1.00  0.00     0.051 A 
ATOM     43  C   UNL     1      51.032   3.664  78.184  1.00  0.00     0.157 A 
BRANCH  41  44
ATOM     44  O   UNL     1      49.701   3.712  80.230  1.00  0.00    -0.504 OA
ATOM     45  H   UNL     1      48.882   3.325  79.760  1.00  0.00     0.293 HD
ENDBRANCH  41  44
BRANCH  43  46
ATOM     46  O   UNL     1      50.012   2.989  77.514  1.00  0.00    -0.504 OA
ATOM     47  H   UNL     1      49.963   2.972  76.502  1.00  0.00     0.293 HD
ENDBRANCH  43  46
ENDBRANCH  28  38
BRANCH  34  48
ATOM     48  O   UNL     1      57.928   8.320  82.685  1.00  0.00    -0.507 OA
ATOM     49  H   UNL     1      58.512   8.636  83.443  1.00  0.00     0.293 HD
ENDBRANCH  34  48
BRANCH  37  50
ATOM     50  O   UNL     1      59.198   3.713  83.066  1.00  0.00    -0.508 OA
ATOM     51  H   UNL     1      59.686   3.814  83.949  1.00  0.00     0.293 HD
ENDBRANCH  37  50
ENDBRANCH  26  27
ENDBRANCH   5  26
BRANCH   4  52
ATOM     52  O   UNL     1      51.525  10.984  79.890  1.00  0.00    -0.384 OA
ATOM     53  H   UNL     1      50.596  11.080  80.226  1.00  0.00     0.211 HD
ENDBRANCH   4  52
TORSDOF 16
ENDMDL
MODEL 6
REMARK VINA RESULT:    -6.058      2.442      6.575
REMARK INTER + INTRA:         -12.478
REMARK INTER:                 -10.729
REMARK INTRA:                  -1.748
REMARK UNBOUND:                -2.525
REMARK SMILES C[C@@H]1O[C@H](OC[C@@H]2O[C@H](Oc3c(-c4ccc(O)c(O)c4)oc4cc(O)cc(O)c4c3=O)[C@@H](O)[C@@H](O)[C@@H]2O)[C@H](O)[C@@H](O)[C@@H]1O
REMARK SMILES IDX 7 1 36 2 34 3 32 4 9 5 8 6 6 7 5 8 4 9 1 10 2 11 42 12 3 13
REMARK SMILES IDX 40 14 38 15 43 16 41 18 39 20 37 22 35 24 10 26 11 27 12 28
REMARK SMILES IDX 30 29 21 30 29 31 31 32 22 33 27 34 23 35 26 36 24 37 13 38
REMARK SMILES IDX 20 39 14 40 18 41 15 42 16 43 19 44 17 46 28 48 25 50 33 52
REMARK H PARENT 43 17 41 19 39 21 37 23 35 25 19 45 17 47 28 49 25 51 33 53
REMARK Flexibility Score: inf
ROOT
ATOM      1  C   UNL     1      53.496   4.913  83.103  1.00  0.00     0.180 C 
ATOM      2  C   UNL     1      52.844   3.567  83.534  1.00  0.00     0.177 C 
ATOM      3  C   UNL     1      53.468   2.379  82.789  1.00  0.00     0.180 C 
ATOM      4  C   UNL     1      55.002   2.441  82.846  1.00  0.00     0.214 C 
ATOM      5  C   UNL     1      55.496   3.818  82.372  1.00  0.00     0.339 C 
ATOM      6  O   UNL     1      54.920   4.878  83.123  1.00  0.00    -0.332 OA
ENDROOT
BRANCH   1   7
ATOM      7  C   UNL     1      52.970   5.499  81.779  1.00  0.00     0.198 C 
BRANCH   7   8
ATOM      8  O   UNL     1      52.871   6.906  81.866  1.00  0.00    -0.347 OA
BRANCH   8   9
ATOM      9  C   UNL     1      54.125   7.528  81.611  1.00  0.00     0.281 C 
ATOM     10  C   UNL     1      51.937   8.425  79.568  1.00  0.00     0.041 C 
ATOM     11  C   UNL     1      53.366   8.922  79.819  1.00  0.00     0.150 C 
ATOM     12  C   UNL     1      53.444  10.191  80.708  1.00  0.00     0.174 C 
ATOM     13  O   UNL     1      54.241   7.878  80.237  1.00  0.00    -0.344 OA
ATOM     14  C   UNL     1      53.296   9.835  82.188  1.00  0.00     0.179 C 
ATOM     15  C   UNL     1      54.315   8.746  82.537  1.00  0.00     0.202 C 
BRANCH  12  16
ATOM     16  O   UNL     1      52.455  11.125  80.346  1.00  0.00    -0.388 OA
ATOM     17  H   UNL     1      52.251  10.963  79.390  1.00  0.00     0.211 HD
ENDBRANCH  12  16
BRANCH  14  18
ATOM     18  O   UNL     1      53.541  10.980  82.965  1.00  0.00    -0.387 OA
ATOM     19  H   UNL     1      52.980  11.708  82.588  1.00  0.00     0.211 HD
ENDBRANCH  14  18
BRANCH  15  20
ATOM     20  O   UNL     1      54.154   8.361  83.880  1.00  0.00    -0.385 OA
ATOM     21  H   UNL     1      54.850   8.841  84.395  1.00  0.00     0.211 HD
ENDBRANCH  15  20
ENDBRANCH   8   9
ENDBRANCH   7   8
ENDBRANCH   1   7
BRANCH   2  22
ATOM     22  O   UNL     1      51.460   3.610  83.300  1.00  0.00    -0.387 OA
ATOM     23  H   UNL     1      51.311   4.176  82.492  1.00  0.00     0.211 HD
ENDBRANCH   2  22
BRANCH   3  24
ATOM     24  O   UNL     1      53.030   1.177  83.374  1.00  0.00    -0.387 OA
ATOM     25  H   UNL     1      52.269   1.398  83.973  1.00  0.00     0.211 HD
ENDBRANCH   3  24
BRANCH   5  26
ATOM     26  O   UNL     1      55.234   3.939  80.969  1.00  0.00    -0.454 OA
BRANCH  26  27
ATOM     27  C   UNL     1      55.786   4.882  80.081  1.00  0.00     0.214 A 
ATOM     28  C   UNL     1      55.149   5.084  78.843  1.00  0.00     0.180 A 
ATOM     29  C   UNL     1      56.952   5.624  80.368  1.00  0.00     0.239 A 
ATOM     30  O   UNL     1      55.663   5.923  77.954  1.00  0.00    -0.452 OA
ATOM     31  C   UNL     1      57.446   6.554  79.415  1.00  0.00     0.111 A 
ATOM     32  O   UNL     1      57.550   5.433  81.455  1.00  0.00    -0.285 OA
ATOM     33  C   UNL     1      56.757   6.638  78.176  1.00  0.00     0.146 A 
ATOM     34  C   UNL     1      58.601   7.371  79.606  1.00  0.00     0.134 A 
ATOM     35  C   UNL     1      57.228   7.470  77.157  1.00  0.00     0.094 A 
ATOM     36  C   UNL     1      59.072   8.158  78.547  1.00  0.00     0.093 A 
ATOM     37  C   UNL     1      58.389   8.217  77.334  1.00  0.00     0.123 A 
BRANCH  28  38
ATOM     38  C   UNL     1      53.941   4.321  78.465  1.00  0.00     0.025 A 
ATOM     39  C   UNL     1      52.663   4.903  78.533  1.00  0.00     0.062 A 
ATOM     40  C   UNL     1      54.064   2.988  78.048  1.00  0.00     0.016 A 
ATOM     41  C   UNL     1      51.517   4.141  78.294  1.00  0.00     0.158 A 
ATOM     42  C   UNL     1      52.921   2.232  77.762  1.00  0.00     0.051 A 
ATOM     43  C   UNL     1      51.643   2.797  77.905  1.00  0.00     0.157 A 
BRANCH  41  44
ATOM     44  O   UNL     1      50.262   4.731  78.460  1.00  0.00    -0.504 OA
ATOM     45  H   UNL     1      49.968   5.126  79.354  1.00  0.00     0.293 HD
ENDBRANCH  41  44
BRANCH  43  46
ATOM     46  O   UNL     1      50.504   2.031  77.656  1.00  0.00    -0.504 OA
ATOM     47  H   UNL     1      50.079   1.463  78.379  1.00  0.00     0.293 HD
ENDBRANCH  43  46
ENDBRANCH  28  38
BRANCH  34  48
ATOM     48  O   UNL     1      59.304   7.473  80.812  1.00  0.00    -0.507 OA
ATOM     49  H   UNL     1      59.350   8.296  81.392  1.00  0.00     0.293 HD
ENDBRANCH  34  48
BRANCH  37  50
ATOM     50  O   UNL     1      58.848   9.030  76.301  1.00  0.00    -0.508 OA
ATOM     51  H   UNL     1      58.852  10.040  76.380  1.00  0.00     0.293 HD
ENDBRANCH  37  50
ENDBRANCH  26  27
ENDBRANCH   5  26
BRANCH   4  52
ATOM     52  O   UNL     1      55.500   2.116  84.125  1.00  0.00    -0.384 OA
ATOM     53  H   UNL     1      55.445   2.928  84.693  1.00  0.00     0.211 HD
ENDBRANCH   4  52
TORSDOF 16
ENDMDL
MODEL 7
REMARK VINA RESULT:    -5.963      2.242      5.081
REMARK INTER + INTRA:         -12.323
REMARK INTER:                  -9.862
REMARK INTRA:                  -2.461
REMARK UNBOUND:                -2.525
REMARK SMILES C[C@@H]1O[C@H](OC[C@@H]2O[C@H](Oc3c(-c4ccc(O)c(O)c4)oc4cc(O)cc(O)c4c3=O)[C@@H](O)[C@@H](O)[C@@H]2O)[C@H](O)[C@@H](O)[C@@H]1O
REMARK SMILES IDX 7 1 36 2 34 3 32 4 9 5 8 6 6 7 5 8 4 9 1 10 2 11 42 12 3 13
REMARK SMILES IDX 40 14 38 15 43 16 41 18 39 20 37 22 35 24 10 26 11 27 12 28
REMARK SMILES IDX 30 29 21 30 29 31 31 32 22 33 27 34 23 35 26 36 24 37 13 38
REMARK SMILES IDX 20 39 14 40 18 41 15 42 16 43 19 44 17 46 28 48 25 50 33 52
REMARK H PARENT 43 17 41 19 39 21 37 23 35 25 19 45 17 47 28 49 25 51 33 53
REMARK Flexibility Score: inf
ROOT
ATOM      1  C   UNL     1      54.618   7.637  83.803  1.00  0.00     0.180 C 
ATOM      2  C   UNL     1      55.388   8.980  83.640  1.00  0.00     0.177 C 
ATOM      3  C   UNL     1      55.323   9.491  82.194  1.00  0.00     0.180 C 
ATOM      4  C   UNL     1      53.881   9.464  81.667  1.00  0.00     0.214 C 
ATOM      5  C   UNL     1      53.264   8.071  81.877  1.00  0.00     0.339 C 
ATOM      6  O   UNL     1      53.311   7.668  83.239  1.00  0.00    -0.332 OA
ENDROOT
BRANCH   1   7
ATOM      7  C   UNL     1      55.392   6.383  83.352  1.00  0.00     0.198 C 
BRANCH   7   8
ATOM      8  O   UNL     1      56.354   6.720  82.374  1.00  0.00    -0.347 OA
BRANCH   8   9
ATOM      9  C   UNL     1      57.640   6.219  82.720  1.00  0.00     0.281 C 
ATOM     10  C   UNL     1      56.222   4.430  80.586  1.00  0.00     0.041 C 
ATOM     11  C   UNL     1      57.649   4.414  81.148  1.00  0.00     0.150 C 
ATOM     12  C   UNL     1      58.687   5.136  80.249  1.00  0.00     0.174 C 
ATOM     13  O   UNL     1      57.701   4.813  82.515  1.00  0.00    -0.344 OA
ATOM     14  C   UNL     1      58.617   6.652  80.440  1.00  0.00     0.179 C 
ATOM     15  C   UNL     1      58.734   6.968  81.935  1.00  0.00     0.202 C 
BRANCH  12  16
ATOM     16  O   UNL     1      58.489   4.822  78.893  1.00  0.00    -0.388 OA
ATOM     17  H   UNL     1      59.285   5.156  78.406  1.00  0.00     0.211 HD
ENDBRANCH  12  16
BRANCH  14  18
ATOM     18  O   UNL     1      59.679   7.255  79.744  1.00  0.00    -0.387 OA
ATOM     19  H   UNL     1      60.400   7.419  80.407  1.00  0.00     0.211 HD
ENDBRANCH  14  18
BRANCH  15  20
ATOM     20  O   UNL     1      58.612   8.353  82.137  1.00  0.00    -0.385 OA
ATOM     21  H   UNL     1      58.564   8.766  81.238  1.00  0.00     0.211 HD
ENDBRANCH  15  20
ENDBRANCH   8   9
ENDBRANCH   7   8
ENDBRANCH   1   7
BRANCH   2  22
ATOM     22  O   UNL     1      56.726   8.816  84.034  1.00  0.00    -0.387 OA
ATOM     23  H   UNL     1      56.820   9.213  84.944  1.00  0.00     0.211 HD
ENDBRANCH   2  22
BRANCH   3  24
ATOM     24  O   UNL     1      55.814  10.808  82.140  1.00  0.00    -0.387 OA
ATOM     25  H   UNL     1      56.184  11.024  83.035  1.00  0.00     0.211 HD
ENDBRANCH   3  24
BRANCH   5  26
ATOM     26  O   UNL     1      53.925   7.143  81.010  1.00  0.00    -0.454 OA
BRANCH  26  27
ATOM     27  C   UNL     1      53.320   6.224  80.131  1.00  0.00     0.214 A 
ATOM     28  C   UNL     1      53.642   6.299  78.764  1.00  0.00     0.180 A 
ATOM     29  C   UNL     1      52.400   5.241  80.554  1.00  0.00     0.239 A 
ATOM     30  O   UNL     1      53.056   5.489  77.892  1.00  0.00    -0.452 OA
ATOM     31  C   UNL     1      51.831   4.355  79.602  1.00  0.00     0.111 A 
ATOM     32  O   UNL     1      52.078   5.181  81.766  1.00  0.00    -0.285 OA
ATOM     33  C   UNL     1      52.182   4.554  78.241  1.00  0.00     0.146 A 
ATOM     34  C   UNL     1      50.908   3.312  79.919  1.00  0.00     0.134 A 
ATOM     35  C   UNL     1      51.604   3.775  77.236  1.00  0.00     0.094 A 
ATOM     36  C   UNL     1      50.311   2.581  78.883  1.00  0.00     0.093 A 
ATOM     37  C   UNL     1      50.659   2.802  77.552  1.00  0.00     0.123 A 
BRANCH  28  38
ATOM     38  C   UNL     1      54.575   7.322  78.247  1.00  0.00     0.025 A 
ATOM     39  C   UNL     1      55.906   6.997  77.931  1.00  0.00     0.062 A 
ATOM     40  C   UNL     1      54.137   8.643  78.084  1.00  0.00     0.016 A 
ATOM     41  C   UNL     1      56.816   7.990  77.562  1.00  0.00     0.158 A 
ATOM     42  C   UNL     1      55.033   9.636  77.670  1.00  0.00     0.051 A 
ATOM     43  C   UNL     1      56.380   9.319  77.428  1.00  0.00     0.157 A 
BRANCH  41  44
ATOM     44  O   UNL     1      58.151   7.642  77.344  1.00  0.00    -0.504 OA
ATOM     45  H   UNL     1      58.426   6.687  77.114  1.00  0.00     0.293 HD
ENDBRANCH  41  44
BRANCH  43  46
ATOM     46  O   UNL     1      57.280  10.316  77.052  1.00  0.00    -0.504 OA
ATOM     47  H   UNL     1      57.902  10.749  77.723  1.00  0.00     0.293 HD
ENDBRANCH  43  46
ENDBRANCH  28  38
BRANCH  34  48
ATOM     48  O   UNL     1      50.564   2.932  81.221  1.00  0.00    -0.507 OA
ATOM     49  H   UNL     1      49.648   2.635  81.519  1.00  0.00     0.293 HD
ENDBRANCH  34  48
BRANCH  37  50
ATOM     50  O   UNL     1      50.086   2.045  76.535  1.00  0.00    -0.508 OA
ATOM     51  H   UNL     1      49.203   1.564  76.661  1.00  0.00     0.293 HD
ENDBRANCH  37  50
ENDBRANCH  26  27
ENDBRANCH   5  26
BRANCH   4  52
ATOM     52  O   UNL     1      53.087  10.482  82.238  1.00  0.00    -0.384 OA
ATOM     53  H   UNL     1      53.573  11.342  82.143  1.00  0.00     0.211 HD
ENDBRANCH   4  52
TORSDOF 16
ENDMDL
MODEL 8
REMARK VINA RESULT:    -5.753      1.592      6.441
REMARK INTER + INTRA:         -11.978
REMARK INTER:                  -9.727
REMARK INTRA:                  -2.250
REMARK UNBOUND:                -2.525
REMARK SMILES C[C@@H]1O[C@H](OC[C@@H]2O[C@H](Oc3c(-c4ccc(O)c(O)c4)oc4cc(O)cc(O)c4c3=O)[C@@H](O)[C@@H](O)[C@@H]2O)[C@H](O)[C@@H](O)[C@@H]1O
REMARK SMILES IDX 7 1 36 2 34 3 32 4 9 5 8 6 6 7 5 8 4 9 1 10 2 11 42 12 3 13
REMARK SMILES IDX 40 14 38 15 43 16 41 18 39 20 37 22 35 24 10 26 11 27 12 28
REMARK SMILES IDX 30 29 21 30 29 31 31 32 22 33 27 34 23 35 26 36 24 37 13 38
REMARK SMILES IDX 20 39 14 40 18 41 15 42 16 43 19 44 17 46 28 48 25 50 33 52
REMARK H PARENT 43 17 41 19 39 21 37 23 35 25 19 45 17 47 28 49 25 51 33 53
REMARK Flexibility Score: inf
ROOT
ATOM      1  C   UNL     1      57.183   8.551  77.920  1.00  0.00     0.180 C 
ATOM      2  C   UNL     1      58.646   8.666  78.437  1.00  0.00     0.177 C 
ATOM      3  C   UNL     1      58.870   7.796  79.681  1.00  0.00     0.180 C 
ATOM      4  C   UNL     1      58.336   6.373  79.459  1.00  0.00     0.214 C 
ATOM      5  C   UNL     1      56.878   6.423  78.972  1.00  0.00     0.339 C 
ATOM      6  O   UNL     1      56.736   7.205  77.794  1.00  0.00    -0.332 OA
ENDROOT
BRANCH   1   7
ATOM      7  C   UNL     1      56.154   9.413  78.676  1.00  0.00     0.198 C 
BRANCH   7   8
ATOM      8  O   UNL     1      54.917   9.418  77.994  1.00  0.00    -0.347 OA
BRANCH   8   9
ATOM      9  C   UNL     1      54.524  10.741  77.646  1.00  0.00     0.281 C 
ATOM     10  C   UNL     1      53.621   8.652  75.505  1.00  0.00     0.041 C 
ATOM     11  C   UNL     1      53.304  10.144  75.676  1.00  0.00     0.150 C 
ATOM     12  C   UNL     1      51.946  10.423  76.372  1.00  0.00     0.174 C 
ATOM     13  O   UNL     1      54.394  10.871  76.236  1.00  0.00    -0.344 OA
ATOM     14  C   UNL     1      52.063  10.263  77.888  1.00  0.00     0.179 C 
ATOM     15  C   UNL     1      53.228  11.125  78.387  1.00  0.00     0.202 C 
BRANCH  12  16
ATOM     16  O   UNL     1      50.941   9.568  75.884  1.00  0.00    -0.388 OA
ATOM     17  H   UNL     1      50.081  10.046  76.004  1.00  0.00     0.211 HD
ENDBRANCH  12  16
BRANCH  14  18
ATOM     18  O   UNL     1      50.867  10.687  78.491  1.00  0.00    -0.387 OA
ATOM     19  H   UNL     1      51.052  10.774  79.464  1.00  0.00     0.211 HD
ENDBRANCH  14  18
BRANCH  15  20
ATOM     20  O   UNL     1      53.391  10.945  79.771  1.00  0.00    -0.385 OA
ATOM     21  H   UNL     1      52.909  10.113  80.006  1.00  0.00     0.211 HD
ENDBRANCH  15  20
ENDBRANCH   8   9
ENDBRANCH   7   8
ENDBRANCH   1   7
BRANCH   2  22
ATOM     22  O   UNL     1      58.949  10.007  78.725  1.00  0.00    -0.387 OA
ATOM     23  H   UNL     1      59.862  10.027  79.125  1.00  0.00     0.211 HD
ENDBRANCH   2  22
BRANCH   3  24
ATOM     24  O   UNL     1      60.245   7.736  79.971  1.00  0.00    -0.387 OA
ATOM     25  H   UNL     1      60.596   8.664  79.940  1.00  0.00     0.211 HD
ENDBRANCH   3  24
BRANCH   5  26
ATOM     26  O   UNL     1      56.055   6.896  80.044  1.00  0.00    -0.454 OA
BRANCH  26  27
ATOM     27  C   UNL     1      55.127   6.149  80.796  1.00  0.00     0.214 A 
ATOM     28  C   UNL     1      55.464   5.806  82.118  1.00  0.00     0.180 A 
ATOM     29  C   UNL     1      53.886   5.718  80.283  1.00  0.00     0.239 A 
ATOM     30  O   UNL     1      54.646   5.058  82.845  1.00  0.00    -0.452 OA
ATOM     31  C   UNL     1      53.009   4.963  81.107  1.00  0.00     0.111 A 
ATOM     32  O   UNL     1      53.583   5.988  79.095  1.00  0.00    -0.285 OA
ATOM     33  C   UNL     1      53.471   4.626  82.406  1.00  0.00     0.146 A 
ATOM     34  C   UNL     1      51.723   4.493  80.701  1.00  0.00     0.134 A 
ATOM     35  C   UNL     1      52.702   3.819  83.247  1.00  0.00     0.094 A 
ATOM     36  C   UNL     1      50.998   3.647  81.552  1.00  0.00     0.093 A 
ATOM     37  C   UNL     1      51.476   3.317  82.818  1.00  0.00     0.123 A 
BRANCH  28  38
ATOM     38  C   UNL     1      56.760   6.200  82.709  1.00  0.00     0.025 A 
ATOM     39  C   UNL     1      57.045   7.545  83.004  1.00  0.00     0.062 A 
ATOM     40  C   UNL     1      57.732   5.223  82.967  1.00  0.00     0.016 A 
ATOM     41  C   UNL     1      58.314   7.926  83.446  1.00  0.00     0.158 A 
ATOM     42  C   UNL     1      58.991   5.593  83.454  1.00  0.00     0.051 A 
ATOM     43  C   UNL     1      59.295   6.946  83.675  1.00  0.00     0.157 A 
BRANCH  41  44
ATOM     44  O   UNL     1      58.587   9.281  83.642  1.00  0.00    -0.504 OA
ATOM     45  H   UNL     1      59.465   9.702  83.336  1.00  0.00     0.293 HD
ENDBRANCH  41  44
BRANCH  43  46
ATOM     46  O   UNL     1      60.563   7.317  84.124  1.00  0.00    -0.504 OA
ATOM     47  H   UNL     1      60.903   7.040  85.037  1.00  0.00     0.293 HD
ENDBRANCH  43  46
ENDBRANCH  28  38
BRANCH  34  48
ATOM     48  O   UNL     1      51.098   4.845  79.499  1.00  0.00    -0.507 OA
ATOM     49  H   UNL     1      50.911   4.216  78.734  1.00  0.00     0.293 HD
ENDBRANCH  34  48
BRANCH  37  50
ATOM     50  O   UNL     1      50.731   2.504  83.667  1.00  0.00    -0.508 OA
ATOM     51  H   UNL     1      49.951   2.867  84.203  1.00  0.00     0.293 HD
ENDBRANCH  37  50
ENDBRANCH  26  27
ENDBRANCH   5  26
BRANCH   4  52
ATOM     52  O   UNL     1      59.156   5.628  78.586  1.00  0.00    -0.384 OA
ATOM     53  H   UNL     1      60.084   5.970  78.667  1.00  0.00     0.211 HD
ENDBRANCH   4  52
TORSDOF 16
ENDMDL
