MODEL 1
REMARK VINA RESULT:    -4.198      0.000      0.000
REMARK INTER + INTRA:         -14.098
REMARK INTER:                 -10.579
REMARK INTRA:                  -3.519
REMARK UNBOUND:                -3.519
REMARK SMILES CCCCCCCCCCCCCCCCCCCCCCCCCCCC(=O)[O-]
REMARK SMILES IDX 15 1 16 2 17 3 18 4 19 5 20 6 21 7 22 8 23 9 24 10 25 11
REMARK SMILES IDX 26 12 27 13 28 14 29 15 30 16 14 17 13 18 12 19 11 20 10 21
REMARK SMILES IDX 9 22 8 23 7 24 6 25 5 26 4 27 3 28 2 29 1 30
REMARK H PARENT
REMARK Flexibility Score: inf
ROOT
ATOM      1  C   UNL     1      13.671  11.917  -8.787  1.00  0.00     0.000 C 
ENDROOT
BRANCH   1   2
ATOM      2  C   UNL     1      12.517  11.011  -9.258  1.00  0.00     0.000 C 
BRANCH   2   3
ATOM      3  C   UNL     1      11.142  11.701  -9.365  1.00  0.00     0.000 C 
BRANCH   3   4
ATOM      4  C   UNL     1      10.276  11.568  -8.091  1.00  0.00     0.000 C 
BRANCH   4   5
ATOM      5  C   UNL     1       9.090  12.550  -8.048  1.00  0.00     0.000 C 
BRANCH   5   6
ATOM      6  C   UNL     1       8.969  13.420  -9.318  1.00  0.00     0.000 C 
BRANCH   6   7
ATOM      7  C   UNL     1       7.995  14.606  -9.179  1.00  0.00     0.000 C 
BRANCH   7   8
ATOM      8  C   UNL     1       6.965  14.708 -10.323  1.00  0.00     0.000 C 
BRANCH   8   9
ATOM      9  C   UNL     1       5.522  14.846  -9.804  1.00  0.00     0.000 C 
BRANCH   9  10
ATOM     10  C   UNL     1       5.284  14.066  -8.501  1.00  0.00     0.000 C 
BRANCH  10  11
ATOM     11  C   UNL     1       4.486  14.878  -7.466  1.00  0.00     0.000 C 
BRANCH  11  12
ATOM     12  C   UNL     1       4.731  16.391  -7.592  1.00  0.00     0.006 C 
BRANCH  12  13
ATOM     13  C   UNL     1       4.659  17.114  -6.242  1.00  0.00     0.053 C 
BRANCH  13  14
ATOM     14  C   UNL     1       6.023  17.545  -5.807  1.00  0.00     0.041 C 
ATOM     15  O   UNL     1       6.157  18.385  -4.879  1.00  0.00    -0.550 OA
ATOM     16  O   UNL     1       7.149  17.048  -6.454  1.00  0.00    -0.550 OA
ENDBRANCH  13  14
ENDBRANCH  12  13
ENDBRANCH  11  12
ENDBRANCH  10  11
ENDBRANCH   9  10
ENDBRANCH   8   9
ENDBRANCH   7   8
ENDBRANCH   6   7
ENDBRANCH   5   6
ENDBRANCH   4   5
ENDBRANCH   3   4
ENDBRANCH   2   3
ENDBRANCH   1   2
BRANCH   1  17
ATOM     17  C   UNL     1      14.090  11.733  -7.316  1.00  0.00     0.000 C 
BRANCH  17  18
ATOM     18  C   UNL     1      13.633  12.889  -6.410  1.00  0.00     0.000 C 
BRANCH  18  19
ATOM     19  C   UNL     1      12.842  12.401  -5.183  1.00  0.00     0.000 C 
BRANCH  19  20
ATOM     20  C   UNL     1      12.553  10.888  -5.150  1.00  0.00     0.000 C 
BRANCH  20  21
ATOM     21  C   UNL     1      11.237  10.488  -4.458  1.00  0.00     0.000 C 
BRANCH  21  22
ATOM     22  C   UNL     1      10.676  11.602  -3.558  1.00  0.00    -0.000 C 
BRANCH  22  23
ATOM     23  C   UNL     1      10.513  11.165  -2.090  1.00  0.00    -0.000 C 
BRANCH  23  24
ATOM     24  C   UNL     1      11.191  12.082  -1.052  1.00  0.00    -0.000 C 
BRANCH  24  25
ATOM     25  C   UNL     1      12.474  12.745  -1.582  1.00  0.00    -0.000 C 
BRANCH  25  26
ATOM     26  C   UNL     1      13.751  12.053  -1.076  1.00  0.00    -0.000 C 
BRANCH  26  27
ATOM     27  C   UNL     1      14.835  11.944  -2.160  1.00  0.00    -0.000 C 
BRANCH  27  28
ATOM     28  C   UNL     1      15.630  13.253  -2.272  1.00  0.00    -0.000 C 
BRANCH  28  29
ATOM     29  C   UNL     1      16.542  13.287  -3.507  1.00  0.00    -0.003 C 
ATOM     30  C   UNL     1      16.561  11.960  -4.266  1.00  0.00     0.004 C 
ENDBRANCH  28  29
ENDBRANCH  27  28
ENDBRANCH  26  27
ENDBRANCH  25  26
ENDBRANCH  24  25
ENDBRANCH  23  24
ENDBRANCH  22  23
ENDBRANCH  21  22
ENDBRANCH  20  21
ENDBRANCH  19  20
ENDBRANCH  18  19
ENDBRANCH  17  18
ENDBRANCH   1  17
TORSDOF 26
ENDMDL
MODEL 2
REMARK VINA RESULT:    -4.188      1.684      3.177
REMARK INTER + INTRA:         -14.073
REMARK INTER:                  -9.874
REMARK INTRA:                  -4.199
REMARK UNBOUND:                -3.519
REMARK SMILES CCCCCCCCCCCCCCCCCCCCCCCCCCCC(=O)[O-]
REMARK SMILES IDX 15 1 16 2 17 3 18 4 19 5 20 6 21 7 22 8 23 9 24 10 25 11
REMARK SMILES IDX 26 12 27 13 28 14 29 15 30 16 14 17 13 18 12 19 11 20 10 21
REMARK SMILES IDX 9 22 8 23 7 24 6 25 5 26 4 27 3 28 2 29 1 30
REMARK H PARENT
REMARK Flexibility Score: inf
ROOT
ATOM      1  C   UNL     1       9.523  11.088  -5.833  1.00  0.00     0.000 C 
ENDROOT
BRANCH   1   2
ATOM      2  C   UNL     1       8.210  10.838  -6.601  1.00  0.00     0.000 C 
BRANCH   2   3
ATOM      3  C   UNL     1       7.767  11.984  -7.532  1.00  0.00     0.000 C 
BRANCH   3   4
ATOM      4  C   UNL     1       7.566  11.552  -9.003  1.00  0.00     0.000 C 
BRANCH   4   5
ATOM      5  C   UNL     1       8.673  12.054  -9.949  1.00  0.00     0.000 C 
BRANCH   5   6
ATOM      6  C   UNL     1       9.273  13.411  -9.522  1.00  0.00     0.000 C 
BRANCH   6   7
ATOM      7  C   UNL     1       8.777  14.609 -10.355  1.00  0.00     0.000 C 
BRANCH   7   8
ATOM      8  C   UNL     1       7.485  15.256  -9.816  1.00  0.00     0.000 C 
BRANCH   8   9
ATOM      9  C   UNL     1       6.253  14.909 -10.671  1.00  0.00     0.000 C 
BRANCH   9  10
ATOM     10  C   UNL     1       4.958  14.843  -9.845  1.00  0.00     0.000 C 
BRANCH  10  11
ATOM     11  C   UNL     1       5.220  14.509  -8.366  1.00  0.00     0.000 C 
BRANCH  11  12
ATOM     12  C   UNL     1       4.603  15.545  -7.412  1.00  0.00     0.006 C 
BRANCH  12  13
ATOM     13  C   UNL     1       5.663  16.327  -6.626  1.00  0.00     0.053 C 
BRANCH  13  14
ATOM     14  C   UNL     1       5.569  17.787  -6.933  1.00  0.00     0.041 C 
ATOM     15  O   UNL     1       6.375  18.598  -6.408  1.00  0.00    -0.550 OA
ATOM     16  O   UNL     1       4.563  18.259  -7.769  1.00  0.00    -0.550 OA
ENDBRANCH  13  14
ENDBRANCH  12  13
ENDBRANCH  11  12
ENDBRANCH  10  11
ENDBRANCH   9  10
ENDBRANCH   8   9
ENDBRANCH   7   8
ENDBRANCH   6   7
ENDBRANCH   5   6
ENDBRANCH   4   5
ENDBRANCH   3   4
ENDBRANCH   2   3
ENDBRANCH   1   2
BRANCH   1  17
ATOM     17  C   UNL     1      10.716  11.534  -6.700  1.00  0.00     0.000 C 
BRANCH  17  18
ATOM     18  C   UNL     1      11.234  10.424  -7.629  1.00  0.00     0.000 C 
BRANCH  18  19
ATOM     19  C   UNL     1      12.203  10.954  -8.701  1.00  0.00     0.000 C 
BRANCH  19  20
ATOM     20  C   UNL     1      12.877  12.299  -8.367  1.00  0.00     0.000 C 
BRANCH  20  21
ATOM     21  C   UNL     1      14.416  12.274  -8.351  1.00  0.00     0.000 C 
BRANCH  21  22
ATOM     22  C   UNL     1      15.000  12.472  -6.941  1.00  0.00    -0.000 C 
BRANCH  22  23
ATOM     23  C   UNL     1      13.976  13.041  -5.940  1.00  0.00    -0.000 C 
BRANCH  23  24
ATOM     24  C   UNL     1      13.733  12.177  -4.687  1.00  0.00    -0.000 C 
BRANCH  24  25
ATOM     25  C   UNL     1      14.019  12.927  -3.374  1.00  0.00    -0.000 C 
BRANCH  25  26
ATOM     26  C   UNL     1      15.157  13.952  -3.513  1.00  0.00    -0.000 C 
BRANCH  26  27
ATOM     27  C   UNL     1      16.473  13.465  -2.888  1.00  0.00    -0.000 C 
BRANCH  27  28
ATOM     28  C   UNL     1      17.300  12.667  -3.907  1.00  0.00    -0.000 C 
BRANCH  28  29
ATOM     29  C   UNL     1      17.336  11.164  -3.592  1.00  0.00    -0.003 C 
ATOM     30  C   UNL     1      17.149  10.294  -4.835  1.00  0.00     0.004 C 
ENDBRANCH  28  29
ENDBRANCH  27  28
ENDBRANCH  26  27
ENDBRANCH  25  26
ENDBRANCH  24  25
ENDBRANCH  23  24
ENDBRANCH  22  23
ENDBRANCH  21  22
ENDBRANCH  20  21
ENDBRANCH  19  20
ENDBRANCH  18  19
ENDBRANCH  17  18
ENDBRANCH   1  17
TORSDOF 26
ENDMDL
MODEL 3
REMARK VINA RESULT:    -4.055      2.965      9.103
REMARK INTER + INTRA:         -13.739
REMARK INTER:                 -10.036
REMARK INTRA:                  -3.703
REMARK UNBOUND:                -3.519
REMARK SMILES CCCCCCCCCCCCCCCCCCCCCCCCCCCC(=O)[O-]
REMARK SMILES IDX 15 1 16 2 17 3 18 4 19 5 20 6 21 7 22 8 23 9 24 10 25 11
REMARK SMILES IDX 26 12 27 13 28 14 29 15 30 16 14 17 13 18 12 19 11 20 10 21
REMARK SMILES IDX 9 22 8 23 7 24 6 25 5 26 4 27 3 28 2 29 1 30
REMARK H PARENT
REMARK Flexibility Score: inf
ROOT
ATOM      1  C   UNL     1      10.252   9.466  -6.280  1.00  0.00     0.000 C 
ENDROOT
BRANCH   1   2
ATOM      2  C   UNL     1      10.525  10.634  -5.312  1.00  0.00     0.000 C 
BRANCH   2   3
ATOM      3  C   UNL     1      11.696  11.554  -5.707  1.00  0.00     0.000 C 
BRANCH   3   4
ATOM      4  C   UNL     1      12.383  11.155  -7.034  1.00  0.00     0.000 C 
BRANCH   4   5
ATOM      5  C   UNL     1      12.627  12.344  -7.983  1.00  0.00     0.000 C 
BRANCH   5   6
ATOM      6  C   UNL     1      13.682  12.051  -9.071  1.00  0.00     0.000 C 
BRANCH   6   7
ATOM      7  C   UNL     1      14.985  11.428  -8.533  1.00  0.00     0.000 C 
BRANCH   7   8
ATOM      8  C   UNL     1      16.116  12.449  -8.292  1.00  0.00     0.000 C 
BRANCH   8   9
ATOM      9  C   UNL     1      16.407  12.661  -6.795  1.00  0.00     0.000 C 
BRANCH   9  10
ATOM     10  C   UNL     1      16.104  11.412  -5.951  1.00  0.00     0.000 C 
BRANCH  10  11
ATOM     11  C   UNL     1      15.315  11.744  -4.672  1.00  0.00     0.000 C 
BRANCH  11  12
ATOM     12  C   UNL     1      14.793  13.190  -4.664  1.00  0.00     0.006 C 
BRANCH  12  13
ATOM     13  C   UNL     1      15.308  13.996  -3.465  1.00  0.00     0.053 C 
BRANCH  13  14
ATOM     14  C   UNL     1      14.926  13.326  -2.184  1.00  0.00     0.041 C 
ATOM     15  O   UNL     1      13.729  13.338  -1.795  1.00  0.00    -0.550 OA
ATOM     16  O   UNL     1      15.900  12.723  -1.397  1.00  0.00    -0.550 OA
ENDBRANCH  13  14
ENDBRANCH  12  13
ENDBRANCH  11  12
ENDBRANCH  10  11
ENDBRANCH   9  10
ENDBRANCH   8   9
ENDBRANCH   7   8
ENDBRANCH   6   7
ENDBRANCH   5   6
ENDBRANCH   4   5
ENDBRANCH   3   4
ENDBRANCH   2   3
ENDBRANCH   1   2
BRANCH   1  17
ATOM     17  C   UNL     1       9.017   9.639  -7.185  1.00  0.00     0.000 C 
BRANCH  17  18
ATOM     18  C   UNL     1       7.984  10.624  -6.613  1.00  0.00     0.000 C 
BRANCH  18  19
ATOM     19  C   UNL     1       7.819  11.881  -7.486  1.00  0.00     0.000 C 
BRANCH  19  20
ATOM     20  C   UNL     1       8.932  12.105  -8.529  1.00  0.00     0.000 C 
BRANCH  20  21
ATOM     21  C   UNL     1       9.062  13.548  -9.047  1.00  0.00     0.000 C 
BRANCH  21  22
ATOM     22  C   UNL     1       8.743  13.674 -10.546  1.00  0.00    -0.000 C 
BRANCH  22  23
ATOM     23  C   UNL     1       7.232  13.751 -10.836  1.00  0.00    -0.000 C 
BRANCH  23  24
ATOM     24  C   UNL     1       6.412  14.582  -9.830  1.00  0.00    -0.000 C 
BRANCH  24  25
ATOM     25  C   UNL     1       5.169  13.840  -9.306  1.00  0.00    -0.000 C 
BRANCH  25  26
ATOM     26  C   UNL     1       4.626  14.442  -8.001  1.00  0.00    -0.000 C 
BRANCH  26  27
ATOM     27  C   UNL     1       5.477  15.615  -7.489  1.00  0.00    -0.000 C 
BRANCH  27  28
ATOM     28  C   UNL     1       4.588  16.727  -6.914  1.00  0.00    -0.000 C 
BRANCH  28  29
ATOM     29  C   UNL     1       5.379  17.995  -6.562  1.00  0.00    -0.003 C 
ATOM     30  C   UNL     1       5.816  18.034  -5.098  1.00  0.00     0.004 C 
ENDBRANCH  28  29
ENDBRANCH  27  28
ENDBRANCH  26  27
ENDBRANCH  25  26
ENDBRANCH  24  25
ENDBRANCH  23  24
ENDBRANCH  22  23
ENDBRANCH  21  22
ENDBRANCH  20  21
ENDBRANCH  19  20
ENDBRANCH  18  19
ENDBRANCH  17  18
ENDBRANCH   1  17
TORSDOF 26
ENDMDL
MODEL 4
REMARK VINA RESULT:    -4.049      3.352      9.402
REMARK INTER + INTRA:         -13.723
REMARK INTER:                 -10.403
REMARK INTRA:                  -3.319
REMARK UNBOUND:                -3.519
REMARK SMILES CCCCCCCCCCCCCCCCCCCCCCCCCCCC(=O)[O-]
REMARK SMILES IDX 15 1 16 2 17 3 18 4 19 5 20 6 21 7 22 8 23 9 24 10 25 11
REMARK SMILES IDX 26 12 27 13 28 14 29 15 30 16 14 17 13 18 12 19 11 20 10 21
REMARK SMILES IDX 9 22 8 23 7 24 6 25 5 26 4 27 3 28 2 29 1 30
REMARK H PARENT
REMARK Flexibility Score: inf
ROOT
ATOM      1  C   UNL     1      13.305  10.978  -5.112  1.00  0.00     0.000 C 
ENDROOT
BRANCH   1   2
ATOM      2  C   UNL     1      12.315  12.119  -4.808  1.00  0.00     0.000 C 
BRANCH   2   3
ATOM      3  C   UNL     1      10.838  11.693  -4.695  1.00  0.00     0.000 C 
BRANCH   3   4
ATOM      4  C   UNL     1      10.580  10.615  -3.617  1.00  0.00     0.000 C 
BRANCH   4   5
ATOM      5  C   UNL     1      10.124  11.194  -2.264  1.00  0.00     0.000 C 
BRANCH   5   6
ATOM      6  C   UNL     1      11.296  11.618  -1.354  1.00  0.00     0.000 C 
BRANCH   6   7
ATOM      7  C   UNL     1      12.451  10.599  -1.299  1.00  0.00     0.000 C 
BRANCH   7   8
ATOM      8  C   UNL     1      13.849  11.225  -1.480  1.00  0.00     0.000 C 
BRANCH   8   9
ATOM      9  C   UNL     1      13.816  12.763  -1.421  1.00  0.00     0.000 C 
BRANCH   9  10
ATOM     10  C   UNL     1      14.832  13.414  -2.374  1.00  0.00     0.000 C 
BRANCH  10  11
ATOM     11  C   UNL     1      16.288  13.099  -1.986  1.00  0.00     0.000 C 
BRANCH  11  12
ATOM     12  C   UNL     1      17.278  13.413  -3.120  1.00  0.00     0.006 C 
BRANCH  12  13
ATOM     13  C   UNL     1      16.993  12.602  -4.391  1.00  0.00     0.053 C 
BRANCH  13  14
ATOM     14  C   UNL     1      17.815  13.114  -5.531  1.00  0.00     0.041 C 
ATOM     15  O   UNL     1      18.700  13.987  -5.333  1.00  0.00    -0.550 OA
ATOM     16  O   UNL     1      17.577  12.654  -6.821  1.00  0.00    -0.550 OA
ENDBRANCH  13  14
ENDBRANCH  12  13
ENDBRANCH  11  12
ENDBRANCH  10  11
ENDBRANCH   9  10
ENDBRANCH   8   9
ENDBRANCH   7   8
ENDBRANCH   6   7
ENDBRANCH   5   6
ENDBRANCH   4   5
ENDBRANCH   3   4
ENDBRANCH   2   3
ENDBRANCH   1   2
BRANCH   1  17
ATOM     17  C   UNL     1      14.418  11.327  -6.119  1.00  0.00     0.000 C 
BRANCH  17  18
ATOM     18  C   UNL     1      14.065  12.524  -7.017  1.00  0.00     0.000 C 
BRANCH  18  19
ATOM     19  C   UNL     1      14.067  12.161  -8.514  1.00  0.00     0.000 C 
BRANCH  19  20
ATOM     20  C   UNL     1      12.682  12.167  -9.190  1.00  0.00     0.000 C 
BRANCH  20  21
ATOM     21  C   UNL     1      11.626  11.266  -8.526  1.00  0.00     0.000 C 
BRANCH  21  22
ATOM     22  C   UNL     1      10.345  12.030  -8.149  1.00  0.00    -0.000 C 
BRANCH  22  23
ATOM     23  C   UNL     1       9.436  12.316  -9.360  1.00  0.00    -0.000 C 
BRANCH  23  24
ATOM     24  C   UNL     1       9.183  13.808  -9.654  1.00  0.00    -0.000 C 
BRANCH  24  25
ATOM     25  C   UNL     1       7.977  14.377  -8.886  1.00  0.00    -0.000 C 
BRANCH  25  26
ATOM     26  C   UNL     1       7.678  15.840  -9.253  1.00  0.00    -0.000 C 
BRANCH  26  27
ATOM     27  C   UNL     1       7.804  16.790  -8.052  1.00  0.00    -0.000 C 
BRANCH  27  28
ATOM     28  C   UNL     1       6.711  16.504  -7.011  1.00  0.00    -0.000 C 
BRANCH  28  29
ATOM     29  C   UNL     1       5.317  16.944  -7.482  1.00  0.00    -0.003 C 
ATOM     30  C   UNL     1       4.307  17.036  -6.338  1.00  0.00     0.004 C 
ENDBRANCH  28  29
ENDBRANCH  27  28
ENDBRANCH  26  27
ENDBRANCH  25  26
ENDBRANCH  24  25
ENDBRANCH  23  24
ENDBRANCH  22  23
ENDBRANCH  21  22
ENDBRANCH  20  21
ENDBRANCH  19  20
ENDBRANCH  18  19
ENDBRANCH  17  18
ENDBRANCH   1  17
TORSDOF 26
ENDMDL
MODEL 5
REMARK VINA RESULT:    -3.974      3.668     10.089
REMARK INTER + INTRA:         -13.534
REMARK INTER:                 -10.683
REMARK INTRA:                  -2.851
REMARK UNBOUND:                -3.519
REMARK SMILES CCCCCCCCCCCCCCCCCCCCCCCCCCCC(=O)[O-]
REMARK SMILES IDX 15 1 16 2 17 3 18 4 19 5 20 6 21 7 22 8 23 9 24 10 25 11
REMARK SMILES IDX 26 12 27 13 28 14 29 15 30 16 14 17 13 18 12 19 11 20 10 21
REMARK SMILES IDX 9 22 8 23 7 24 6 25 5 26 4 27 3 28 2 29 1 30
REMARK H PARENT
REMARK Flexibility Score: inf
ROOT
ATOM      1  C   UNL     1      11.308  11.479  -3.503  1.00  0.00     0.000 C 
ENDROOT
BRANCH   1   2
ATOM      2  C   UNL     1      12.474  10.471  -3.480  1.00  0.00     0.000 C 
BRANCH   2   3
ATOM      3  C   UNL     1      13.874  11.083  -3.684  1.00  0.00     0.000 C 
BRANCH   3   4
ATOM      4  C   UNL     1      13.883  12.629  -3.703  1.00  0.00     0.000 C 
BRANCH   4   5
ATOM      5  C   UNL     1      14.540  13.226  -4.963  1.00  0.00     0.000 C 
BRANCH   5   6
ATOM      6  C   UNL     1      13.723  12.984  -6.250  1.00  0.00     0.000 C 
BRANCH   6   7
ATOM      7  C   UNL     1      14.526  12.328  -7.391  1.00  0.00     0.000 C 
BRANCH   7   8
ATOM      8  C   UNL     1      15.872  11.723  -6.943  1.00  0.00     0.000 C 
BRANCH   8   9
ATOM      9  C   UNL     1      17.073  12.599  -7.343  1.00  0.00     0.000 C 
BRANCH   9  10
ATOM     10  C   UNL     1      18.406  12.060  -6.798  1.00  0.00     0.000 C 
BRANCH  10  11
ATOM     11  C   UNL     1      19.080  13.039  -5.820  1.00  0.00     0.000 C 
BRANCH  11  12
ATOM     12  C   UNL     1      18.111  13.553  -4.743  1.00  0.00     0.006 C 
BRANCH  12  13
ATOM     13  C   UNL     1      17.983  12.588  -3.557  1.00  0.00     0.053 C 
BRANCH  13  14
ATOM     14  C   UNL     1      18.411  13.258  -2.290  1.00  0.00     0.041 C 
ATOM     15  O   UNL     1      19.632  13.350  -2.003  1.00  0.00    -0.550 OA
ATOM     16  O   UNL     1      17.456  13.747  -1.406  1.00  0.00    -0.550 OA
ENDBRANCH  13  14
ENDBRANCH  12  13
ENDBRANCH  11  12
ENDBRANCH  10  11
ENDBRANCH   9  10
ENDBRANCH   8   9
ENDBRANCH   7   8
ENDBRANCH   6   7
ENDBRANCH   5   6
ENDBRANCH   4   5
ENDBRANCH   3   4
ENDBRANCH   2   3
ENDBRANCH   1   2
BRANCH   1  17
ATOM     17  C   UNL     1      10.146  11.116  -4.448  1.00  0.00     0.000 C 
BRANCH  17  18
ATOM     18  C   UNL     1      10.418  11.501  -5.912  1.00  0.00     0.000 C 
BRANCH  18  19
ATOM     19  C   UNL     1       9.123  11.700  -6.721  1.00  0.00     0.000 C 
BRANCH  19  20
ATOM     20  C   UNL     1       9.314  12.308  -8.124  1.00  0.00     0.000 C 
BRANCH  20  21
ATOM     21  C   UNL     1       8.177  13.229  -8.599  1.00  0.00     0.000 C 
BRANCH  21  22
ATOM     22  C   UNL     1       8.676  14.380  -9.489  1.00  0.00    -0.000 C 
BRANCH  22  23
ATOM     23  C   UNL     1       7.538  15.097 -10.241  1.00  0.00    -0.000 C 
BRANCH  23  24
ATOM     24  C   UNL     1       6.251  14.269 -10.428  1.00  0.00    -0.000 C 
BRANCH  24  25
ATOM     25  C   UNL     1       5.003  14.957  -9.846  1.00  0.00    -0.000 C 
BRANCH  25  26
ATOM     26  C   UNL     1       4.499  14.280  -8.561  1.00  0.00    -0.000 C 
BRANCH  26  27
ATOM     27  C   UNL     1       4.759  15.126  -7.305  1.00  0.00    -0.000 C 
BRANCH  27  28
ATOM     28  C   UNL     1       5.300  16.513  -7.680  1.00  0.00    -0.000 C 
BRANCH  28  29
ATOM     29  C   UNL     1       6.375  17.013  -6.703  1.00  0.00    -0.003 C 
ATOM     30  C   UNL     1       5.825  17.998  -5.672  1.00  0.00     0.004 C 
ENDBRANCH  28  29
ENDBRANCH  27  28
ENDBRANCH  26  27
ENDBRANCH  25  26
ENDBRANCH  24  25
ENDBRANCH  23  24
ENDBRANCH  22  23
ENDBRANCH  21  22
ENDBRANCH  20  21
ENDBRANCH  19  20
ENDBRANCH  18  19
ENDBRANCH  17  18
ENDBRANCH   1  17
TORSDOF 26
ENDMDL
MODEL 6
REMARK VINA RESULT:    -3.972      1.695      3.493
REMARK INTER + INTRA:         -13.529
REMARK INTER:                  -9.409
REMARK INTRA:                  -4.120
REMARK UNBOUND:                -3.519
REMARK SMILES CCCCCCCCCCCCCCCCCCCCCCCCCCCC(=O)[O-]
REMARK SMILES IDX 15 1 16 2 17 3 18 4 19 5 20 6 21 7 22 8 23 9 24 10 25 11
REMARK SMILES IDX 26 12 27 13 28 14 29 15 30 16 14 17 13 18 12 19 11 20 10 21
REMARK SMILES IDX 9 22 8 23 7 24 6 25 5 26 4 27 3 28 2 29 1 30
REMARK H PARENT
REMARK Flexibility Score: inf
ROOT
ATOM      1  C   UNL     1      10.462  11.366  -5.607  1.00  0.00     0.000 C 
ENDROOT
BRANCH   1   2
ATOM      2  C   UNL     1       9.044  11.254  -6.201  1.00  0.00     0.000 C 
BRANCH   2   3
ATOM      3  C   UNL     1       8.837  11.984  -7.543  1.00  0.00     0.000 C 
BRANCH   3   4
ATOM      4  C   UNL     1       8.618  11.034  -8.744  1.00  0.00     0.000 C 
BRANCH   4   5
ATOM      5  C   UNL     1       9.351  11.480 -10.023  1.00  0.00     0.000 C 
BRANCH   5   6
ATOM      6  C   UNL     1      10.028  12.861  -9.890  1.00  0.00     0.000 C 
BRANCH   6   7
ATOM      7  C   UNL     1       9.419  13.951 -10.795  1.00  0.00     0.000 C 
BRANCH   7   8
ATOM      8  C   UNL     1       8.447  14.900 -10.064  1.00  0.00     0.000 C 
BRANCH   8   9
ATOM      9  C   UNL     1       6.987  14.417 -10.139  1.00  0.00     0.000 C 
BRANCH   9  10
ATOM     10  C   UNL     1       6.087  15.089  -9.089  1.00  0.00     0.000 C 
BRANCH  10  11
ATOM     11  C   UNL     1       6.736  15.124  -7.694  1.00  0.00     0.000 C 
BRANCH  11  12
ATOM     12  C   UNL     1       7.070  16.555  -7.239  1.00  0.00     0.006 C 
BRANCH  12  13
ATOM     13  C   UNL     1       5.838  17.467  -7.210  1.00  0.00     0.053 C 
BRANCH  13  14
ATOM     14  C   UNL     1       5.332  17.616  -5.810  1.00  0.00     0.041 C 
ATOM     15  O   UNL     1       4.192  17.184  -5.498  1.00  0.00    -0.550 OA
ATOM     16  O   UNL     1       6.105  18.270  -4.858  1.00  0.00    -0.550 OA
ENDBRANCH  13  14
ENDBRANCH  12  13
ENDBRANCH  11  12
ENDBRANCH  10  11
ENDBRANCH   9  10
ENDBRANCH   8   9
ENDBRANCH   7   8
ENDBRANCH   6   7
ENDBRANCH   5   6
ENDBRANCH   4   5
ENDBRANCH   3   4
ENDBRANCH   2   3
ENDBRANCH   1   2
BRANCH   1  17
ATOM     17  C   UNL     1      11.566  11.749  -6.611  1.00  0.00     0.000 C 
BRANCH  17  18
ATOM     18  C   UNL     1      12.218  10.529  -7.284  1.00  0.00     0.000 C 
BRANCH  18  19
ATOM     19  C   UNL     1      12.817  10.864  -8.662  1.00  0.00     0.000 C 
BRANCH  19  20
ATOM     20  C   UNL     1      13.521  12.232  -8.755  1.00  0.00     0.000 C 
BRANCH  20  21
ATOM     21  C   UNL     1      15.057  12.184  -8.683  1.00  0.00     0.000 C 
BRANCH  21  22
ATOM     22  C   UNL     1      15.592  12.350  -7.251  1.00  0.00    -0.000 C 
BRANCH  22  23
ATOM     23  C   UNL     1      15.580  11.036  -6.447  1.00  0.00    -0.000 C 
BRANCH  23  24
ATOM     24  C   UNL     1      16.505  11.012  -5.214  1.00  0.00    -0.000 C 
BRANCH  24  25
ATOM     25  C   UNL     1      15.864  10.328  -3.993  1.00  0.00    -0.000 C 
BRANCH  25  26
ATOM     26  C   UNL     1      14.343  10.160  -4.139  1.00  0.00    -0.000 C 
BRANCH  26  27
ATOM     27  C   UNL     1      13.554  10.978  -3.105  1.00  0.00    -0.000 C 
BRANCH  27  28
ATOM     28  C   UNL     1      13.521  12.464  -3.493  1.00  0.00    -0.000 C 
BRANCH  28  29
ATOM     29  C   UNL     1      14.420  13.329  -2.596  1.00  0.00    -0.003 C 
ATOM     30  C   UNL     1      15.533  14.030  -3.374  1.00  0.00     0.004 C 
ENDBRANCH  28  29
ENDBRANCH  27  28
ENDBRANCH  26  27
ENDBRANCH  25  26
ENDBRANCH  24  25
ENDBRANCH  23  24
ENDBRANCH  22  23
ENDBRANCH  21  22
ENDBRANCH  20  21
ENDBRANCH  19  20
ENDBRANCH  18  19
ENDBRANCH  17  18
ENDBRANCH   1  17
TORSDOF 26
ENDMDL
MODEL 7
REMARK VINA RESULT:    -3.926      1.612      4.417
REMARK INTER + INTRA:         -13.413
REMARK INTER:                 -10.039
REMARK INTRA:                  -3.374
REMARK UNBOUND:                -3.519
REMARK SMILES CCCCCCCCCCCCCCCCCCCCCCCCCCCC(=O)[O-]
REMARK SMILES IDX 15 1 16 2 17 3 18 4 19 5 20 6 21 7 22 8 23 9 24 10 25 11
REMARK SMILES IDX 26 12 27 13 28 14 29 15 30 16 14 17 13 18 12 19 11 20 10 21
REMARK SMILES IDX 9 22 8 23 7 24 6 25 5 26 4 27 3 28 2 29 1 30
REMARK H PARENT
REMARK Flexibility Score: inf
ROOT
ATOM      1  C   UNL     1      10.725  11.521  -4.177  1.00  0.00     0.000 C 
ENDROOT
BRANCH   1   2
ATOM      2  C   UNL     1       9.710  10.681  -4.976  1.00  0.00     0.000 C 
BRANCH   2   3
ATOM      3  C   UNL     1       9.419  11.187  -6.403  1.00  0.00     0.000 C 
BRANCH   3   4
ATOM      4  C   UNL     1       9.784  10.174  -7.512  1.00  0.00     0.000 C 
BRANCH   4   5
ATOM      5  C   UNL     1      10.683  10.765  -8.615  1.00  0.00     0.000 C 
BRANCH   5   6
ATOM      6  C   UNL     1      10.508  12.288  -8.794  1.00  0.00     0.000 C 
BRANCH   6   7
ATOM      7  C   UNL     1       9.366  12.683  -9.751  1.00  0.00     0.000 C 
BRANCH   7   8
ATOM      8  C   UNL     1       9.253  14.201  -9.999  1.00  0.00     0.000 C 
BRANCH   8   9
ATOM      9  C   UNL     1       7.879  14.763  -9.590  1.00  0.00     0.000 C 
BRANCH   9  10
ATOM     10  C   UNL     1       7.390  14.207  -8.243  1.00  0.00     0.000 C 
BRANCH  10  11
ATOM     11  C   UNL     1       6.496  15.204  -7.485  1.00  0.00     0.000 C 
BRANCH  11  12
ATOM     12  C   UNL     1       6.760  16.661  -7.899  1.00  0.00     0.006 C 
BRANCH  12  13
ATOM     13  C   UNL     1       5.596  17.595  -7.546  1.00  0.00     0.053 C 
BRANCH  13  14
ATOM     14  C   UNL     1       5.343  17.580  -6.072  1.00  0.00     0.041 C 
ATOM     15  O   UNL     1       4.217  17.241  -5.625  1.00  0.00    -0.550 OA
ATOM     16  O   UNL     1       6.342  17.979  -5.192  1.00  0.00    -0.550 OA
ENDBRANCH  13  14
ENDBRANCH  12  13
ENDBRANCH  11  12
ENDBRANCH  10  11
ENDBRANCH   9  10
ENDBRANCH   8   9
ENDBRANCH   7   8
ENDBRANCH   6   7
ENDBRANCH   5   6
ENDBRANCH   4   5
ENDBRANCH   3   4
ENDBRANCH   2   3
ENDBRANCH   1   2
BRANCH   1  17
ATOM     17  C   UNL     1      12.198  11.101  -4.342  1.00  0.00     0.000 C 
BRANCH  17  18
ATOM     18  C   UNL     1      12.878  11.753  -5.557  1.00  0.00     0.000 C 
BRANCH  18  19
ATOM     19  C   UNL     1      13.736  12.972  -5.171  1.00  0.00     0.000 C 
BRANCH  19  20
ATOM     20  C   UNL     1      14.280  12.959  -3.729  1.00  0.00     0.000 C 
BRANCH  20  21
ATOM     21  C   UNL     1      15.359  14.014  -3.428  1.00  0.00     0.000 C 
BRANCH  21  22
ATOM     22  C   UNL     1      16.724  13.388  -3.090  1.00  0.00    -0.000 C 
BRANCH  22  23
ATOM     23  C   UNL     1      17.609  13.167  -4.331  1.00  0.00    -0.000 C 
BRANCH  23  24
ATOM     24  C   UNL     1      17.617  11.728  -4.883  1.00  0.00    -0.000 C 
BRANCH  24  25
ATOM     25  C   UNL     1      17.681  11.673  -6.420  1.00  0.00    -0.000 C 
BRANCH  25  26
ATOM     26  C   UNL     1      16.742  12.689  -7.089  1.00  0.00    -0.000 C 
BRANCH  26  27
ATOM     27  C   UNL     1      16.357  12.287  -8.521  1.00  0.00    -0.000 C 
BRANCH  27  28
ATOM     28  C   UNL     1      14.832  12.310  -8.704  1.00  0.00    -0.000 C 
BRANCH  28  29
ATOM     29  C   UNL     1      14.272  10.956  -9.167  1.00  0.00    -0.003 C 
ATOM     30  C   UNL     1      14.882   9.774  -8.413  1.00  0.00     0.004 C 
ENDBRANCH  28  29
ENDBRANCH  27  28
ENDBRANCH  26  27
ENDBRANCH  25  26
ENDBRANCH  24  25
ENDBRANCH  23  24
ENDBRANCH  22  23
ENDBRANCH  21  22
ENDBRANCH  20  21
ENDBRANCH  19  20
ENDBRANCH  18  19
ENDBRANCH  17  18
ENDBRANCH   1  17
TORSDOF 26
ENDMDL
MODEL 8
REMARK VINA RESULT:    -3.909      3.639      9.406
REMARK INTER + INTRA:         -13.369
REMARK INTER:                  -9.996
REMARK INTRA:                  -3.373
REMARK UNBOUND:                -3.519
REMARK SMILES CCCCCCCCCCCCCCCCCCCCCCCCCCCC(=O)[O-]
REMARK SMILES IDX 15 1 16 2 17 3 18 4 19 5 20 6 21 7 22 8 23 9 24 10 25 11
REMARK SMILES IDX 26 12 27 13 28 14 29 15 30 16 14 17 13 18 12 19 11 20 10 21
REMARK SMILES IDX 9 22 8 23 7 24 6 25 5 26 4 27 3 28 2 29 1 30
REMARK H PARENT
REMARK Flexibility Score: inf
ROOT
ATOM      1  C   UNL     1      13.130  11.471  -7.990  1.00  0.00     0.000 C 
ENDROOT
BRANCH   1   2
ATOM      2  C   UNL     1      13.270  12.638  -6.994  1.00  0.00     0.000 C 
BRANCH   2   3
ATOM      3  C   UNL     1      14.560  12.629  -6.150  1.00  0.00     0.000 C 
BRANCH   3   4
ATOM      4  C   UNL     1      14.351  12.148  -4.695  1.00  0.00     0.000 C 
BRANCH   4   5
ATOM      5  C   UNL     1      14.128  10.628  -4.576  1.00  0.00     0.000 C 
BRANCH   5   6
ATOM      6  C   UNL     1      12.807  10.257  -3.870  1.00  0.00     0.000 C 
BRANCH   6   7
ATOM      7  C   UNL     1      11.785  11.409  -3.801  1.00  0.00     0.000 C 
BRANCH   7   8
ATOM      8  C   UNL     1      11.321  11.750  -2.370  1.00  0.00     0.000 C 
BRANCH   8   9
ATOM      9  C   UNL     1      12.346  11.326  -1.303  1.00  0.00     0.000 C 
BRANCH   9  10
ATOM     10  C   UNL     1      13.014  12.527  -0.614  1.00  0.00     0.000 C 
BRANCH  10  11
ATOM     11  C   UNL     1      14.403  12.182  -0.047  1.00  0.00     0.000 C 
BRANCH  11  12
ATOM     12  C   UNL     1      15.448  11.959  -1.153  1.00  0.00     0.006 C 
BRANCH  12  13
ATOM     13  C   UNL     1      16.111  13.264  -1.609  1.00  0.00     0.053 C 
BRANCH  13  14
ATOM     14  C   UNL     1      17.490  13.376  -1.039  1.00  0.00     0.041 C 
ATOM     15  O   UNL     1      18.477  13.552  -1.799  1.00  0.00    -0.550 OA
ATOM     16  O   UNL     1      17.689  13.245   0.330  1.00  0.00    -0.550 OA
ENDBRANCH  13  14
ENDBRANCH  12  13
ENDBRANCH  11  12
ENDBRANCH  10  11
ENDBRANCH   9  10
ENDBRANCH   8   9
ENDBRANCH   7   8
ENDBRANCH   6   7
ENDBRANCH   5   6
ENDBRANCH   4   5
ENDBRANCH   3   4
ENDBRANCH   2   3
ENDBRANCH   1   2
BRANCH   1  17
ATOM     17  C   UNL     1      11.682  11.070  -8.332  1.00  0.00     0.000 C 
BRANCH  17  18
ATOM     18  C   UNL     1      11.116   9.996  -7.389  1.00  0.00     0.000 C 
BRANCH  18  19
ATOM     19  C   UNL     1       9.920  10.504  -6.564  1.00  0.00     0.000 C 
BRANCH  19  20
ATOM     20  C   UNL     1       9.340  11.859  -7.017  1.00  0.00     0.000 C 
BRANCH  20  21
ATOM     21  C   UNL     1       8.033  11.773  -7.825  1.00  0.00     0.000 C 
BRANCH  21  22
ATOM     22  C   UNL     1       8.214  12.192  -9.294  1.00  0.00    -0.000 C 
BRANCH  22  23
ATOM     23  C   UNL     1       8.756  13.626  -9.450  1.00  0.00    -0.000 C 
BRANCH  23  24
ATOM     24  C   UNL     1       7.682  14.729  -9.524  1.00  0.00    -0.000 C 
BRANCH  24  25
ATOM     25  C   UNL     1       8.226  16.124  -9.169  1.00  0.00    -0.000 C 
BRANCH  25  26
ATOM     26  C   UNL     1       7.561  16.719  -7.918  1.00  0.00    -0.000 C 
BRANCH  26  27
ATOM     27  C   UNL     1       6.356  15.895  -7.438  1.00  0.00    -0.000 C 
BRANCH  27  28
ATOM     28  C   UNL     1       5.042  16.651  -7.687  1.00  0.00    -0.000 C 
BRANCH  28  29
ATOM     29  C   UNL     1       4.347  17.074  -6.385  1.00  0.00    -0.003 C 
ATOM     30  C   UNL     1       5.268  17.857  -5.449  1.00  0.00     0.004 C 
ENDBRANCH  28  29
ENDBRANCH  27  28
ENDBRANCH  26  27
ENDBRANCH  25  26
ENDBRANCH  24  25
ENDBRANCH  23  24
ENDBRANCH  22  23
ENDBRANCH  21  22
ENDBRANCH  20  21
ENDBRANCH  19  20
ENDBRANCH  18  19
ENDBRANCH  17  18
ENDBRANCH   1  17
TORSDOF 26
ENDMDL
MODEL 9
REMARK VINA RESULT:    -3.902      2.932      9.411
REMARK INTER + INTRA:         -13.352
REMARK INTER:                  -9.971
REMARK INTRA:                  -3.381
REMARK UNBOUND:                -3.519
REMARK SMILES CCCCCCCCCCCCCCCCCCCCCCCCCCCC(=O)[O-]
REMARK SMILES IDX 15 1 16 2 17 3 18 4 19 5 20 6 21 7 22 8 23 9 24 10 25 11
REMARK SMILES IDX 26 12 27 13 28 14 29 15 30 16 14 17 13 18 12 19 11 20 10 21
REMARK SMILES IDX 9 22 8 23 7 24 6 25 5 26 4 27 3 28 2 29 1 30
REMARK H PARENT
REMARK Flexibility Score: inf
ROOT
ATOM      1  C   UNL     1      12.632  11.245  -5.991  1.00  0.00     0.000 C 
ENDROOT
BRANCH   1   2
ATOM      2  C   UNL     1      13.118  12.617  -6.498  1.00  0.00     0.000 C 
BRANCH   2   3
ATOM      3  C   UNL     1      14.499  12.612  -7.181  1.00  0.00     0.000 C 
BRANCH   3   4
ATOM      4  C   UNL     1      15.344  11.353  -6.875  1.00  0.00     0.000 C 
BRANCH   4   5
ATOM      5  C   UNL     1      16.654  11.280  -7.681  1.00  0.00     0.000 C 
BRANCH   5   6
ATOM      6  C   UNL     1      17.395  12.631  -7.767  1.00  0.00     0.000 C 
BRANCH   6   7
ATOM      7  C   UNL     1      18.906  12.541  -7.472  1.00  0.00     0.000 C 
BRANCH   7   8
ATOM      8  C   UNL     1      19.242  12.328  -5.982  1.00  0.00     0.000 C 
BRANCH   8   9
ATOM      9  C   UNL     1      18.429  13.253  -5.058  1.00  0.00     0.000 C 
BRANCH   9  10
ATOM     10  C   UNL     1      17.507  12.476  -4.104  1.00  0.00     0.000 C 
BRANCH  10  11
ATOM     11  C   UNL     1      16.182  13.212  -3.837  1.00  0.00     0.000 C 
BRANCH  11  12
ATOM     12  C   UNL     1      15.160  12.330  -3.101  1.00  0.00     0.006 C 
BRANCH  12  13
ATOM     13  C   UNL     1      13.823  13.045  -2.870  1.00  0.00     0.053 C 
BRANCH  13  14
ATOM     14  C   UNL     1      13.272  12.698  -1.523  1.00  0.00     0.041 C 
ATOM     15  O   UNL     1      12.085  12.294  -1.409  1.00  0.00    -0.550 OA
ATOM     16  O   UNL     1      14.057  12.859  -0.388  1.00  0.00    -0.550 OA
ENDBRANCH  13  14
ENDBRANCH  12  13
ENDBRANCH  11  12
ENDBRANCH  10  11
ENDBRANCH   9  10
ENDBRANCH   8   9
ENDBRANCH   7   8
ENDBRANCH   6   7
ENDBRANCH   5   6
ENDBRANCH   4   5
ENDBRANCH   3   4
ENDBRANCH   2   3
ENDBRANCH   1   2
BRANCH   1  17
ATOM     17  C   UNL     1      11.388  11.284  -5.082  1.00  0.00     0.000 C 
BRANCH  17  18
ATOM     18  C   UNL     1      10.074  11.438  -5.865  1.00  0.00     0.000 C 
BRANCH  18  19
ATOM     19  C   UNL     1       9.940  10.411  -7.003  1.00  0.00     0.000 C 
BRANCH  19  20
ATOM     20  C   UNL     1       9.809  11.013  -8.416  1.00  0.00     0.000 C 
BRANCH  20  21
ATOM     21  C   UNL     1       9.907  12.547  -8.485  1.00  0.00     0.000 C 
BRANCH  21  22
ATOM     22  C   UNL     1       8.728  13.185  -9.239  1.00  0.00    -0.000 C 
BRANCH  22  23
ATOM     23  C   UNL     1       7.379  12.994  -8.521  1.00  0.00    -0.000 C 
BRANCH  23  24
ATOM     24  C   UNL     1       6.876  14.217  -7.729  1.00  0.00    -0.000 C 
BRANCH  24  25
ATOM     25  C   UNL     1       6.544  15.422  -8.628  1.00  0.00    -0.000 C 
BRANCH  25  26
ATOM     26  C   UNL     1       5.126  15.965  -8.390  1.00  0.00    -0.000 C 
BRANCH  26  27
ATOM     27  C   UNL     1       4.553  15.550  -7.027  1.00  0.00    -0.000 C 
BRANCH  27  28
ATOM     28  C   UNL     1       3.957  16.760  -6.292  1.00  0.00    -0.000 C 
BRANCH  28  29
ATOM     29  C   UNL     1       4.849  18.007  -6.386  1.00  0.00    -0.003 C 
ATOM     30  C   UNL     1       5.950  18.029  -5.326  1.00  0.00     0.004 C 
ENDBRANCH  28  29
ENDBRANCH  27  28
ENDBRANCH  26  27
ENDBRANCH  25  26
ENDBRANCH  24  25
ENDBRANCH  23  24
ENDBRANCH  22  23
ENDBRANCH  21  22
ENDBRANCH  20  21
ENDBRANCH  19  20
ENDBRANCH  18  19
ENDBRANCH  17  18
ENDBRANCH   1  17
TORSDOF 26
ENDMDL
