MODEL 1
REMARK VINA RESULT:     0.000      0.000      0.000
REMARK INTER + INTRA:          -5.778
REMARK INTER:                   0.000
REMARK INTRA:                  -5.778
REMARK UNBOUND:                -5.778
REMARK SMILES CCCCCCCCCCCCCCCCCCCCCCCC(=O)[O-]
REMARK SMILES IDX 13 1 14 2 15 3 16 4 17 5 18 6 19 7 20 8 21 9 22 10 23 11
REMARK SMILES IDX 24 12 25 13 26 14 12 15 11 16 10 17 9 18 8 19 7 20 6 21 5 22
REMARK SMILES IDX 4 23 3 24 2 25 1 26
REMARK H PARENT
REMARK Flexibility Score: inf
ROOT
ATOM      1  C   UNL     1     178.960 189.985 198.770  1.00  0.00     0.000 C 
ENDROOT
BRANCH   1   2
ATOM      2  C   UNL     1     179.166 190.090 200.291  1.00  0.00     0.000 C 
BRANCH   2   3
ATOM      3  C   UNL     1     179.373 188.719 200.963  1.00  0.00     0.000 C 
BRANCH   3   4
ATOM      4  C   UNL     1     179.556 188.751 202.496  1.00  0.00     0.000 C 
BRANCH   4   5
ATOM      5  C   UNL     1     178.465 189.508 203.275  1.00  0.00     0.000 C 
BRANCH   5   6
ATOM      6  C   UNL     1     179.007 190.734 204.023  1.00  0.00     0.000 C 
BRANCH   6   7
ATOM      7  C   UNL     1     178.397 192.026 203.466  1.00  0.00     0.000 C 
BRANCH   7   8
ATOM      8  C   UNL     1     176.996 191.774 202.891  1.00  0.00     0.000 C 
BRANCH   8   9
ATOM      9  C   UNL     1     176.767 192.480 201.543  1.00  0.00     0.000 C 
BRANCH   9  10
ATOM     10  C   UNL     1     175.882 191.678 200.565  1.00  0.00     0.006 C 
BRANCH  10  11
ATOM     11  C   UNL     1     175.461 190.320 201.142  1.00  0.00     0.053 C 
BRANCH  11  12
ATOM     12  C   UNL     1     175.586 189.249 200.104  1.00  0.00     0.041 C 
ATOM     13  O   UNL     1     175.910 188.079 200.438  1.00  0.00    -0.550 OA
ATOM     14  O   UNL     1     175.382 189.552 198.764  1.00  0.00    -0.550 OA
ENDBRANCH  11  12
ENDBRANCH  10  11
ENDBRANCH   9  10
ENDBRANCH   8   9
ENDBRANCH   7   8
ENDBRANCH   6   7
ENDBRANCH   5   6
ENDBRANCH   4   5
ENDBRANCH   3   4
ENDBRANCH   2   3
ENDBRANCH   1   2
BRANCH   1  15
ATOM     15  C   UNL     1     178.796 191.357 198.085  1.00  0.00     0.000 C 
BRANCH  15  16
ATOM     16  C   UNL     1     180.099 191.952 197.515  1.00  0.00     0.000 C 
BRANCH  16  17
ATOM     17  C   UNL     1     180.567 193.217 198.255  1.00  0.00     0.000 C 
BRANCH  17  18
ATOM     18  C   UNL     1     179.576 193.670 199.341  1.00  0.00    -0.000 C 
BRANCH  18  19
ATOM     19  C   UNL     1     180.182 193.668 200.763  1.00  0.00    -0.000 C 
BRANCH  19  20
ATOM     20  C   UNL     1     181.614 193.091 200.818  1.00  0.00    -0.000 C 
BRANCH  20  21
ATOM     21  C   UNL     1     181.817 192.064 201.946  1.00  0.00    -0.000 C 
BRANCH  21  22
ATOM     22  C   UNL     1     182.561 190.801 201.477  1.00  0.00    -0.000 C 
BRANCH  22  23
ATOM     23  C   UNL     1     182.834 190.821 199.958  1.00  0.00    -0.000 C 
BRANCH  23  24
ATOM     24  C   UNL     1     182.679 189.445 199.289  1.00  0.00    -0.000 C 
BRANCH  24  25
ATOM     25  C   UNL     1     182.877 189.497 197.770  1.00  0.00    -0.003 C 
ATOM     26  C   UNL     1     181.886 188.581 197.054  1.00  0.00     0.004 C 
ENDBRANCH  24  25
ENDBRANCH  23  24
ENDBRANCH  22  23
ENDBRANCH  21  22
ENDBRANCH  20  21
ENDBRANCH  19  20
ENDBRANCH  18  19
ENDBRANCH  17  18
ENDBRANCH  16  17
ENDBRANCH  15  16
ENDBRANCH   1  15
TORSDOF 22
ENDMDL
MODEL 2
REMARK VINA RESULT:     0.001      5.922      9.251
REMARK INTER + INTRA:          -5.776
REMARK INTER:                   0.000
REMARK INTRA:                  -5.776
REMARK UNBOUND:                -5.778
REMARK SMILES CCCCCCCCCCCCCCCCCCCCCCCC(=O)[O-]
REMARK SMILES IDX 13 1 14 2 15 3 16 4 17 5 18 6 19 7 20 8 21 9 22 10 23 11
REMARK SMILES IDX 24 12 25 13 26 14 12 15 11 16 10 17 9 18 8 19 7 20 6 21 5 22
REMARK SMILES IDX 4 23 3 24 2 25 1 26
REMARK H PARENT
REMARK Flexibility Score: inf
ROOT
ATOM      1  C   UNL     1     180.201 191.110 191.281  1.00  0.00     0.000 C 
ENDROOT
BRANCH   1   2
ATOM      2  C   UNL     1     179.011 192.060 191.056  1.00  0.00     0.000 C 
BRANCH   2   3
ATOM      3  C   UNL     1     177.685 191.312 190.816  1.00  0.00     0.000 C 
BRANCH   3   4
ATOM      4  C   UNL     1     176.578 191.573 191.859  1.00  0.00     0.000 C 
BRANCH   4   5
ATOM      5  C   UNL     1     177.072 191.868 193.287  1.00  0.00     0.000 C 
BRANCH   5   6
ATOM      6  C   UNL     1     176.256 192.964 193.987  1.00  0.00     0.000 C 
BRANCH   6   7
ATOM      7  C   UNL     1     177.175 193.933 194.739  1.00  0.00     0.000 C 
BRANCH   7   8
ATOM      8  C   UNL     1     178.651 193.564 194.538  1.00  0.00     0.000 C 
BRANCH   8   9
ATOM      9  C   UNL     1     179.433 194.629 193.749  1.00  0.00     0.000 C 
BRANCH   9  10
ATOM     10  C   UNL     1     178.541 195.735 193.148  1.00  0.00     0.006 C 
BRANCH  10  11
ATOM     11  C   UNL     1     178.421 195.620 191.622  1.00  0.00     0.053 C 
BRANCH  11  12
ATOM     12  C   UNL     1     176.995 195.405 191.224  1.00  0.00     0.041 C 
ATOM     13  O   UNL     1     176.063 195.862 191.937  1.00  0.00    -0.550 OA
ATOM     14  O   UNL     1     176.694 194.670 190.085  1.00  0.00    -0.550 OA
ENDBRANCH  11  12
ENDBRANCH  10  11
ENDBRANCH   9  10
ENDBRANCH   8   9
ENDBRANCH   7   8
ENDBRANCH   6   7
ENDBRANCH   5   6
ENDBRANCH   4   5
ENDBRANCH   3   4
ENDBRANCH   2   3
ENDBRANCH   1   2
BRANCH   1  15
ATOM     15  C   UNL     1     180.904 191.331 192.635  1.00  0.00     0.000 C 
BRANCH  15  16
ATOM     16  C   UNL     1     180.443 190.385 193.762  1.00  0.00     0.000 C 
BRANCH  16  17
ATOM     17  C   UNL     1     180.128 188.961 193.273  1.00  0.00     0.000 C 
BRANCH  17  18
ATOM     18  C   UNL     1     178.677 188.541 193.564  1.00  0.00    -0.000 C 
BRANCH  18  19
ATOM     19  C   UNL     1     177.940 187.983 192.325  1.00  0.00    -0.000 C 
BRANCH  19  20
ATOM     20  C   UNL     1     176.405 187.945 192.492  1.00  0.00    -0.000 C 
BRANCH  20  21
ATOM     21  C   UNL     1     175.941 188.167 193.942  1.00  0.00    -0.000 C 
BRANCH  21  22
ATOM     22  C   UNL     1     174.721 189.099 194.042  1.00  0.00    -0.000 C 
BRANCH  22  23
ATOM     23  C   UNL     1     174.683 189.859 195.385  1.00  0.00    -0.000 C 
BRANCH  23  24
ATOM     24  C   UNL     1     175.822 189.471 196.342  1.00  0.00    -0.000 C 
BRANCH  24  25
ATOM     25  C   UNL     1     176.578 190.686 196.891  1.00  0.00    -0.003 C 
ATOM     26  C   UNL     1     178.082 190.547 196.665  1.00  0.00     0.004 C 
ENDBRANCH  24  25
ENDBRANCH  23  24
ENDBRANCH  22  23
ENDBRANCH  21  22
ENDBRANCH  20  21
ENDBRANCH  19  20
ENDBRANCH  18  19
ENDBRANCH  17  18
ENDBRANCH  16  17
ENDBRANCH  15  16
ENDBRANCH   1  15
TORSDOF 22
ENDMDL
MODEL 3
REMARK VINA RESULT:     0.015      5.207      8.439
REMARK INTER + INTRA:          -5.745
REMARK INTER:                   0.000
REMARK INTRA:                  -5.745
REMARK UNBOUND:                -5.778
REMARK SMILES CCCCCCCCCCCCCCCCCCCCCCCC(=O)[O-]
REMARK SMILES IDX 13 1 14 2 15 3 16 4 17 5 18 6 19 7 20 8 21 9 22 10 23 11
REMARK SMILES IDX 24 12 25 13 26 14 12 15 11 16 10 17 9 18 8 19 7 20 6 21 5 22
REMARK SMILES IDX 4 23 3 24 2 25 1 26
REMARK H PARENT
REMARK Flexibility Score: inf
ROOT
ATOM      1  C   UNL     1     181.015 185.459 202.649  1.00  0.00     0.000 C 
ENDROOT
BRANCH   1   2
ATOM      2  C   UNL     1     181.698 185.237 201.288  1.00  0.00     0.000 C 
BRANCH   2   3
ATOM      3  C   UNL     1     180.968 185.944 200.130  1.00  0.00     0.000 C 
BRANCH   3   4
ATOM      4  C   UNL     1     181.040 185.228 198.764  1.00  0.00     0.000 C 
BRANCH   4   5
ATOM      5  C   UNL     1     179.812 185.417 197.855  1.00  0.00     0.000 C 
BRANCH   5   6
ATOM      6  C   UNL     1     178.876 186.534 198.338  1.00  0.00     0.000 C 
BRANCH   6   7
ATOM      7  C   UNL     1     177.440 186.287 197.864  1.00  0.00     0.000 C 
BRANCH   7   8
ATOM      8  C   UNL     1     177.260 184.843 197.375  1.00  0.00     0.000 C 
BRANCH   8   9
ATOM      9  C   UNL     1     175.904 184.239 197.780  1.00  0.00     0.000 C 
BRANCH   9  10
ATOM     10  C   UNL     1     175.020 185.195 198.608  1.00  0.00     0.006 C 
BRANCH  10  11
ATOM     11  C   UNL     1     174.510 184.543 199.901  1.00  0.00     0.053 C 
BRANCH  11  12
ATOM     12  C   UNL     1     173.825 183.248 199.599  1.00  0.00     0.041 C 
ATOM     13  O   UNL     1     172.748 183.239 198.944  1.00  0.00    -0.550 OA
ATOM     14  O   UNL     1     174.353 182.054 200.071  1.00  0.00    -0.550 OA
ENDBRANCH  11  12
ENDBRANCH  10  11
ENDBRANCH   9  10
ENDBRANCH   8   9
ENDBRANCH   7   8
ENDBRANCH   6   7
ENDBRANCH   5   6
ENDBRANCH   4   5
ENDBRANCH   3   4
ENDBRANCH   2   3
ENDBRANCH   1   2
BRANCH   1  15
ATOM     15  C   UNL     1     180.808 184.152 203.442  1.00  0.00     0.000 C 
BRANCH  15  16
ATOM     16  C   UNL     1     181.339 182.884 202.744  1.00  0.00     0.000 C 
BRANCH  16  17
ATOM     17  C   UNL     1     180.412 181.668 202.901  1.00  0.00     0.000 C 
BRANCH  17  18
ATOM     18  C   UNL     1     180.103 180.981 201.560  1.00  0.00    -0.000 C 
BRANCH  18  19
ATOM     19  C   UNL     1     180.359 181.886 200.334  1.00  0.00    -0.000 C 
BRANCH  19  20
ATOM     20  C   UNL     1     179.090 182.153 199.494  1.00  0.00    -0.000 C 
BRANCH  20  21
ATOM     21  C   UNL     1     177.870 182.558 200.340  1.00  0.00    -0.000 C 
BRANCH  21  22
ATOM     22  C   UNL     1     177.994 183.975 200.927  1.00  0.00    -0.000 C 
BRANCH  22  23
ATOM     23  C   UNL     1     177.302 184.094 202.301  1.00  0.00    -0.000 C 
BRANCH  23  24
ATOM     24  C   UNL     1     177.178 185.542 202.802  1.00  0.00    -0.000 C 
BRANCH  24  25
ATOM     25  C   UNL     1     177.607 186.574 201.751  1.00  0.00    -0.003 C 
ATOM     26  C   UNL     1     176.430 187.448 201.326  1.00  0.00     0.004 C 
ENDBRANCH  24  25
ENDBRANCH  23  24
ENDBRANCH  22  23
ENDBRANCH  21  22
ENDBRANCH  20  21
ENDBRANCH  19  20
ENDBRANCH  18  19
ENDBRANCH  17  18
ENDBRANCH  16  17
ENDBRANCH  15  16
ENDBRANCH   1  15
TORSDOF 22
ENDMDL
MODEL 4
REMARK VINA RESULT:     0.016     12.021     14.912
REMARK INTER + INTRA:          -5.742
REMARK INTER:                   0.000
REMARK INTRA:                  -5.742
REMARK UNBOUND:                -5.778
REMARK SMILES CCCCCCCCCCCCCCCCCCCCCCCC(=O)[O-]
REMARK SMILES IDX 13 1 14 2 15 3 16 4 17 5 18 6 19 7 20 8 21 9 22 10 23 11
REMARK SMILES IDX 24 12 25 13 26 14 12 15 11 16 10 17 9 18 8 19 7 20 6 21 5 22
REMARK SMILES IDX 4 23 3 24 2 25 1 26
REMARK H PARENT
REMARK Flexibility Score: inf
ROOT
ATOM      1  C   UNL     1     176.324 188.842 189.259  1.00  0.00     0.000 C 
ENDROOT
BRANCH   1   2
ATOM      2  C   UNL     1     176.808 187.381 189.243  1.00  0.00     0.000 C 
BRANCH   2   3
ATOM      3  C   UNL     1     176.959 186.815 187.818  1.00  0.00     0.000 C 
BRANCH   3   4
ATOM      4  C   UNL     1     176.435 187.722 186.684  1.00  0.00     0.000 C 
BRANCH   4   5
ATOM      5  C   UNL     1     175.101 187.284 186.053  1.00  0.00     0.000 C 
BRANCH   5   6
ATOM      6  C   UNL     1     174.758 185.815 186.337  1.00  0.00     0.000 C 
BRANCH   6   7
ATOM      7  C   UNL     1     173.346 185.687 186.919  1.00  0.00     0.000 C 
BRANCH   7   8
ATOM      8  C   UNL     1     173.189 186.543 188.184  1.00  0.00     0.000 C 
BRANCH   8   9
ATOM      9  C   UNL     1     173.475 185.759 189.477  1.00  0.00     0.000 C 
BRANCH   9  10
ATOM     10  C   UNL     1     172.655 186.243 190.691  1.00  0.00     0.006 C 
BRANCH  10  11
ATOM     11  C   UNL     1     171.540 187.218 190.289  1.00  0.00     0.053 C 
BRANCH  11  12
ATOM     12  C   UNL     1     171.351 188.261 191.345  1.00  0.00     0.041 C 
ATOM     13  O   UNL     1     172.180 188.365 192.288  1.00  0.00    -0.550 OA
ATOM     14  O   UNL     1     170.241 189.095 191.309  1.00  0.00    -0.550 OA
ENDBRANCH  11  12
ENDBRANCH  10  11
ENDBRANCH   9  10
ENDBRANCH   8   9
ENDBRANCH   7   8
ENDBRANCH   6   7
ENDBRANCH   5   6
ENDBRANCH   4   5
ENDBRANCH   3   4
ENDBRANCH   2   3
ENDBRANCH   1   2
BRANCH   1  15
ATOM     15  C   UNL     1     175.094 189.061 190.162  1.00  0.00     0.000 C 
BRANCH  15  16
ATOM     16  C   UNL     1     174.000 189.960 189.552  1.00  0.00     0.000 C 
BRANCH  16  17
ATOM     17  C   UNL     1     174.253 190.315 188.077  1.00  0.00     0.000 C 
BRANCH  17  18
ATOM     18  C   UNL     1     173.000 190.139 187.202  1.00  0.00    -0.000 C 
BRANCH  18  19
ATOM     19  C   UNL     1     171.682 190.147 188.008  1.00  0.00    -0.000 C 
BRANCH  19  20
ATOM     20  C   UNL     1     170.578 189.264 187.386  1.00  0.00    -0.000 C 
BRANCH  20  21
ATOM     21  C   UNL     1     170.982 188.635 186.041  1.00  0.00    -0.000 C 
BRANCH  21  22
ATOM     22  C   UNL     1     170.243 187.317 185.752  1.00  0.00    -0.000 C 
BRANCH  22  23
ATOM     23  C   UNL     1     169.644 186.696 187.032  1.00  0.00    -0.000 C 
BRANCH  23  24
ATOM     24  C   UNL     1     169.680 185.159 187.043  1.00  0.00    -0.000 C 
BRANCH  24  25
ATOM     25  C   UNL     1     169.807 184.577 188.456  1.00  0.00    -0.003 C 
ATOM     26  C   UNL     1     170.789 183.408 188.484  1.00  0.00     0.004 C 
ENDBRANCH  24  25
ENDBRANCH  23  24
ENDBRANCH  22  23
ENDBRANCH  21  22
ENDBRANCH  20  21
ENDBRANCH  19  20
ENDBRANCH  18  19
ENDBRANCH  17  18
ENDBRANCH  16  17
ENDBRANCH  15  16
ENDBRANCH   1  15
TORSDOF 22
ENDMDL
MODEL 5
REMARK VINA RESULT:     0.043     10.821     13.804
REMARK INTER + INTRA:          -5.681
REMARK INTER:                   0.000
REMARK INTRA:                  -5.681
REMARK UNBOUND:                -5.778
REMARK SMILES CCCCCCCCCCCCCCCCCCCCCCCC(=O)[O-]
REMARK SMILES IDX 13 1 14 2 15 3 16 4 17 5 18 6 19 7 20 8 21 9 22 10 23 11
REMARK SMILES IDX 24 12 25 13 26 14 12 15 11 16 10 17 9 18 8 19 7 20 6 21 5 22
REMARK SMILES IDX 4 23 3 24 2 25 1 26
REMARK H PARENT
REMARK Flexibility Score: inf
ROOT
ATOM      1  C   UNL     1     178.525 189.119 189.638  1.00  0.00     0.000 C 
ENDROOT
BRANCH   1   2
ATOM      2  C   UNL     1     179.009 187.658 189.622  1.00  0.00     0.000 C 
BRANCH   2   3
ATOM      3  C   UNL     1     179.234 187.117 188.197  1.00  0.00     0.000 C 
BRANCH   3   4
ATOM      4  C   UNL     1     178.702 188.009 187.056  1.00  0.00     0.000 C 
BRANCH   4   5
ATOM      5  C   UNL     1     177.357 187.570 186.449  1.00  0.00     0.000 C 
BRANCH   5   6
ATOM      6  C   UNL     1     177.050 186.084 186.685  1.00  0.00     0.000 C 
BRANCH   6   7
ATOM      7  C   UNL     1     175.656 185.905 187.295  1.00  0.00     0.000 C 
BRANCH   7   8
ATOM      8  C   UNL     1     175.484 186.777 188.547  1.00  0.00     0.000 C 
BRANCH   8   9
ATOM      9  C   UNL     1     175.737 186.004 189.854  1.00  0.00     0.000 C 
BRANCH   9  10
ATOM     10  C   UNL     1     174.877 186.491 191.039  1.00  0.00     0.006 C 
BRANCH  10  11
ATOM     11  C   UNL     1     173.720 187.392 190.587  1.00  0.00     0.053 C 
BRANCH  11  12
ATOM     12  C   UNL     1     173.461 188.460 191.603  1.00  0.00     0.041 C 
ATOM     13  O   UNL     1     172.552 189.310 191.411  1.00  0.00    -0.550 OA
ATOM     14  O   UNL     1     174.248 188.539 192.745  1.00  0.00    -0.550 OA
ENDBRANCH  11  12
ENDBRANCH  10  11
ENDBRANCH   9  10
ENDBRANCH   8   9
ENDBRANCH   7   8
ENDBRANCH   6   7
ENDBRANCH   5   6
ENDBRANCH   4   5
ENDBRANCH   3   4
ENDBRANCH   2   3
ENDBRANCH   1   2
BRANCH   1  15
ATOM     15  C   UNL     1     177.295 189.338 190.541  1.00  0.00     0.000 C 
BRANCH  15  16
ATOM     16  C   UNL     1     176.174 190.186 189.907  1.00  0.00     0.000 C 
BRANCH  16  17
ATOM     17  C   UNL     1     176.485 190.633 188.469  1.00  0.00     0.000 C 
BRANCH  17  18
ATOM     18  C   UNL     1     175.284 190.465 187.522  1.00  0.00    -0.000 C 
BRANCH  18  19
ATOM     19  C   UNL     1     173.931 190.357 188.260  1.00  0.00    -0.000 C 
BRANCH  19  20
ATOM     20  C   UNL     1     172.955 189.354 187.607  1.00  0.00    -0.000 C 
BRANCH  20  21
ATOM     21  C   UNL     1     173.454 188.803 186.259  1.00  0.00    -0.000 C 
BRANCH  21  22
ATOM     22  C   UNL     1     172.647 187.585 185.776  1.00  0.00    -0.000 C 
BRANCH  22  23
ATOM     23  C   UNL     1     171.812 186.957 186.912  1.00  0.00    -0.000 C 
BRANCH  23  24
ATOM     24  C   UNL     1     172.044 185.447 187.081  1.00  0.00    -0.000 C 
BRANCH  24  25
ATOM     25  C   UNL     1     171.950 184.990 188.542  1.00  0.00    -0.003 C 
ATOM     26  C   UNL     1     172.889 183.818 188.815  1.00  0.00     0.004 C 
ENDBRANCH  24  25
ENDBRANCH  23  24
ENDBRANCH  22  23
ENDBRANCH  21  22
ENDBRANCH  20  21
ENDBRANCH  19  20
ENDBRANCH  18  19
ENDBRANCH  17  18
ENDBRANCH  16  17
ENDBRANCH  15  16
ENDBRANCH   1  15
TORSDOF 22
ENDMDL
MODEL 6
REMARK VINA RESULT:     0.070      5.788      8.437
REMARK INTER + INTRA:          -5.619
REMARK INTER:                   0.000
REMARK INTRA:                  -5.619
REMARK UNBOUND:                -5.778
REMARK SMILES CCCCCCCCCCCCCCCCCCCCCCCC(=O)[O-]
REMARK SMILES IDX 13 1 14 2 15 3 16 4 17 5 18 6 19 7 20 8 21 9 22 10 23 11
REMARK SMILES IDX 24 12 25 13 26 14 12 15 11 16 10 17 9 18 8 19 7 20 6 21 5 22
REMARK SMILES IDX 4 23 3 24 2 25 1 26
REMARK H PARENT
REMARK Flexibility Score: inf
ROOT
ATOM      1  C   UNL     1     176.697 189.656 193.648  1.00  0.00     0.000 C 
ENDROOT
BRANCH   1   2
ATOM      2  C   UNL     1     176.648 189.408 195.165  1.00  0.00     0.000 C 
BRANCH   2   3
ATOM      3  C   UNL     1     176.691 190.710 195.987  1.00  0.00     0.000 C 
BRANCH   3   4
ATOM      4  C   UNL     1     178.008 190.972 196.749  1.00  0.00     0.000 C 
BRANCH   4   5
ATOM      5  C   UNL     1     179.099 189.902 196.567  1.00  0.00     0.000 C 
BRANCH   5   6
ATOM      6  C   UNL     1     180.496 190.503 196.358  1.00  0.00     0.000 C 
BRANCH   6   7
ATOM      7  C   UNL     1     181.265 189.735 195.277  1.00  0.00     0.000 C 
BRANCH   7   8
ATOM      8  C   UNL     1     180.314 188.893 194.415  1.00  0.00     0.000 C 
BRANCH   8   9
ATOM      9  C   UNL     1     180.772 188.784 192.950  1.00  0.00     0.000 C 
BRANCH   9  10
ATOM     10  C   UNL     1     179.682 188.253 191.996  1.00  0.00     0.006 C 
BRANCH  10  11
ATOM     11  C   UNL     1     179.599 189.067 190.697  1.00  0.00     0.053 C 
BRANCH  11  12
ATOM     12  C   UNL     1     180.598 188.567 189.702  1.00  0.00     0.041 C 
ATOM     13  O   UNL     1     181.137 189.365 188.890  1.00  0.00    -0.550 OA
ATOM     14  O   UNL     1     180.908 187.214 189.646  1.00  0.00    -0.550 OA
ENDBRANCH  11  12
ENDBRANCH  10  11
ENDBRANCH   9  10
ENDBRANCH   8   9
ENDBRANCH   7   8
ENDBRANCH   6   7
ENDBRANCH   5   6
ENDBRANCH   4   5
ENDBRANCH   3   4
ENDBRANCH   2   3
ENDBRANCH   1   2
BRANCH   1  15
ATOM     15  C   UNL     1     176.621 191.151 193.276  1.00  0.00     0.000 C 
BRANCH  15  16
ATOM     16  C   UNL     1     177.819 191.673 192.458  1.00  0.00     0.000 C 
BRANCH  16  17
ATOM     17  C   UNL     1     179.020 192.083 193.327  1.00  0.00     0.000 C 
BRANCH  17  18
ATOM     18  C   UNL     1     178.874 193.500 193.909  1.00  0.00    -0.000 C 
BRANCH  18  19
ATOM     19  C   UNL     1     180.206 194.283 193.958  1.00  0.00    -0.000 C 
BRANCH  19  20
ATOM     20  C   UNL     1     181.423 193.401 194.315  1.00  0.00    -0.000 C 
BRANCH  20  21
ATOM     21  C   UNL     1     182.510 193.388 193.226  1.00  0.00    -0.000 C 
BRANCH  21  22
ATOM     22  C   UNL     1     182.854 191.969 192.743  1.00  0.00    -0.000 C 
BRANCH  22  23
ATOM     23  C   UNL     1     182.222 191.656 191.371  1.00  0.00    -0.000 C 
BRANCH  23  24
ATOM     24  C   UNL     1     181.818 192.912 190.581  1.00  0.00    -0.000 C 
BRANCH  24  25
ATOM     25  C   UNL     1     180.404 192.817 189.995  1.00  0.00    -0.003 C 
ATOM     26  C   UNL     1     179.632 194.117 190.207  1.00  0.00     0.004 C 
ENDBRANCH  24  25
ENDBRANCH  23  24
ENDBRANCH  22  23
ENDBRANCH  21  22
ENDBRANCH  20  21
ENDBRANCH  19  20
ENDBRANCH  18  19
ENDBRANCH  17  18
ENDBRANCH  16  17
ENDBRANCH  15  16
ENDBRANCH   1  15
TORSDOF 22
ENDMDL
MODEL 7
REMARK VINA RESULT:     0.080      7.463     10.713
REMARK INTER + INTRA:          -5.596
REMARK INTER:                   0.000
REMARK INTRA:                  -5.596
REMARK UNBOUND:                -5.778
REMARK SMILES CCCCCCCCCCCCCCCCCCCCCCCC(=O)[O-]
REMARK SMILES IDX 13 1 14 2 15 3 16 4 17 5 18 6 19 7 20 8 21 9 22 10 23 11
REMARK SMILES IDX 24 12 25 13 26 14 12 15 11 16 10 17 9 18 8 19 7 20 6 21 5 22
REMARK SMILES IDX 4 23 3 24 2 25 1 26
REMARK H PARENT
REMARK Flexibility Score: inf
ROOT
ATOM      1  C   UNL     1     179.685 193.716 189.379  1.00  0.00     0.000 C 
ENDROOT
BRANCH   1   2
ATOM      2  C   UNL     1     180.326 194.844 190.208  1.00  0.00     0.000 C 
BRANCH   2   3
ATOM      3  C   UNL     1     179.288 195.689 190.972  1.00  0.00     0.000 C 
BRANCH   3   4
ATOM      4  C   UNL     1     177.836 195.169 190.917  1.00  0.00     0.000 C 
BRANCH   4   5
ATOM      5  C   UNL     1     177.299 194.575 192.232  1.00  0.00     0.000 C 
BRANCH   5   6
ATOM      6  C   UNL     1     178.314 194.651 193.381  1.00  0.00     0.000 C 
BRANCH   6   7
ATOM      7  C   UNL     1     178.311 193.354 194.199  1.00  0.00     0.000 C 
BRANCH   7   8
ATOM      8  C   UNL     1     179.727 192.775 194.325  1.00  0.00     0.000 C 
BRANCH   8   9
ATOM      9  C   UNL     1     180.810 193.719 193.775  1.00  0.00     0.000 C 
BRANCH   9  10
ATOM     10  C   UNL     1     181.950 192.992 193.032  1.00  0.00     0.006 C 
BRANCH  10  11
ATOM     11  C   UNL     1     181.941 191.479 193.292  1.00  0.00     0.053 C 
BRANCH  11  12
ATOM     12  C   UNL     1     183.066 191.098 194.202  1.00  0.00     0.041 C 
ATOM     13  O   UNL     1     184.001 190.367 193.780  1.00  0.00    -0.550 OA
ATOM     14  O   UNL     1     183.063 191.518 195.526  1.00  0.00    -0.550 OA
ENDBRANCH  11  12
ENDBRANCH  10  11
ENDBRANCH   9  10
ENDBRANCH   8   9
ENDBRANCH   7   8
ENDBRANCH   6   7
ENDBRANCH   5   6
ENDBRANCH   4   5
ENDBRANCH   3   4
ENDBRANCH   2   3
ENDBRANCH   1   2
BRANCH   1  15
ATOM     15  C   UNL     1     180.087 192.308 189.862  1.00  0.00     0.000 C 
BRANCH  15  16
ATOM     16  C   UNL     1     179.139 191.691 190.910  1.00  0.00     0.000 C 
BRANCH  16  17
ATOM     17  C   UNL     1     179.126 190.153 190.891  1.00  0.00     0.000 C 
BRANCH  17  18
ATOM     18  C   UNL     1     177.781 189.566 191.351  1.00  0.00    -0.000 C 
BRANCH  18  19
ATOM     19  C   UNL     1     177.066 190.429 192.416  1.00  0.00    -0.000 C 
BRANCH  19  20
ATOM     20  C   UNL     1     175.660 190.899 191.982  1.00  0.00    -0.000 C 
BRANCH  20  21
ATOM     21  C   UNL     1     175.475 190.945 190.455  1.00  0.00    -0.000 C 
BRANCH  21  22
ATOM     22  C   UNL     1     175.559 192.372 189.886  1.00  0.00    -0.000 C 
BRANCH  22  23
ATOM     23  C   UNL     1     176.306 192.413 188.536  1.00  0.00    -0.000 C 
BRANCH  23  24
ATOM     24  C   UNL     1     176.777 191.032 188.053  1.00  0.00    -0.000 C 
BRANCH  24  25
ATOM     25  C   UNL     1     177.951 191.113 187.070  1.00  0.00    -0.003 C 
ATOM     26  C   UNL     1     178.864 189.897 187.202  1.00  0.00     0.004 C 
ENDBRANCH  24  25
ENDBRANCH  23  24
ENDBRANCH  22  23
ENDBRANCH  21  22
ENDBRANCH  20  21
ENDBRANCH  19  20
ENDBRANCH  18  19
ENDBRANCH  17  18
ENDBRANCH  16  17
ENDBRANCH  15  16
ENDBRANCH   1  15
TORSDOF 22
ENDMDL
MODEL 8
REMARK VINA RESULT:     0.088      5.254      7.554
REMARK INTER + INTRA:          -5.576
REMARK INTER:                   0.000
REMARK INTRA:                  -5.576
REMARK UNBOUND:                -5.778
REMARK SMILES CCCCCCCCCCCCCCCCCCCCCCCC(=O)[O-]
REMARK SMILES IDX 13 1 14 2 15 3 16 4 17 5 18 6 19 7 20 8 21 9 22 10 23 11
REMARK SMILES IDX 24 12 25 13 26 14 12 15 11 16 10 17 9 18 8 19 7 20 6 21 5 22
REMARK SMILES IDX 4 23 3 24 2 25 1 26
REMARK H PARENT
REMARK Flexibility Score: inf
ROOT
ATOM      1  C   UNL     1     173.914 193.433 200.840  1.00  0.00     0.000 C 
ENDROOT
BRANCH   1   2
ATOM      2  C   UNL     1     175.163 192.720 201.387  1.00  0.00     0.000 C 
BRANCH   2   3
ATOM      3  C   UNL     1     175.862 191.842 200.332  1.00  0.00     0.000 C 
BRANCH   3   4
ATOM      4  C   UNL     1     177.049 192.501 199.598  1.00  0.00     0.000 C 
BRANCH   4   5
ATOM      5  C   UNL     1     176.748 193.001 198.173  1.00  0.00     0.000 C 
BRANCH   5   6
ATOM      6  C   UNL     1     175.524 192.319 197.546  1.00  0.00     0.000 C 
BRANCH   6   7
ATOM      7  C   UNL     1     174.473 193.355 197.134  1.00  0.00     0.000 C 
BRANCH   7   8
ATOM      8  C   UNL     1     174.979 194.784 197.377  1.00  0.00     0.000 C 
BRANCH   8   9
ATOM      9  C   UNL     1     173.862 195.838 197.286  1.00  0.00     0.000 C 
BRANCH   9  10
ATOM     10  C   UNL     1     173.519 196.256 195.841  1.00  0.00     0.006 C 
BRANCH  10  11
ATOM     11  C   UNL     1     174.065 197.648 195.493  1.00  0.00     0.053 C 
BRANCH  11  12
ATOM     12  C   UNL     1     173.496 198.679 196.415  1.00  0.00     0.041 C 
ATOM     13  O   UNL     1     174.259 199.377 197.134  1.00  0.00    -0.550 OA
ATOM     14  O   UNL     1     172.120 198.845 196.509  1.00  0.00    -0.550 OA
ENDBRANCH  11  12
ENDBRANCH  10  11
ENDBRANCH   9  10
ENDBRANCH   8   9
ENDBRANCH   7   8
ENDBRANCH   6   7
ENDBRANCH   5   6
ENDBRANCH   4   5
ENDBRANCH   3   4
ENDBRANCH   2   3
ENDBRANCH   1   2
BRANCH   1  15
ATOM     15  C   UNL     1     174.012 194.970 200.915  1.00  0.00     0.000 C 
BRANCH  15  16
ATOM     16  C   UNL     1     175.373 195.505 201.402  1.00  0.00     0.000 C 
BRANCH  16  17
ATOM     17  C   UNL     1     176.050 196.454 200.399  1.00  0.00     0.000 C 
BRANCH  17  18
ATOM     18  C   UNL     1     177.519 196.083 200.131  1.00  0.00    -0.000 C 
BRANCH  18  19
ATOM     19  C   UNL     1     178.196 196.983 199.072  1.00  0.00    -0.000 C 
BRANCH  19  20
ATOM     20  C   UNL     1     177.202 197.580 198.051  1.00  0.00    -0.000 C 
BRANCH  20  21
ATOM     21  C   UNL     1     177.557 197.256 196.590  1.00  0.00    -0.000 C 
BRANCH  21  22
ATOM     22  C   UNL     1     178.547 196.085 196.461  1.00  0.00    -0.000 C 
BRANCH  22  23
ATOM     23  C   UNL     1     178.095 195.058 195.402  1.00  0.00    -0.000 C 
BRANCH  23  24
ATOM     24  C   UNL     1     177.012 195.594 194.451  1.00  0.00    -0.000 C 
BRANCH  24  25
ATOM     25  C   UNL     1     176.158 194.480 193.833  1.00  0.00    -0.003 C 
ATOM     26  C   UNL     1     176.755 193.105 194.121  1.00  0.00     0.004 C 
ENDBRANCH  24  25
ENDBRANCH  23  24
ENDBRANCH  22  23
ENDBRANCH  21  22
ENDBRANCH  20  21
ENDBRANCH  19  20
ENDBRANCH  18  19
ENDBRANCH  17  18
ENDBRANCH  16  17
ENDBRANCH  15  16
ENDBRANCH   1  15
TORSDOF 22
ENDMDL
MODEL 9
REMARK VINA RESULT:     0.100      9.331     12.286
REMARK INTER + INTRA:          -5.549
REMARK INTER:                   0.000
REMARK INTRA:                  -5.549
REMARK UNBOUND:                -5.778
REMARK SMILES CCCCCCCCCCCCCCCCCCCCCCCC(=O)[O-]
REMARK SMILES IDX 13 1 14 2 15 3 16 4 17 5 18 6 19 7 20 8 21 9 22 10 23 11
REMARK SMILES IDX 24 12 25 13 26 14 12 15 11 16 10 17 9 18 8 19 7 20 6 21 5 22
REMARK SMILES IDX 4 23 3 24 2 25 1 26
REMARK H PARENT
REMARK Flexibility Score: inf
ROOT
ATOM      1  C   UNL     1     172.170 195.432 191.069  1.00  0.00     0.000 C 
ENDROOT
BRANCH   1   2
ATOM      2  C   UNL     1     173.223 194.504 190.437  1.00  0.00     0.000 C 
BRANCH   2   3
ATOM      3  C   UNL     1     173.027 193.025 190.822  1.00  0.00     0.000 C 
BRANCH   3   4
ATOM      4  C   UNL     1     174.121 192.425 191.731  1.00  0.00     0.000 C 
BRANCH   4   5
ATOM      5  C   UNL     1     175.414 193.253 191.843  1.00  0.00     0.000 C 
BRANCH   5   6
ATOM      6  C   UNL     1     175.760 193.628 193.291  1.00  0.00     0.000 C 
BRANCH   6   7
ATOM      7  C   UNL     1     174.492 193.727 194.147  1.00  0.00     0.000 C 
BRANCH   7   8
ATOM      8  C   UNL     1     174.372 195.111 194.799  1.00  0.00     0.000 C 
BRANCH   8   9
ATOM      9  C   UNL     1     174.612 196.263 193.807  1.00  0.00     0.000 C 
BRANCH   9  10
ATOM     10  C   UNL     1     173.590 197.412 193.930  1.00  0.00     0.006 C 
BRANCH  10  11
ATOM     11  C   UNL     1     172.849 197.391 195.274  1.00  0.00     0.053 C 
BRANCH  11  12
ATOM     12  C   UNL     1     173.404 198.432 196.194  1.00  0.00     0.041 C 
ATOM     13  O   UNL     1     173.739 198.126 197.369  1.00  0.00    -0.550 OA
ATOM     14  O   UNL     1     173.515 199.749 195.767  1.00  0.00    -0.550 OA
ENDBRANCH  11  12
ENDBRANCH  10  11
ENDBRANCH   9  10
ENDBRANCH   8   9
ENDBRANCH   7   8
ENDBRANCH   6   7
ENDBRANCH   5   6
ENDBRANCH   4   5
ENDBRANCH   3   4
ENDBRANCH   2   3
ENDBRANCH   1   2
BRANCH   1  15
ATOM     15  C   UNL     1     171.480 194.812 192.301  1.00  0.00     0.000 C 
BRANCH  15  16
ATOM     16  C   UNL     1     170.382 195.690 192.934  1.00  0.00     0.000 C 
BRANCH  16  17
ATOM     17  C   UNL     1     169.830 195.122 194.252  1.00  0.00     0.000 C 
BRANCH  17  18
ATOM     18  C   UNL     1     170.855 194.250 194.998  1.00  0.00    -0.000 C 
BRANCH  18  19
ATOM     19  C   UNL     1     170.414 192.777 195.148  1.00  0.00    -0.000 C 
BRANCH  19  20
ATOM     20  C   UNL     1     171.256 191.796 194.302  1.00  0.00    -0.000 C 
BRANCH  20  21
ATOM     21  C   UNL     1     170.527 191.289 193.045  1.00  0.00    -0.000 C 
BRANCH  21  22
ATOM     22  C   UNL     1     169.028 191.638 193.042  1.00  0.00    -0.000 C 
BRANCH  22  23
ATOM     23  C   UNL     1     168.628 192.457 191.797  1.00  0.00    -0.000 C 
BRANCH  23  24
ATOM     24  C   UNL     1     169.467 192.128 190.551  1.00  0.00    -0.000 C 
BRANCH  24  25
ATOM     25  C   UNL     1     169.497 193.275 189.534  1.00  0.00    -0.003 C 
ATOM     26  C   UNL     1     168.549 194.400 189.944  1.00  0.00     0.004 C 
ENDBRANCH  24  25
ENDBRANCH  23  24
ENDBRANCH  22  23
ENDBRANCH  21  22
ENDBRANCH  20  21
ENDBRANCH  19  20
ENDBRANCH  18  19
ENDBRANCH  17  18
ENDBRANCH  16  17
ENDBRANCH  15  16
ENDBRANCH   1  15
TORSDOF 22
ENDMDL
