MODEL 1
REMARK VINA RESULT:    -5.160      0.000      0.000
REMARK INTER + INTRA:          -5.311
REMARK INTER:                  -5.311
REMARK INTRA:                   0.000
REMARK UNBOUND:                 0.000
REMARK SMILES O=c1ccc2ccc(O)cc2o1
REMARK SMILES IDX 6 1 7 2 8 3 10 4 11 5 5 6 4 7 3 8 2 9 1 10 12 11 9 12
REMARK H PARENT 9 13
REMARK Flexibility Score: inf
ROOT
ATOM      1  C   UNL     1      -8.629 -25.064  36.448  1.00  0.00     0.016 A 
ATOM      2  C   UNL     1      -9.266 -26.309  36.450  1.00  0.00     0.047 A 
ATOM      3  C   UNL     1      -8.825 -27.330  35.600  1.00  0.00     0.119 A 
ATOM      4  C   UNL     1      -7.739 -27.106  34.741  1.00  0.00     0.094 A 
ATOM      5  C   UNL     1      -7.095 -25.864  34.733  1.00  0.00     0.142 A 
ATOM      6  C   UNL     1      -7.543 -24.836  35.591  1.00  0.00     0.018 A 
ATOM      7  C   UNL     1      -6.880 -23.605  35.560  1.00  0.00     0.019 A 
ATOM      8  C   UNL     1      -5.804 -23.429  34.690  1.00  0.00     0.094 A 
ATOM      9  C   UNL     1      -5.417 -24.493  33.868  1.00  0.00     0.336 A 
ATOM     10  O   UNL     1      -4.448 -24.353  33.074  1.00  0.00    -0.246 OA
ATOM     11  O   UNL     1      -6.065 -25.654  33.917  1.00  0.00    -0.423 OA
ENDROOT
BRANCH   3  12
ATOM     12  O   UNL     1      -9.473 -28.564  35.616  1.00  0.00    -0.508 OA
ATOM     13  H   UNL     1      -9.075 -29.377  35.161  1.00  0.00     0.293 HD
ENDBRANCH   3  12
TORSDOF 1
ENDMDL
MODEL 2
REMARK VINA RESULT:    -5.099      1.927      2.257
REMARK INTER + INTRA:          -5.248
REMARK INTER:                  -5.248
REMARK INTRA:                   0.000
REMARK UNBOUND:                 0.000
REMARK SMILES O=c1ccc2ccc(O)cc2o1
REMARK SMILES IDX 6 1 7 2 8 3 10 4 11 5 5 6 4 7 3 8 2 9 1 10 12 11 9 12
REMARK H PARENT 9 13
REMARK Flexibility Score: inf
ROOT
ATOM      1  C   UNL     1      -6.259 -26.523  36.281  1.00  0.00     0.016 A 
ATOM      2  C   UNL     1      -6.939 -27.406  35.436  1.00  0.00     0.047 A 
ATOM      3  C   UNL     1      -7.217 -27.045  34.112  1.00  0.00     0.119 A 
ATOM      4  C   UNL     1      -6.812 -25.791  33.629  1.00  0.00     0.094 A 
ATOM      5  C   UNL     1      -6.131 -24.902  34.467  1.00  0.00     0.142 A 
ATOM      6  C   UNL     1      -5.853 -25.270  35.802  1.00  0.00     0.018 A 
ATOM      7  C   UNL     1      -5.170 -24.360  36.616  1.00  0.00     0.019 A 
ATOM      8  C   UNL     1      -4.788 -23.126  36.091  1.00  0.00     0.094 A 
ATOM      9  C   UNL     1      -5.098 -22.830  34.759  1.00  0.00     0.336 A 
ATOM     10  O   UNL     1      -4.762 -21.720  34.268  1.00  0.00    -0.246 OA
ATOM     11  O   UNL     1      -5.748 -23.714  34.006  1.00  0.00    -0.423 OA
ENDROOT
BRANCH   3  12
ATOM     12  O   UNL     1      -7.896 -27.938  33.285  1.00  0.00    -0.508 OA
ATOM     13  H   UNL     1      -8.612 -27.622  32.642  1.00  0.00     0.293 HD
ENDBRANCH   3  12
TORSDOF 1
ENDMDL
MODEL 3
REMARK VINA RESULT:    -5.071      1.942      2.692
REMARK INTER + INTRA:          -5.219
REMARK INTER:                  -5.219
REMARK INTRA:                   0.000
REMARK UNBOUND:                 0.000
REMARK SMILES O=c1ccc2ccc(O)cc2o1
REMARK SMILES IDX 6 1 7 2 8 3 10 4 11 5 5 6 4 7 3 8 2 9 1 10 12 11 9 12
REMARK H PARENT 9 13
REMARK Flexibility Score: inf
ROOT
ATOM      1  C   UNL     1      -6.989 -26.447  33.991  1.00  0.00     0.016 A 
ATOM      2  C   UNL     1      -7.825 -27.542  34.228  1.00  0.00     0.047 A 
ATOM      3  C   UNL     1      -8.788 -27.490  35.243  1.00  0.00     0.119 A 
ATOM      4  C   UNL     1      -8.916 -26.334  36.027  1.00  0.00     0.094 A 
ATOM      5  C   UNL     1      -8.085 -25.233  35.796  1.00  0.00     0.142 A 
ATOM      6  C   UNL     1      -7.114 -25.290  34.772  1.00  0.00     0.018 A 
ATOM      7  C   UNL     1      -6.296 -24.174  34.566  1.00  0.00     0.019 A 
ATOM      8  C   UNL     1      -6.461 -23.047  35.371  1.00  0.00     0.094 A 
ATOM      9  C   UNL     1      -7.444 -23.063  36.367  1.00  0.00     0.336 A 
ATOM     10  O   UNL     1      -7.607 -22.055  37.104  1.00  0.00    -0.246 OA
ATOM     11  O   UNL     1      -8.208 -24.138  36.542  1.00  0.00    -0.423 OA
ENDROOT
BRANCH   3  12
ATOM     12  O   UNL     1      -9.612 -28.592  35.464  1.00  0.00    -0.508 OA
ATOM     13  H   UNL     1     -10.088 -28.727  36.349  1.00  0.00     0.293 HD
ENDBRANCH   3  12
TORSDOF 1
ENDMDL
MODEL 4
REMARK VINA RESULT:    -5.009      3.146      4.499
REMARK INTER + INTRA:          -5.155
REMARK INTER:                  -5.155
REMARK INTRA:                   0.000
REMARK UNBOUND:                 0.000
REMARK SMILES O=c1ccc2ccc(O)cc2o1
REMARK SMILES IDX 6 1 7 2 8 3 10 4 11 5 5 6 4 7 3 8 2 9 1 10 12 11 9 12
REMARK H PARENT 9 13
REMARK Flexibility Score: inf
ROOT
ATOM      1  C   UNL     1      -8.112 -22.501  31.833  1.00  0.00     0.016 A 
ATOM      2  C   UNL     1      -9.075 -21.607  32.310  1.00  0.00     0.047 A 
ATOM      3  C   UNL     1      -9.334 -21.514  33.683  1.00  0.00     0.119 A 
ATOM      4  C   UNL     1      -8.624 -22.321  34.585  1.00  0.00     0.094 A 
ATOM      5  C   UNL     1      -7.658 -23.217  34.116  1.00  0.00     0.142 A 
ATOM      6  C   UNL     1      -7.400 -23.309  32.731  1.00  0.00     0.018 A 
ATOM      7  C   UNL     1      -6.429 -24.215  32.292  1.00  0.00     0.019 A 
ATOM      8  C   UNL     1      -5.749 -24.995  33.227  1.00  0.00     0.094 A 
ATOM      9  C   UNL     1      -6.058 -24.850  34.584  1.00  0.00     0.336 A 
ATOM     10  O   UNL     1      -5.456 -25.547  35.442  1.00  0.00    -0.246 OA
ATOM     11  O   UNL     1      -6.987 -23.981  34.975  1.00  0.00    -0.423 OA
ENDROOT
BRANCH   3  12
ATOM     12  O   UNL     1     -10.298 -20.617  34.140  1.00  0.00    -0.508 OA
ATOM     13  H   UNL     1     -10.825 -20.035  33.499  1.00  0.00     0.293 HD
ENDBRANCH   3  12
TORSDOF 1
ENDMDL
MODEL 5
REMARK VINA RESULT:    -4.973      1.975      4.448
REMARK INTER + INTRA:          -5.119
REMARK INTER:                  -5.119
REMARK INTRA:                   0.000
REMARK UNBOUND:                 0.000
REMARK SMILES O=c1ccc2ccc(O)cc2o1
REMARK SMILES IDX 6 1 7 2 8 3 10 4 11 5 5 6 4 7 3 8 2 9 1 10 12 11 9 12
REMARK H PARENT 9 13
REMARK Flexibility Score: inf
ROOT
ATOM      1  C   UNL     1      -5.127 -24.101  36.388  1.00  0.00     0.016 A 
ATOM      2  C   UNL     1      -4.790 -22.892  35.772  1.00  0.00     0.047 A 
ATOM      3  C   UNL     1      -5.128 -22.662  34.434  1.00  0.00     0.119 A 
ATOM      4  C   UNL     1      -5.809 -23.648  33.704  1.00  0.00     0.094 A 
ATOM      5  C   UNL     1      -6.151 -24.860  34.312  1.00  0.00     0.142 A 
ATOM      6  C   UNL     1      -5.808 -25.089  35.663  1.00  0.00     0.018 A 
ATOM      7  C   UNL     1      -6.162 -26.311  36.244  1.00  0.00     0.019 A 
ATOM      8  C   UNL     1      -6.839 -27.261  35.478  1.00  0.00     0.094 A 
ATOM      9  C   UNL     1      -7.146 -26.964  34.146  1.00  0.00     0.336 A 
ATOM     10  O   UNL     1      -7.756 -27.810  33.439  1.00  0.00    -0.246 OA
ATOM     11  O   UNL     1      -6.797 -25.794  33.618  1.00  0.00    -0.423 OA
ENDROOT
BRANCH   3  12
ATOM     12  O   UNL     1      -4.783 -21.450  33.838  1.00  0.00    -0.508 OA
ATOM     13  H   UNL     1      -5.039 -20.563  34.256  1.00  0.00     0.293 HD
ENDBRANCH   3  12
TORSDOF 1
ENDMDL
MODEL 6
REMARK VINA RESULT:    -4.854      1.836      4.739
REMARK INTER + INTRA:          -4.996
REMARK INTER:                  -4.996
REMARK INTRA:                   0.000
REMARK UNBOUND:                 0.000
REMARK SMILES O=c1ccc2ccc(O)cc2o1
REMARK SMILES IDX 6 1 7 2 8 3 10 4 11 5 5 6 4 7 3 8 2 9 1 10 12 11 9 12
REMARK H PARENT 9 13
REMARK Flexibility Score: inf
ROOT
ATOM      1  C   UNL     1      -5.156 -24.780  34.362  1.00  0.00     0.016 A 
ATOM      2  C   UNL     1      -5.121 -23.520  33.757  1.00  0.00     0.047 A 
ATOM      3  C   UNL     1      -6.227 -22.667  33.836  1.00  0.00     0.119 A 
ATOM      4  C   UNL     1      -7.379 -23.075  34.526  1.00  0.00     0.094 A 
ATOM      5  C   UNL     1      -7.423 -24.333  35.135  1.00  0.00     0.142 A 
ATOM      6  C   UNL     1      -6.305 -25.192  35.053  1.00  0.00     0.018 A 
ATOM      7  C   UNL     1      -6.379 -26.444  35.671  1.00  0.00     0.019 A 
ATOM      8  C   UNL     1      -7.545 -26.806  36.346  1.00  0.00     0.094 A 
ATOM      9  C   UNL     1      -8.613 -25.903  36.386  1.00  0.00     0.336 A 
ATOM     10  O   UNL     1      -9.674 -26.212  36.989  1.00  0.00    -0.246 OA
ATOM     11  O   UNL     1      -8.517 -24.718  35.788  1.00  0.00    -0.423 OA
ENDROOT
BRANCH   3  12
ATOM     12  O   UNL     1      -6.173 -21.415  33.225  1.00  0.00    -0.508 OA
ATOM     13  H   UNL     1      -7.009 -20.960  32.876  1.00  0.00     0.293 HD
ENDBRANCH   3  12
TORSDOF 1
ENDMDL
MODEL 7
REMARK VINA RESULT:    -4.821      1.737      2.335
REMARK INTER + INTRA:          -4.962
REMARK INTER:                  -4.962
REMARK INTRA:                   0.000
REMARK UNBOUND:                 0.000
REMARK SMILES O=c1ccc2ccc(O)cc2o1
REMARK SMILES IDX 6 1 7 2 8 3 10 4 11 5 5 6 4 7 3 8 2 9 1 10 12 11 9 12
REMARK H PARENT 9 13
REMARK Flexibility Score: inf
ROOT
ATOM      1  C   UNL     1      -6.368 -26.583  35.380  1.00  0.00     0.016 A 
ATOM      2  C   UNL     1      -7.479 -27.026  36.105  1.00  0.00     0.047 A 
ATOM      3  C   UNL     1      -8.529 -26.148  36.397  1.00  0.00     0.119 A 
ATOM      4  C   UNL     1      -8.469 -24.816  35.961  1.00  0.00     0.094 A 
ATOM      5  C   UNL     1      -7.363 -24.364  35.234  1.00  0.00     0.142 A 
ATOM      6  C   UNL     1      -6.305 -25.253  34.942  1.00  0.00     0.018 A 
ATOM      7  C   UNL     1      -5.212 -24.772  34.214  1.00  0.00     0.019 A 
ATOM      8  C   UNL     1      -5.198 -23.440  33.801  1.00  0.00     0.094 A 
ATOM      9  C   UNL     1      -6.282 -22.617  34.128  1.00  0.00     0.336 A 
ATOM     10  O   UNL     1      -6.286 -21.411  33.764  1.00  0.00    -0.246 OA
ATOM     11  O   UNL     1      -7.310 -23.100  34.822  1.00  0.00    -0.423 OA
ENDROOT
BRANCH   3  12
ATOM     12  O   UNL     1      -9.627 -26.609  37.122  1.00  0.00    -0.508 OA
ATOM     13  H   UNL     1     -10.501 -26.843  36.666  1.00  0.00     0.293 HD
ENDBRANCH   3  12
TORSDOF 1
ENDMDL
MODEL 8
REMARK VINA RESULT:    -4.784      3.079      4.334
REMARK INTER + INTRA:          -4.924
REMARK INTER:                  -4.924
REMARK INTRA:                   0.000
REMARK UNBOUND:                 0.000
REMARK SMILES O=c1ccc2ccc(O)cc2o1
REMARK SMILES IDX 6 1 7 2 8 3 10 4 11 5 5 6 4 7 3 8 2 9 1 10 12 11 9 12
REMARK H PARENT 9 13
REMARK Flexibility Score: inf
ROOT
ATOM      1  C   UNL     1      -5.930 -24.336  33.036  1.00  0.00     0.016 A 
ATOM      2  C   UNL     1      -5.420 -24.942  34.189  1.00  0.00     0.047 A 
ATOM      3  C   UNL     1      -6.000 -24.687  35.437  1.00  0.00     0.119 A 
ATOM      4  C   UNL     1      -7.098 -23.820  35.535  1.00  0.00     0.094 A 
ATOM      5  C   UNL     1      -7.615 -23.210  34.388  1.00  0.00     0.142 A 
ATOM      6  C   UNL     1      -7.028 -23.469  33.130  1.00  0.00     0.018 A 
ATOM      7  C   UNL     1      -7.567 -22.844  32.001  1.00  0.00     0.019 A 
ATOM      8  C   UNL     1      -8.660 -21.990  32.148  1.00  0.00     0.094 A 
ATOM      9  C   UNL     1      -9.189 -21.780  33.426  1.00  0.00     0.336 A 
ATOM     10  O   UNL     1     -10.175 -21.011  33.579  1.00  0.00    -0.246 OA
ATOM     11  O   UNL     1      -8.657 -22.387  34.484  1.00  0.00    -0.423 OA
ENDROOT
BRANCH   3  12
ATOM     12  O   UNL     1      -5.476 -25.300  36.574  1.00  0.00    -0.508 OA
ATOM     13  H   UNL     1      -4.737 -24.868  37.116  1.00  0.00     0.293 HD
ENDBRANCH   3  12
TORSDOF 1
ENDMDL
MODEL 9
REMARK VINA RESULT:    -4.707      5.144      7.924
REMARK INTER + INTRA:          -4.844
REMARK INTER:                  -4.844
REMARK INTRA:                   0.000
REMARK UNBOUND:                 0.000
REMARK SMILES O=c1ccc2ccc(O)cc2o1
REMARK SMILES IDX 6 1 7 2 8 3 10 4 11 5 5 6 4 7 3 8 2 9 1 10 12 11 9 12
REMARK H PARENT 9 13
REMARK Flexibility Score: inf
ROOT
ATOM      1  C   UNL     1      -4.737 -17.566  35.277  1.00  0.00     0.016 A 
ATOM      2  C   UNL     1      -3.615 -17.283  34.490  1.00  0.00     0.047 A 
ATOM      3  C   UNL     1      -3.309 -18.083  33.383  1.00  0.00     0.119 A 
ATOM      4  C   UNL     1      -4.130 -19.174  33.059  1.00  0.00     0.094 A 
ATOM      5  C   UNL     1      -5.253 -19.463  33.839  1.00  0.00     0.142 A 
ATOM      6  C   UNL     1      -5.559 -18.654  34.956  1.00  0.00     0.018 A 
ATOM      7  C   UNL     1      -6.690 -18.969  35.718  1.00  0.00     0.019 A 
ATOM      8  C   UNL     1      -7.475 -20.063  35.356  1.00  0.00     0.094 A 
ATOM      9  C   UNL     1      -7.110 -20.820  34.237  1.00  0.00     0.336 A 
ATOM     10  O   UNL     1      -7.807 -21.812  33.896  1.00  0.00    -0.246 OA
ATOM     11  O   UNL     1      -6.030 -20.499  33.529  1.00  0.00    -0.423 OA
ENDROOT
BRANCH   3  12
ATOM     12  O   UNL     1      -2.187 -17.786  32.612  1.00  0.00    -0.508 OA
ATOM     13  H   UNL     1      -2.169 -16.985  31.991  1.00  0.00     0.293 HD
ENDBRANCH   3  12
TORSDOF 1
ENDMDL
