MODEL 1
REMARK VINA RESULT:    -6.276      0.000      0.000
REMARK INTER + INTRA:          -7.872
REMARK INTER:                  -7.561
REMARK INTRA:                  -0.311
REMARK UNBOUND:                -0.311
REMARK SMILES O=c1c(O)c(-c2ccc(O)c(O)c2)oc2cc(O)cc(O)c12
REMARK SMILES IDX 5 1 3 2 2 3 1 4 22 5 20 6 19 7 17 8 16 9 15 10 14 11 6 12
REMARK SMILES IDX 7 13 8 14 9 15 13 16 11 17 10 18 12 20 4 22 21 24 18 26
REMARK H PARENT 10 19 12 21 4 23 21 25 18 27
REMARK Flexibility Score: inf
ROOT
ATOM      1  C   UNL     1      48.566 -27.330   5.461  1.00  0.00     0.180 A 
ATOM      2  C   UNL     1      49.671 -28.184   5.278  1.00  0.00     0.208 A 
ATOM      3  C   UNL     1      50.642 -27.842   4.324  1.00  0.00     0.238 A 
ATOM      4  O   UNL     1      51.642 -28.593   4.159  1.00  0.00    -0.285 OA
ATOM      5  C   UNL     1      50.484 -26.668   3.558  1.00  0.00     0.111 A 
ATOM      6  C   UNL     1      51.414 -26.254   2.574  1.00  0.00     0.134 A 
ATOM      7  C   UNL     1      51.179 -25.077   1.847  1.00  0.00     0.093 A 
ATOM      8  C   UNL     1      50.037 -24.309   2.083  1.00  0.00     0.123 A 
ATOM      9  C   UNL     1      49.114 -24.714   3.054  1.00  0.00     0.094 A 
ATOM     10  C   UNL     1      49.330 -25.881   3.791  1.00  0.00     0.146 A 
ATOM     11  O   UNL     1      48.442 -26.240   4.710  1.00  0.00    -0.452 OA
ENDROOT
BRANCH   1  12
ATOM     12  C   UNL     1      47.510 -27.613   6.460  1.00  0.00     0.025 A 
ATOM     13  C   UNL     1      46.280 -28.138   6.034  1.00  0.00     0.016 A 
ATOM     14  C   UNL     1      45.262 -28.392   6.957  1.00  0.00     0.051 A 
ATOM     15  C   UNL     1      45.454 -28.112   8.315  1.00  0.00     0.157 A 
ATOM     16  C   UNL     1      47.691 -27.315   7.822  1.00  0.00     0.062 A 
ATOM     17  C   UNL     1      46.670 -27.568   8.748  1.00  0.00     0.158 A 
BRANCH  15  18
ATOM     18  O   UNL     1      44.442 -28.367   9.240  1.00  0.00    -0.504 OA
ATOM     19  H   UNL     1      43.990 -27.617   9.750  1.00  0.00     0.293 HD
ENDBRANCH  15  18
BRANCH  17  20
ATOM     20  O   UNL     1      46.853 -27.278  10.100  1.00  0.00    -0.504 OA
ATOM     21  H   UNL     1      46.818 -28.003  10.807  1.00  0.00     0.293 HD
ENDBRANCH  17  20
ENDBRANCH   1  12
BRANCH   2  22
ATOM     22  O   UNL     1      49.780 -29.366   6.015  1.00  0.00    -0.502 OA
ATOM     23  H   UNL     1      50.567 -29.557   6.622  1.00  0.00     0.293 HD
ENDBRANCH   2  22
BRANCH   6  24
ATOM     24  O   UNL     1      52.564 -26.999   2.315  1.00  0.00    -0.507 OA
ATOM     25  H   UNL     1      53.037 -27.521   3.044  1.00  0.00     0.293 HD
ENDBRANCH   6  24
BRANCH   8  26
ATOM     26  O   UNL     1      49.828 -23.146   1.346  1.00  0.00    -0.508 OA
ATOM     27  H   UNL     1      49.869 -23.145   0.334  1.00  0.00     0.293 HD
ENDBRANCH   8  26
TORSDOF 6
ENDMDL
MODEL 2
REMARK VINA RESULT:    -5.934      1.634      3.487
REMARK INTER + INTRA:          -7.459
REMARK INTER:                  -7.136
REMARK INTRA:                  -0.323
REMARK UNBOUND:                -0.311
REMARK SMILES O=c1c(O)c(-c2ccc(O)c(O)c2)oc2cc(O)cc(O)c12
REMARK SMILES IDX 5 1 3 2 2 3 1 4 22 5 20 6 19 7 17 8 16 9 15 10 14 11 6 12
REMARK SMILES IDX 7 13 8 14 9 15 13 16 11 17 10 18 12 20 4 22 21 24 18 26
REMARK H PARENT 10 19 12 21 4 23 21 25 18 27
REMARK Flexibility Score: inf
ROOT
ATOM      1  C   UNL     1      49.036 -27.994   5.543  1.00  0.00     0.180 A 
ATOM      2  C   UNL     1      49.184 -26.977   4.581  1.00  0.00     0.208 A 
ATOM      3  C   UNL     1      50.267 -27.038   3.689  1.00  0.00     0.238 A 
ATOM      4  O   UNL     1      50.403 -26.138   2.817  1.00  0.00    -0.285 OA
ATOM      5  C   UNL     1      51.191 -28.099   3.787  1.00  0.00     0.111 A 
ATOM      6  C   UNL     1      52.310 -28.232   2.931  1.00  0.00     0.134 A 
ATOM      7  C   UNL     1      53.190 -29.312   3.098  1.00  0.00     0.093 A 
ATOM      8  C   UNL     1      52.973 -30.258   4.101  1.00  0.00     0.123 A 
ATOM      9  C   UNL     1      51.868 -30.132   4.951  1.00  0.00     0.094 A 
ATOM     10  C   UNL     1      50.979 -29.065   4.800  1.00  0.00     0.146 A 
ATOM     11  O   UNL     1      49.936 -28.971   5.615  1.00  0.00    -0.452 OA
ENDROOT
BRANCH   1  12
ATOM     12  C   UNL     1      47.911 -28.010   6.506  1.00  0.00     0.025 A 
ATOM     13  C   UNL     1      46.721 -28.673   6.166  1.00  0.00     0.016 A 
ATOM     14  C   UNL     1      45.639 -28.682   7.050  1.00  0.00     0.051 A 
ATOM     15  C   UNL     1      45.726 -28.017   8.279  1.00  0.00     0.157 A 
ATOM     16  C   UNL     1      47.987 -27.327   7.732  1.00  0.00     0.062 A 
ATOM     17  C   UNL     1      46.901 -27.334   8.620  1.00  0.00     0.158 A 
BRANCH  15  18
ATOM     18  O   UNL     1      44.650 -28.026   9.166  1.00  0.00    -0.504 OA
ATOM     19  H   UNL     1      44.712 -27.590  10.079  1.00  0.00     0.293 HD
ENDBRANCH  15  18
BRANCH  17  20
ATOM     20  O   UNL     1      46.980 -26.662   9.838  1.00  0.00    -0.504 OA
ATOM     21  H   UNL     1      46.174 -26.195  10.239  1.00  0.00     0.293 HD
ENDBRANCH  17  20
ENDBRANCH   1  12
BRANCH   2  22
ATOM     22  O   UNL     1      48.282 -25.910   4.537  1.00  0.00    -0.502 OA
ATOM     23  H   UNL     1      47.831 -25.547   5.367  1.00  0.00     0.293 HD
ENDBRANCH   2  22
BRANCH   6  24
ATOM     24  O   UNL     1      52.555 -27.303   1.919  1.00  0.00    -0.507 OA
ATOM     25  H   UNL     1      52.077 -26.409   1.889  1.00  0.00     0.293 HD
ENDBRANCH   6  24
BRANCH   8  26
ATOM     26  O   UNL     1      53.862 -31.321   4.247  1.00  0.00    -0.508 OA
ATOM     27  H   UNL     1      54.364 -31.704   3.455  1.00  0.00     0.293 HD
ENDBRANCH   8  26
TORSDOF 6
ENDMDL
MODEL 3
REMARK VINA RESULT:    -5.898      1.712      6.861
REMARK INTER + INTRA:          -7.416
REMARK INTER:                  -7.158
REMARK INTRA:                  -0.257
REMARK UNBOUND:                -0.311
REMARK SMILES O=c1c(O)c(-c2ccc(O)c(O)c2)oc2cc(O)cc(O)c12
REMARK SMILES IDX 5 1 3 2 2 3 1 4 22 5 20 6 19 7 17 8 16 9 15 10 14 11 6 12
REMARK SMILES IDX 7 13 8 14 9 15 13 16 11 17 10 18 12 20 4 22 21 24 18 26
REMARK H PARENT 10 19 12 21 4 23 21 25 18 27
REMARK Flexibility Score: inf
ROOT
ATOM      1  C   UNL     1      49.056 -27.004   5.183  1.00  0.00     0.180 A 
ATOM      2  C   UNL     1      49.763 -26.409   6.246  1.00  0.00     0.208 A 
ATOM      3  C   UNL     1      49.196 -26.424   7.530  1.00  0.00     0.238 A 
ATOM      4  O   UNL     1      49.825 -25.904   8.492  1.00  0.00    -0.285 OA
ATOM      5  C   UNL     1      47.930 -27.012   7.726  1.00  0.00     0.111 A 
ATOM      6  C   UNL     1      47.287 -27.065   8.987  1.00  0.00     0.134 A 
ATOM      7  C   UNL     1      46.021 -27.659   9.097  1.00  0.00     0.093 A 
ATOM      8  C   UNL     1      45.387 -28.200   7.977  1.00  0.00     0.123 A 
ATOM      9  C   UNL     1      46.017 -28.151   6.729  1.00  0.00     0.094 A 
ATOM     10  C   UNL     1      47.279 -27.565   6.597  1.00  0.00     0.146 A 
ATOM     11  O   UNL     1      47.857 -27.535   5.402  1.00  0.00    -0.452 OA
ENDROOT
BRANCH   1  12
ATOM     12  C   UNL     1      49.596 -27.045   3.805  1.00  0.00     0.025 A 
ATOM     13  C   UNL     1      48.990 -26.270   2.803  1.00  0.00     0.016 A 
ATOM     14  C   UNL     1      49.470 -26.310   1.491  1.00  0.00     0.051 A 
ATOM     15  C   UNL     1      50.551 -27.136   1.159  1.00  0.00     0.157 A 
ATOM     16  C   UNL     1      50.669 -27.887   3.462  1.00  0.00     0.062 A 
ATOM     17  C   UNL     1      51.149 -27.929   2.146  1.00  0.00     0.158 A 
BRANCH  15  18
ATOM     18  O   UNL     1      51.034 -27.176  -0.148  1.00  0.00    -0.504 OA
ATOM     19  H   UNL     1      50.438 -26.967  -0.940  1.00  0.00     0.293 HD
ENDBRANCH  15  18
BRANCH  17  20
ATOM     20  O   UNL     1      52.217 -28.760   1.810  1.00  0.00    -0.504 OA
ATOM     21  H   UNL     1      52.720 -28.650   0.936  1.00  0.00     0.293 HD
ENDBRANCH  17  20
ENDBRANCH   1  12
BRANCH   2  22
ATOM     22  O   UNL     1      50.994 -25.790   6.016  1.00  0.00    -0.502 OA
ATOM     23  H   UNL     1      51.684 -25.665   6.747  1.00  0.00     0.293 HD
ENDBRANCH   2  22
BRANCH   6  24
ATOM     24  O   UNL     1      47.894 -26.533  10.125  1.00  0.00    -0.507 OA
ATOM     25  H   UNL     1      47.351 -26.224  10.923  1.00  0.00     0.293 HD
ENDBRANCH   6  24
BRANCH   8  26
ATOM     26  O   UNL     1      44.130 -28.784   8.114  1.00  0.00    -0.508 OA
ATOM     27  H   UNL     1      44.008 -29.790   8.097  1.00  0.00     0.293 HD
ENDBRANCH   8  26
TORSDOF 6
ENDMDL
MODEL 4
REMARK VINA RESULT:    -5.871     11.543     14.047
REMARK INTER + INTRA:          -7.383
REMARK INTER:                  -7.130
REMARK INTRA:                  -0.254
REMARK UNBOUND:                -0.311
REMARK SMILES O=c1c(O)c(-c2ccc(O)c(O)c2)oc2cc(O)cc(O)c12
REMARK SMILES IDX 5 1 3 2 2 3 1 4 22 5 20 6 19 7 17 8 16 9 15 10 14 11 6 12
REMARK SMILES IDX 7 13 8 14 9 15 13 16 11 17 10 18 12 20 4 22 21 24 18 26
REMARK H PARENT 10 19 12 21 4 23 21 25 18 27
REMARK Flexibility Score: inf
ROOT
ATOM      1  C   UNL     1      52.571 -33.674  -5.260  1.00  0.00     0.180 A 
ATOM      2  C   UNL     1      53.801 -34.238  -5.649  1.00  0.00     0.208 A 
ATOM      3  C   UNL     1      53.800 -35.455  -6.348  1.00  0.00     0.238 A 
ATOM      4  O   UNL     1      54.895 -35.963  -6.710  1.00  0.00    -0.285 OA
ATOM      5  C   UNL     1      52.575 -36.096  -6.628  1.00  0.00     0.111 A 
ATOM      6  C   UNL     1      52.487 -37.326  -7.323  1.00  0.00     0.134 A 
ATOM      7  C   UNL     1      51.230 -37.906  -7.554  1.00  0.00     0.093 A 
ATOM      8  C   UNL     1      50.065 -37.282  -7.106  1.00  0.00     0.123 A 
ATOM      9  C   UNL     1      50.146 -36.066  -6.417  1.00  0.00     0.094 A 
ATOM     10  C   UNL     1      51.387 -35.471  -6.179  1.00  0.00     0.146 A 
ATOM     11  O   UNL     1      51.437 -34.315  -5.528  1.00  0.00    -0.452 OA
ENDROOT
BRANCH   1  12
ATOM     12  C   UNL     1      52.489 -32.384  -4.537  1.00  0.00     0.025 A 
ATOM     13  C   UNL     1      52.740 -31.189  -5.228  1.00  0.00     0.016 A 
ATOM     14  C   UNL     1      52.689 -29.962  -4.560  1.00  0.00     0.051 A 
ATOM     15  C   UNL     1      52.401 -29.915  -3.190  1.00  0.00     0.157 A 
ATOM     16  C   UNL     1      52.220 -32.334  -3.158  1.00  0.00     0.062 A 
ATOM     17  C   UNL     1      52.170 -31.104  -2.487  1.00  0.00     0.158 A 
BRANCH  15  18
ATOM     18  O   UNL     1      52.347 -28.694  -2.521  1.00  0.00    -0.504 OA
ATOM     19  H   UNL     1      52.793 -28.562  -1.621  1.00  0.00     0.293 HD
ENDBRANCH  15  18
BRANCH  17  20
ATOM     20  O   UNL     1      51.898 -31.055  -1.120  1.00  0.00    -0.504 OA
ATOM     21  H   UNL     1      52.302 -31.724  -0.475  1.00  0.00     0.293 HD
ENDBRANCH  17  20
ENDBRANCH   1  12
BRANCH   2  22
ATOM     22  O   UNL     1      55.003 -33.607  -5.316  1.00  0.00    -0.502 OA
ATOM     23  H   UNL     1      55.895 -33.908  -5.688  1.00  0.00     0.293 HD
ENDBRANCH   2  22
BRANCH   6  24
ATOM     24  O   UNL     1      53.633 -37.975  -7.784  1.00  0.00    -0.507 OA
ATOM     25  H   UNL     1      54.552 -37.759  -7.415  1.00  0.00     0.293 HD
ENDBRANCH   6  24
BRANCH   8  26
ATOM     26  O   UNL     1      48.830 -37.879  -7.347  1.00  0.00    -0.508 OA
ATOM     27  H   UNL     1      48.078 -37.836  -6.668  1.00  0.00     0.293 HD
ENDBRANCH   8  26
TORSDOF 6
ENDMDL
MODEL 5
REMARK VINA RESULT:    -5.845     12.800     14.375
REMARK INTER + INTRA:          -7.353
REMARK INTER:                  -7.422
REMARK INTRA:                   0.069
REMARK UNBOUND:                -0.311
REMARK SMILES O=c1c(O)c(-c2ccc(O)c(O)c2)oc2cc(O)cc(O)c12
REMARK SMILES IDX 5 1 3 2 2 3 1 4 22 5 20 6 19 7 17 8 16 9 15 10 14 11 6 12
REMARK SMILES IDX 7 13 8 14 9 15 13 16 11 17 10 18 12 20 4 22 21 24 18 26
REMARK H PARENT 10 19 12 21 4 23 21 25 18 27
REMARK Flexibility Score: inf
ROOT
ATOM      1  C   UNL     1      39.128 -24.222  -4.569  1.00  0.00     0.180 A 
ATOM      2  C   UNL     1      38.303 -23.444  -5.405  1.00  0.00     0.208 A 
ATOM      3  C   UNL     1      38.557 -23.428  -6.785  1.00  0.00     0.238 A 
ATOM      4  O   UNL     1      37.817 -22.745  -7.544  1.00  0.00    -0.285 OA
ATOM      5  C   UNL     1      39.639 -24.170  -7.303  1.00  0.00     0.111 A 
ATOM      6  C   UNL     1      39.965 -24.204  -8.681  1.00  0.00     0.134 A 
ATOM      7  C   UNL     1      41.065 -24.959  -9.116  1.00  0.00     0.093 A 
ATOM      8  C   UNL     1      41.841 -25.678  -8.206  1.00  0.00     0.123 A 
ATOM      9  C   UNL     1      41.524 -25.647  -6.843  1.00  0.00     0.094 A 
ATOM     10  C   UNL     1      40.432 -24.903  -6.389  1.00  0.00     0.146 A 
ATOM     11  O   UNL     1      40.149 -24.896  -5.092  1.00  0.00    -0.452 OA
ENDROOT
BRANCH   1  12
ATOM     12  C   UNL     1      38.913 -24.305  -3.107  1.00  0.00     0.025 A 
ATOM     13  C   UNL     1      37.617 -24.511  -2.611  1.00  0.00     0.016 A 
ATOM     14  C   UNL     1      37.388 -24.572  -1.233  1.00  0.00     0.051 A 
ATOM     15  C   UNL     1      38.449 -24.411  -0.333  1.00  0.00     0.157 A 
ATOM     16  C   UNL     1      39.972 -24.125  -2.199  1.00  0.00     0.062 A 
ATOM     17  C   UNL     1      39.743 -24.184  -0.817  1.00  0.00     0.158 A 
BRANCH  15  18
ATOM     18  O   UNL     1      38.225 -24.474   1.041  1.00  0.00    -0.504 OA
ATOM     19  H   UNL     1      37.322 -24.735   1.420  1.00  0.00     0.293 HD
ENDBRANCH  15  18
BRANCH  17  20
ATOM     20  O   UNL     1      40.795 -24.011   0.081  1.00  0.00    -0.504 OA
ATOM     21  H   UNL     1      40.740 -23.340   0.839  1.00  0.00     0.293 HD
ENDBRANCH  17  20
ENDBRANCH   1  12
BRANCH   2  22
ATOM     22  O   UNL     1      37.267 -22.680  -4.860  1.00  0.00    -0.502 OA
ATOM     23  H   UNL     1      36.433 -23.097  -4.469  1.00  0.00     0.293 HD
ENDBRANCH   2  22
BRANCH   6  24
ATOM     24  O   UNL     1      39.209 -23.496  -9.615  1.00  0.00    -0.507 OA
ATOM     25  H   UNL     1      38.440 -22.898  -9.336  1.00  0.00     0.293 HD
ENDBRANCH   6  24
BRANCH   8  26
ATOM     26  O   UNL     1      42.928 -26.418  -8.664  1.00  0.00    -0.508 OA
ATOM     27  H   UNL     1      43.636 -26.769  -8.030  1.00  0.00     0.293 HD
ENDBRANCH   8  26
TORSDOF 6
ENDMDL
MODEL 6
REMARK VINA RESULT:    -5.746      9.448     11.926
REMARK INTER + INTRA:          -7.233
REMARK INTER:                  -6.922
REMARK INTRA:                  -0.311
REMARK UNBOUND:                -0.311
REMARK SMILES O=c1c(O)c(-c2ccc(O)c(O)c2)oc2cc(O)cc(O)c12
REMARK SMILES IDX 5 1 3 2 2 3 1 4 22 5 20 6 19 7 17 8 16 9 15 10 14 11 6 12
REMARK SMILES IDX 7 13 8 14 9 15 13 16 11 17 10 18 12 20 4 22 21 24 18 26
REMARK H PARENT 10 19 12 21 4 23 21 25 18 27
REMARK Flexibility Score: inf
ROOT
ATOM      1  C   UNL     1      53.978 -32.607  -2.683  1.00  0.00     0.180 A 
ATOM      2  C   UNL     1      54.676 -31.568  -3.328  1.00  0.00     0.208 A 
ATOM      3  C   UNL     1      55.168 -31.784  -4.625  1.00  0.00     0.238 A 
ATOM      4  O   UNL     1      55.785 -30.857  -5.216  1.00  0.00    -0.285 OA
ATOM      5  C   UNL     1      54.972 -33.035  -5.245  1.00  0.00     0.111 A 
ATOM      6  C   UNL     1      55.440 -33.335  -6.548  1.00  0.00     0.134 A 
ATOM      7  C   UNL     1      55.213 -34.608  -7.092  1.00  0.00     0.093 A 
ATOM      8  C   UNL     1      54.531 -35.584  -6.362  1.00  0.00     0.123 A 
ATOM      9  C   UNL     1      54.067 -35.293  -5.074  1.00  0.00     0.094 A 
ATOM     10  C   UNL     1      54.281 -34.031  -4.515  1.00  0.00     0.146 A 
ATOM     11  O   UNL     1      53.826 -33.779  -3.293  1.00  0.00    -0.452 OA
ENDROOT
BRANCH   1  12
ATOM     12  C   UNL     1      53.413 -32.450  -1.324  1.00  0.00     0.025 A 
ATOM     13  C   UNL     1      54.078 -33.024  -0.229  1.00  0.00     0.016 A 
ATOM     14  C   UNL     1      53.552 -32.906   1.060  1.00  0.00     0.051 A 
ATOM     15  C   UNL     1      52.346 -32.227   1.271  1.00  0.00     0.157 A 
ATOM     16  C   UNL     1      52.192 -31.785  -1.109  1.00  0.00     0.062 A 
ATOM     17  C   UNL     1      51.663 -31.668   0.183  1.00  0.00     0.158 A 
BRANCH  15  18
ATOM     18  O   UNL     1      51.819 -32.104   2.556  1.00  0.00    -0.504 OA
ATOM     19  H   UNL     1      51.257 -32.839   2.970  1.00  0.00     0.293 HD
ENDBRANCH  15  18
BRANCH  17  20
ATOM     20  O   UNL     1      50.456 -31.003   0.395  1.00  0.00    -0.504 OA
ATOM     21  H   UNL     1      50.177 -30.690   1.318  1.00  0.00     0.293 HD
ENDBRANCH  17  20
ENDBRANCH   1  12
BRANCH   2  22
ATOM     22  O   UNL     1      54.899 -30.354  -2.673  1.00  0.00    -0.502 OA
ATOM     23  H   UNL     1      55.694 -30.204  -2.063  1.00  0.00     0.293 HD
ENDBRANCH   2  22
BRANCH   6  24
ATOM     24  O   UNL     1      56.125 -32.382  -7.302  1.00  0.00    -0.507 OA
ATOM     25  H   UNL     1      57.117 -32.466  -7.494  1.00  0.00     0.293 HD
ENDBRANCH   6  24
BRANCH   8  26
ATOM     26  O   UNL     1      54.320 -36.840  -6.925  1.00  0.00    -0.508 OA
ATOM     27  H   UNL     1      55.085 -37.386  -7.305  1.00  0.00     0.293 HD
ENDBRANCH   8  26
TORSDOF 6
ENDMDL
MODEL 7
REMARK VINA RESULT:    -5.720     13.100     14.799
REMARK INTER + INTRA:          -7.202
REMARK INTER:                  -6.880
REMARK INTRA:                  -0.321
REMARK UNBOUND:                -0.311
REMARK SMILES O=c1c(O)c(-c2ccc(O)c(O)c2)oc2cc(O)cc(O)c12
REMARK SMILES IDX 5 1 3 2 2 3 1 4 22 5 20 6 19 7 17 8 16 9 15 10 14 11 6 12
REMARK SMILES IDX 7 13 8 14 9 15 13 16 11 17 10 18 12 20 4 22 21 24 18 26
REMARK H PARENT 10 19 12 21 4 23 21 25 18 27
REMARK Flexibility Score: inf
ROOT
ATOM      1  C   UNL     1      38.481 -22.851  -3.356  1.00  0.00     0.180 A 
ATOM      2  C   UNL     1      38.408 -21.454  -3.521  1.00  0.00     0.208 A 
ATOM      3  C   UNL     1      38.122 -20.934  -4.793  1.00  0.00     0.238 A 
ATOM      4  O   UNL     1      38.043 -19.686  -4.950  1.00  0.00    -0.285 OA
ATOM      5  C   UNL     1      37.934 -21.814  -5.879  1.00  0.00     0.111 A 
ATOM      6  C   UNL     1      37.646 -21.372  -7.193  1.00  0.00     0.134 A 
ATOM      7  C   UNL     1      37.483 -22.311  -8.222  1.00  0.00     0.093 A 
ATOM      8  C   UNL     1      37.600 -23.678  -7.965  1.00  0.00     0.123 A 
ATOM      9  C   UNL     1      37.884 -24.121  -6.668  1.00  0.00     0.094 A 
ATOM     10  C   UNL     1      38.049 -23.203  -5.629  1.00  0.00     0.146 A 
ATOM     11  O   UNL     1      38.313 -23.649  -4.406  1.00  0.00    -0.452 OA
ENDROOT
BRANCH   1  12
ATOM     12  C   UNL     1      38.759 -23.475  -2.043  1.00  0.00     0.025 A 
ATOM     13  C   UNL     1      37.690 -23.822  -1.203  1.00  0.00     0.016 A 
ATOM     14  C   UNL     1      37.931 -24.393   0.050  1.00  0.00     0.051 A 
ATOM     15  C   UNL     1      39.244 -24.611   0.486  1.00  0.00     0.157 A 
ATOM     16  C   UNL     1      40.076 -23.677  -1.593  1.00  0.00     0.062 A 
ATOM     17  C   UNL     1      40.319 -24.249  -0.336  1.00  0.00     0.158 A 
BRANCH  15  18
ATOM     18  O   UNL     1      39.489 -25.183   1.734  1.00  0.00    -0.504 OA
ATOM     19  H   UNL     1      39.234 -24.710   2.593  1.00  0.00     0.293 HD
ENDBRANCH  15  18
BRANCH  17  20
ATOM     20  O   UNL     1      41.625 -24.455   0.107  1.00  0.00    -0.504 OA
ATOM     21  H   UNL     1      42.024 -25.385   0.168  1.00  0.00     0.293 HD
ENDBRANCH  17  20
ENDBRANCH   1  12
BRANCH   2  22
ATOM     22  O   UNL     1      38.647 -20.602  -2.439  1.00  0.00    -0.502 OA
ATOM     23  H   UNL     1      39.153 -19.731  -2.536  1.00  0.00     0.293 HD
ENDBRANCH   2  22
BRANCH   6  24
ATOM     24  O   UNL     1      37.523 -20.013  -7.483  1.00  0.00    -0.507 OA
ATOM     25  H   UNL     1      37.810 -19.630  -8.376  1.00  0.00     0.293 HD
ENDBRANCH   6  24
BRANCH   8  26
ATOM     26  O   UNL     1      37.433 -24.590  -9.005  1.00  0.00    -0.508 OA
ATOM     27  H   UNL     1      36.802 -24.405  -9.776  1.00  0.00     0.293 HD
ENDBRANCH   8  26
TORSDOF 6
ENDMDL
MODEL 8
REMARK VINA RESULT:    -5.716     11.219     14.046
REMARK INTER + INTRA:          -7.197
REMARK INTER:                  -6.997
REMARK INTRA:                  -0.201
REMARK UNBOUND:                -0.311
REMARK SMILES O=c1c(O)c(-c2ccc(O)c(O)c2)oc2cc(O)cc(O)c12
REMARK SMILES IDX 5 1 3 2 2 3 1 4 22 5 20 6 19 7 17 8 16 9 15 10 14 11 6 12
REMARK SMILES IDX 7 13 8 14 9 15 13 16 11 17 10 18 12 20 4 22 21 24 18 26
REMARK H PARENT 10 19 12 21 4 23 21 25 18 27
REMARK Flexibility Score: inf
ROOT
ATOM      1  C   UNL     1      52.293 -33.625  -5.937  1.00  0.00     0.180 A 
ATOM      2  C   UNL     1      52.886 -32.631  -6.739  1.00  0.00     0.208 A 
ATOM      3  C   UNL     1      53.210 -31.395  -6.160  1.00  0.00     0.238 A 
ATOM      4  O   UNL     1      53.751 -30.502  -6.867  1.00  0.00    -0.285 OA
ATOM      5  C   UNL     1      52.918 -31.165  -4.800  1.00  0.00     0.111 A 
ATOM      6  C   UNL     1      53.208 -29.945  -4.141  1.00  0.00     0.134 A 
ATOM      7  C   UNL     1      52.878 -29.791  -2.786  1.00  0.00     0.093 A 
ATOM      8  C   UNL     1      52.265 -30.828  -2.080  1.00  0.00     0.123 A 
ATOM      9  C   UNL     1      51.976 -32.035  -2.725  1.00  0.00     0.094 A 
ATOM     10  C   UNL     1      52.298 -32.210  -4.074  1.00  0.00     0.146 A 
ATOM     11  O   UNL     1      52.018 -33.367  -4.661  1.00  0.00    -0.452 OA
ENDROOT
BRANCH   1  12
ATOM     12  C   UNL     1      51.939 -34.960  -6.470  1.00  0.00     0.025 A 
ATOM     13  C   UNL     1      50.594 -35.362  -6.489  1.00  0.00     0.016 A 
ATOM     14  C   UNL     1      50.240 -36.626  -6.969  1.00  0.00     0.051 A 
ATOM     15  C   UNL     1      51.227 -37.511  -7.420  1.00  0.00     0.157 A 
ATOM     16  C   UNL     1      52.928 -35.860  -6.906  1.00  0.00     0.062 A 
ATOM     17  C   UNL     1      52.574 -37.129  -7.386  1.00  0.00     0.158 A 
BRANCH  15  18
ATOM     18  O   UNL     1      50.878 -38.773  -7.902  1.00  0.00    -0.504 OA
ATOM     19  H   UNL     1      50.196 -39.351  -7.426  1.00  0.00     0.293 HD
ENDBRANCH  15  18
BRANCH  17  20
ATOM     20  O   UNL     1      53.555 -38.018  -7.824  1.00  0.00    -0.504 OA
ATOM     21  H   UNL     1      54.532 -37.751  -7.866  1.00  0.00     0.293 HD
ENDBRANCH  17  20
ENDBRANCH   1  12
BRANCH   2  22
ATOM     22  O   UNL     1      53.120 -32.867  -8.097  1.00  0.00    -0.502 OA
ATOM     23  H   UNL     1      52.511 -32.510  -8.823  1.00  0.00     0.293 HD
ENDBRANCH   2  22
BRANCH   6  24
ATOM     24  O   UNL     1      53.819 -28.891  -4.819  1.00  0.00    -0.507 OA
ATOM     25  H   UNL     1      53.565 -27.925  -4.644  1.00  0.00     0.293 HD
ENDBRANCH   6  24
BRANCH   8  26
ATOM     26  O   UNL     1      51.947 -30.649  -0.736  1.00  0.00    -0.508 OA
ATOM     27  H   UNL     1      52.614 -30.854  -0.001  1.00  0.00     0.293 HD
ENDBRANCH   8  26
TORSDOF 6
ENDMDL
MODEL 9
REMARK VINA RESULT:    -5.711      2.492      7.008
REMARK INTER + INTRA:          -7.191
REMARK INTER:                  -6.871
REMARK INTRA:                  -0.321
REMARK UNBOUND:                -0.311
REMARK SMILES O=c1c(O)c(-c2ccc(O)c(O)c2)oc2cc(O)cc(O)c12
REMARK SMILES IDX 5 1 3 2 2 3 1 4 22 5 20 6 19 7 17 8 16 9 15 10 14 11 6 12
REMARK SMILES IDX 7 13 8 14 9 15 13 16 11 17 10 18 12 20 4 22 21 24 18 26
REMARK H PARENT 10 19 12 21 4 23 21 25 18 27
REMARK Flexibility Score: inf
ROOT
ATOM      1  C   UNL     1      50.652 -28.283   5.833  1.00  0.00     0.180 A 
ATOM      2  C   UNL     1      51.106 -27.564   6.955  1.00  0.00     0.208 A 
ATOM      3  C   UNL     1      50.174 -27.150   7.920  1.00  0.00     0.238 A 
ATOM      4  O   UNL     1      50.572 -26.515   8.934  1.00  0.00    -0.285 OA
ATOM      5  C   UNL     1      48.807 -27.443   7.738  1.00  0.00     0.111 A 
ATOM      6  C   UNL     1      47.803 -27.059   8.661  1.00  0.00     0.134 A 
ATOM      7  C   UNL     1      46.462 -27.380   8.403  1.00  0.00     0.093 A 
ATOM      8  C   UNL     1      46.106 -28.075   7.246  1.00  0.00     0.123 A 
ATOM      9  C   UNL     1      47.093 -28.457   6.330  1.00  0.00     0.094 A 
ATOM     10  C   UNL     1      48.435 -28.149   6.569  1.00  0.00     0.146 A 
ATOM     11  O   UNL     1      49.353 -28.527   5.688  1.00  0.00    -0.452 OA
ENDROOT
BRANCH   1  12
ATOM     12  C   UNL     1      51.575 -28.769   4.783  1.00  0.00     0.025 A 
ATOM     13  C   UNL     1      52.124 -30.056   4.888  1.00  0.00     0.016 A 
ATOM     14  C   UNL     1      53.014 -30.527   3.919  1.00  0.00     0.051 A 
ATOM     15  C   UNL     1      53.379 -29.712   2.840  1.00  0.00     0.157 A 
ATOM     16  C   UNL     1      51.959 -27.947   3.708  1.00  0.00     0.062 A 
ATOM     17  C   UNL     1      52.853 -28.418   2.736  1.00  0.00     0.158 A 
BRANCH  15  18
ATOM     18  O   UNL     1      54.264 -30.179   1.869  1.00  0.00    -0.504 OA
ATOM     19  H   UNL     1      55.032 -30.797   2.105  1.00  0.00     0.293 HD
ENDBRANCH  15  18
BRANCH  17  20
ATOM     20  O   UNL     1      53.228 -27.605   1.667  1.00  0.00    -0.504 OA
ATOM     21  H   UNL     1      52.680 -27.562   0.816  1.00  0.00     0.293 HD
ENDBRANCH  17  20
ENDBRANCH   1  12
BRANCH   2  22
ATOM     22  O   UNL     1      52.460 -27.243   7.088  1.00  0.00    -0.502 OA
ATOM     23  H   UNL     1      53.136 -27.892   7.471  1.00  0.00     0.293 HD
ENDBRANCH   2  22
BRANCH   6  24
ATOM     24  O   UNL     1      48.127 -26.364   9.826  1.00  0.00    -0.507 OA
ATOM     25  H   UNL     1      47.541 -26.404  10.652  1.00  0.00     0.293 HD
ENDBRANCH   6  24
BRANCH   8  26
ATOM     26  O   UNL     1      44.767 -28.381   7.013  1.00  0.00    -0.508 OA
ATOM     27  H   UNL     1      44.416 -28.546   6.077  1.00  0.00     0.293 HD
ENDBRANCH   8  26
TORSDOF 6
ENDMDL
