MODEL 1
REMARK VINA RESULT:    -6.767      0.000      0.000
REMARK INTER + INTRA:          -7.308
REMARK INTER:                  -7.360
REMARK INTRA:                   0.052
REMARK UNBOUND:                 0.052
REMARK SMILES COc1cc2ccc(=O)oc2cc1O
REMARK SMILES IDX 3 1 13 2 12 3 11 4 5 5 4 6 6 7 7 8 8 9 9 10 10 11 2 12 1 13
REMARK SMILES IDX 14 14
REMARK H PARENT 14 15
REMARK Flexibility Score: inf
ROOT
ATOM      1  C   UNL     1     109.583 111.788 112.236  1.00  0.00     0.161 A 
ATOM      2  C   UNL     1     109.248 110.425 112.236  1.00  0.00     0.161 A 
ATOM      3  C   UNL     1     109.092 109.732 111.027  1.00  0.00     0.098 A 
ATOM      4  C   UNL     1     109.270 110.394 109.810  1.00  0.00     0.142 A 
ATOM      5  C   UNL     1     109.607 111.764 109.799  1.00  0.00     0.022 A 
ATOM      6  C   UNL     1     109.762 112.456 111.008  1.00  0.00     0.062 A 
ATOM      7  C   UNL     1     109.777 112.399 108.564  1.00  0.00     0.019 A 
ATOM      8  C   UNL     1     109.611 111.667 107.389  1.00  0.00     0.094 A 
ATOM      9  C   UNL     1     109.277 110.311 107.477  1.00  0.00     0.336 A 
ATOM     10  O   UNL     1     109.122 109.632 106.428  1.00  0.00    -0.246 OA
ATOM     11  O   UNL     1     109.120 109.731 108.665  1.00  0.00    -0.423 OA
ENDROOT
BRANCH   1  12
ATOM     12  O   UNL     1     109.729 112.440 113.471  1.00  0.00    -0.493 OA
ATOM     13  C   UNL     1     110.871 112.325 114.313  1.00  0.00     0.278 C 
ENDBRANCH   1  12
BRANCH   2  14
ATOM     14  O   UNL     1     109.070 109.762 113.451  1.00  0.00    -0.504 OA
ATOM     15  H   UNL     1     109.059 108.750 113.506  1.00  0.00     0.293 HD
ENDBRANCH   2  14
TORSDOF 2
ENDMDL
MODEL 2
REMARK VINA RESULT:    -6.680      3.480      3.952
REMARK INTER + INTRA:          -7.214
REMARK INTER:                  -7.217
REMARK INTRA:                   0.003
REMARK UNBOUND:                 0.052
REMARK SMILES COc1cc2ccc(=O)oc2cc1O
REMARK SMILES IDX 3 1 13 2 12 3 11 4 5 5 4 6 6 7 7 8 8 9 9 10 10 11 2 12 1 13
REMARK SMILES IDX 14 14
REMARK H PARENT 14 15
REMARK Flexibility Score: inf
ROOT
ATOM      1  C   UNL     1     112.490 110.525 112.130  1.00  0.00     0.161 A 
ATOM      2  C   UNL     1     112.965 111.846 112.140  1.00  0.00     0.161 A 
ATOM      3  C   UNL     1     113.190 112.527 110.936  1.00  0.00     0.098 A 
ATOM      4  C   UNL     1     112.942 111.896 109.714  1.00  0.00     0.142 A 
ATOM      5  C   UNL     1     112.464 110.569 109.694  1.00  0.00     0.022 A 
ATOM      6  C   UNL     1     112.239 109.888 110.899  1.00  0.00     0.062 A 
ATOM      7  C   UNL     1     112.226 109.965 108.455  1.00  0.00     0.019 A 
ATOM      8  C   UNL     1     112.466 110.684 107.285  1.00  0.00     0.094 A 
ATOM      9  C   UNL     1     112.940 111.997 107.382  1.00  0.00     0.336 A 
ATOM     10  O   UNL     1     113.162 112.664 106.337  1.00  0.00    -0.246 OA
ATOM     11  O   UNL     1     113.158 112.548 108.574  1.00  0.00    -0.423 OA
ENDROOT
BRANCH   1  12
ATOM     12  O   UNL     1     112.279 109.882 113.361  1.00  0.00    -0.493 OA
ATOM     13  C   UNL     1     111.102 110.020 114.151  1.00  0.00     0.278 C 
ENDBRANCH   1  12
BRANCH   2  14
ATOM     14  O   UNL     1     113.213 112.478 113.359  1.00  0.00    -0.504 OA
ATOM     15  H   UNL     1     112.667 113.276 113.663  1.00  0.00     0.293 HD
ENDBRANCH   2  14
TORSDOF 2
ENDMDL
MODEL 3
REMARK VINA RESULT:    -6.526      4.250      5.940
REMARK INTER + INTRA:          -7.046
REMARK INTER:                  -6.986
REMARK INTRA:                  -0.059
REMARK UNBOUND:                 0.052
REMARK SMILES COc1cc2ccc(=O)oc2cc1O
REMARK SMILES IDX 3 1 13 2 12 3 11 4 5 5 4 6 6 7 7 8 8 9 9 10 10 11 2 12 1 13
REMARK SMILES IDX 14 14
REMARK H PARENT 14 15
REMARK Flexibility Score: inf
ROOT
ATOM      1  C   UNL     1     112.000 110.798 116.883  1.00  0.00     0.161 A 
ATOM      2  C   UNL     1     112.837 111.925 116.878  1.00  0.00     0.161 A 
ATOM      3  C   UNL     1     113.252 112.495 115.666  1.00  0.00     0.098 A 
ATOM      4  C   UNL     1     112.835 111.946 114.452  1.00  0.00     0.142 A 
ATOM      5  C   UNL     1     111.994 110.813 114.446  1.00  0.00     0.022 A 
ATOM      6  C   UNL     1     111.579 110.243 115.658  1.00  0.00     0.062 A 
ATOM      7  C   UNL     1     111.594 110.286 113.214  1.00  0.00     0.019 A 
ATOM      8  C   UNL     1     112.034 110.889 112.036  1.00  0.00     0.094 A 
ATOM      9  C   UNL     1     112.867 112.010 112.118  1.00  0.00     0.336 A 
ATOM     10  O   UNL     1     113.275 112.569 111.067  1.00  0.00    -0.246 OA
ATOM     11  O   UNL     1     113.232 112.492 113.304  1.00  0.00    -0.423 OA
ENDROOT
BRANCH   1  12
ATOM     12  O   UNL     1     111.610 110.261 118.120  1.00  0.00    -0.493 OA
ATOM     13  C   UNL     1     110.380 110.555 118.775  1.00  0.00     0.278 C 
ENDBRANCH   1  12
BRANCH   2  14
ATOM     14  O   UNL     1     113.254 112.476 118.090  1.00  0.00    -0.504 OA
ATOM     15  H   UNL     1     112.955 113.398 118.385  1.00  0.00     0.293 HD
ENDBRANCH   2  14
TORSDOF 2
ENDMDL
MODEL 4
REMARK VINA RESULT:    -6.491      2.817      4.643
REMARK INTER + INTRA:          -7.008
REMARK INTER:                  -6.951
REMARK INTRA:                  -0.057
REMARK UNBOUND:                 0.052
REMARK SMILES COc1cc2ccc(=O)oc2cc1O
REMARK SMILES IDX 3 1 13 2 12 3 11 4 5 5 4 6 6 7 7 8 8 9 9 10 10 11 2 12 1 13
REMARK SMILES IDX 14 14
REMARK H PARENT 14 15
REMARK Flexibility Score: inf
ROOT
ATOM      1  C   UNL     1     110.649 111.274 116.787  1.00  0.00     0.161 A 
ATOM      2  C   UNL     1     109.580 110.365 116.787  1.00  0.00     0.161 A 
ATOM      3  C   UNL     1     109.061 109.881 115.578  1.00  0.00     0.098 A 
ATOM      4  C   UNL     1     109.605 110.300 114.362  1.00  0.00     0.142 A 
ATOM      5  C   UNL     1     110.681 111.213 114.352  1.00  0.00     0.022 A 
ATOM      6  C   UNL     1     111.199 111.697 115.561  1.00  0.00     0.062 A 
ATOM      7  C   UNL     1     111.203 111.614 113.118  1.00  0.00     0.019 A 
ATOM      8  C   UNL     1     110.653 111.104 111.943  1.00  0.00     0.094 A 
ATOM      9  C   UNL     1     109.587 110.201 112.030  1.00  0.00     0.336 A 
ATOM     10  O   UNL     1     109.076 109.729 110.981  1.00  0.00    -0.246 OA
ATOM     11  O   UNL     1     109.109 109.836 113.217  1.00  0.00    -0.423 OA
ENDROOT
BRANCH   1  12
ATOM     12  O   UNL     1     111.136 111.732 118.022  1.00  0.00    -0.493 OA
ATOM     13  C   UNL     1     112.500 111.664 118.427  1.00  0.00     0.278 C 
ENDBRANCH   1  12
BRANCH   2  14
ATOM     14  O   UNL     1     109.035 109.946 118.001  1.00  0.00    -0.504 OA
ATOM     15  H   UNL     1     109.034 108.969 118.273  1.00  0.00     0.293 HD
ENDBRANCH   2  14
TORSDOF 2
ENDMDL
MODEL 5
REMARK VINA RESULT:    -6.470      2.913      3.916
REMARK INTER + INTRA:          -6.985
REMARK INTER:                  -6.921
REMARK INTRA:                  -0.064
REMARK UNBOUND:                 0.052
REMARK SMILES COc1cc2ccc(=O)oc2cc1O
REMARK SMILES IDX 3 1 13 2 12 3 11 4 5 5 4 6 6 7 7 8 8 9 9 10 10 11 2 12 1 13
REMARK SMILES IDX 14 14
REMARK H PARENT 14 15
REMARK Flexibility Score: inf
ROOT
ATOM      1  C   UNL     1     110.609 110.277 115.260  1.00  0.00     0.161 A 
ATOM      2  C   UNL     1     109.546 109.953 114.403  1.00  0.00     0.161 A 
ATOM      3  C   UNL     1     109.593 110.313 113.048  1.00  0.00     0.098 A 
ATOM      4  C   UNL     1     110.700 110.998 112.541  1.00  0.00     0.142 A 
ATOM      5  C   UNL     1     111.773 111.327 113.395  1.00  0.00     0.022 A 
ATOM      6  C   UNL     1     111.726 110.966 114.749  1.00  0.00     0.062 A 
ATOM      7  C   UNL     1     112.868 112.012 112.857  1.00  0.00     0.019 A 
ATOM      8  C   UNL     1     112.867 112.349 111.504  1.00  0.00     0.094 A 
ATOM      9  C   UNL     1     111.767 111.989 110.717  1.00  0.00     0.336 A 
ATOM     10  O   UNL     1     111.748 112.283 109.493  1.00  0.00    -0.246 OA
ATOM     11  O   UNL     1     110.739 111.337 111.254  1.00  0.00    -0.423 OA
ENDROOT
BRANCH   1  12
ATOM     12  O   UNL     1     110.518 109.896 116.609  1.00  0.00    -0.493 OA
ATOM     13  C   UNL     1     110.128 110.765 117.668  1.00  0.00     0.278 C 
ENDBRANCH   1  12
BRANCH   2  14
ATOM     14  O   UNL     1     108.440 109.270 114.907  1.00  0.00    -0.504 OA
ATOM     15  H   UNL     1     108.543 108.412 115.437  1.00  0.00     0.293 HD
ENDBRANCH   2  14
TORSDOF 2
ENDMDL
MODEL 6
REMARK VINA RESULT:    -6.463      2.487      3.413
REMARK INTER + INTRA:          -6.977
REMARK INTER:                  -6.916
REMARK INTRA:                  -0.061
REMARK UNBOUND:                 0.052
REMARK SMILES COc1cc2ccc(=O)oc2cc1O
REMARK SMILES IDX 3 1 13 2 12 3 11 4 5 5 4 6 6 7 7 8 8 9 9 10 10 11 2 12 1 13
REMARK SMILES IDX 14 14
REMARK H PARENT 14 15
REMARK Flexibility Score: inf
ROOT
ATOM      1  C   UNL     1     111.487 112.069 110.252  1.00  0.00     0.161 A 
ATOM      2  C   UNL     1     112.595 112.387 109.452  1.00  0.00     0.161 A 
ATOM      3  C   UNL     1     112.632 111.999 108.105  1.00  0.00     0.098 A 
ATOM      4  C   UNL     1     111.563 111.293 107.547  1.00  0.00     0.142 A 
ATOM      5  C   UNL     1     110.444 110.970 108.344  1.00  0.00     0.022 A 
ATOM      6  C   UNL     1     110.408 111.357 109.691  1.00  0.00     0.062 A 
ATOM      7  C   UNL     1     109.391 110.261 107.757  1.00  0.00     0.019 A 
ATOM      8  C   UNL     1     109.474 109.899 106.413  1.00  0.00     0.094 A 
ATOM      9  C   UNL     1     110.615 110.254 105.685  1.00  0.00     0.336 A 
ATOM     10  O   UNL     1     110.709 109.936 104.470  1.00  0.00    -0.246 OA
ATOM     11  O   UNL     1     111.603 110.928 106.268  1.00  0.00    -0.423 OA
ENDROOT
BRANCH   1  12
ATOM     12  O   UNL     1     111.494 112.477 111.596  1.00  0.00    -0.493 OA
ATOM     13  C   UNL     1     111.458 111.590 112.709  1.00  0.00     0.278 C 
ENDBRANCH   1  12
BRANCH   2  14
ATOM     14  O   UNL     1     113.664 113.092 110.007  1.00  0.00    -0.504 OA
ATOM     15  H   UNL     1     114.058 113.904 109.547  1.00  0.00     0.293 HD
ENDBRANCH   2  14
TORSDOF 2
ENDMDL
MODEL 7
REMARK VINA RESULT:    -6.462      2.517      5.548
REMARK INTER + INTRA:          -6.976
REMARK INTER:                  -6.931
REMARK INTRA:                  -0.045
REMARK UNBOUND:                 0.052
REMARK SMILES COc1cc2ccc(=O)oc2cc1O
REMARK SMILES IDX 3 1 13 2 12 3 11 4 5 5 4 6 6 7 7 8 8 9 9 10 10 11 2 12 1 13
REMARK SMILES IDX 14 14
REMARK H PARENT 14 15
REMARK Flexibility Score: inf
ROOT
ATOM      1  C   UNL     1     111.655 111.921 109.703  1.00  0.00     0.161 A 
ATOM      2  C   UNL     1     112.658 112.474 110.514  1.00  0.00     0.161 A 
ATOM      3  C   UNL     1     112.603 112.328 111.908  1.00  0.00     0.098 A 
ATOM      4  C   UNL     1     111.549 111.630 112.501  1.00  0.00     0.142 A 
ATOM      5  C   UNL     1     110.537 111.070 111.694  1.00  0.00     0.022 A 
ATOM      6  C   UNL     1     110.591 111.216 110.301  1.00  0.00     0.062 A 
ATOM      7  C   UNL     1     109.494 110.376 112.318  1.00  0.00     0.019 A 
ATOM      8  C   UNL     1     109.485 110.259 113.707  1.00  0.00     0.094 A 
ATOM      9  C   UNL     1     110.523 110.840 114.443  1.00  0.00     0.336 A 
ATOM     10  O   UNL     1     110.533 110.745 115.699  1.00  0.00    -0.246 OA
ATOM     11  O   UNL     1     111.503 111.495 113.825  1.00  0.00    -0.423 OA
ENDROOT
BRANCH   1  12
ATOM     12  O   UNL     1     111.751 112.092 108.313  1.00  0.00    -0.493 OA
ATOM     13  C   UNL     1     110.747 111.702 107.381  1.00  0.00     0.278 C 
ENDBRANCH   1  12
BRANCH   2  14
ATOM     14  O   UNL     1     113.712 113.172 109.924  1.00  0.00    -0.504 OA
ATOM     15  H   UNL     1     114.293 112.749 109.209  1.00  0.00     0.293 HD
ENDBRANCH   2  14
TORSDOF 2
ENDMDL
MODEL 8
REMARK VINA RESULT:    -6.443      2.361      3.162
REMARK INTER + INTRA:          -6.956
REMARK INTER:                  -6.891
REMARK INTRA:                  -0.065
REMARK UNBOUND:                 0.052
REMARK SMILES COc1cc2ccc(=O)oc2cc1O
REMARK SMILES IDX 3 1 13 2 12 3 11 4 5 5 4 6 6 7 7 8 8 9 9 10 10 11 2 12 1 13
REMARK SMILES IDX 14 14
REMARK H PARENT 14 15
REMARK Flexibility Score: inf
ROOT
ATOM      1  C   UNL     1     110.739 110.156 110.265  1.00  0.00     0.161 A 
ATOM      2  C   UNL     1     109.670 109.798 109.429  1.00  0.00     0.161 A 
ATOM      3  C   UNL     1     109.670 110.173 108.079  1.00  0.00     0.098 A 
ATOM      4  C   UNL     1     110.734 110.909 107.553  1.00  0.00     0.142 A 
ATOM      5  C   UNL     1     111.813 111.274 108.385  1.00  0.00     0.022 A 
ATOM      6  C   UNL     1     111.814 110.898 109.736  1.00  0.00     0.062 A 
ATOM      7  C   UNL     1     112.864 112.011 107.829  1.00  0.00     0.019 A 
ATOM      8  C   UNL     1     112.817 112.361 106.480  1.00  0.00     0.094 A 
ATOM      9  C   UNL     1     111.715 111.964 105.716  1.00  0.00     0.336 A 
ATOM     10  O   UNL     1     111.653 112.269 104.496  1.00  0.00    -0.246 OA
ATOM     11  O   UNL     1     110.728 111.263 106.270  1.00  0.00    -0.423 OA
ENDROOT
BRANCH   1  12
ATOM     12  O   UNL     1     110.697 109.758 111.611  1.00  0.00    -0.493 OA
ATOM     13  C   UNL     1     110.404 110.627 112.700  1.00  0.00     0.278 C 
ENDBRANCH   1  12
BRANCH   2  14
ATOM     14  O   UNL     1     108.606 109.063 109.953  1.00  0.00    -0.504 OA
ATOM     15  H   UNL     1     107.648 109.248 109.677  1.00  0.00     0.293 HD
ENDBRANCH   2  14
TORSDOF 2
ENDMDL
MODEL 9
REMARK VINA RESULT:    -6.385      1.812      5.233
REMARK INTER + INTRA:          -6.892
REMARK INTER:                  -6.828
REMARK INTRA:                  -0.064
REMARK UNBOUND:                 0.052
REMARK SMILES COc1cc2ccc(=O)oc2cc1O
REMARK SMILES IDX 3 1 13 2 12 3 11 4 5 5 4 6 6 7 7 8 8 9 9 10 10 11 2 12 1 13
REMARK SMILES IDX 14 14
REMARK H PARENT 14 15
REMARK Flexibility Score: inf
ROOT
ATOM      1  C   UNL     1     110.431 110.376 109.737  1.00  0.00     0.161 A 
ATOM      2  C   UNL     1     109.521 109.726 110.585  1.00  0.00     0.161 A 
ATOM      3  C   UNL     1     109.655 109.825 111.978  1.00  0.00     0.098 A 
ATOM      4  C   UNL     1     110.697 110.572 112.533  1.00  0.00     0.142 A 
ATOM      5  C   UNL     1     111.616 111.229 111.688  1.00  0.00     0.022 A 
ATOM      6  C   UNL     1     111.482 111.131 110.296  1.00  0.00     0.062 A 
ATOM      7  C   UNL     1     112.648 111.970 112.274  1.00  0.00     0.019 A 
ATOM      8  C   UNL     1     112.739 112.037 113.664  1.00  0.00     0.094 A 
ATOM      9  C   UNL     1     111.791 111.359 114.439  1.00  0.00     0.336 A 
ATOM     10  O   UNL     1     111.855 111.408 115.695  1.00  0.00    -0.246 OA
ATOM     11  O   UNL     1     110.818 110.662 113.855  1.00  0.00    -0.423 OA
ENDROOT
BRANCH   1  12
ATOM     12  O   UNL     1     110.258 110.249 108.349  1.00  0.00    -0.493 OA
ATOM     13  C   UNL     1     109.637 111.227 107.522  1.00  0.00     0.278 C 
ENDBRANCH   1  12
BRANCH   2  14
ATOM     14  O   UNL     1     108.481 108.979 110.033  1.00  0.00    -0.504 OA
ATOM     15  H   UNL     1     107.635 109.421 109.691  1.00  0.00     0.293 HD
ENDBRANCH   2  14
TORSDOF 2
ENDMDL
