MODEL 1
REMARK VINA RESULT:     2.994      0.000      0.000
REMARK INTER + INTRA:           4.875
REMARK INTER:                   5.795
REMARK INTRA:                  -0.920
REMARK UNBOUND:                -0.920
REMARK SMILES CCCCCCCCCCCCCCCCCC(=O)[O-]
REMARK SMILES IDX 10 1 11 2 12 3 13 4 14 5 15 6 16 7 17 8 18 9 19 10 20 11
REMARK SMILES IDX 9 12 8 13 7 14 6 15 5 16 4 17 3 18 2 19 1 20
REMARK H PARENT
REMARK Flexibility Score: inf
ROOT
ATOM      1  C   UNL     1     -28.030 -21.294 -18.724  1.00  0.00     0.000 C 
ENDROOT
BRANCH   1   2
ATOM      2  C   UNL     1     -28.178 -22.118 -17.435  1.00  0.00     0.000 C 
BRANCH   2   3
ATOM      3  C   UNL     1     -29.613 -22.116 -16.887  1.00  0.00     0.000 C 
BRANCH   3   4
ATOM      4  C   UNL     1     -29.616 -22.125 -15.349  1.00  0.00     0.000 C 
BRANCH   4   5
ATOM      5  C   UNL     1     -31.022 -21.874 -14.777  1.00  0.00     0.000 C 
BRANCH   5   6
ATOM      6  C   UNL     1     -31.239 -20.408 -14.343  1.00  0.00     0.000 C 
BRANCH   6   7
ATOM      7  C   UNL     1     -30.382 -19.984 -13.135  1.00  0.00     0.006 C 
BRANCH   7   8
ATOM      8  C   UNL     1     -30.023 -18.485 -13.118  1.00  0.00     0.053 C 
BRANCH   8   9
ATOM      9  C   UNL     1     -29.358 -18.070 -11.839  1.00  0.00     0.041 C 
ATOM     10  O   UNL     1     -29.693 -16.998 -11.269  1.00  0.00    -0.550 OA
ATOM     11  O   UNL     1     -28.396 -18.885 -11.254  1.00  0.00    -0.550 OA
ENDBRANCH   8   9
ENDBRANCH   7   8
ENDBRANCH   6   7
ENDBRANCH   5   6
ENDBRANCH   4   5
ENDBRANCH   3   4
ENDBRANCH   2   3
ENDBRANCH   1   2
BRANCH   1  12
ATOM     12  C   UNL     1     -28.492 -22.056 -19.975  1.00  0.00     0.000 C 
BRANCH  12  13
ATOM     13  C   UNL     1     -28.437 -21.156 -21.219  1.00  0.00    -0.000 C 
BRANCH  13  14
ATOM     14  C   UNL     1     -28.196 -21.956 -22.511  1.00  0.00    -0.000 C 
BRANCH  14  15
ATOM     15  C   UNL     1     -28.051 -21.040 -23.740  1.00  0.00    -0.000 C 
BRANCH  15  16
ATOM     16  C   UNL     1     -29.402 -20.697 -24.390  1.00  0.00    -0.000 C 
BRANCH  16  17
ATOM     17  C   UNL     1     -30.504 -21.712 -24.035  1.00  0.00    -0.000 C 
BRANCH  17  18
ATOM     18  C   UNL     1     -31.862 -21.042 -23.773  1.00  0.00    -0.000 C 
BRANCH  18  19
ATOM     19  C   UNL     1     -31.883 -20.249 -22.459  1.00  0.00    -0.003 C 
ATOM     20  C   UNL     1     -32.602 -18.915 -22.634  1.00  0.00     0.004 C 
ENDBRANCH  18  19
ENDBRANCH  17  18
ENDBRANCH  16  17
ENDBRANCH  15  16
ENDBRANCH  14  15
ENDBRANCH  13  14
ENDBRANCH  12  13
ENDBRANCH   1  12
TORSDOF 16
ENDMDL
MODEL 2
REMARK VINA RESULT:     3.453      4.855      9.580
REMARK INTER + INTRA:           5.762
REMARK INTER:                   6.552
REMARK INTRA:                  -0.790
REMARK UNBOUND:                -0.920
REMARK SMILES CCCCCCCCCCCCCCCCCC(=O)[O-]
REMARK SMILES IDX 10 1 11 2 12 3 13 4 14 5 15 6 16 7 17 8 18 9 19 10 20 11
REMARK SMILES IDX 9 12 8 13 7 14 6 15 5 16 4 17 3 18 2 19 1 20
REMARK H PARENT
REMARK Flexibility Score: inf
ROOT
ATOM      1  C   UNL     1     -28.151 -20.591 -18.172  1.00  0.00     0.000 C 
ENDROOT
BRANCH   1   2
ATOM      2  C   UNL     1     -28.104 -20.684 -19.705  1.00  0.00     0.000 C 
BRANCH   2   3
ATOM      3  C   UNL     1     -28.314 -22.115 -20.223  1.00  0.00     0.000 C 
BRANCH   3   4
ATOM      4  C   UNL     1     -29.209 -22.124 -21.474  1.00  0.00     0.000 C 
BRANCH   4   5
ATOM      5  C   UNL     1     -30.525 -21.361 -21.243  1.00  0.00     0.000 C 
BRANCH   5   6
ATOM      6  C   UNL     1     -31.308 -21.109 -22.551  1.00  0.00     0.000 C 
BRANCH   6   7
ATOM      7  C   UNL     1     -30.676 -21.772 -23.790  1.00  0.00     0.006 C 
BRANCH   7   8
ATOM      8  C   UNL     1     -29.649 -20.883 -24.520  1.00  0.00     0.053 C 
BRANCH   8   9
ATOM      9  C   UNL     1     -30.272 -20.066 -25.612  1.00  0.00     0.041 C 
ATOM     10  O   UNL     1     -30.355 -18.814 -25.500  1.00  0.00    -0.550 OA
ATOM     11  O   UNL     1     -30.727 -20.681 -26.773  1.00  0.00    -0.550 OA
ENDBRANCH   8   9
ENDBRANCH   7   8
ENDBRANCH   6   7
ENDBRANCH   5   6
ENDBRANCH   4   5
ENDBRANCH   3   4
ENDBRANCH   2   3
ENDBRANCH   1   2
BRANCH   1  12
ATOM     12  C   UNL     1     -28.351 -21.957 -17.497  1.00  0.00     0.000 C 
BRANCH  12  13
ATOM     13  C   UNL     1     -29.796 -22.119 -17.002  1.00  0.00    -0.000 C 
BRANCH  13  14
ATOM     14  C   UNL     1     -29.897 -22.089 -15.468  1.00  0.00    -0.000 C 
BRANCH  14  15
ATOM     15  C   UNL     1     -31.358 -22.086 -14.983  1.00  0.00    -0.000 C 
BRANCH  15  16
ATOM     16  C   UNL     1     -31.797 -20.720 -14.428  1.00  0.00    -0.000 C 
BRANCH  16  17
ATOM     17  C   UNL     1     -31.045 -20.334 -13.141  1.00  0.00    -0.000 C 
BRANCH  17  18
ATOM     18  C   UNL     1     -30.101 -19.138 -13.345  1.00  0.00    -0.000 C 
BRANCH  18  19
ATOM     19  C   UNL     1     -29.019 -19.051 -12.258  1.00  0.00    -0.003 C 
ATOM     20  C   UNL     1     -29.309 -17.913 -11.284  1.00  0.00     0.004 C 
ENDBRANCH  18  19
ENDBRANCH  17  18
ENDBRANCH  16  17
ENDBRANCH  15  16
ENDBRANCH  14  15
ENDBRANCH  13  14
ENDBRANCH  12  13
ENDBRANCH   1  12
TORSDOF 16
ENDMDL
MODEL 3
REMARK VINA RESULT:     3.604      3.775      8.917
REMARK INTER + INTRA:           6.056
REMARK INTER:                   7.329
REMARK INTRA:                  -1.273
REMARK UNBOUND:                -0.920
REMARK SMILES CCCCCCCCCCCCCCCCCC(=O)[O-]
REMARK SMILES IDX 10 1 11 2 12 3 13 4 14 5 15 6 16 7 17 8 18 9 19 10 20 11
REMARK SMILES IDX 9 12 8 13 7 14 6 15 5 16 4 17 3 18 2 19 1 20
REMARK H PARENT
REMARK Flexibility Score: inf
ROOT
ATOM      1  C   UNL     1     -29.239 -21.326 -20.127  1.00  0.00     0.000 C 
ENDROOT
BRANCH   1   2
ATOM      2  C   UNL     1     -29.194 -21.785 -21.593  1.00  0.00     0.000 C 
BRANCH   2   3
ATOM      3  C   UNL     1     -27.792 -21.668 -22.212  1.00  0.00     0.000 C 
BRANCH   3   4
ATOM      4  C   UNL     1     -27.854 -21.004 -23.598  1.00  0.00     0.000 C 
BRANCH   4   5
ATOM      5  C   UNL     1     -28.790 -21.760 -24.555  1.00  0.00     0.000 C 
BRANCH   5   6
ATOM      6  C   UNL     1     -29.679 -20.815 -25.394  1.00  0.00     0.000 C 
BRANCH   6   7
ATOM      7  C   UNL     1     -31.080 -20.586 -24.794  1.00  0.00     0.006 C 
BRANCH   7   8
ATOM      8  C   UNL     1     -31.136 -19.452 -23.751  1.00  0.00     0.053 C 
BRANCH   8   9
ATOM      9  C   UNL     1     -32.111 -19.735 -22.648  1.00  0.00     0.041 C 
ATOM     10  O   UNL     1     -32.398 -20.923 -22.344  1.00  0.00    -0.550 OA
ATOM     11  O   UNL     1     -32.676 -18.688 -21.928  1.00  0.00    -0.550 OA
ENDBRANCH   8   9
ENDBRANCH   7   8
ENDBRANCH   6   7
ENDBRANCH   5   6
ENDBRANCH   4   5
ENDBRANCH   3   4
ENDBRANCH   2   3
ENDBRANCH   1   2
BRANCH   1  12
ATOM     12  C   UNL     1     -27.841 -21.122 -19.522  1.00  0.00     0.000 C 
BRANCH  12  13
ATOM     13  C   UNL     1     -27.850 -21.399 -18.011  1.00  0.00    -0.000 C 
BRANCH  13  14
ATOM     14  C   UNL     1     -29.154 -22.070 -17.547  1.00  0.00    -0.000 C 
BRANCH  14  15
ATOM     15  C   UNL     1     -29.338 -21.985 -16.020  1.00  0.00    -0.000 C 
BRANCH  15  16
ATOM     16  C   UNL     1     -30.807 -22.125 -15.589  1.00  0.00    -0.000 C 
BRANCH  16  17
ATOM     17  C   UNL     1     -31.239 -21.035 -14.591  1.00  0.00    -0.000 C 
BRANCH  17  18
ATOM     18  C   UNL     1     -30.077 -20.114 -14.183  1.00  0.00    -0.000 C 
BRANCH  18  19
ATOM     19  C   UNL     1     -30.379 -19.317 -12.905  1.00  0.00    -0.003 C 
ATOM     20  C   UNL     1     -29.095 -18.798 -12.266  1.00  0.00     0.004 C 
ENDBRANCH  18  19
ENDBRANCH  17  18
ENDBRANCH  16  17
ENDBRANCH  15  16
ENDBRANCH  14  15
ENDBRANCH  13  14
ENDBRANCH  12  13
ENDBRANCH   1  12
TORSDOF 16
ENDMDL
MODEL 4
REMARK VINA RESULT:     4.894      3.938      5.557
REMARK INTER + INTRA:           8.551
REMARK INTER:                   7.975
REMARK INTRA:                   0.576
REMARK UNBOUND:                -0.920
REMARK SMILES CCCCCCCCCCCCCCCCCC(=O)[O-]
REMARK SMILES IDX 10 1 11 2 12 3 13 4 14 5 15 6 16 7 17 8 18 9 19 10 20 11
REMARK SMILES IDX 9 12 8 13 7 14 6 15 5 16 4 17 3 18 2 19 1 20
REMARK H PARENT
REMARK Flexibility Score: inf
ROOT
ATOM      1  C   UNL     1     -29.441 -20.094 -24.109  1.00  0.00     0.000 C 
ENDROOT
BRANCH   1   2
ATOM      2  C   UNL     1     -28.026 -20.673 -23.953  1.00  0.00     0.000 C 
BRANCH   2   3
ATOM      3  C   UNL     1     -27.903 -21.634 -22.761  1.00  0.00     0.000 C 
BRANCH   3   4
ATOM      4  C   UNL     1     -29.285 -21.952 -22.164  1.00  0.00     0.000 C 
BRANCH   4   5
ATOM      5  C   UNL     1     -29.223 -22.124 -20.637  1.00  0.00     0.000 C 
BRANCH   5   6
ATOM      6  C   UNL     1     -29.160 -20.777 -19.884  1.00  0.00     0.000 C 
BRANCH   6   7
ATOM      7  C   UNL     1     -28.054 -20.715 -18.814  1.00  0.00     0.006 C 
BRANCH   7   8
ATOM      8  C   UNL     1     -27.627 -22.095 -18.274  1.00  0.00     0.053 C 
BRANCH   8   9
ATOM      9  C   UNL     1     -26.433 -22.012 -17.370  1.00  0.00     0.041 C 
ATOM     10  O   UNL     1     -25.286 -21.811 -17.850  1.00  0.00    -0.550 OA
ATOM     11  O   UNL     1     -26.590 -22.119 -15.993  1.00  0.00    -0.550 OA
ENDBRANCH   8   9
ENDBRANCH   7   8
ENDBRANCH   6   7
ENDBRANCH   5   6
ENDBRANCH   4   5
ENDBRANCH   3   4
ENDBRANCH   2   3
ENDBRANCH   1   2
BRANCH   1  12
ATOM     12  C   UNL     1     -29.576 -19.169 -25.329  1.00  0.00     0.000 C 
BRANCH  12  13
ATOM     13  C   UNL     1     -29.399 -19.955 -26.637  1.00  0.00    -0.000 C 
BRANCH  13  14
ATOM     14  C   UNL     1     -30.587 -20.888 -26.927  1.00  0.00    -0.000 C 
BRANCH  14  15
ATOM     15  C   UNL     1     -30.635 -22.084 -25.958  1.00  0.00    -0.000 C 
BRANCH  15  16
ATOM     16  C   UNL     1     -31.844 -22.033 -25.009  1.00  0.00    -0.000 C 
BRANCH  16  17
ATOM     17  C   UNL     1     -31.891 -20.737 -24.179  1.00  0.00    -0.000 C 
BRANCH  17  18
ATOM     18  C   UNL     1     -32.625 -20.918 -22.841  1.00  0.00    -0.000 C 
BRANCH  18  19
ATOM     19  C   UNL     1     -32.734 -19.607 -22.048  1.00  0.00    -0.003 C 
ATOM     20  C   UNL     1     -32.528 -18.398 -22.955  1.00  0.00     0.004 C 
ENDBRANCH  18  19
ENDBRANCH  17  18
ENDBRANCH  16  17
ENDBRANCH  15  16
ENDBRANCH  14  15
ENDBRANCH  13  14
ENDBRANCH  12  13
ENDBRANCH   1  12
TORSDOF 16
ENDMDL
MODEL 5
REMARK VINA RESULT:     5.037      1.369      2.217
REMARK INTER + INTRA:           8.829
REMARK INTER:                   8.892
REMARK INTRA:                  -0.064
REMARK UNBOUND:                -0.920
REMARK SMILES CCCCCCCCCCCCCCCCCC(=O)[O-]
REMARK SMILES IDX 10 1 11 2 12 3 13 4 14 5 15 6 16 7 17 8 18 9 19 10 20 11
REMARK SMILES IDX 9 12 8 13 7 14 6 15 5 16 4 17 3 18 2 19 1 20
REMARK H PARENT
REMARK Flexibility Score: inf
ROOT
ATOM      1  C   UNL     1     -27.523 -20.683 -18.600  1.00  0.00     0.000 C 
ENDROOT
BRANCH   1   2
ATOM      2  C   UNL     1     -27.676 -21.930 -17.715  1.00  0.00     0.000 C 
BRANCH   2   3
ATOM      3  C   UNL     1     -29.088 -22.074 -17.127  1.00  0.00     0.000 C 
BRANCH   3   4
ATOM      4  C   UNL     1     -29.044 -22.125 -15.590  1.00  0.00     0.000 C 
BRANCH   4   5
ATOM      5  C   UNL     1     -30.444 -21.984 -14.971  1.00  0.00     0.000 C 
BRANCH   5   6
ATOM      6  C   UNL     1     -30.738 -20.550 -14.476  1.00  0.00     0.000 C 
BRANCH   6   7
ATOM      7  C   UNL     1     -29.801 -20.079 -13.347  1.00  0.00     0.006 C 
BRANCH   7   8
ATOM      8  C   UNL     1     -30.427 -19.025 -12.413  1.00  0.00     0.053 C 
BRANCH   8   9
ATOM      9  C   UNL     1     -29.414 -18.052 -11.886  1.00  0.00     0.041 C 
ATOM     10  O   UNL     1     -28.298 -18.461 -11.470  1.00  0.00    -0.550 OA
ATOM     11  O   UNL     1     -29.686 -16.689 -11.890  1.00  0.00    -0.550 OA
ENDBRANCH   8   9
ENDBRANCH   7   8
ENDBRANCH   6   7
ENDBRANCH   5   6
ENDBRANCH   4   5
ENDBRANCH   3   4
ENDBRANCH   2   3
ENDBRANCH   1   2
BRANCH   1  12
ATOM     12  C   UNL     1     -28.393 -20.738 -19.865  1.00  0.00     0.000 C 
BRANCH  12  13
ATOM     13  C   UNL     1     -29.069 -22.110 -20.007  1.00  0.00    -0.000 C 
BRANCH  13  14
ATOM     14  C   UNL     1     -30.556 -21.995 -20.383  1.00  0.00    -0.000 C 
BRANCH  14  15
ATOM     15  C   UNL     1     -30.782 -22.121 -21.901  1.00  0.00    -0.000 C 
BRANCH  15  16
ATOM     16  C   UNL     1     -31.730 -21.044 -22.453  1.00  0.00    -0.000 C 
BRANCH  16  17
ATOM     17  C   UNL     1     -31.056 -20.145 -23.505  1.00  0.00    -0.000 C 
BRANCH  17  18
ATOM     18  C   UNL     1     -31.478 -20.498 -24.941  1.00  0.00    -0.000 C 
BRANCH  18  19
ATOM     19  C   UNL     1     -30.693 -19.704 -25.996  1.00  0.00    -0.003 C 
ATOM     20  C   UNL     1     -29.908 -20.636 -26.913  1.00  0.00     0.004 C 
ENDBRANCH  18  19
ENDBRANCH  17  18
ENDBRANCH  16  17
ENDBRANCH  15  16
ENDBRANCH  14  15
ENDBRANCH  13  14
ENDBRANCH  12  13
ENDBRANCH   1  12
TORSDOF 16
ENDMDL
MODEL 6
REMARK VINA RESULT:     5.155      4.648      8.677
REMARK INTER + INTRA:           9.057
REMARK INTER:                   6.279
REMARK INTRA:                   2.778
REMARK UNBOUND:                -0.920
REMARK SMILES CCCCCCCCCCCCCCCCCC(=O)[O-]
REMARK SMILES IDX 10 1 11 2 12 3 13 4 14 5 15 6 16 7 17 8 18 9 19 10 20 11
REMARK SMILES IDX 9 12 8 13 7 14 6 15 5 16 4 17 3 18 2 19 1 20
REMARK H PARENT
REMARK Flexibility Score: inf
ROOT
ATOM      1  C   UNL     1     -28.794 -19.384 -23.907  1.00  0.00     0.000 C 
ENDROOT
BRANCH   1   2
ATOM      2  C   UNL     1     -29.264 -18.727 -25.215  1.00  0.00     0.000 C 
BRANCH   2   3
ATOM      3  C   UNL     1     -30.460 -19.452 -25.849  1.00  0.00     0.000 C 
BRANCH   3   4
ATOM      4  C   UNL     1     -29.991 -20.599 -26.759  1.00  0.00     0.000 C 
BRANCH   4   5
ATOM      5  C   UNL     1     -30.726 -21.914 -26.450  1.00  0.00     0.000 C 
BRANCH   5   6
ATOM      6  C   UNL     1     -31.927 -21.719 -25.498  1.00  0.00     0.000 C 
BRANCH   6   7
ATOM      7  C   UNL     1     -31.579 -21.925 -24.011  1.00  0.00     0.006 C 
BRANCH   7   8
ATOM      8  C   UNL     1     -31.191 -20.629 -23.273  1.00  0.00     0.053 C 
BRANCH   8   9
ATOM      9  C   UNL     1     -32.366 -19.974 -22.609  1.00  0.00     0.041 C 
ATOM     10  O   UNL     1     -32.757 -18.838 -22.988  1.00  0.00    -0.550 OA
ATOM     11  O   UNL     1     -33.055 -20.634 -21.598  1.00  0.00    -0.550 OA
ENDBRANCH   8   9
ENDBRANCH   7   8
ENDBRANCH   6   7
ENDBRANCH   5   6
ENDBRANCH   4   5
ENDBRANCH   3   4
ENDBRANCH   2   3
ENDBRANCH   1   2
BRANCH   1  12
ATOM     12  C   UNL     1     -28.691 -20.914 -24.012  1.00  0.00     0.000 C 
BRANCH  12  13
ATOM     13  C   UNL     1     -27.416 -21.427 -23.324  1.00  0.00    -0.000 C 
BRANCH  13  14
ATOM     14  C   UNL     1     -27.713 -22.121 -21.984  1.00  0.00    -0.000 C 
BRANCH  14  15
ATOM     15  C   UNL     1     -29.146 -21.846 -21.493  1.00  0.00    -0.000 C 
BRANCH  15  16
ATOM     16  C   UNL     1     -29.324 -22.125 -19.991  1.00  0.00    -0.000 C 
BRANCH  16  17
ATOM     17  C   UNL     1     -27.988 -22.125 -19.226  1.00  0.00    -0.000 C 
BRANCH  17  18
ATOM     18  C   UNL     1     -28.079 -21.396 -17.876  1.00  0.00    -0.000 C 
BRANCH  18  19
ATOM     19  C   UNL     1     -27.212 -22.053 -16.792  1.00  0.00    -0.003 C 
ATOM     20  C   UNL     1     -25.733 -21.996 -17.164  1.00  0.00     0.004 C 
ENDBRANCH  18  19
ENDBRANCH  17  18
ENDBRANCH  16  17
ENDBRANCH  15  16
ENDBRANCH  14  15
ENDBRANCH  13  14
ENDBRANCH  12  13
ENDBRANCH   1  12
TORSDOF 16
ENDMDL
MODEL 7
REMARK VINA RESULT:     5.739      4.340      8.296
REMARK INTER + INTRA:          10.187
REMARK INTER:                   8.605
REMARK INTRA:                   1.583
REMARK UNBOUND:                -0.920
REMARK SMILES CCCCCCCCCCCCCCCCCC(=O)[O-]
REMARK SMILES IDX 10 1 11 2 12 3 13 4 14 5 15 6 16 7 17 8 18 9 19 10 20 11
REMARK SMILES IDX 9 12 8 13 7 14 6 15 5 16 4 17 3 18 2 19 1 20
REMARK H PARENT
REMARK Flexibility Score: inf
ROOT
ATOM      1  C   UNL     1     -28.941 -21.243 -23.648  1.00  0.00     0.000 C 
ENDROOT
BRANCH   1   2
ATOM      2  C   UNL     1     -28.964 -19.931 -24.448  1.00  0.00     0.000 C 
BRANCH   2   3
ATOM      3  C   UNL     1     -30.270 -19.735 -25.233  1.00  0.00     0.000 C 
BRANCH   3   4
ATOM      4  C   UNL     1     -30.443 -20.830 -26.299  1.00  0.00     0.000 C 
BRANCH   4   5
ATOM      5  C   UNL     1     -31.216 -22.043 -25.756  1.00  0.00     0.000 C 
BRANCH   5   6
ATOM      6  C   UNL     1     -32.101 -21.693 -24.539  1.00  0.00     0.000 C 
BRANCH   6   7
ATOM      7  C   UNL     1     -31.406 -21.914 -23.182  1.00  0.00     0.006 C 
BRANCH   7   8
ATOM      8  C   UNL     1     -32.113 -21.225 -21.997  1.00  0.00     0.053 C 
BRANCH   8   9
ATOM      9  C   UNL     1     -32.968 -20.072 -22.432  1.00  0.00     0.041 C 
ATOM     10  O   UNL     1     -32.441 -18.969 -22.731  1.00  0.00    -0.550 OA
ATOM     11  O   UNL     1     -34.345 -20.227 -22.544  1.00  0.00    -0.550 OA
ENDBRANCH   8   9
ENDBRANCH   7   8
ENDBRANCH   6   7
ENDBRANCH   5   6
ENDBRANCH   4   5
ENDBRANCH   3   4
ENDBRANCH   2   3
ENDBRANCH   1   2
BRANCH   1  12
ATOM     12  C   UNL     1     -27.699 -22.099 -23.942  1.00  0.00     0.000 C 
BRANCH  12  13
ATOM     13  C   UNL     1     -26.552 -21.751 -22.982  1.00  0.00    -0.000 C 
BRANCH  13  14
ATOM     14  C   UNL     1     -26.884 -22.099 -21.521  1.00  0.00    -0.000 C 
BRANCH  14  15
ATOM     15  C   UNL     1     -28.288 -21.613 -21.115  1.00  0.00    -0.000 C 
BRANCH  15  16
ATOM     16  C   UNL     1     -28.289 -20.841 -19.786  1.00  0.00    -0.000 C 
BRANCH  16  17
ATOM     17  C   UNL     1     -28.098 -21.761 -18.566  1.00  0.00    -0.000 C 
BRANCH  17  18
ATOM     18  C   UNL     1     -29.428 -22.122 -17.884  1.00  0.00    -0.000 C 
BRANCH  18  19
ATOM     19  C   UNL     1     -29.456 -21.721 -16.401  1.00  0.00    -0.003 C 
ATOM     20  C   UNL     1     -30.792 -22.084 -15.760  1.00  0.00     0.004 C 
ENDBRANCH  18  19
ENDBRANCH  17  18
ENDBRANCH  16  17
ENDBRANCH  15  16
ENDBRANCH  14  15
ENDBRANCH  13  14
ENDBRANCH  12  13
ENDBRANCH   1  12
TORSDOF 16
ENDMDL
