MODEL 1
REMARK VINA RESULT:    -7.128      0.000      0.000
REMARK INTER + INTRA:          -8.869
REMARK INTER:                  -8.586
REMARK INTRA:                  -0.283
REMARK UNBOUND:                -0.283
REMARK SMILES O=c1c(O)c(-c2ccc(O)c(O)c2)oc2cc(O)cc(O)c12
REMARK SMILES IDX 5 1 3 2 2 3 1 4 22 5 20 6 19 7 17 8 16 9 15 10 14 11 6 12
REMARK SMILES IDX 7 13 8 14 9 15 13 16 11 17 10 18 12 20 4 22 21 24 18 26
REMARK H PARENT 10 19 12 21 4 23 21 25 18 27
REMARK Flexibility Score: inf
ROOT
ATOM      1  C   UNL     1       3.513  -7.136   7.687  1.00  0.00     0.180 A 
ATOM      2  C   UNL     1       4.430  -8.089   8.163  1.00  0.00     0.208 A 
ATOM      3  C   UNL     1       4.101  -8.841   9.302  1.00  0.00     0.238 A 
ATOM      4  O   UNL     1       4.902  -9.730   9.691  1.00  0.00    -0.285 OA
ATOM      5  C   UNL     1       2.868  -8.620   9.960  1.00  0.00     0.111 A 
ATOM      6  C   UNL     1       2.449  -9.296  11.146  1.00  0.00     0.134 A 
ATOM      7  C   UNL     1       1.154  -9.092  11.637  1.00  0.00     0.093 A 
ATOM      8  C   UNL     1       0.285  -8.186  11.022  1.00  0.00     0.123 A 
ATOM      9  C   UNL     1       0.706  -7.477   9.899  1.00  0.00     0.094 A 
ATOM     10  C   UNL     1       1.980  -7.686   9.365  1.00  0.00     0.146 A 
ATOM     11  O   UNL     1       2.337  -6.997   8.288  1.00  0.00    -0.452 OA
ENDROOT
BRANCH   1  12
ATOM     12  C   UNL     1       3.799  -6.287   6.508  1.00  0.00     0.025 A 
ATOM     13  C   UNL     1       4.667  -5.192   6.639  1.00  0.00     0.016 A 
ATOM     14  C   UNL     1       4.968  -4.390   5.535  1.00  0.00     0.051 A 
ATOM     15  C   UNL     1       4.416  -4.681   4.280  1.00  0.00     0.157 A 
ATOM     16  C   UNL     1       3.264  -6.587   5.242  1.00  0.00     0.062 A 
ATOM     17  C   UNL     1       3.568  -5.785   4.133  1.00  0.00     0.158 A 
BRANCH  15  18
ATOM     18  O   UNL     1       4.712  -3.883   3.176  1.00  0.00    -0.504 OA
ATOM     19  H   UNL     1       5.079  -4.279   2.319  1.00  0.00     0.293 HD
ENDBRANCH  15  18
BRANCH  17  20
ATOM     20  O   UNL     1       3.031  -6.080   2.880  1.00  0.00    -0.504 OA
ATOM     21  H   UNL     1       2.038  -5.995   2.696  1.00  0.00     0.293 HD
ENDBRANCH  17  20
ENDBRANCH   1  12
BRANCH   2  22
ATOM     22  O   UNL     1       5.632  -8.306   7.484  1.00  0.00    -0.502 OA
ATOM     23  H   UNL     1       6.514  -8.436   7.967  1.00  0.00     0.293 HD
ENDBRANCH   2  22
BRANCH   6  24
ATOM     24  O   UNL     1       3.270 -10.150  11.888  1.00  0.00    -0.507 OA
ATOM     25  H   UNL     1       2.984 -10.642  12.721  1.00  0.00     0.293 HD
ENDBRANCH   6  24
BRANCH   8  26
ATOM     26  O   UNL     1      -0.997  -7.977  11.526  1.00  0.00    -0.508 OA
ATOM     27  H   UNL     1      -1.507  -8.714  11.998  1.00  0.00     0.293 HD
ENDBRANCH   8  26
TORSDOF 6
ENDMDL
MODEL 2
REMARK VINA RESULT:    -7.037      1.213      2.906
REMARK INTER + INTRA:          -8.760
REMARK INTER:                  -8.452
REMARK INTRA:                  -0.308
REMARK UNBOUND:                -0.283
REMARK SMILES O=c1c(O)c(-c2ccc(O)c(O)c2)oc2cc(O)cc(O)c12
REMARK SMILES IDX 5 1 3 2 2 3 1 4 22 5 20 6 19 7 17 8 16 9 15 10 14 11 6 12
REMARK SMILES IDX 7 13 8 14 9 15 13 16 11 17 10 18 12 20 4 22 21 24 18 26
REMARK H PARENT 10 19 12 21 4 23 21 25 18 27
REMARK Flexibility Score: inf
ROOT
ATOM      1  C   UNL     1       3.131  -6.853   7.775  1.00  0.00     0.180 A 
ATOM      2  C   UNL     1       1.850  -6.784   8.350  1.00  0.00     0.208 A 
ATOM      3  C   UNL     1       1.568  -7.566   9.482  1.00  0.00     0.238 A 
ATOM      4  O   UNL     1       0.438  -7.458  10.024  1.00  0.00    -0.285 OA
ATOM      5  C   UNL     1       2.564  -8.420  10.014  1.00  0.00     0.111 A 
ATOM      6  C   UNL     1       2.375  -9.287  11.132  1.00  0.00     0.134 A 
ATOM      7  C   UNL     1       3.468  -9.991  11.653  1.00  0.00     0.093 A 
ATOM      8  C   UNL     1       4.728  -9.909  11.055  1.00  0.00     0.123 A 
ATOM      9  C   UNL     1       4.909  -9.111   9.927  1.00  0.00     0.094 A 
ATOM     10  C   UNL     1       3.846  -8.370   9.406  1.00  0.00     0.146 A 
ATOM     11  O   UNL     1       4.063  -7.614   8.336  1.00  0.00    -0.452 OA
ENDROOT
BRANCH   1  12
ATOM     12  C   UNL     1       3.495  -6.079   6.568  1.00  0.00     0.025 A 
ATOM     13  C   UNL     1       4.282  -4.924   6.699  1.00  0.00     0.016 A 
ATOM     14  C   UNL     1       4.655  -4.189   5.571  1.00  0.00     0.051 A 
ATOM     15  C   UNL     1       4.260  -4.606   4.293  1.00  0.00     0.157 A 
ATOM     16  C   UNL     1       3.118  -6.505   5.281  1.00  0.00     0.062 A 
ATOM     17  C   UNL     1       3.494  -5.769   4.148  1.00  0.00     0.158 A 
BRANCH  15  18
ATOM     18  O   UNL     1       4.628  -3.875   3.165  1.00  0.00    -0.504 OA
ATOM     19  H   UNL     1       4.649  -4.296   2.244  1.00  0.00     0.293 HD
ENDBRANCH  15  18
BRANCH  17  20
ATOM     20  O   UNL     1       3.112  -6.190   2.875  1.00  0.00    -0.504 OA
ATOM     21  H   UNL     1       2.698  -7.102   2.720  1.00  0.00     0.293 HD
ENDBRANCH  17  20
ENDBRANCH   1  12
BRANCH   2  22
ATOM     22  O   UNL     1       0.889  -5.917   7.822  1.00  0.00    -0.502 OA
ATOM     23  H   UNL     1       1.106  -4.965   7.551  1.00  0.00     0.293 HD
ENDBRANCH   2  22
BRANCH   6  24
ATOM     24  O   UNL     1       1.139  -9.512  11.745  1.00  0.00    -0.507 OA
ATOM     25  H   UNL     1       0.822  -9.052  12.586  1.00  0.00     0.293 HD
ENDBRANCH   6  24
BRANCH   8  26
ATOM     26  O   UNL     1       5.807 -10.625  11.570  1.00  0.00    -0.508 OA
ATOM     27  H   UNL     1       6.492 -11.059  10.962  1.00  0.00     0.293 HD
ENDBRANCH   8  26
TORSDOF 6
ENDMDL
MODEL 3
REMARK VINA RESULT:    -7.024      2.739      3.681
REMARK INTER + INTRA:          -8.744
REMARK INTER:                  -8.736
REMARK INTRA:                  -0.008
REMARK UNBOUND:                -0.283
REMARK SMILES O=c1c(O)c(-c2ccc(O)c(O)c2)oc2cc(O)cc(O)c12
REMARK SMILES IDX 5 1 3 2 2 3 1 4 22 5 20 6 19 7 17 8 16 9 15 10 14 11 6 12
REMARK SMILES IDX 7 13 8 14 9 15 13 16 11 17 10 18 12 20 4 22 21 24 18 26
REMARK H PARENT 10 19 12 21 4 23 21 25 18 27
REMARK Flexibility Score: inf
ROOT
ATOM      1  C   UNL     1       3.935  -9.166   8.347  1.00  0.00     0.180 A 
ATOM      2  C   UNL     1       4.016  -8.593   9.628  1.00  0.00     0.208 A 
ATOM      3  C   UNL     1       2.923  -8.720  10.501  1.00  0.00     0.238 A 
ATOM      4  O   UNL     1       3.022  -8.252  11.665  1.00  0.00    -0.285 OA
ATOM      5  C   UNL     1       1.758  -9.403  10.077  1.00  0.00     0.111 A 
ATOM      6  C   UNL     1       0.576  -9.556  10.863  1.00  0.00     0.134 A 
ATOM      7  C   UNL     1      -0.467 -10.363  10.392  1.00  0.00     0.093 A 
ATOM      8  C   UNL     1      -0.399 -10.968   9.135  1.00  0.00     0.123 A 
ATOM      9  C   UNL     1       0.726 -10.775   8.335  1.00  0.00     0.094 A 
ATOM     10  C   UNL     1       1.797 -10.005   8.792  1.00  0.00     0.146 A 
ATOM     11  O   UNL     1       2.854  -9.856   8.002  1.00  0.00    -0.452 OA
ENDROOT
BRANCH   1  12
ATOM     12  C   UNL     1       5.035  -9.052   7.363  1.00  0.00     0.025 A 
ATOM     13  C   UNL     1       5.454 -10.193   6.660  1.00  0.00     0.016 A 
ATOM     14  C   UNL     1       6.476 -10.105   5.712  1.00  0.00     0.051 A 
ATOM     15  C   UNL     1       7.083  -8.872   5.441  1.00  0.00     0.157 A 
ATOM     16  C   UNL     1       5.634  -7.813   7.072  1.00  0.00     0.062 A 
ATOM     17  C   UNL     1       6.658  -7.724   6.119  1.00  0.00     0.158 A 
BRANCH  15  18
ATOM     18  O   UNL     1       8.105  -8.780   4.497  1.00  0.00    -0.504 OA
ATOM     19  H   UNL     1       8.806  -8.050   4.543  1.00  0.00     0.293 HD
ENDBRANCH  15  18
BRANCH  17  20
ATOM     20  O   UNL     1       7.255  -6.496   5.838  1.00  0.00    -0.504 OA
ATOM     21  H   UNL     1       8.024  -6.140   6.395  1.00  0.00     0.293 HD
ENDBRANCH  17  20
ENDBRANCH   1  12
BRANCH   2  22
ATOM     22  O   UNL     1       5.184  -7.942  10.034  1.00  0.00    -0.502 OA
ATOM     23  H   UNL     1       5.941  -7.733   9.394  1.00  0.00     0.293 HD
ENDBRANCH   2  22
BRANCH   6  24
ATOM     24  O   UNL     1       0.368  -8.921  12.090  1.00  0.00    -0.507 OA
ATOM     25  H   UNL     1       1.077  -8.788  12.796  1.00  0.00     0.293 HD
ENDBRANCH   6  24
BRANCH   8  26
ATOM     26  O   UNL     1      -1.448 -11.756   8.667  1.00  0.00    -0.508 OA
ATOM     27  H   UNL     1      -1.515 -12.023   7.692  1.00  0.00     0.293 HD
ENDBRANCH   8  26
TORSDOF 6
ENDMDL
MODEL 4
REMARK VINA RESULT:    -6.810      1.966      2.614
REMARK INTER + INTRA:          -8.486
REMARK INTER:                  -8.319
REMARK INTRA:                  -0.166
REMARK UNBOUND:                -0.283
REMARK SMILES O=c1c(O)c(-c2ccc(O)c(O)c2)oc2cc(O)cc(O)c12
REMARK SMILES IDX 5 1 3 2 2 3 1 4 22 5 20 6 19 7 17 8 16 9 15 10 14 11 6 12
REMARK SMILES IDX 7 13 8 14 9 15 13 16 11 17 10 18 12 20 4 22 21 24 18 26
REMARK H PARENT 10 19 12 21 4 23 21 25 18 27
REMARK Flexibility Score: inf
ROOT
ATOM      1  C   UNL     1       3.584  -7.601   8.312  1.00  0.00     0.180 A 
ATOM      2  C   UNL     1       3.911  -7.977   9.626  1.00  0.00     0.208 A 
ATOM      3  C   UNL     1       2.916  -8.542  10.441  1.00  0.00     0.238 A 
ATOM      4  O   UNL     1       3.228  -8.927  11.597  1.00  0.00    -0.285 OA
ATOM      5  C   UNL     1       1.603  -8.707   9.937  1.00  0.00     0.111 A 
ATOM      6  C   UNL     1       0.507  -9.229  10.687  1.00  0.00     0.134 A 
ATOM      7  C   UNL     1      -0.716  -9.470  10.047  1.00  0.00     0.093 A 
ATOM      8  C   UNL     1      -0.901  -9.145   8.702  1.00  0.00     0.123 A 
ATOM      9  C   UNL     1       0.146  -8.579   7.976  1.00  0.00     0.094 A 
ATOM     10  C   UNL     1       1.387  -8.360   8.577  1.00  0.00     0.146 A 
ATOM     11  O   UNL     1       2.361  -7.828   7.847  1.00  0.00    -0.452 OA
ENDROOT
BRANCH   1  12
ATOM     12  C   UNL     1       4.571  -6.977   7.403  1.00  0.00     0.025 A 
ATOM     13  C   UNL     1       4.409  -5.636   7.021  1.00  0.00     0.016 A 
ATOM     14  C   UNL     1       5.340  -5.020   6.181  1.00  0.00     0.051 A 
ATOM     15  C   UNL     1       6.456  -5.733   5.722  1.00  0.00     0.157 A 
ATOM     16  C   UNL     1       5.704  -7.682   6.956  1.00  0.00     0.062 A 
ATOM     17  C   UNL     1       6.640  -7.064   6.114  1.00  0.00     0.158 A 
BRANCH  15  18
ATOM     18  O   UNL     1       7.386  -5.124   4.882  1.00  0.00    -0.504 OA
ATOM     19  H   UNL     1       8.374  -5.346   4.934  1.00  0.00     0.293 HD
ENDBRANCH  15  18
BRANCH  17  20
ATOM     20  O   UNL     1       7.758  -7.767   5.667  1.00  0.00    -0.504 OA
ATOM     21  H   UNL     1       8.276  -8.386   6.280  1.00  0.00     0.293 HD
ENDBRANCH  17  20
ENDBRANCH   1  12
BRANCH   2  22
ATOM     22  O   UNL     1       5.218  -7.826  10.095  1.00  0.00    -0.502 OA
ATOM     23  H   UNL     1       5.639  -8.474  10.751  1.00  0.00     0.293 HD
ENDBRANCH   2  22
BRANCH   6  24
ATOM     24  O   UNL     1       0.558  -9.501  12.057  1.00  0.00    -0.507 OA
ATOM     25  H   UNL     1       1.069  -8.953  12.733  1.00  0.00     0.293 HD
ENDBRANCH   6  24
BRANCH   8  26
ATOM     26  O   UNL     1      -2.125  -9.373   8.077  1.00  0.00    -0.508 OA
ATOM     27  H   UNL     1      -2.672 -10.203   8.271  1.00  0.00     0.293 HD
ENDBRANCH   8  26
TORSDOF 6
ENDMDL
MODEL 5
REMARK VINA RESULT:    -6.792      1.932      7.015
REMARK INTER + INTRA:          -8.465
REMARK INTER:                  -8.245
REMARK INTRA:                  -0.219
REMARK UNBOUND:                -0.283
REMARK SMILES O=c1c(O)c(-c2ccc(O)c(O)c2)oc2cc(O)cc(O)c12
REMARK SMILES IDX 5 1 3 2 2 3 1 4 22 5 20 6 19 7 17 8 16 9 15 10 14 11 6 12
REMARK SMILES IDX 7 13 8 14 9 15 13 16 11 17 10 18 12 20 4 22 21 24 18 26
REMARK H PARENT 10 19 12 21 4 23 21 25 18 27
REMARK Flexibility Score: inf
ROOT
ATOM      1  C   UNL     1       2.715  -6.956   7.729  1.00  0.00     0.180 A 
ATOM      2  C   UNL     1       2.602  -5.753   7.011  1.00  0.00     0.208 A 
ATOM      3  C   UNL     1       3.667  -5.347   6.190  1.00  0.00     0.238 A 
ATOM      4  O   UNL     1       3.538  -4.298   5.508  1.00  0.00    -0.285 OA
ATOM      5  C   UNL     1       4.837  -6.140   6.111  1.00  0.00     0.111 A 
ATOM      6  C   UNL     1       5.993  -5.805   5.344  1.00  0.00     0.134 A 
ATOM      7  C   UNL     1       7.042  -6.726   5.236  1.00  0.00     0.093 A 
ATOM      8  C   UNL     1       7.005  -7.943   5.921  1.00  0.00     0.123 A 
ATOM      9  C   UNL     1       5.907  -8.254   6.721  1.00  0.00     0.094 A 
ATOM     10  C   UNL     1       4.829  -7.370   6.819  1.00  0.00     0.146 A 
ATOM     11  O   UNL     1       3.798  -7.710   7.584  1.00  0.00    -0.452 OA
ENDROOT
BRANCH   1  12
ATOM     12  C   UNL     1       1.646  -7.437   8.633  1.00  0.00     0.025 A 
ATOM     13  C   UNL     1       0.453  -7.938   8.088  1.00  0.00     0.016 A 
ATOM     14  C   UNL     1      -0.561  -8.417   8.922  1.00  0.00     0.051 A 
ATOM     15  C   UNL     1      -0.391  -8.414  10.313  1.00  0.00     0.157 A 
ATOM     16  C   UNL     1       1.819  -7.456  10.029  1.00  0.00     0.062 A 
ATOM     17  C   UNL     1       0.803  -7.938  10.867  1.00  0.00     0.158 A 
BRANCH  15  18
ATOM     18  O   UNL     1      -1.401  -8.889  11.148  1.00  0.00    -0.504 OA
ATOM     19  H   UNL     1      -1.927  -9.725  10.922  1.00  0.00     0.293 HD
ENDBRANCH  15  18
BRANCH  17  20
ATOM     20  O   UNL     1       0.974  -7.949  12.250  1.00  0.00    -0.504 OA
ATOM     21  H   UNL     1       1.332  -7.141  12.746  1.00  0.00     0.293 HD
ENDBRANCH  17  20
ENDBRANCH   1  12
BRANCH   2  22
ATOM     22  O   UNL     1       1.428  -4.998   7.086  1.00  0.00    -0.502 OA
ATOM     23  H   UNL     1       0.548  -5.320   6.700  1.00  0.00     0.293 HD
ENDBRANCH   2  22
BRANCH   6  24
ATOM     24  O   UNL     1       6.171  -4.579   4.696  1.00  0.00    -0.507 OA
ATOM     25  H   UNL     1       7.015  -4.027   4.731  1.00  0.00     0.293 HD
ENDBRANCH   6  24
BRANCH   8  26
ATOM     26  O   UNL     1       8.059  -8.848   5.822  1.00  0.00    -0.508 OA
ATOM     27  H   UNL     1       8.983  -8.553   5.529  1.00  0.00     0.293 HD
ENDBRANCH   8  26
TORSDOF 6
ENDMDL
MODEL 6
REMARK VINA RESULT:    -6.760      2.710      6.868
REMARK INTER + INTRA:          -8.426
REMARK INTER:                  -8.127
REMARK INTRA:                  -0.299
REMARK UNBOUND:                -0.283
REMARK SMILES O=c1c(O)c(-c2ccc(O)c(O)c2)oc2cc(O)cc(O)c12
REMARK SMILES IDX 5 1 3 2 2 3 1 4 22 5 20 6 19 7 17 8 16 9 15 10 14 11 6 12
REMARK SMILES IDX 7 13 8 14 9 15 13 16 11 17 10 18 12 20 4 22 21 24 18 26
REMARK H PARENT 10 19 12 21 4 23 21 25 18 27
REMARK Flexibility Score: inf
ROOT
ATOM      1  C   UNL     1       4.483  -8.609   7.922  1.00  0.00     0.180 A 
ATOM      2  C   UNL     1       4.584  -9.812   7.203  1.00  0.00     0.208 A 
ATOM      3  C   UNL     1       5.484  -9.889   6.127  1.00  0.00     0.238 A 
ATOM      4  O   UNL     1       5.609 -10.985   5.521  1.00  0.00    -0.285 OA
ATOM      5  C   UNL     1       6.257  -8.757   5.774  1.00  0.00     0.111 A 
ATOM      6  C   UNL     1       7.169  -8.709   4.677  1.00  0.00     0.134 A 
ATOM      7  C   UNL     1       7.978  -7.580   4.499  1.00  0.00     0.093 A 
ATOM      8  C   UNL     1       7.860  -6.470   5.340  1.00  0.00     0.123 A 
ATOM      9  C   UNL     1       6.930  -6.484   6.378  1.00  0.00     0.094 A 
ATOM     10  C   UNL     1       6.135  -7.610   6.601  1.00  0.00     0.146 A 
ATOM     11  O   UNL     1       5.269  -7.586   7.608  1.00  0.00    -0.452 OA
ENDROOT
BRANCH   1  12
ATOM     12  C   UNL     1       3.540  -8.444   9.052  1.00  0.00     0.025 A 
ATOM     13  C   UNL     1       3.907  -8.895  10.329  1.00  0.00     0.016 A 
ATOM     14  C   UNL     1       3.042  -8.731  11.414  1.00  0.00     0.051 A 
ATOM     15  C   UNL     1       1.804  -8.099  11.240  1.00  0.00     0.157 A 
ATOM     16  C   UNL     1       2.305  -7.791   8.887  1.00  0.00     0.062 A 
ATOM     17  C   UNL     1       1.437  -7.624   9.976  1.00  0.00     0.158 A 
BRANCH  15  18
ATOM     18  O   UNL     1       0.937  -7.935  12.320  1.00  0.00    -0.504 OA
ATOM     19  H   UNL     1       0.631  -8.723  12.879  1.00  0.00     0.293 HD
ENDBRANCH  15  18
BRANCH  17  20
ATOM     20  O   UNL     1       0.210  -6.984   9.808  1.00  0.00    -0.504 OA
ATOM     21  H   UNL     1      -0.452  -6.900  10.570  1.00  0.00     0.293 HD
ENDBRANCH  17  20
ENDBRANCH   1  12
BRANCH   2  22
ATOM     22  O   UNL     1       3.828 -10.924   7.583  1.00  0.00    -0.502 OA
ATOM     23  H   UNL     1       4.067 -11.496   8.385  1.00  0.00     0.293 HD
ENDBRANCH   2  22
BRANCH   6  24
ATOM     24  O   UNL     1       7.298  -9.724   3.725  1.00  0.00    -0.507 OA
ATOM     25  H   UNL     1       6.855 -10.629   3.784  1.00  0.00     0.293 HD
ENDBRANCH   6  24
BRANCH   8  26
ATOM     26  O   UNL     1       8.657  -5.344   5.147  1.00  0.00    -0.508 OA
ATOM     27  H   UNL     1       8.390  -4.611   4.500  1.00  0.00     0.293 HD
ENDBRANCH   8  26
TORSDOF 6
ENDMDL
MODEL 7
REMARK VINA RESULT:    -6.729      3.027      6.851
REMARK INTER + INTRA:          -8.388
REMARK INTER:                  -8.156
REMARK INTRA:                  -0.232
REMARK UNBOUND:                -0.283
REMARK SMILES O=c1c(O)c(-c2ccc(O)c(O)c2)oc2cc(O)cc(O)c12
REMARK SMILES IDX 5 1 3 2 2 3 1 4 22 5 20 6 19 7 17 8 16 9 15 10 14 11 6 12
REMARK SMILES IDX 7 13 8 14 9 15 13 16 11 17 10 18 12 20 4 22 21 24 18 26
REMARK H PARENT 10 19 12 21 4 23 21 25 18 27
REMARK Flexibility Score: inf
ROOT
ATOM      1  C   UNL     1       4.472  -8.533   7.832  1.00  0.00     0.180 A 
ATOM      2  C   UNL     1       5.115  -7.422   7.260  1.00  0.00     0.208 A 
ATOM      3  C   UNL     1       6.007  -7.626   6.195  1.00  0.00     0.238 A 
ATOM      4  O   UNL     1       6.538  -6.623   5.651  1.00  0.00    -0.285 OA
ATOM      5  C   UNL     1       6.258  -8.938   5.727  1.00  0.00     0.111 A 
ATOM      6  C   UNL     1       7.173  -9.265   4.682  1.00  0.00     0.134 A 
ATOM      7  C   UNL     1       7.245 -10.583   4.213  1.00  0.00     0.093 A 
ATOM      8  C   UNL     1       6.482 -11.597   4.797  1.00  0.00     0.123 A 
ATOM      9  C   UNL     1       5.629 -11.299   5.857  1.00  0.00     0.094 A 
ATOM     10  C   UNL     1       5.510  -9.987   6.323  1.00  0.00     0.146 A 
ATOM     11  O   UNL     1       4.678  -9.744   7.329  1.00  0.00    -0.452 OA
ENDROOT
BRANCH   1  12
ATOM     12  C   UNL     1       3.538  -8.401   8.973  1.00  0.00     0.025 A 
ATOM     13  C   UNL     1       3.953  -8.792  10.256  1.00  0.00     0.016 A 
ATOM     14  C   UNL     1       3.096  -8.656  11.350  1.00  0.00     0.051 A 
ATOM     15  C   UNL     1       1.816  -8.113  11.181  1.00  0.00     0.157 A 
ATOM     16  C   UNL     1       2.259  -7.837   8.812  1.00  0.00     0.062 A 
ATOM     17  C   UNL     1       1.399  -7.699   9.911  1.00  0.00     0.158 A 
BRANCH  15  18
ATOM     18  O   UNL     1       0.956  -7.978  12.271  1.00  0.00    -0.504 OA
ATOM     19  H   UNL     1       1.119  -7.283  12.991  1.00  0.00     0.293 HD
ENDBRANCH  15  18
BRANCH  17  20
ATOM     20  O   UNL     1       0.129  -7.147   9.748  1.00  0.00    -0.504 OA
ATOM     21  H   UNL     1       0.000  -6.213   9.375  1.00  0.00     0.293 HD
ENDBRANCH  17  20
ENDBRANCH   1  12
BRANCH   2  22
ATOM     22  O   UNL     1       4.835  -6.133   7.722  1.00  0.00    -0.502 OA
ATOM     23  H   UNL     1       5.467  -5.354   7.577  1.00  0.00     0.293 HD
ENDBRANCH   2  22
BRANCH   6  24
ATOM     24  O   UNL     1       8.047  -8.346   4.094  1.00  0.00    -0.507 OA
ATOM     25  H   UNL     1       8.807  -7.887   4.574  1.00  0.00     0.293 HD
ENDBRANCH   6  24
BRANCH   8  26
ATOM     26  O   UNL     1       6.571 -12.909   4.335  1.00  0.00    -0.508 OA
ATOM     27  H   UNL     1       6.802 -13.674   4.957  1.00  0.00     0.293 HD
ENDBRANCH   8  26
TORSDOF 6
ENDMDL
MODEL 8
REMARK VINA RESULT:    -6.723      1.490      3.205
REMARK INTER + INTRA:          -8.382
REMARK INTER:                  -8.059
REMARK INTRA:                  -0.323
REMARK UNBOUND:                -0.283
REMARK SMILES O=c1c(O)c(-c2ccc(O)c(O)c2)oc2cc(O)cc(O)c12
REMARK SMILES IDX 5 1 3 2 2 3 1 4 22 5 20 6 19 7 17 8 16 9 15 10 14 11 6 12
REMARK SMILES IDX 7 13 8 14 9 15 13 16 11 17 10 18 12 20 4 22 21 24 18 26
REMARK H PARENT 10 19 12 21 4 23 21 25 18 27
REMARK Flexibility Score: inf
ROOT
ATOM      1  C   UNL     1       3.276  -6.711   7.351  1.00  0.00     0.180 A 
ATOM      2  C   UNL     1       2.032  -6.097   7.579  1.00  0.00     0.208 A 
ATOM      3  C   UNL     1       1.245  -6.534   8.656  1.00  0.00     0.238 A 
ATOM      4  O   UNL     1       0.157  -5.945   8.888  1.00  0.00    -0.285 OA
ATOM      5  C   UNL     1       1.703  -7.589   9.482  1.00  0.00     0.111 A 
ATOM      6  C   UNL     1       0.970  -8.139  10.576  1.00  0.00     0.134 A 
ATOM      7  C   UNL     1       1.576  -9.092  11.404  1.00  0.00     0.093 A 
ATOM      8  C   UNL     1       2.864  -9.563  11.138  1.00  0.00     0.123 A 
ATOM      9  C   UNL     1       3.565  -9.075  10.037  1.00  0.00     0.094 A 
ATOM     10  C   UNL     1       3.001  -8.098   9.214  1.00  0.00     0.146 A 
ATOM     11  O   UNL     1       3.707  -7.652   8.181  1.00  0.00    -0.452 OA
ENDROOT
BRANCH   1  12
ATOM     12  C   UNL     1       4.151  -6.322   6.221  1.00  0.00     0.025 A 
ATOM     13  C   UNL     1       4.003  -6.963   4.981  1.00  0.00     0.016 A 
ATOM     14  C   UNL     1       4.803  -6.599   3.895  1.00  0.00     0.051 A 
ATOM     15  C   UNL     1       5.752  -5.576   4.029  1.00  0.00     0.157 A 
ATOM     16  C   UNL     1       5.090  -5.282   6.345  1.00  0.00     0.062 A 
ATOM     17  C   UNL     1       5.892  -4.914   5.255  1.00  0.00     0.158 A 
BRANCH  15  18
ATOM     18  O   UNL     1       6.553  -5.210   2.949  1.00  0.00    -0.504 OA
ATOM     19  H   UNL     1       6.686  -5.826   2.155  1.00  0.00     0.293 HD
ENDBRANCH  15  18
BRANCH  17  20
ATOM     20  O   UNL     1       6.827  -3.888   5.382  1.00  0.00    -0.504 OA
ATOM     21  H   UNL     1       7.439  -3.631   4.615  1.00  0.00     0.293 HD
ENDBRANCH  17  20
ENDBRANCH   1  12
BRANCH   2  22
ATOM     22  O   UNL     1       1.610  -5.042   6.765  1.00  0.00    -0.502 OA
ATOM     23  H   UNL     1       2.229  -4.292   6.482  1.00  0.00     0.293 HD
ENDBRANCH   2  22
BRANCH   6  24
ATOM     24  O   UNL     1      -0.355  -7.807  10.873  1.00  0.00    -0.507 OA
ATOM     25  H   UNL     1      -1.017  -8.425  11.317  1.00  0.00     0.293 HD
ENDBRANCH   6  24
BRANCH   8  26
ATOM     26  O   UNL     1       3.454 -10.522  11.957  1.00  0.00    -0.508 OA
ATOM     27  H   UNL     1       4.452 -10.527  12.133  1.00  0.00     0.293 HD
ENDBRANCH   8  26
TORSDOF 6
ENDMDL
MODEL 9
REMARK VINA RESULT:    -6.615      2.143      6.666
REMARK INTER + INTRA:          -8.251
REMARK INTER:                  -7.946
REMARK INTRA:                  -0.305
REMARK UNBOUND:                -0.283
REMARK SMILES O=c1c(O)c(-c2ccc(O)c(O)c2)oc2cc(O)cc(O)c12
REMARK SMILES IDX 5 1 3 2 2 3 1 4 22 5 20 6 19 7 17 8 16 9 15 10 14 11 6 12
REMARK SMILES IDX 7 13 8 14 9 15 13 16 11 17 10 18 12 20 4 22 21 24 18 26
REMARK H PARENT 10 19 12 21 4 23 21 25 18 27
REMARK Flexibility Score: inf
ROOT
ATOM      1  C   UNL     1       3.340  -8.323   8.130  1.00  0.00     0.180 A 
ATOM      2  C   UNL     1       3.955  -9.526   7.741  1.00  0.00     0.208 A 
ATOM      3  C   UNL     1       5.085  -9.474   6.908  1.00  0.00     0.238 A 
ATOM      4  O   UNL     1       5.663 -10.550   6.607  1.00  0.00    -0.285 OA
ATOM      5  C   UNL     1       5.574  -8.222   6.462  1.00  0.00     0.111 A 
ATOM      6  C   UNL     1       6.686  -8.054   5.582  1.00  0.00     0.134 A 
ATOM      7  C   UNL     1       7.163  -6.765   5.312  1.00  0.00     0.093 A 
ATOM      8  C   UNL     1       6.528  -5.637   5.835  1.00  0.00     0.123 A 
ATOM      9  C   UNL     1       5.405  -5.789   6.646  1.00  0.00     0.094 A 
ATOM     10  C   UNL     1       4.927  -7.063   6.963  1.00  0.00     0.146 A 
ATOM     11  O   UNL     1       3.861  -7.164   7.748  1.00  0.00    -0.452 OA
ENDROOT
BRANCH   1  12
ATOM     12  C   UNL     1       2.131  -8.298   8.985  1.00  0.00     0.025 A 
ATOM     13  C   UNL     1       0.871  -8.519   8.408  1.00  0.00     0.016 A 
ATOM     14  C   UNL     1      -0.280  -8.520   9.199  1.00  0.00     0.051 A 
ATOM     15  C   UNL     1      -0.187  -8.316  10.582  1.00  0.00     0.157 A 
ATOM     16  C   UNL     1       2.222  -8.114  10.377  1.00  0.00     0.062 A 
ATOM     17  C   UNL     1       1.067  -8.118  11.172  1.00  0.00     0.158 A 
BRANCH  15  18
ATOM     18  O   UNL     1      -1.333  -8.315  11.375  1.00  0.00    -0.504 OA
ATOM     19  H   UNL     1      -1.279  -8.256  12.385  1.00  0.00     0.293 HD
ENDBRANCH  15  18
BRANCH  17  20
ATOM     20  O   UNL     1       1.158  -7.928  12.550  1.00  0.00    -0.504 OA
ATOM     21  H   UNL     1       1.247  -7.002  12.953  1.00  0.00     0.293 HD
ENDBRANCH  17  20
ENDBRANCH   1  12
BRANCH   2  22
ATOM     22  O   UNL     1       3.469 -10.748   8.211  1.00  0.00    -0.502 OA
ATOM     23  H   UNL     1       3.906 -11.249   8.976  1.00  0.00     0.293 HD
ENDBRANCH   2  22
BRANCH   6  24
ATOM     24  O   UNL     1       7.334  -9.108   4.934  1.00  0.00    -0.507 OA
ATOM     25  H   UNL     1       6.895  -9.738   4.278  1.00  0.00     0.293 HD
ENDBRANCH   6  24
BRANCH   8  26
ATOM     26  O   UNL     1       6.999  -4.358   5.548  1.00  0.00    -0.508 OA
ATOM     27  H   UNL     1       7.742  -4.206   4.876  1.00  0.00     0.293 HD
ENDBRANCH   8  26
TORSDOF 6
ENDMDL
