MODEL 1
REMARK VINA RESULT:    -4.877      0.000      0.000
REMARK INTER + INTRA:          -8.226
REMARK INTER:                  -7.728
REMARK INTRA:                  -0.498
REMARK UNBOUND:                -0.498
REMARK SMILES CCCCCCCCCCCC(=O)[O-]
REMARK SMILES IDX 7 1 8 2 9 3 10 4 11 5 12 6 13 7 14 8 6 9 5 10 4 11 3 12 2 13
REMARK SMILES IDX 1 14
REMARK H PARENT
REMARK Flexibility Score: inf
ROOT
ATOM      1  C   UNL     1      -9.253  24.126 -26.202  1.00  0.00     0.000 C 
ENDROOT
BRANCH   1   2
ATOM      2  C   UNL     1      -9.617  25.165 -27.273  1.00  0.00     0.000 C 
BRANCH   2   3
ATOM      3  C   UNL     1      -8.472  25.421 -28.266  1.00  0.00     0.000 C 
BRANCH   3   4
ATOM      4  C   UNL     1      -7.274  26.136 -27.618  1.00  0.00     0.006 C 
BRANCH   4   5
ATOM      5  C   UNL     1      -7.600  27.587 -27.242  1.00  0.00     0.053 C 
BRANCH   5   6
ATOM      6  C   UNL     1      -7.655  27.781 -25.758  1.00  0.00     0.041 C 
ATOM      7  O   UNL     1      -6.632  28.161 -25.130  1.00  0.00    -0.550 OA
ATOM      8  O   UNL     1      -8.829  27.514 -25.064  1.00  0.00    -0.550 OA
ENDBRANCH   5   6
ENDBRANCH   4   5
ENDBRANCH   3   4
ENDBRANCH   2   3
ENDBRANCH   1   2
BRANCH   1   9
ATOM      9  C   UNL     1     -10.320  23.028 -26.117  1.00  0.00     0.000 C 
BRANCH   9  10
ATOM     10  C   UNL     1     -10.124  22.167 -24.860  1.00  0.00    -0.000 C 
BRANCH  10  11
ATOM     11  C   UNL     1      -9.212  22.835 -23.820  1.00  0.00    -0.000 C 
BRANCH  11  12
ATOM     12  C   UNL     1      -9.966  23.241 -22.545  1.00  0.00    -0.000 C 
BRANCH  12  13
ATOM     13  C   UNL     1      -9.168  22.861 -21.292  1.00  0.00    -0.003 C 
ATOM     14  C   UNL     1     -10.070  22.236 -20.232  1.00  0.00     0.004 C 
ENDBRANCH  12  13
ENDBRANCH  11  12
ENDBRANCH  10  11
ENDBRANCH   9  10
ENDBRANCH   1   9
TORSDOF 10
ENDMDL
MODEL 2
REMARK VINA RESULT:    -4.829      2.666      5.829
REMARK INTER + INTRA:          -8.151
REMARK INTER:                  -7.560
REMARK INTRA:                  -0.590
REMARK UNBOUND:                -0.498
REMARK SMILES CCCCCCCCCCCC(=O)[O-]
REMARK SMILES IDX 7 1 8 2 9 3 10 4 11 5 12 6 13 7 14 8 6 9 5 10 4 11 3 12 2 13
REMARK SMILES IDX 1 14
REMARK H PARENT
REMARK Flexibility Score: inf
ROOT
ATOM      1  C   UNL     1      -9.787  24.252 -26.065  1.00  0.00     0.000 C 
ENDROOT
BRANCH   1   2
ATOM      2  C   UNL     1      -9.962  22.727 -26.127  1.00  0.00     0.000 C 
BRANCH   2   3
ATOM      3  C   UNL     1     -10.000  22.077 -24.734  1.00  0.00     0.000 C 
BRANCH   3   4
ATOM      4  C   UNL     1      -9.218  22.883 -23.683  1.00  0.00     0.006 C 
BRANCH   4   5
ATOM      5  C   UNL     1     -10.102  23.305 -22.502  1.00  0.00     0.053 C 
BRANCH   5   6
ATOM      6  C   UNL     1      -9.583  22.776 -21.199  1.00  0.00     0.041 C 
ATOM      7  O   UNL     1     -10.298  22.017 -20.494  1.00  0.00    -0.550 OA
ATOM      8  O   UNL     1      -8.320  23.144 -20.752  1.00  0.00    -0.550 OA
ENDBRANCH   5   6
ENDBRANCH   4   5
ENDBRANCH   3   4
ENDBRANCH   2   3
ENDBRANCH   1   2
BRANCH   1   9
ATOM      9  C   UNL     1      -8.914  24.751 -27.223  1.00  0.00     0.000 C 
BRANCH   9  10
ATOM     10  C   UNL     1      -8.992  26.280 -27.352  1.00  0.00    -0.000 C 
BRANCH  10  11
ATOM     11  C   UNL     1      -7.622  26.924 -27.617  1.00  0.00    -0.000 C 
BRANCH  11  12
ATOM     12  C   UNL     1      -7.124  27.766 -26.433  1.00  0.00    -0.000 C 
BRANCH  12  13
ATOM     13  C   UNL     1      -8.149  27.768 -25.293  1.00  0.00    -0.003 C 
ATOM     14  C   UNL     1      -7.503  28.171 -23.970  1.00  0.00     0.004 C 
ENDBRANCH  12  13
ENDBRANCH  11  12
ENDBRANCH  10  11
ENDBRANCH   9  10
ENDBRANCH   1   9
TORSDOF 10
ENDMDL
MODEL 3
REMARK VINA RESULT:    -4.608      6.740      9.288
REMARK INTER + INTRA:          -7.800
REMARK INTER:                  -6.497
REMARK INTRA:                  -1.303
REMARK UNBOUND:                -0.498
REMARK SMILES CCCCCCCCCCCC(=O)[O-]
REMARK SMILES IDX 7 1 8 2 9 3 10 4 11 5 12 6 13 7 14 8 6 9 5 10 4 11 3 12 2 13
REMARK SMILES IDX 1 14
REMARK H PARENT
REMARK Flexibility Score: inf
ROOT
ATOM      1  C   UNL     1      -3.190  27.622 -18.996  1.00  0.00     0.000 C 
ENDROOT
BRANCH   1   2
ATOM      2  C   UNL     1      -3.782  26.846 -20.182  1.00  0.00     0.000 C 
BRANCH   2   3
ATOM      3  C   UNL     1      -5.258  26.470 -19.968  1.00  0.00     0.000 C 
BRANCH   3   4
ATOM      4  C   UNL     1      -6.125  27.677 -19.570  1.00  0.00     0.006 C 
BRANCH   4   5
ATOM      5  C   UNL     1      -6.881  27.438 -18.256  1.00  0.00     0.053 C 
BRANCH   5   6
ATOM      6  C   UNL     1      -6.790  28.619 -17.338  1.00  0.00     0.041 C 
ATOM      7  O   UNL     1      -6.831  29.788 -17.803  1.00  0.00    -0.550 OA
ATOM      8  O   UNL     1      -6.633  28.426 -15.971  1.00  0.00    -0.550 OA
ENDBRANCH   5   6
ENDBRANCH   4   5
ENDBRANCH   3   4
ENDBRANCH   2   3
ENDBRANCH   1   2
BRANCH   1   9
ATOM      9  C   UNL     1      -2.520  28.918 -19.469  1.00  0.00     0.000 C 
BRANCH   9  10
ATOM     10  C   UNL     1      -3.557  30.035 -19.661  1.00  0.00    -0.000 C 
BRANCH  10  11
ATOM     11  C   UNL     1      -3.591  30.571 -21.101  1.00  0.00    -0.000 C 
BRANCH  11  12
ATOM     12  C   UNL     1      -4.968  30.407 -21.762  1.00  0.00    -0.000 C 
BRANCH  12  13
ATOM     13  C   UNL     1      -4.979  29.203 -22.712  1.00  0.00    -0.003 C 
ATOM     14  C   UNL     1      -6.403  28.834 -23.117  1.00  0.00     0.004 C 
ENDBRANCH  12  13
ENDBRANCH  11  12
ENDBRANCH  10  11
ENDBRANCH   9  10
ENDBRANCH   1   9
TORSDOF 10
ENDMDL
MODEL 4
REMARK VINA RESULT:    -4.551      7.335      8.742
REMARK INTER + INTRA:          -7.710
REMARK INTER:                  -6.386
REMARK INTRA:                  -1.325
REMARK UNBOUND:                -0.498
REMARK SMILES CCCCCCCCCCCC(=O)[O-]
REMARK SMILES IDX 7 1 8 2 9 3 10 4 11 5 12 6 13 7 14 8 6 9 5 10 4 11 3 12 2 13
REMARK SMILES IDX 1 14
REMARK H PARENT
REMARK Flexibility Score: inf
ROOT
ATOM      1  C   UNL     1      -2.698  28.679 -19.461  1.00  0.00     0.000 C 
ENDROOT
BRANCH   1   2
ATOM      2  C   UNL     1      -3.070  30.139 -19.763  1.00  0.00     0.000 C 
BRANCH   2   3
ATOM      3  C   UNL     1      -3.645  30.325 -21.176  1.00  0.00     0.000 C 
BRANCH   3   4
ATOM      4  C   UNL     1      -4.791  31.351 -21.220  1.00  0.00     0.006 C 
BRANCH   4   5
ATOM      5  C   UNL     1      -4.542  32.537 -20.278  1.00  0.00     0.053 C 
BRANCH   5   6
ATOM      6  C   UNL     1      -5.768  33.379 -20.106  1.00  0.00     0.041 C 
ATOM      7  O   UNL     1      -6.803  32.893 -19.578  1.00  0.00    -0.550 OA
ATOM      8  O   UNL     1      -5.777  34.695 -20.555  1.00  0.00    -0.550 OA
ENDBRANCH   5   6
ENDBRANCH   4   5
ENDBRANCH   3   4
ENDBRANCH   2   3
ENDBRANCH   1   2
BRANCH   1   9
ATOM      9  C   UNL     1      -3.222  27.743 -20.556  1.00  0.00     0.000 C 
BRANCH   9  10
ATOM     10  C   UNL     1      -3.794  26.452 -19.949  1.00  0.00    -0.000 C 
BRANCH  10  11
ATOM     11  C   UNL     1      -5.318  26.346 -20.111  1.00  0.00    -0.000 C 
BRANCH  11  12
ATOM     12  C   UNL     1      -6.015  27.714 -20.067  1.00  0.00    -0.000 C 
BRANCH  12  13
ATOM     13  C   UNL     1      -6.353  28.111 -18.625  1.00  0.00    -0.003 C 
ATOM     14  C   UNL     1      -6.593  29.613 -18.507  1.00  0.00     0.004 C 
ENDBRANCH  12  13
ENDBRANCH  11  12
ENDBRANCH  10  11
ENDBRANCH   9  10
ENDBRANCH   1   9
TORSDOF 10
ENDMDL
MODEL 5
REMARK VINA RESULT:    -4.547      6.434      8.685
REMARK INTER + INTRA:          -7.704
REMARK INTER:                  -6.397
REMARK INTRA:                  -1.307
REMARK UNBOUND:                -0.498
REMARK SMILES CCCCCCCCCCCC(=O)[O-]
REMARK SMILES IDX 7 1 8 2 9 3 10 4 11 5 12 6 13 7 14 8 6 9 5 10 4 11 3 12 2 13
REMARK SMILES IDX 1 14
REMARK H PARENT
REMARK Flexibility Score: inf
ROOT
ATOM      1  C   UNL     1      -5.838  29.005 -18.577  1.00  0.00     0.000 C 
ENDROOT
BRANCH   1   2
ATOM      2  C   UNL     1      -6.945  29.784 -17.851  1.00  0.00     0.000 C 
BRANCH   2   3
ATOM      3  C   UNL     1      -6.950  31.280 -18.208  1.00  0.00     0.000 C 
BRANCH   3   4
ATOM      4  C   UNL     1      -6.609  31.537 -19.686  1.00  0.00     0.006 C 
BRANCH   4   5
ATOM      5  C   UNL     1      -5.460  32.541 -19.848  1.00  0.00     0.053 C 
BRANCH   5   6
ATOM      6  C   UNL     1      -4.307  31.952 -20.602  1.00  0.00     0.041 C 
ATOM      7  O   UNL     1      -4.260  32.037 -21.857  1.00  0.00    -0.550 OA
ATOM      8  O   UNL     1      -3.297  31.284 -19.918  1.00  0.00    -0.550 OA
ENDBRANCH   5   6
ENDBRANCH   4   5
ENDBRANCH   3   4
ENDBRANCH   2   3
ENDBRANCH   1   2
BRANCH   1   9
ATOM      9  C   UNL     1      -6.345  27.631 -19.033  1.00  0.00     0.000 C 
BRANCH   9  10
ATOM     10  C   UNL     1      -5.651  27.192 -20.332  1.00  0.00    -0.000 C 
BRANCH  10  11
ATOM     11  C   UNL     1      -4.662  28.244 -20.860  1.00  0.00    -0.000 C 
BRANCH  11  12
ATOM     12  C   UNL     1      -4.982  28.690 -22.294  1.00  0.00    -0.000 C 
BRANCH  12  13
ATOM     13  C   UNL     1      -6.470  29.025 -22.444  1.00  0.00    -0.003 C 
ATOM     14  C   UNL     1      -7.036  28.457 -23.743  1.00  0.00     0.004 C 
ENDBRANCH  12  13
ENDBRANCH  11  12
ENDBRANCH  10  11
ENDBRANCH   9  10
ENDBRANCH   1   9
TORSDOF 10
ENDMDL
MODEL 6
REMARK VINA RESULT:    -4.515      7.268      8.759
REMARK INTER + INTRA:          -7.652
REMARK INTER:                  -6.591
REMARK INTRA:                  -1.062
REMARK UNBOUND:                -0.498
REMARK SMILES CCCCCCCCCCCC(=O)[O-]
REMARK SMILES IDX 7 1 8 2 9 3 10 4 11 5 12 6 13 7 14 8 6 9 5 10 4 11 3 12 2 13
REMARK SMILES IDX 1 14
REMARK H PARENT
REMARK Flexibility Score: inf
ROOT
ATOM      1  C   UNL     1      -3.770  26.670 -20.055  1.00  0.00     0.000 C 
ENDROOT
BRANCH   1   2
ATOM      2  C   UNL     1      -3.234  28.014 -20.571  1.00  0.00     0.000 C 
BRANCH   2   3
ATOM      3  C   UNL     1      -2.599  28.866 -19.460  1.00  0.00     0.000 C 
BRANCH   3   4
ATOM      4  C   UNL     1      -2.520  30.357 -19.829  1.00  0.00     0.006 C 
BRANCH   4   5
ATOM      5  C   UNL     1      -3.332  30.686 -21.088  1.00  0.00     0.053 C 
BRANCH   5   6
ATOM      6  C   UNL     1      -3.338  32.155 -21.381  1.00  0.00     0.041 C 
ATOM      7  O   UNL     1      -2.465  32.654 -22.139  1.00  0.00    -0.550 OA
ATOM      8  O   UNL     1      -4.291  32.978 -20.793  1.00  0.00    -0.550 OA
ENDBRANCH   5   6
ENDBRANCH   4   5
ENDBRANCH   3   4
ENDBRANCH   2   3
ENDBRANCH   1   2
BRANCH   1   9
ATOM      9  C   UNL     1      -5.303  26.665 -20.028  1.00  0.00     0.000 C 
BRANCH   9  10
ATOM     10  C   UNL     1      -5.867  27.963 -20.626  1.00  0.00    -0.000 C 
BRANCH  10  11
ATOM     11  C   UNL     1      -6.497  28.880 -19.565  1.00  0.00    -0.000 C 
BRANCH  11  12
ATOM     12  C   UNL     1      -6.590  30.342 -20.025  1.00  0.00    -0.000 C 
BRANCH  12  13
ATOM     13  C   UNL     1      -6.712  31.287 -18.824  1.00  0.00    -0.003 C 
ATOM     14  C   UNL     1      -7.084  30.524 -17.556  1.00  0.00     0.004 C 
ENDBRANCH  12  13
ENDBRANCH  11  12
ENDBRANCH  10  11
ENDBRANCH   9  10
ENDBRANCH   1   9
TORSDOF 10
ENDMDL
MODEL 7
REMARK VINA RESULT:    -4.502      7.205      9.563
REMARK INTER + INTRA:          -7.632
REMARK INTER:                  -6.134
REMARK INTRA:                  -1.499
REMARK UNBOUND:                -0.498
REMARK SMILES CCCCCCCCCCCC(=O)[O-]
REMARK SMILES IDX 7 1 8 2 9 3 10 4 11 5 12 6 13 7 14 8 6 9 5 10 4 11 3 12 2 13
REMARK SMILES IDX 1 14
REMARK H PARENT
REMARK Flexibility Score: inf
ROOT
ATOM      1  C   UNL     1      -4.928  33.115 -20.624  1.00  0.00     0.000 C 
ENDROOT
BRANCH   1   2
ATOM      2  C   UNL     1      -3.519  32.616 -20.269  1.00  0.00     0.000 C 
BRANCH   2   3
ATOM      3  C   UNL     1      -3.172  31.283 -20.953  1.00  0.00     0.000 C 
BRANCH   3   4
ATOM      4  C   UNL     1      -2.917  30.149 -19.945  1.00  0.00     0.006 C 
BRANCH   4   5
ATOM      5  C   UNL     1      -2.977  28.765 -20.605  1.00  0.00     0.053 C 
BRANCH   5   6
ATOM      6  C   UNL     1      -3.191  27.676 -19.598  1.00  0.00     0.041 C 
ATOM      7  O   UNL     1      -3.053  27.913 -18.369  1.00  0.00    -0.550 OA
ATOM      8  O   UNL     1      -3.517  26.392 -20.020  1.00  0.00    -0.550 OA
ENDBRANCH   5   6
ENDBRANCH   4   5
ENDBRANCH   3   4
ENDBRANCH   2   3
ENDBRANCH   1   2
BRANCH   1   9
ATOM      9  C   UNL     1      -5.861  33.030 -19.411  1.00  0.00     0.000 C 
BRANCH   9  10
ATOM     10  C   UNL     1      -6.869  31.881 -19.572  1.00  0.00    -0.000 C 
BRANCH  10  11
ATOM     11  C   UNL     1      -6.495  30.644 -18.740  1.00  0.00    -0.000 C 
BRANCH  11  12
ATOM     12  C   UNL     1      -6.489  29.352 -19.571  1.00  0.00    -0.000 C 
BRANCH  12  13
ATOM     13  C   UNL     1      -6.526  29.665 -21.071  1.00  0.00    -0.003 C 
ATOM     14  C   UNL     1      -6.190  28.430 -21.901  1.00  0.00     0.004 C 
ENDBRANCH  12  13
ENDBRANCH  11  12
ENDBRANCH  10  11
ENDBRANCH   9  10
ENDBRANCH   1   9
TORSDOF 10
ENDMDL
MODEL 8
REMARK VINA RESULT:    -4.500      7.464      9.957
REMARK INTER + INTRA:          -7.629
REMARK INTER:                  -6.766
REMARK INTRA:                  -0.863
REMARK UNBOUND:                -0.498
REMARK SMILES CCCCCCCCCCCC(=O)[O-]
REMARK SMILES IDX 7 1 8 2 9 3 10 4 11 5 12 6 13 7 14 8 6 9 5 10 4 11 3 12 2 13
REMARK SMILES IDX 1 14
REMARK H PARENT
REMARK Flexibility Score: inf
ROOT
ATOM      1  C   UNL     1      -6.469  29.353 -18.765  1.00  0.00     0.000 C 
ENDROOT
BRANCH   1   2
ATOM      2  C   UNL     1      -6.367  27.822 -18.844  1.00  0.00     0.000 C 
BRANCH   2   3
ATOM      3  C   UNL     1      -5.908  27.328 -20.226  1.00  0.00     0.000 C 
BRANCH   3   4
ATOM      4  C   UNL     1      -4.552  26.603 -20.175  1.00  0.00     0.006 C 
BRANCH   4   5
ATOM      5  C   UNL     1      -3.388  27.526 -20.558  1.00  0.00     0.053 C 
BRANCH   5   6
ATOM      6  C   UNL     1      -2.917  28.343 -19.394  1.00  0.00     0.041 C 
ATOM      7  O   UNL     1      -2.786  27.813 -18.259  1.00  0.00    -0.550 OA
ATOM      8  O   UNL     1      -2.651  29.698 -19.556  1.00  0.00    -0.550 OA
ENDBRANCH   5   6
ENDBRANCH   4   5
ENDBRANCH   3   4
ENDBRANCH   2   3
ENDBRANCH   1   2
BRANCH   1   9
ATOM      9  C   UNL     1      -6.438  29.977 -20.165  1.00  0.00     0.000 C 
BRANCH   9  10
ATOM     10  C   UNL     1      -6.012  31.452 -20.100  1.00  0.00    -0.000 C 
BRANCH  10  11
ATOM     11  C   UNL     1      -6.662  32.206 -18.930  1.00  0.00    -0.000 C 
BRANCH  11  12
ATOM     12  C   UNL     1      -6.765  33.717 -19.183  1.00  0.00    -0.000 C 
BRANCH  12  13
ATOM     13  C   UNL     1      -5.412  34.294 -19.615  1.00  0.00    -0.003 C 
ATOM     14  C   UNL     1      -5.556  35.171 -20.855  1.00  0.00     0.004 C 
ENDBRANCH  12  13
ENDBRANCH  11  12
ENDBRANCH  10  11
ENDBRANCH   9  10
ENDBRANCH   1   9
TORSDOF 10
ENDMDL
MODEL 9
REMARK VINA RESULT:    -4.306      7.347     10.100
REMARK INTER + INTRA:          -7.321
REMARK INTER:                  -6.112
REMARK INTRA:                  -1.209
REMARK UNBOUND:                -0.498
REMARK SMILES CCCCCCCCCCCC(=O)[O-]
REMARK SMILES IDX 7 1 8 2 9 3 10 4 11 5 12 6 13 7 14 8 6 9 5 10 4 11 3 12 2 13
REMARK SMILES IDX 1 14
REMARK H PARENT
REMARK Flexibility Score: inf
ROOT
ATOM      1  C   UNL     1      -6.704  31.049 -18.433  1.00  0.00     0.000 C 
ENDROOT
BRANCH   1   2
ATOM      2  C   UNL     1      -6.578  30.315 -19.777  1.00  0.00     0.000 C 
BRANCH   2   3
ATOM      3  C   UNL     1      -6.177  28.839 -19.612  1.00  0.00     0.000 C 
BRANCH   3   4
ATOM      4  C   UNL     1      -5.702  28.204 -20.930  1.00  0.00     0.006 C 
BRANCH   4   5
ATOM      5  C   UNL     1      -4.185  28.329 -21.120  1.00  0.00     0.053 C 
BRANCH   5   6
ATOM      6  C   UNL     1      -3.428  27.539 -20.096  1.00  0.00     0.041 C 
ATOM      7  O   UNL     1      -3.430  26.281 -20.138  1.00  0.00    -0.550 OA
ATOM      8  O   UNL     1      -2.742  28.193 -19.079  1.00  0.00    -0.550 OA
ENDBRANCH   5   6
ENDBRANCH   4   5
ENDBRANCH   3   4
ENDBRANCH   2   3
ENDBRANCH   1   2
BRANCH   1   9
ATOM      9  C   UNL     1      -6.688  32.568 -18.636  1.00  0.00     0.000 C 
BRANCH   9  10
ATOM     10  C   UNL     1      -6.214  32.930 -20.052  1.00  0.00    -0.000 C 
BRANCH  10  11
ATOM     11  C   UNL     1      -4.995  33.865 -20.049  1.00  0.00    -0.000 C 
BRANCH  11  12
ATOM     12  C   UNL     1      -3.986  33.528 -21.157  1.00  0.00    -0.000 C 
BRANCH  12  13
ATOM     13  C   UNL     1      -3.721  32.018 -21.214  1.00  0.00    -0.003 C 
ATOM     14  C   UNL     1      -2.746  31.587 -20.123  1.00  0.00     0.004 C 
ENDBRANCH  12  13
ENDBRANCH  11  12
ENDBRANCH  10  11
ENDBRANCH   9  10
ENDBRANCH   1   9
TORSDOF 10
ENDMDL
