MODEL 1
REMARK VINA RESULT:    -5.144      0.000      0.000
REMARK INTER + INTRA:          -8.650
REMARK INTER:                  -8.151
REMARK INTRA:                  -0.499
REMARK UNBOUND:                -0.499
REMARK SMILES CCCCCCCCCCCC(=O)[O-]
REMARK SMILES IDX 7 1 8 2 9 3 10 4 11 5 12 6 13 7 14 8 6 9 5 10 4 11 3 12 2 13
REMARK SMILES IDX 1 14
REMARK H PARENT
REMARK Flexibility Score: inf
ROOT
ATOM      1  C   UNL     1       8.269   1.528 -37.787  1.00  0.00     0.000 C 
ENDROOT
BRANCH   1   2
ATOM      2  C   UNL     1       9.122   0.270 -38.027  1.00  0.00     0.000 C 
BRANCH   2   3
ATOM      3  C   UNL     1       8.266  -0.995 -38.204  1.00  0.00     0.000 C 
BRANCH   3   4
ATOM      4  C   UNL     1       7.659  -1.500 -36.882  1.00  0.00     0.006 C 
BRANCH   4   5
ATOM      5  C   UNL     1       7.436  -3.022 -36.837  1.00  0.00     0.053 C 
BRANCH   5   6
ATOM      6  C   UNL     1       6.411  -3.422 -35.817  1.00  0.00     0.041 C 
ATOM      7  O   UNL     1       6.329  -4.621 -35.441  1.00  0.00    -0.550 OA
ATOM      8  O   UNL     1       5.523  -2.482 -35.312  1.00  0.00    -0.550 OA
ENDBRANCH   5   6
ENDBRANCH   4   5
ENDBRANCH   3   4
ENDBRANCH   2   3
ENDBRANCH   1   2
BRANCH   1   9
ATOM      9  C   UNL     1       8.417   2.073 -36.355  1.00  0.00     0.000 C 
BRANCH   9  10
ATOM     10  C   UNL     1       9.470   1.306 -35.538  1.00  0.00    -0.000 C 
BRANCH  10  11
ATOM     11  C   UNL     1      10.798   2.068 -35.416  1.00  0.00    -0.000 C 
BRANCH  11  12
ATOM     12  C   UNL     1      11.534   1.685 -34.127  1.00  0.00    -0.000 C 
BRANCH  12  13
ATOM     13  C   UNL     1      13.046   1.589 -34.363  1.00  0.00    -0.003 C 
ATOM     14  C   UNL     1      13.511   2.622 -35.384  1.00  0.00     0.004 C 
ENDBRANCH  12  13
ENDBRANCH  11  12
ENDBRANCH  10  11
ENDBRANCH   9  10
ENDBRANCH   1   9
TORSDOF 10
ENDMDL
MODEL 2
REMARK VINA RESULT:    -5.006      5.585      6.903
REMARK INTER + INTRA:          -8.431
REMARK INTER:                  -7.912
REMARK INTRA:                  -0.519
REMARK UNBOUND:                -0.499
REMARK SMILES CCCCCCCCCCCC(=O)[O-]
REMARK SMILES IDX 7 1 8 2 9 3 10 4 11 5 12 6 13 7 14 8 6 9 5 10 4 11 3 12 2 13
REMARK SMILES IDX 1 14
REMARK H PARENT
REMARK Flexibility Score: inf
ROOT
ATOM      1  C   UNL     1       7.330   1.433 -32.541  1.00  0.00     0.000 C 
ENDROOT
BRANCH   1   2
ATOM      2  C   UNL     1       6.620   1.884 -31.253  1.00  0.00     0.000 C 
BRANCH   2   3
ATOM      3  C   UNL     1       7.114   1.123 -30.012  1.00  0.00     0.000 C 
BRANCH   3   4
ATOM      4  C   UNL     1       6.233  -0.089 -29.660  1.00  0.00     0.006 C 
BRANCH   4   5
ATOM      5  C   UNL     1       6.073  -0.328 -28.148  1.00  0.00     0.053 C 
BRANCH   5   6
ATOM      6  C   UNL     1       7.389  -0.371 -27.430  1.00  0.00     0.041 C 
ATOM      7  O   UNL     1       7.661   0.494 -26.557  1.00  0.00    -0.550 OA
ATOM      8  O   UNL     1       8.330  -1.341 -27.752  1.00  0.00    -0.550 OA
ENDBRANCH   5   6
ENDBRANCH   4   5
ENDBRANCH   3   4
ENDBRANCH   2   3
ENDBRANCH   1   2
BRANCH   1   9
ATOM      9  C   UNL     1       6.376   0.728 -33.522  1.00  0.00     0.000 C 
BRANCH   9  10
ATOM     10  C   UNL     1       6.836   0.853 -34.984  1.00  0.00    -0.000 C 
BRANCH  10  11
ATOM     11  C   UNL     1       8.190   1.564 -35.123  1.00  0.00    -0.000 C 
BRANCH  11  12
ATOM     12  C   UNL     1       8.320   2.233 -36.497  1.00  0.00    -0.000 C 
BRANCH  12  13
ATOM     13  C   UNL     1       7.807   1.313 -37.609  1.00  0.00    -0.003 C 
ATOM     14  C   UNL     1       8.918   0.407 -38.132  1.00  0.00     0.004 C 
ENDBRANCH  12  13
ENDBRANCH  11  12
ENDBRANCH  10  11
ENDBRANCH   9  10
ENDBRANCH   1   9
TORSDOF 10
ENDMDL
MODEL 3
REMARK VINA RESULT:    -4.963      4.663      5.657
REMARK INTER + INTRA:          -8.364
REMARK INTER:                  -7.657
REMARK INTRA:                  -0.707
REMARK UNBOUND:                -0.499
REMARK SMILES CCCCCCCCCCCC(=O)[O-]
REMARK SMILES IDX 7 1 8 2 9 3 10 4 11 5 12 6 13 7 14 8 6 9 5 10 4 11 3 12 2 13
REMARK SMILES IDX 1 14
REMARK H PARENT
REMARK Flexibility Score: inf
ROOT
ATOM      1  C   UNL     1       6.842   0.886 -34.402  1.00  0.00     0.000 C 
ENDROOT
BRANCH   1   2
ATOM      2  C   UNL     1       6.295   1.519 -33.111  1.00  0.00     0.000 C 
BRANCH   2   3
ATOM      3  C   UNL     1       7.360   1.615 -32.007  1.00  0.00     0.000 C 
BRANCH   3   4
ATOM      4  C   UNL     1       6.771   1.990 -30.634  1.00  0.00     0.006 C 
BRANCH   4   5
ATOM      5  C   UNL     1       6.557   0.788 -29.696  1.00  0.00     0.053 C 
BRANCH   5   6
ATOM      6  C   UNL     1       7.706   0.582 -28.755  1.00  0.00     0.041 C 
ATOM      7  O   UNL     1       8.160  -0.575 -28.556  1.00  0.00    -0.550 OA
ATOM      8  O   UNL     1       8.251   1.660 -28.069  1.00  0.00    -0.550 OA
ENDBRANCH   5   6
ENDBRANCH   4   5
ENDBRANCH   3   4
ENDBRANCH   2   3
ENDBRANCH   1   2
BRANCH   1   9
ATOM      9  C   UNL     1       7.804   1.824 -35.154  1.00  0.00     0.000 C 
BRANCH   9  10
ATOM     10  C   UNL     1       9.042   1.088 -35.694  1.00  0.00    -0.000 C 
BRANCH  10  11
ATOM     11  C   UNL     1      10.361   1.708 -35.208  1.00  0.00    -0.000 C 
BRANCH  11  12
ATOM     12  C   UNL     1      10.561   1.466 -33.707  1.00  0.00    -0.000 C 
BRANCH  12  13
ATOM     13  C   UNL     1      11.761   2.258 -33.177  1.00  0.00    -0.003 C 
ATOM     14  C   UNL     1      11.481   2.818 -31.785  1.00  0.00     0.004 C 
ENDBRANCH  12  13
ENDBRANCH  11  12
ENDBRANCH  10  11
ENDBRANCH   9  10
ENDBRANCH   1   9
TORSDOF 10
ENDMDL
MODEL 4
REMARK VINA RESULT:    -4.936      4.324      5.643
REMARK INTER + INTRA:          -8.320
REMARK INTER:                  -7.902
REMARK INTRA:                  -0.418
REMARK UNBOUND:                -0.499
REMARK SMILES CCCCCCCCCCCC(=O)[O-]
REMARK SMILES IDX 7 1 8 2 9 3 10 4 11 5 12 6 13 7 14 8 6 9 5 10 4 11 3 12 2 13
REMARK SMILES IDX 1 14
REMARK H PARENT
REMARK Flexibility Score: inf
ROOT
ATOM      1  C   UNL     1       8.253   1.183 -33.978  1.00  0.00     0.000 C 
ENDROOT
BRANCH   1   2
ATOM      2  C   UNL     1       9.664   1.375 -34.561  1.00  0.00     0.000 C 
BRANCH   2   3
ATOM      3  C   UNL     1       9.637   1.819 -36.032  1.00  0.00     0.000 C 
BRANCH   3   4
ATOM      4  C   UNL     1       8.248   2.301 -36.490  1.00  0.00     0.006 C 
BRANCH   4   5
ATOM      5  C   UNL     1       7.613   1.428 -37.587  1.00  0.00     0.053 C 
BRANCH   5   6
ATOM      6  C   UNL     1       8.264   0.082 -37.699  1.00  0.00     0.041 C 
ATOM      7  O   UNL     1       7.954  -0.839 -36.898  1.00  0.00    -0.550 OA
ATOM      8  O   UNL     1       9.240  -0.146 -38.661  1.00  0.00    -0.550 OA
ENDBRANCH   5   6
ENDBRANCH   4   5
ENDBRANCH   3   4
ENDBRANCH   2   3
ENDBRANCH   1   2
BRANCH   1   9
ATOM      9  C   UNL     1       8.184   1.531 -32.480  1.00  0.00     0.000 C 
BRANCH   9  10
ATOM     10  C   UNL     1       6.743   1.546 -31.944  1.00  0.00    -0.000 C 
BRANCH  10  11
ATOM     11  C   UNL     1       6.658   1.996 -30.479  1.00  0.00    -0.000 C 
BRANCH  11  12
ATOM     12  C   UNL     1       7.229   0.926 -29.541  1.00  0.00    -0.000 C 
BRANCH  12  13
ATOM     13  C   UNL     1       6.199  -0.177 -29.271  1.00  0.00    -0.003 C 
ATOM     14  C   UNL     1       6.859  -1.411 -28.663  1.00  0.00     0.004 C 
ENDBRANCH  12  13
ENDBRANCH  11  12
ENDBRANCH  10  11
ENDBRANCH   9  10
ENDBRANCH   1   9
TORSDOF 10
ENDMDL
MODEL 5
REMARK VINA RESULT:    -4.898      4.059      5.987
REMARK INTER + INTRA:          -8.261
REMARK INTER:                  -7.673
REMARK INTRA:                  -0.588
REMARK UNBOUND:                -0.499
REMARK SMILES CCCCCCCCCCCC(=O)[O-]
REMARK SMILES IDX 7 1 8 2 9 3 10 4 11 5 12 6 13 7 14 8 6 9 5 10 4 11 3 12 2 13
REMARK SMILES IDX 1 14
REMARK H PARENT
REMARK Flexibility Score: inf
ROOT
ATOM      1  C   UNL     1      11.120   2.324 -32.613  1.00  0.00     0.000 C 
ENDROOT
BRANCH   1   2
ATOM      2  C   UNL     1      10.132   1.816 -31.549  1.00  0.00     0.000 C 
BRANCH   2   3
ATOM      3  C   UNL     1       8.744   1.507 -32.136  1.00  0.00     0.000 C 
BRANCH   3   4
ATOM      4  C   UNL     1       7.590   1.989 -31.238  1.00  0.00     0.006 C 
BRANCH   4   5
ATOM      5  C   UNL     1       6.702   0.855 -30.697  1.00  0.00     0.053 C 
BRANCH   5   6
ATOM      6  C   UNL     1       7.172   0.339 -29.370  1.00  0.00     0.041 C 
ATOM      7  O   UNL     1       6.947  -0.855 -29.039  1.00  0.00    -0.550 OA
ATOM      8  O   UNL     1       7.825   1.186 -28.482  1.00  0.00    -0.550 OA
ENDBRANCH   5   6
ENDBRANCH   4   5
ENDBRANCH   3   4
ENDBRANCH   2   3
ENDBRANCH   1   2
BRANCH   1   9
ATOM      9  C   UNL     1      11.285   1.334 -33.781  1.00  0.00     0.000 C 
BRANCH   9  10
ATOM     10  C   UNL     1      10.706   1.877 -35.098  1.00  0.00    -0.000 C 
BRANCH  10  11
ATOM     11  C   UNL     1       9.438   1.133 -35.542  1.00  0.00    -0.000 C 
BRANCH  11  12
ATOM     12  C   UNL     1       8.448   2.089 -36.217  1.00  0.00    -0.000 C 
BRANCH  12  13
ATOM     13  C   UNL     1       8.077   1.599 -37.621  1.00  0.00    -0.003 C 
ATOM     14  C   UNL     1       8.876   0.356 -38.000  1.00  0.00     0.004 C 
ENDBRANCH  12  13
ENDBRANCH  11  12
ENDBRANCH  10  11
ENDBRANCH   9  10
ENDBRANCH   1   9
TORSDOF 10
ENDMDL
MODEL 6
REMARK VINA RESULT:    -4.864      4.738      6.380
REMARK INTER + INTRA:          -8.206
REMARK INTER:                  -7.613
REMARK INTRA:                  -0.593
REMARK UNBOUND:                -0.499
REMARK SMILES CCCCCCCCCCCC(=O)[O-]
REMARK SMILES IDX 7 1 8 2 9 3 10 4 11 5 12 6 13 7 14 8 6 9 5 10 4 11 3 12 2 13
REMARK SMILES IDX 1 14
REMARK H PARENT
REMARK Flexibility Score: inf
ROOT
ATOM      1  C   UNL     1       7.433   1.284 -36.134  1.00  0.00     0.000 C 
ENDROOT
BRANCH   1   2
ATOM      2  C   UNL     1       8.864   0.841 -36.485  1.00  0.00     0.000 C 
BRANCH   2   3
ATOM      3  C   UNL     1       9.928   1.822 -35.962  1.00  0.00     0.000 C 
BRANCH   3   4
ATOM      4  C   UNL     1      10.385   1.504 -34.527  1.00  0.00     0.006 C 
BRANCH   4   5
ATOM      5  C   UNL     1      11.850   1.878 -34.239  1.00  0.00     0.053 C 
BRANCH   5   6
ATOM      6  C   UNL     1      12.062   2.319 -32.821  1.00  0.00     0.041 C 
ATOM      7  O   UNL     1      13.200   2.702 -32.442  1.00  0.00    -0.550 OA
ATOM      8  O   UNL     1      11.015   2.270 -31.909  1.00  0.00    -0.550 OA
ENDBRANCH   5   6
ENDBRANCH   4   5
ENDBRANCH   3   4
ENDBRANCH   2   3
ENDBRANCH   1   2
BRANCH   1   9
ATOM      9  C   UNL     1       6.937   0.670 -34.812  1.00  0.00     0.000 C 
BRANCH   9  10
ATOM     10  C   UNL     1       6.656   1.734 -33.738  1.00  0.00    -0.000 C 
BRANCH  10  11
ATOM     11  C   UNL     1       7.394   1.458 -32.419  1.00  0.00    -0.000 C 
BRANCH  11  12
ATOM     12  C   UNL     1       6.441   0.874 -31.369  1.00  0.00    -0.000 C 
BRANCH  12  13
ATOM     13  C   UNL     1       7.144   0.716 -30.016  1.00  0.00    -0.003 C 
ATOM     14  C   UNL     1       6.254  -0.013 -29.014  1.00  0.00     0.004 C 
ENDBRANCH  12  13
ENDBRANCH  11  12
ENDBRANCH  10  11
ENDBRANCH   9  10
ENDBRANCH   1   9
TORSDOF 10
ENDMDL
MODEL 7
REMARK VINA RESULT:    -4.762     10.563     12.239
REMARK INTER + INTRA:          -8.045
REMARK INTER:                  -6.983
REMARK INTRA:                  -1.062
REMARK UNBOUND:                -0.499
REMARK SMILES CCCCCCCCCCCC(=O)[O-]
REMARK SMILES IDX 7 1 8 2 9 3 10 4 11 5 12 6 13 7 14 8 6 9 5 10 4 11 3 12 2 13
REMARK SMILES IDX 1 14
REMARK H PARENT
REMARK Flexibility Score: inf
ROOT
ATOM      1  C   UNL     1       6.019  -9.012 -29.103  1.00  0.00     0.000 C 
ENDROOT
BRANCH   1   2
ATOM      2  C   UNL     1       6.173  -9.759 -30.439  1.00  0.00     0.000 C 
BRANCH   2   3
ATOM      3  C   UNL     1       7.232 -10.872 -30.371  1.00  0.00     0.000 C 
BRANCH   3   4
ATOM      4  C   UNL     1       8.067 -10.829 -29.078  1.00  0.00     0.006 C 
BRANCH   4   5
ATOM      5  C   UNL     1       9.052 -12.003 -28.929  1.00  0.00     0.053 C 
BRANCH   5   6
ATOM      6  C   UNL     1       9.027 -12.603 -27.555  1.00  0.00     0.041 C 
ATOM      7  O   UNL     1       8.325 -13.622 -27.323  1.00  0.00    -0.550 OA
ATOM      8  O   UNL     1       9.748 -12.016 -26.522  1.00  0.00    -0.550 OA
ENDBRANCH   5   6
ENDBRANCH   4   5
ENDBRANCH   3   4
ENDBRANCH   2   3
ENDBRANCH   1   2
BRANCH   1   9
ATOM      9  C   UNL     1       5.883  -7.490 -29.294  1.00  0.00     0.000 C 
BRANCH   9  10
ATOM     10  C   UNL     1       6.983  -6.909 -30.197  1.00  0.00    -0.000 C 
BRANCH  10  11
ATOM     11  C   UNL     1       8.385  -7.036 -29.583  1.00  0.00    -0.000 C 
BRANCH  11  12
ATOM     12  C   UNL     1       8.575  -6.034 -28.437  1.00  0.00    -0.000 C 
BRANCH  12  13
ATOM     13  C   UNL     1       9.529  -6.588 -27.373  1.00  0.00    -0.003 C 
ATOM     14  C   UNL     1       9.865  -8.052 -27.642  1.00  0.00     0.004 C 
ENDBRANCH  12  13
ENDBRANCH  11  12
ENDBRANCH  10  11
ENDBRANCH   9  10
ENDBRANCH   1   9
TORSDOF 10
ENDMDL
MODEL 8
REMARK VINA RESULT:    -4.677      2.285      3.820
REMARK INTER + INTRA:          -7.910
REMARK INTER:                  -7.135
REMARK INTRA:                  -0.775
REMARK UNBOUND:                -0.499
REMARK SMILES CCCCCCCCCCCC(=O)[O-]
REMARK SMILES IDX 7 1 8 2 9 3 10 4 11 5 12 6 13 7 14 8 6 9 5 10 4 11 3 12 2 13
REMARK SMILES IDX 1 14
REMARK H PARENT
REMARK Flexibility Score: inf
ROOT
ATOM      1  C   UNL     1       5.228   0.799 -33.754  1.00  0.00     0.000 C 
ENDROOT
BRANCH   1   2
ATOM      2  C   UNL     1       4.808  -0.378 -34.653  1.00  0.00     0.000 C 
BRANCH   2   3
ATOM      3  C   UNL     1       5.983  -1.309 -34.990  1.00  0.00     0.000 C 
BRANCH   3   4
ATOM      4  C   UNL     1       5.534  -2.734 -35.362  1.00  0.00     0.006 C 
BRANCH   4   5
ATOM      5  C   UNL     1       6.585  -3.537 -36.149  1.00  0.00     0.053 C 
BRANCH   5   6
ATOM      6  C   UNL     1       6.761  -4.929 -35.619  1.00  0.00     0.041 C 
ATOM      7  O   UNL     1       5.983  -5.848 -35.986  1.00  0.00    -0.550 OA
ATOM      8  O   UNL     1       7.758  -5.202 -34.690  1.00  0.00    -0.550 OA
ENDBRANCH   5   6
ENDBRANCH   4   5
ENDBRANCH   3   4
ENDBRANCH   2   3
ENDBRANCH   1   2
BRANCH   1   9
ATOM      9  C   UNL     1       6.756   0.899 -33.596  1.00  0.00     0.000 C 
BRANCH   9  10
ATOM     10  C   UNL     1       7.405   1.771 -34.684  1.00  0.00    -0.000 C 
BRANCH  10  11
ATOM     11  C   UNL     1       8.802   1.276 -35.088  1.00  0.00    -0.000 C 
BRANCH  11  12
ATOM     12  C   UNL     1       9.176   1.773 -36.490  1.00  0.00    -0.000 C 
BRANCH  12  13
ATOM     13  C   UNL     1       8.290   1.125 -37.559  1.00  0.00    -0.003 C 
ATOM     14  C   UNL     1       8.466  -0.390 -37.578  1.00  0.00     0.004 C 
ENDBRANCH  12  13
ENDBRANCH  11  12
ENDBRANCH  10  11
ENDBRANCH   9  10
ENDBRANCH   1   9
TORSDOF 10
ENDMDL
MODEL 9
REMARK VINA RESULT:    -4.653      5.048      6.093
REMARK INTER + INTRA:          -7.872
REMARK INTER:                  -7.473
REMARK INTRA:                  -0.400
REMARK UNBOUND:                -0.499
REMARK SMILES CCCCCCCCCCCC(=O)[O-]
REMARK SMILES IDX 7 1 8 2 9 3 10 4 11 5 12 6 13 7 14 8 6 9 5 10 4 11 3 12 2 13
REMARK SMILES IDX 1 14
REMARK H PARENT
REMARK Flexibility Score: inf
ROOT
ATOM      1  C   UNL     1       6.347   0.827 -32.710  1.00  0.00     0.000 C 
ENDROOT
BRANCH   1   2
ATOM      2  C   UNL     1       6.830   0.880 -34.169  1.00  0.00     0.000 C 
BRANCH   2   3
ATOM      3  C   UNL     1       8.231   1.498 -34.303  1.00  0.00     0.000 C 
BRANCH   3   4
ATOM      4  C   UNL     1       8.940   1.105 -35.612  1.00  0.00     0.006 C 
BRANCH   4   5
ATOM      5  C   UNL     1       7.984   0.870 -36.795  1.00  0.00     0.053 C 
BRANCH   5   6
ATOM      6  C   UNL     1       8.551  -0.074 -37.813  1.00  0.00     0.041 C 
ATOM      7  O   UNL     1       9.292   0.359 -38.734  1.00  0.00    -0.550 OA
ATOM      8  O   UNL     1       8.231  -1.425 -37.768  1.00  0.00    -0.550 OA
ENDBRANCH   5   6
ENDBRANCH   4   5
ENDBRANCH   3   4
ENDBRANCH   2   3
ENDBRANCH   1   2
BRANCH   1   9
ATOM      9  C   UNL     1       7.292   1.574 -31.751  1.00  0.00     0.000 C 
BRANCH   9  10
ATOM     10  C   UNL     1       6.624   1.907 -30.406  1.00  0.00    -0.000 C 
BRANCH  10  11
ATOM     11  C   UNL     1       6.624   0.719 -29.433  1.00  0.00    -0.000 C 
BRANCH  11  12
ATOM     12  C   UNL     1       7.942   0.649 -28.651  1.00  0.00    -0.000 C 
BRANCH  12  13
ATOM     13  C   UNL     1       7.684   0.586 -27.142  1.00  0.00    -0.003 C 
ATOM     14  C   UNL     1       8.874   1.129 -26.356  1.00  0.00     0.004 C 
ENDBRANCH  12  13
ENDBRANCH  11  12
ENDBRANCH  10  11
ENDBRANCH   9  10
ENDBRANCH   1   9
TORSDOF 10
ENDMDL
