MODEL 1
REMARK VINA RESULT:    -6.000      0.000      0.000
REMARK INTER + INTRA:          -7.557
REMARK INTER:                  -7.228
REMARK INTRA:                  -0.329
REMARK UNBOUND:                -0.329
REMARK SMILES O=c1c(O)c(-c2ccc(O)c(O)c2)oc2cc(O)cc(O)c12
REMARK SMILES IDX 5 1 3 2 2 3 1 4 22 5 20 6 19 7 17 8 16 9 15 10 14 11 6 12
REMARK SMILES IDX 7 13 8 14 9 15 13 16 11 17 10 18 12 20 4 22 21 24 18 26
REMARK H PARENT 10 19 12 21 4 23 21 25 18 27
REMARK Flexibility Score: inf
ROOT
ATOM      1  C   UNL     1     -60.291  20.232 -30.265  1.00  0.00     0.180 A 
ATOM      2  C   UNL     1     -59.160  20.876 -29.735  1.00  0.00     0.208 A 
ATOM      3  C   UNL     1     -59.132  22.279 -29.695  1.00  0.00     0.238 A 
ATOM      4  O   UNL     1     -58.140  22.849 -29.169  1.00  0.00    -0.285 OA
ATOM      5  C   UNL     1     -60.227  23.021 -30.199  1.00  0.00     0.111 A 
ATOM      6  C   UNL     1     -60.289  24.446 -30.246  1.00  0.00     0.134 A 
ATOM      7  C   UNL     1     -61.475  25.074 -30.646  1.00  0.00     0.093 A 
ATOM      8  C   UNL     1     -62.580  24.327 -31.063  1.00  0.00     0.123 A 
ATOM      9  C   UNL     1     -62.509  22.936 -31.079  1.00  0.00     0.094 A 
ATOM     10  C   UNL     1     -61.351  22.280 -30.651  1.00  0.00     0.146 A 
ATOM     11  O   UNL     1     -61.329  20.953 -30.671  1.00  0.00    -0.452 OA
ENDROOT
BRANCH   1  12
ATOM     12  C   UNL     1     -60.384  18.757 -30.365  1.00  0.00     0.025 A 
ATOM     13  C   UNL     1     -59.967  18.073 -31.520  1.00  0.00     0.016 A 
ATOM     14  C   UNL     1     -60.086  16.684 -31.601  1.00  0.00     0.051 A 
ATOM     15  C   UNL     1     -60.636  15.958 -30.535  1.00  0.00     0.157 A 
ATOM     16  C   UNL     1     -60.954  18.028 -29.308  1.00  0.00     0.062 A 
ATOM     17  C   UNL     1     -61.075  16.635 -29.385  1.00  0.00     0.158 A 
BRANCH  15  18
ATOM     18  O   UNL     1     -60.751  14.572 -30.618  1.00  0.00    -0.504 OA
ATOM     19  H   UNL     1     -60.503  13.970 -29.841  1.00  0.00     0.293 HD
ENDBRANCH  15  18
BRANCH  17  20
ATOM     20  O   UNL     1     -61.633  15.944 -28.311  1.00  0.00    -0.504 OA
ATOM     21  H   UNL     1     -62.551  15.519 -28.363  1.00  0.00     0.293 HD
ENDBRANCH  17  20
ENDBRANCH   1  12
BRANCH   2  22
ATOM     22  O   UNL     1     -58.099  20.124 -29.222  1.00  0.00    -0.502 OA
ATOM     23  H   UNL     1     -57.739  19.302 -29.690  1.00  0.00     0.293 HD
ENDBRANCH   2  22
BRANCH   6  24
ATOM     24  O   UNL     1     -59.212  25.284 -29.939  1.00  0.00    -0.507 OA
ATOM     25  H   UNL     1     -58.724  25.862 -30.606  1.00  0.00     0.293 HD
ENDBRANCH   6  24
BRANCH   8  26
ATOM     26  O   UNL     1     -63.750  24.959 -31.474  1.00  0.00    -0.508 OA
ATOM     27  H   UNL     1     -63.883  25.258 -32.434  1.00  0.00     0.293 HD
ENDBRANCH   8  26
TORSDOF 6
ENDMDL
MODEL 2
REMARK VINA RESULT:    -5.905      2.375      6.339
REMARK INTER + INTRA:          -7.442
REMARK INTER:                  -7.156
REMARK INTRA:                  -0.286
REMARK UNBOUND:                -0.329
REMARK SMILES O=c1c(O)c(-c2ccc(O)c(O)c2)oc2cc(O)cc(O)c12
REMARK SMILES IDX 5 1 3 2 2 3 1 4 22 5 20 6 19 7 17 8 16 9 15 10 14 11 6 12
REMARK SMILES IDX 7 13 8 14 9 15 13 16 11 17 10 18 12 20 4 22 21 24 18 26
REMARK H PARENT 10 19 12 21 4 23 21 25 18 27
REMARK Flexibility Score: inf
ROOT
ATOM      1  C   UNL     1     -59.800  22.179 -30.664  1.00  0.00     0.180 A 
ATOM      2  C   UNL     1     -59.378  21.074 -29.905  1.00  0.00     0.208 A 
ATOM      3  C   UNL     1     -60.279  20.023 -29.674  1.00  0.00     0.238 A 
ATOM      4  O   UNL     1     -59.878  19.013 -29.039  1.00  0.00    -0.285 OA
ATOM      5  C   UNL     1     -61.595  20.095 -30.192  1.00  0.00     0.111 A 
ATOM      6  C   UNL     1     -62.603  19.107 -29.986  1.00  0.00     0.134 A 
ATOM      7  C   UNL     1     -63.828  19.220 -30.654  1.00  0.00     0.093 A 
ATOM      8  C   UNL     1     -64.105  20.320 -31.469  1.00  0.00     0.123 A 
ATOM      9  C   UNL     1     -63.150  21.321 -31.629  1.00  0.00     0.094 A 
ATOM     10  C   UNL     1     -61.904  21.218 -31.004  1.00  0.00     0.146 A 
ATOM     11  O   UNL     1     -61.018  22.189 -31.191  1.00  0.00    -0.452 OA
ENDROOT
BRANCH   1  12
ATOM     12  C   UNL     1     -58.915  23.338 -30.929  1.00  0.00     0.025 A 
ATOM     13  C   UNL     1     -57.910  23.282 -31.910  1.00  0.00     0.016 A 
ATOM     14  C   UNL     1     -57.072  24.378 -32.125  1.00  0.00     0.051 A 
ATOM     15  C   UNL     1     -57.216  25.541 -31.356  1.00  0.00     0.157 A 
ATOM     16  C   UNL     1     -59.042  24.497 -30.147  1.00  0.00     0.062 A 
ATOM     17  C   UNL     1     -58.205  25.598 -30.360  1.00  0.00     0.158 A 
BRANCH  15  18
ATOM     18  O   UNL     1     -56.380  26.634 -31.575  1.00  0.00    -0.504 OA
ATOM     19  H   UNL     1     -56.715  27.587 -31.488  1.00  0.00     0.293 HD
ENDBRANCH  15  18
BRANCH  17  20
ATOM     20  O   UNL     1     -58.370  26.737 -29.573  1.00  0.00    -0.504 OA
ATOM     21  H   UNL     1     -59.155  27.367 -29.696  1.00  0.00     0.293 HD
ENDBRANCH  17  20
ENDBRANCH   1  12
BRANCH   2  22
ATOM     22  O   UNL     1     -58.068  21.013 -29.421  1.00  0.00    -0.502 OA
ATOM     23  H   UNL     1     -57.676  20.170 -29.018  1.00  0.00     0.293 HD
ENDBRANCH   2  22
BRANCH   6  24
ATOM     24  O   UNL     1     -62.462  18.017 -29.121  1.00  0.00    -0.507 OA
ATOM     25  H   UNL     1     -62.676  17.061 -29.361  1.00  0.00     0.293 HD
ENDBRANCH   6  24
BRANCH   8  26
ATOM     26  O   UNL     1     -65.332  20.433 -32.118  1.00  0.00    -0.508 OA
ATOM     27  H   UNL     1     -65.682  19.698 -32.722  1.00  0.00     0.293 HD
ENDBRANCH   8  26
TORSDOF 6
ENDMDL
MODEL 3
REMARK VINA RESULT:    -5.782      1.450      3.327
REMARK INTER + INTRA:          -7.294
REMARK INTER:                  -6.978
REMARK INTRA:                  -0.316
REMARK UNBOUND:                -0.329
REMARK SMILES O=c1c(O)c(-c2ccc(O)c(O)c2)oc2cc(O)cc(O)c12
REMARK SMILES IDX 5 1 3 2 2 3 1 4 22 5 20 6 19 7 17 8 16 9 15 10 14 11 6 12
REMARK SMILES IDX 7 13 8 14 9 15 13 16 11 17 10 18 12 20 4 22 21 24 18 26
REMARK H PARENT 10 19 12 21 4 23 21 25 18 27
REMARK Flexibility Score: inf
ROOT
ATOM      1  C   UNL     1     -61.836  20.429 -30.505  1.00  0.00     0.180 A 
ATOM      2  C   UNL     1     -62.986  20.802 -31.222  1.00  0.00     0.208 A 
ATOM      3  C   UNL     1     -63.243  22.165 -31.436  1.00  0.00     0.238 A 
ATOM      4  O   UNL     1     -64.245  22.490 -32.125  1.00  0.00    -0.285 OA
ATOM      5  C   UNL     1     -62.356  23.140 -30.918  1.00  0.00     0.111 A 
ATOM      6  C   UNL     1     -62.539  24.549 -31.040  1.00  0.00     0.134 A 
ATOM      7  C   UNL     1     -61.531  25.418 -30.603  1.00  0.00     0.093 A 
ATOM      8  C   UNL     1     -60.376  24.928 -29.987  1.00  0.00     0.123 A 
ATOM      9  C   UNL     1     -60.215  23.556 -29.809  1.00  0.00     0.094 A 
ATOM     10  C   UNL     1     -61.187  22.663 -30.268  1.00  0.00     0.146 A 
ATOM     11  O   UNL     1     -60.990  21.363 -30.088  1.00  0.00    -0.452 OA
ENDROOT
BRANCH   1  12
ATOM     12  C   UNL     1     -61.511  19.013 -30.217  1.00  0.00     0.025 A 
ATOM     13  C   UNL     1     -61.856  18.417 -28.992  1.00  0.00     0.016 A 
ATOM     14  C   UNL     1     -61.518  17.087 -28.732  1.00  0.00     0.051 A 
ATOM     15  C   UNL     1     -60.820  16.336 -29.687  1.00  0.00     0.157 A 
ATOM     16  C   UNL     1     -60.794  18.262 -31.163  1.00  0.00     0.062 A 
ATOM     17  C   UNL     1     -60.453  16.929 -30.907  1.00  0.00     0.158 A 
BRANCH  15  18
ATOM     18  O   UNL     1     -60.486  15.008 -29.427  1.00  0.00    -0.504 OA
ATOM     19  H   UNL     1     -60.267  14.359 -30.173  1.00  0.00     0.293 HD
ENDBRANCH  15  18
BRANCH  17  20
ATOM     20  O   UNL     1     -59.752  16.211 -31.875  1.00  0.00    -0.504 OA
ATOM     21  H   UNL     1     -59.364  16.657 -32.699  1.00  0.00     0.293 HD
ENDBRANCH  17  20
ENDBRANCH   1  12
BRANCH   2  22
ATOM     22  O   UNL     1     -63.837  19.823 -31.744  1.00  0.00    -0.502 OA
ATOM     23  H   UNL     1     -64.258  19.105 -31.167  1.00  0.00     0.293 HD
ENDBRANCH   2  22
BRANCH   6  24
ATOM     24  O   UNL     1     -63.695  25.144 -31.555  1.00  0.00    -0.507 OA
ATOM     25  H   UNL     1     -64.606  25.100 -31.124  1.00  0.00     0.293 HD
ENDBRANCH   6  24
BRANCH   8  26
ATOM     26  O   UNL     1     -59.386  25.799 -29.541  1.00  0.00    -0.508 OA
ATOM     27  H   UNL     1     -58.780  26.290 -30.188  1.00  0.00     0.293 HD
ENDBRANCH   8  26
TORSDOF 6
ENDMDL
MODEL 4
REMARK VINA RESULT:    -5.649      2.579      3.590
REMARK INTER + INTRA:          -7.135
REMARK INTER:                  -6.957
REMARK INTRA:                  -0.178
REMARK UNBOUND:                -0.329
REMARK SMILES O=c1c(O)c(-c2ccc(O)c(O)c2)oc2cc(O)cc(O)c12
REMARK SMILES IDX 5 1 3 2 2 3 1 4 22 5 20 6 19 7 17 8 16 9 15 10 14 11 6 12
REMARK SMILES IDX 7 13 8 14 9 15 13 16 11 17 10 18 12 20 4 22 21 24 18 26
REMARK H PARENT 10 19 12 21 4 23 21 25 18 27
REMARK Flexibility Score: inf
ROOT
ATOM      1  C   UNL     1     -61.160  22.917 -30.629  1.00  0.00     0.180 A 
ATOM      2  C   UNL     1     -59.778  22.868 -30.881  1.00  0.00     0.208 A 
ATOM      3  C   UNL     1     -58.997  24.004 -30.614  1.00  0.00     0.238 A 
ATOM      4  O   UNL     1     -57.753  23.936 -30.790  1.00  0.00    -0.285 OA
ATOM      5  C   UNL     1     -59.609  25.178 -30.114  1.00  0.00     0.111 A 
ATOM      6  C   UNL     1     -58.921  26.399 -29.846  1.00  0.00     0.134 A 
ATOM      7  C   UNL     1     -59.604  27.456 -29.230  1.00  0.00     0.093 A 
ATOM      8  C   UNL     1     -60.965  27.358 -28.933  1.00  0.00     0.123 A 
ATOM      9  C   UNL     1     -61.660  26.191 -29.246  1.00  0.00     0.094 A 
ATOM     10  C   UNL     1     -60.998  25.107 -29.827  1.00  0.00     0.146 A 
ATOM     11  O   UNL     1     -61.694  24.010 -30.099  1.00  0.00    -0.452 OA
ENDROOT
BRANCH   1  12
ATOM     12  C   UNL     1     -62.053  21.768 -30.909  1.00  0.00     0.025 A 
ATOM     13  C   UNL     1     -63.053  21.842 -31.895  1.00  0.00     0.016 A 
ATOM     14  C   UNL     1     -63.899  20.755 -32.125  1.00  0.00     0.051 A 
ATOM     15  C   UNL     1     -63.769  19.584 -31.366  1.00  0.00     0.157 A 
ATOM     16  C   UNL     1     -61.940  20.600 -30.137  1.00  0.00     0.062 A 
ATOM     17  C   UNL     1     -62.786  19.509 -30.365  1.00  0.00     0.158 A 
BRANCH  15  18
ATOM     18  O   UNL     1     -64.614  18.500 -31.600  1.00  0.00    -0.504 OA
ATOM     19  H   UNL     1     -64.474  17.877 -32.387  1.00  0.00     0.293 HD
ENDBRANCH  15  18
BRANCH  17  20
ATOM     20  O   UNL     1     -62.635  18.362 -29.588  1.00  0.00    -0.504 OA
ATOM     21  H   UNL     1     -62.608  18.398 -28.575  1.00  0.00     0.293 HD
ENDBRANCH  17  20
ENDBRANCH   1  12
BRANCH   2  22
ATOM     22  O   UNL     1     -59.191  21.691 -31.354  1.00  0.00    -0.502 OA
ATOM     23  H   UNL     1     -59.431  20.778 -30.988  1.00  0.00     0.293 HD
ENDBRANCH   2  22
BRANCH   6  24
ATOM     24  O   UNL     1     -57.586  26.634 -30.187  1.00  0.00    -0.507 OA
ATOM     25  H   UNL     1     -56.882  25.917 -30.283  1.00  0.00     0.293 HD
ENDBRANCH   6  24
BRANCH   8  26
ATOM     26  O   UNL     1     -61.640  28.419 -28.335  1.00  0.00    -0.508 OA
ATOM     27  H   UNL     1     -62.491  28.274 -27.802  1.00  0.00     0.293 HD
ENDBRANCH   8  26
TORSDOF 6
ENDMDL
MODEL 5
REMARK VINA RESULT:    -5.644      9.022     12.599
REMARK INTER + INTRA:          -7.128
REMARK INTER:                  -7.148
REMARK INTRA:                   0.020
REMARK UNBOUND:                -0.329
REMARK SMILES O=c1c(O)c(-c2ccc(O)c(O)c2)oc2cc(O)cc(O)c12
REMARK SMILES IDX 5 1 3 2 2 3 1 4 22 5 20 6 19 7 17 8 16 9 15 10 14 11 6 12
REMARK SMILES IDX 7 13 8 14 9 15 13 16 11 17 10 18 12 20 4 22 21 24 18 26
REMARK H PARENT 10 19 12 21 4 23 21 25 18 27
REMARK Flexibility Score: inf
ROOT
ATOM      1  C   UNL     1     -59.231  30.504 -24.886  1.00  0.00     0.180 A 
ATOM      2  C   UNL     1     -60.240  30.684 -23.924  1.00  0.00     0.208 A 
ATOM      3  C   UNL     1     -59.873  30.875 -22.582  1.00  0.00     0.238 A 
ATOM      4  O   UNL     1     -60.779  31.089 -21.734  1.00  0.00    -0.285 OA
ATOM      5  C   UNL     1     -58.506  30.870 -22.216  1.00  0.00     0.111 A 
ATOM      6  C   UNL     1     -58.023  31.014 -20.882  1.00  0.00     0.134 A 
ATOM      7  C   UNL     1     -56.645  31.125 -20.653  1.00  0.00     0.093 A 
ATOM      8  C   UNL     1     -55.731  31.030 -21.706  1.00  0.00     0.123 A 
ATOM      9  C   UNL     1     -56.190  30.829 -23.005  1.00  0.00     0.094 A 
ATOM     10  C   UNL     1     -57.561  30.751 -23.269  1.00  0.00     0.146 A 
ATOM     11  O   UNL     1     -57.956  30.569 -24.523  1.00  0.00    -0.452 OA
ENDROOT
BRANCH   1  12
ATOM     12  C   UNL     1     -59.539  30.272 -26.316  1.00  0.00     0.025 A 
ATOM     13  C   UNL     1     -60.427  31.105 -27.019  1.00  0.00     0.016 A 
ATOM     14  C   UNL     1     -60.721  30.852 -28.360  1.00  0.00     0.051 A 
ATOM     15  C   UNL     1     -60.144  29.757 -29.017  1.00  0.00     0.157 A 
ATOM     16  C   UNL     1     -58.979  29.164 -26.973  1.00  0.00     0.062 A 
ATOM     17  C   UNL     1     -59.271  28.907 -28.317  1.00  0.00     0.158 A 
BRANCH  15  18
ATOM     18  O   UNL     1     -60.438  29.508 -30.357  1.00  0.00    -0.504 OA
ATOM     19  H   UNL     1     -61.188  29.993 -30.835  1.00  0.00     0.293 HD
ENDBRANCH  15  18
BRANCH  17  20
ATOM     20  O   UNL     1     -58.685  27.805 -28.939  1.00  0.00    -0.504 OA
ATOM     21  H   UNL     1     -58.045  27.189 -28.450  1.00  0.00     0.293 HD
ENDBRANCH  17  20
ENDBRANCH   1  12
BRANCH   2  22
ATOM     22  O   UNL     1     -61.583  30.707 -24.309  1.00  0.00    -0.502 OA
ATOM     23  H   UNL     1     -62.193  31.490 -24.106  1.00  0.00     0.293 HD
ENDBRANCH   2  22
BRANCH   6  24
ATOM     24  O   UNL     1     -58.846  31.027 -19.751  1.00  0.00    -0.507 OA
ATOM     25  H   UNL     1     -58.668  31.566 -18.917  1.00  0.00     0.293 HD
ENDBRANCH   6  24
BRANCH   8  26
ATOM     26  O   UNL     1     -54.363  31.125 -21.468  1.00  0.00    -0.508 OA
ATOM     27  H   UNL     1     -53.707  31.319 -22.216  1.00  0.00     0.293 HD
ENDBRANCH   8  26
TORSDOF 6
ENDMDL
MODEL 6
REMARK VINA RESULT:    -5.633      2.232      6.957
REMARK INTER + INTRA:          -7.115
REMARK INTER:                  -6.845
REMARK INTRA:                  -0.270
REMARK UNBOUND:                -0.329
REMARK SMILES O=c1c(O)c(-c2ccc(O)c(O)c2)oc2cc(O)cc(O)c12
REMARK SMILES IDX 5 1 3 2 2 3 1 4 22 5 20 6 19 7 17 8 16 9 15 10 14 11 6 12
REMARK SMILES IDX 7 13 8 14 9 15 13 16 11 17 10 18 12 20 4 22 21 24 18 26
REMARK H PARENT 10 19 12 21 4 23 21 25 18 27
REMARK Flexibility Score: inf
ROOT
ATOM      1  C   UNL     1     -60.428  22.727 -30.975  1.00  0.00     0.180 A 
ATOM      2  C   UNL     1     -61.708  22.980 -31.500  1.00  0.00     0.208 A 
ATOM      3  C   UNL     1     -62.709  22.007 -31.353  1.00  0.00     0.238 A 
ATOM      4  O   UNL     1     -63.866  22.262 -31.777  1.00  0.00    -0.285 OA
ATOM      5  C   UNL     1     -62.415  20.787 -30.697  1.00  0.00     0.111 A 
ATOM      6  C   UNL     1     -63.341  19.715 -30.527  1.00  0.00     0.134 A 
ATOM      7  C   UNL     1     -62.981  18.608 -29.748  1.00  0.00     0.093 A 
ATOM      8  C   UNL     1     -61.705  18.506 -29.188  1.00  0.00     0.123 A 
ATOM      9  C   UNL     1     -60.774  19.520 -29.399  1.00  0.00     0.094 A 
ATOM     10  C   UNL     1     -61.116  20.653 -30.141  1.00  0.00     0.146 A 
ATOM     11  O   UNL     1     -60.202  21.602 -30.309  1.00  0.00    -0.452 OA
ENDROOT
BRANCH   1  12
ATOM     12  C   UNL     1     -59.315  23.693 -31.113  1.00  0.00     0.025 A 
ATOM     13  C   UNL     1     -58.268  23.479 -32.027  1.00  0.00     0.016 A 
ATOM     14  C   UNL     1     -57.215  24.392 -32.123  1.00  0.00     0.051 A 
ATOM     15  C   UNL     1     -57.185  25.525 -31.300  1.00  0.00     0.157 A 
ATOM     16  C   UNL     1     -59.269  24.820 -30.276  1.00  0.00     0.062 A 
ATOM     17  C   UNL     1     -58.216  25.737 -30.369  1.00  0.00     0.158 A 
BRANCH  15  18
ATOM     18  O   UNL     1     -56.134  26.435 -31.399  1.00  0.00    -0.504 OA
ATOM     19  H   UNL     1     -55.205  26.214 -31.060  1.00  0.00     0.293 HD
ENDBRANCH  15  18
BRANCH  17  20
ATOM     20  O   UNL     1     -58.212  26.850 -29.530  1.00  0.00    -0.504 OA
ATOM     21  H   UNL     1     -59.067  27.251 -29.164  1.00  0.00     0.293 HD
ENDBRANCH  17  20
ENDBRANCH   1  12
BRANCH   2  22
ATOM     22  O   UNL     1     -61.982  24.200 -32.125  1.00  0.00    -0.502 OA
ATOM     23  H   UNL     1     -62.926  24.539 -32.264  1.00  0.00     0.293 HD
ENDBRANCH   2  22
BRANCH   6  24
ATOM     24  O   UNL     1     -64.607  19.676 -31.119  1.00  0.00    -0.507 OA
ATOM     25  H   UNL     1     -65.408  19.200 -30.733  1.00  0.00     0.293 HD
ENDBRANCH   6  24
BRANCH   8  26
ATOM     26  O   UNL     1     -61.350  17.395 -28.428  1.00  0.00    -0.508 OA
ATOM     27  H   UNL     1     -60.565  17.419 -27.787  1.00  0.00     0.293 HD
ENDBRANCH   8  26
TORSDOF 6
ENDMDL
MODEL 7
REMARK VINA RESULT:    -5.393      2.588      8.117
REMARK INTER + INTRA:          -6.826
REMARK INTER:                  -6.814
REMARK INTRA:                  -0.011
REMARK UNBOUND:                -0.329
REMARK SMILES O=c1c(O)c(-c2ccc(O)c(O)c2)oc2cc(O)cc(O)c12
REMARK SMILES IDX 5 1 3 2 2 3 1 4 22 5 20 6 19 7 17 8 16 9 15 10 14 11 6 12
REMARK SMILES IDX 7 13 8 14 9 15 13 16 11 17 10 18 12 20 4 22 21 24 18 26
REMARK H PARENT 10 19 12 21 4 23 21 25 18 27
REMARK Flexibility Score: inf
ROOT
ATOM      1  C   UNL     1     -61.179  24.890 -30.068  1.00  0.00     0.180 A 
ATOM      2  C   UNL     1     -62.233  24.132 -30.607  1.00  0.00     0.208 A 
ATOM      3  C   UNL     1     -62.026  22.767 -30.865  1.00  0.00     0.238 A 
ATOM      4  O   UNL     1     -62.989  22.082 -31.297  1.00  0.00    -0.285 OA
ATOM      5  C   UNL     1     -60.765  22.182 -30.597  1.00  0.00     0.111 A 
ATOM      6  C   UNL     1     -60.432  20.819 -30.857  1.00  0.00     0.134 A 
ATOM      7  C   UNL     1     -59.196  20.316 -30.431  1.00  0.00     0.093 A 
ATOM      8  C   UNL     1     -58.256  21.145 -29.812  1.00  0.00     0.123 A 
ATOM      9  C   UNL     1     -58.549  22.491 -29.607  1.00  0.00     0.094 A 
ATOM     10  C   UNL     1     -59.788  23.013 -29.989  1.00  0.00     0.146 A 
ATOM     11  O   UNL     1     -60.030  24.299 -29.766  1.00  0.00    -0.452 OA
ENDROOT
BRANCH   1  12
ATOM     12  C   UNL     1     -61.313  26.340 -29.792  1.00  0.00     0.025 A 
ATOM     13  C   UNL     1     -61.826  27.224 -30.757  1.00  0.00     0.016 A 
ATOM     14  C   UNL     1     -61.920  28.591 -30.483  1.00  0.00     0.051 A 
ATOM     15  C   UNL     1     -61.492  29.096 -29.248  1.00  0.00     0.157 A 
ATOM     16  C   UNL     1     -60.866  26.854 -28.564  1.00  0.00     0.062 A 
ATOM     17  C   UNL     1     -60.959  28.222 -28.286  1.00  0.00     0.158 A 
BRANCH  15  18
ATOM     18  O   UNL     1     -61.590  30.460 -28.978  1.00  0.00    -0.504 OA
ATOM     19  H   UNL     1     -62.335  30.836 -28.403  1.00  0.00     0.293 HD
ENDBRANCH  15  18
BRANCH  17  20
ATOM     20  O   UNL     1     -60.518  28.694 -27.050  1.00  0.00    -0.504 OA
ATOM     21  H   UNL     1     -60.071  29.597 -26.947  1.00  0.00     0.293 HD
ENDBRANCH  17  20
ENDBRANCH   1  12
BRANCH   2  22
ATOM     22  O   UNL     1     -63.476  24.724 -30.844  1.00  0.00    -0.502 OA
ATOM     23  H   UNL     1     -64.339  24.346 -30.471  1.00  0.00     0.293 HD
ENDBRANCH   2  22
BRANCH   6  24
ATOM     24  O   UNL     1     -61.261  19.932 -31.550  1.00  0.00    -0.507 OA
ATOM     25  H   UNL     1     -60.961  19.336 -32.307  1.00  0.00     0.293 HD
ENDBRANCH   6  24
BRANCH   8  26
ATOM     26  O   UNL     1     -57.024  20.640 -29.405  1.00  0.00    -0.508 OA
ATOM     27  H   UNL     1     -56.672  19.755 -29.752  1.00  0.00     0.293 HD
ENDBRANCH   8  26
TORSDOF 6
ENDMDL
MODEL 8
REMARK VINA RESULT:    -5.369      2.264      6.835
REMARK INTER + INTRA:          -6.797
REMARK INTER:                  -6.744
REMARK INTRA:                  -0.053
REMARK UNBOUND:                -0.329
REMARK SMILES O=c1c(O)c(-c2ccc(O)c(O)c2)oc2cc(O)cc(O)c12
REMARK SMILES IDX 5 1 3 2 2 3 1 4 22 5 20 6 19 7 17 8 16 9 15 10 14 11 6 12
REMARK SMILES IDX 7 13 8 14 9 15 13 16 11 17 10 18 12 20 4 22 21 24 18 26
REMARK H PARENT 10 19 12 21 4 23 21 25 18 27
REMARK Flexibility Score: inf
ROOT
ATOM      1  C   UNL     1     -60.488  23.172 -29.879  1.00  0.00     0.180 A 
ATOM      2  C   UNL     1     -59.645  22.111 -29.504  1.00  0.00     0.208 A 
ATOM      3  C   UNL     1     -60.092  20.792 -29.682  1.00  0.00     0.238 A 
ATOM      4  O   UNL     1     -59.313  19.846 -29.394  1.00  0.00    -0.285 OA
ATOM      5  C   UNL     1     -61.380  20.550 -30.218  1.00  0.00     0.111 A 
ATOM      6  C   UNL     1     -61.951  19.255 -30.404  1.00  0.00     0.134 A 
ATOM      7  C   UNL     1     -63.180  19.130 -31.063  1.00  0.00     0.093 A 
ATOM      8  C   UNL     1     -63.890  20.258 -31.483  1.00  0.00     0.123 A 
ATOM      9  C   UNL     1     -63.369  21.529 -31.252  1.00  0.00     0.094 A 
ATOM     10  C   UNL     1     -62.128  21.684 -30.630  1.00  0.00     0.146 A 
ATOM     11  O   UNL     1     -61.663  22.913 -30.439  1.00  0.00    -0.452 OA
ENDROOT
BRANCH   1  12
ATOM     12  C   UNL     1     -60.097  24.589 -29.698  1.00  0.00     0.025 A 
ATOM     13  C   UNL     1     -58.904  25.095 -30.243  1.00  0.00     0.016 A 
ATOM     14  C   UNL     1     -58.544  26.429 -30.039  1.00  0.00     0.051 A 
ATOM     15  C   UNL     1     -59.363  27.275 -29.279  1.00  0.00     0.157 A 
ATOM     16  C   UNL     1     -60.904  25.435 -28.920  1.00  0.00     0.062 A 
ATOM     17  C   UNL     1     -60.547  26.773 -28.714  1.00  0.00     0.158 A 
BRANCH  15  18
ATOM     18  O   UNL     1     -59.002  28.605 -29.080  1.00  0.00    -0.504 OA
ATOM     19  H   UNL     1     -58.031  28.894 -29.048  1.00  0.00     0.293 HD
ENDBRANCH  15  18
BRANCH  17  20
ATOM     20  O   UNL     1     -61.380  27.585 -27.947  1.00  0.00    -0.504 OA
ATOM     21  H   UNL     1     -61.369  27.563 -26.933  1.00  0.00     0.293 HD
ENDBRANCH  17  20
ENDBRANCH   1  12
BRANCH   2  22
ATOM     22  O   UNL     1     -58.369  22.371 -28.997  1.00  0.00    -0.502 OA
ATOM     23  H   UNL     1     -57.797  21.654 -28.568  1.00  0.00     0.293 HD
ENDBRANCH   2  22
BRANCH   6  24
ATOM     24  O   UNL     1     -61.368  18.072 -29.940  1.00  0.00    -0.507 OA
ATOM     25  H   UNL     1     -60.393  17.964 -29.704  1.00  0.00     0.293 HD
ENDBRANCH   6  24
BRANCH   8  26
ATOM     26  O   UNL     1     -65.119  20.125 -32.124  1.00  0.00    -0.508 OA
ATOM     27  H   UNL     1     -65.993  20.247 -31.626  1.00  0.00     0.293 HD
ENDBRANCH   8  26
TORSDOF 6
ENDMDL
MODEL 9
REMARK VINA RESULT:    -5.333      3.109      7.789
REMARK INTER + INTRA:          -6.754
REMARK INTER:                  -6.627
REMARK INTRA:                  -0.127
REMARK UNBOUND:                -0.329
REMARK SMILES O=c1c(O)c(-c2ccc(O)c(O)c2)oc2cc(O)cc(O)c12
REMARK SMILES IDX 5 1 3 2 2 3 1 4 22 5 20 6 19 7 17 8 16 9 15 10 14 11 6 12
REMARK SMILES IDX 7 13 8 14 9 15 13 16 11 17 10 18 12 20 4 22 21 24 18 26
REMARK H PARENT 10 19 12 21 4 23 21 25 18 27
REMARK Flexibility Score: inf
ROOT
ATOM      1  C   UNL     1     -61.570  25.184 -30.229  1.00  0.00     0.180 A 
ATOM      2  C   UNL     1     -60.438  24.353 -30.275  1.00  0.00     0.208 A 
ATOM      3  C   UNL     1     -60.596  23.009 -30.649  1.00  0.00     0.238 A 
ATOM      4  O   UNL     1     -59.571  22.283 -30.741  1.00  0.00    -0.285 OA
ATOM      5  C   UNL     1     -61.884  22.509 -30.957  1.00  0.00     0.111 A 
ATOM      6  C   UNL     1     -62.165  21.155 -31.309  1.00  0.00     0.134 A 
ATOM      7  C   UNL     1     -63.456  20.802 -31.721  1.00  0.00     0.093 A 
ATOM      8  C   UNL     1     -64.491  21.741 -31.729  1.00  0.00     0.123 A 
ATOM      9  C   UNL     1     -64.240  23.051 -31.330  1.00  0.00     0.094 A 
ATOM     10  C   UNL     1     -62.953  23.442 -30.949  1.00  0.00     0.146 A 
ATOM     11  O   UNL     1     -62.755  24.703 -30.586  1.00  0.00    -0.452 OA
ENDROOT
BRANCH   1  12
ATOM     12  C   UNL     1     -61.488  26.605 -29.819  1.00  0.00     0.025 A 
ATOM     13  C   UNL     1     -61.808  27.644 -30.711  1.00  0.00     0.016 A 
ATOM     14  C   UNL     1     -61.700  28.977 -30.310  1.00  0.00     0.051 A 
ATOM     15  C   UNL     1     -61.259  29.295 -29.018  1.00  0.00     0.157 A 
ATOM     16  C   UNL     1     -61.026  26.929 -28.533  1.00  0.00     0.062 A 
ATOM     17  C   UNL     1     -60.917  28.264 -28.127  1.00  0.00     0.158 A 
BRANCH  15  18
ATOM     18  O   UNL     1     -61.154  30.626 -28.621  1.00  0.00    -0.504 OA
ATOM     19  H   UNL     1     -60.497  31.262 -29.059  1.00  0.00     0.293 HD
ENDBRANCH  15  18
BRANCH  17  20
ATOM     20  O   UNL     1     -60.468  28.545 -26.838  1.00  0.00    -0.504 OA
ATOM     21  H   UNL     1     -60.405  27.830 -26.122  1.00  0.00     0.293 HD
ENDBRANCH  17  20
ENDBRANCH   1  12
BRANCH   2  22
ATOM     22  O   UNL     1     -59.172  24.872 -29.988  1.00  0.00    -0.502 OA
ATOM     23  H   UNL     1     -58.317  24.410 -30.275  1.00  0.00     0.293 HD
ENDBRANCH   2  22
BRANCH   6  24
ATOM     24  O   UNL     1     -61.226  20.121 -31.246  1.00  0.00    -0.507 OA
ATOM     25  H   UNL     1     -61.038  19.468 -31.992  1.00  0.00     0.293 HD
ENDBRANCH   6  24
BRANCH   8  26
ATOM     26  O   UNL     1     -65.776  21.378 -32.125  1.00  0.00    -0.508 OA
ATOM     27  H   UNL     1     -66.279  20.626 -31.668  1.00  0.00     0.293 HD
ENDBRANCH   8  26
TORSDOF 6
ENDMDL
