MODEL 1
REMARK VINA RESULT:    10.819      0.000      0.000
REMARK INTER + INTRA:          21.576
REMARK INTER:                  19.674
REMARK INTRA:                   1.903
REMARK UNBOUND:                 1.903
REMARK SMILES CCCCCCCCCCCCCCCC(=O)[O-]
REMARK SMILES IDX 9 1 10 2 11 3 12 4 13 5 14 6 15 7 16 8 17 9 18 10 8 11 7 12
REMARK SMILES IDX 6 13 5 14 4 15 3 16 2 17 1 18
REMARK H PARENT
REMARK Flexibility Score: inf
ROOT
ATOM      1  C   UNL     1       7.359  46.876  10.135  1.00  0.00     0.000 C 
ENDROOT
BRANCH   1   2
ATOM      2  C   UNL     1       8.011  47.651  11.295  1.00  0.00     0.000 C 
BRANCH   2   3
ATOM      3  C   UNL     1       8.001  49.175  11.054  1.00  0.00     0.000 C 
BRANCH   3   4
ATOM      4  C   UNL     1       7.474  49.577   9.666  1.00  0.00     0.000 C 
BRANCH   4   5
ATOM      5  C   UNL     1       5.953  49.780   9.640  1.00  0.00     0.000 C 
BRANCH   5   6
ATOM      6  C   UNL     1       5.239  48.522   9.122  1.00  0.00     0.006 C 
BRANCH   6   7
ATOM      7  C   UNL     1       3.891  48.292   9.819  1.00  0.00     0.053 C 
BRANCH   7   8
ATOM      8  C   UNL     1       4.056  48.083  11.293  1.00  0.00     0.041 C 
ATOM      9  O   UNL     1       4.348  49.053  12.042  1.00  0.00    -0.550 OA
ATOM     10  O   UNL     1       3.854  46.825  11.845  1.00  0.00    -0.550 OA
ENDBRANCH   7   8
ENDBRANCH   6   7
ENDBRANCH   5   6
ENDBRANCH   4   5
ENDBRANCH   3   4
ENDBRANCH   2   3
ENDBRANCH   1   2
BRANCH   1  11
ATOM     11  C   UNL     1       8.255  46.806   8.888  1.00  0.00     0.000 C 
BRANCH  11  12
ATOM     12  C   UNL     1       9.494  47.711   8.998  1.00  0.00    -0.000 C 
BRANCH  12  13
ATOM     13  C   UNL     1      10.810  46.922   8.920  1.00  0.00    -0.000 C 
BRANCH  13  14
ATOM     14  C   UNL     1      12.048  47.832   8.875  1.00  0.00    -0.000 C 
BRANCH  14  15
ATOM     15  C   UNL     1      13.321  47.044   9.219  1.00  0.00    -0.000 C 
BRANCH  15  16
ATOM     16  C   UNL     1      13.028  45.697   9.903  1.00  0.00    -0.000 C 
BRANCH  16  17
ATOM     17  C   UNL     1      14.263  44.809  10.141  1.00  0.00    -0.003 C 
ATOM     18  C   UNL     1      14.744  44.101   8.875  1.00  0.00     0.004 C 
ENDBRANCH  16  17
ENDBRANCH  15  16
ENDBRANCH  14  15
ENDBRANCH  13  14
ENDBRANCH  12  13
ENDBRANCH  11  12
ENDBRANCH   1  11
TORSDOF 14
ENDMDL
MODEL 2
REMARK VINA RESULT:    10.914      4.393      8.532
REMARK INTER + INTRA:          21.749
REMARK INTER:                  22.487
REMARK INTRA:                  -0.738
REMARK UNBOUND:                 1.903
REMARK SMILES CCCCCCCCCCCCCCCC(=O)[O-]
REMARK SMILES IDX 9 1 10 2 11 3 12 4 13 5 14 6 15 7 16 8 17 9 18 10 8 11 7 12
REMARK SMILES IDX 6 13 5 14 4 15 3 16 2 17 1 18
REMARK H PARENT
REMARK Flexibility Score: inf
ROOT
ATOM      1  C   UNL     1       4.780  48.258  12.570  1.00  0.00     0.000 C 
ENDROOT
BRANCH   1   2
ATOM      2  C   UNL     1       3.894  48.236  11.311  1.00  0.00     0.000 C 
BRANCH   2   3
ATOM      3  C   UNL     1       4.719  48.042  10.022  1.00  0.00     0.000 C 
BRANCH   3   4
ATOM      4  C   UNL     1       4.578  49.200   9.019  1.00  0.00     0.000 C 
BRANCH   4   5
ATOM      5  C   UNL     1       5.711  50.229   9.131  1.00  0.00     0.000 C 
BRANCH   5   6
ATOM      6  C   UNL     1       7.077  49.573   8.880  1.00  0.00     0.006 C 
BRANCH   6   7
ATOM      7  C   UNL     1       7.867  49.358  10.178  1.00  0.00     0.053 C 
BRANCH   7   8
ATOM      8  C   UNL     1       8.049  47.902  10.483  1.00  0.00     0.041 C 
ATOM      9  O   UNL     1       7.962  47.488  11.669  1.00  0.00    -0.550 OA
ATOM     10  O   UNL     1       8.281  46.999   9.454  1.00  0.00    -0.550 OA
ENDBRANCH   7   8
ENDBRANCH   6   7
ENDBRANCH   5   6
ENDBRANCH   4   5
ENDBRANCH   3   4
ENDBRANCH   2   3
ENDBRANCH   1   2
BRANCH   1  11
ATOM     11  C   UNL     1       4.193  47.430  13.726  1.00  0.00     0.000 C 
BRANCH  11  12
ATOM     12  C   UNL     1       3.550  48.306  14.814  1.00  0.00    -0.000 C 
BRANCH  12  13
ATOM     13  C   UNL     1       2.769  47.482  15.849  1.00  0.00    -0.000 C 
BRANCH  13  14
ATOM     14  C   UNL     1       2.835  45.971  15.579  1.00  0.00    -0.000 C 
BRANCH  14  15
ATOM     15  C   UNL     1       3.567  45.241  16.715  1.00  0.00    -0.000 C 
BRANCH  15  16
ATOM     16  C   UNL     1       2.627  44.388  17.585  1.00  0.00    -0.000 C 
BRANCH  16  17
ATOM     17  C   UNL     1       2.400  44.924  19.010  1.00  0.00    -0.003 C 
ATOM     18  C   UNL     1       1.722  46.293  19.033  1.00  0.00     0.004 C 
ENDBRANCH  16  17
ENDBRANCH  15  16
ENDBRANCH  14  15
ENDBRANCH  13  14
ENDBRANCH  12  13
ENDBRANCH  11  12
ENDBRANCH   1  11
TORSDOF 14
ENDMDL
MODEL 3
REMARK VINA RESULT:    11.351      4.072      8.248
REMARK INTER + INTRA:          22.544
REMARK INTER:                  23.523
REMARK INTRA:                  -0.979
REMARK UNBOUND:                 1.903
REMARK SMILES CCCCCCCCCCCCCCCC(=O)[O-]
REMARK SMILES IDX 9 1 10 2 11 3 12 4 13 5 14 6 15 7 16 8 17 9 18 10 8 11 7 12
REMARK SMILES IDX 6 13 5 14 4 15 3 16 2 17 1 18
REMARK H PARENT
REMARK Flexibility Score: inf
ROOT
ATOM      1  C   UNL     1       8.035  47.734  11.066  1.00  0.00     0.000 C 
ENDROOT
BRANCH   1   2
ATOM      2  C   UNL     1       9.486  48.102  10.709  1.00  0.00     0.000 C 
BRANCH   2   3
ATOM      3  C   UNL     1       9.873  47.632   9.291  1.00  0.00     0.000 C 
BRANCH   3   4
ATOM      4  C   UNL     1      11.327  47.958   8.908  1.00  0.00     0.000 C 
BRANCH   4   5
ATOM      5  C   UNL     1      12.281  46.775   9.124  1.00  0.00     0.000 C 
BRANCH   5   6
ATOM      6  C   UNL     1      13.746  47.219   8.996  1.00  0.00     0.006 C 
BRANCH   6   7
ATOM      7  C   UNL     1      14.714  46.223   9.650  1.00  0.00     0.053 C 
BRANCH   7   8
ATOM      8  C   UNL     1      15.477  46.848  10.777  1.00  0.00     0.041 C 
ATOM      9  O   UNL     1      14.881  47.560  11.628  1.00  0.00    -0.550 OA
ATOM     10  O   UNL     1      16.840  46.616  10.908  1.00  0.00    -0.550 OA
ENDBRANCH   7   8
ENDBRANCH   6   7
ENDBRANCH   5   6
ENDBRANCH   4   5
ENDBRANCH   3   4
ENDBRANCH   2   3
ENDBRANCH   1   2
BRANCH   1  11
ATOM     11  C   UNL     1       7.263  47.135   9.880  1.00  0.00     0.000 C 
BRANCH  11  12
ATOM     12  C   UNL     1       6.782  48.205   8.886  1.00  0.00    -0.000 C 
BRANCH  12  13
ATOM     13  C   UNL     1       6.619  49.587   9.540  1.00  0.00    -0.000 C 
BRANCH  13  14
ATOM     14  C   UNL     1       5.264  50.238   9.225  1.00  0.00    -0.000 C 
BRANCH  14  15
ATOM     15  C   UNL     1       4.161  49.176   9.095  1.00  0.00    -0.000 C 
BRANCH  15  16
ATOM     16  C   UNL     1       3.353  48.988  10.390  1.00  0.00    -0.000 C 
BRANCH  16  17
ATOM     17  C   UNL     1       3.817  47.820  11.279  1.00  0.00    -0.003 C 
ATOM     18  C   UNL     1       4.606  48.278  12.505  1.00  0.00     0.004 C 
ENDBRANCH  16  17
ENDBRANCH  15  16
ENDBRANCH  14  15
ENDBRANCH  13  14
ENDBRANCH  12  13
ENDBRANCH  11  12
ENDBRANCH   1  11
TORSDOF 14
ENDMDL
MODEL 4
REMARK VINA RESULT:    11.658      4.618      6.997
REMARK INTER + INTRA:          23.101
REMARK INTER:                  23.426
REMARK INTRA:                  -0.324
REMARK UNBOUND:                 1.903
REMARK SMILES CCCCCCCCCCCCCCCC(=O)[O-]
REMARK SMILES IDX 9 1 10 2 11 3 12 4 13 5 14 6 15 7 16 8 17 9 18 10 8 11 7 12
REMARK SMILES IDX 6 13 5 14 4 15 3 16 2 17 1 18
REMARK H PARENT
REMARK Flexibility Score: inf
ROOT
ATOM      1  C   UNL     1       3.788  48.046  12.064  1.00  0.00     0.000 C 
ENDROOT
BRANCH   1   2
ATOM      2  C   UNL     1       4.502  47.815  13.409  1.00  0.00     0.000 C 
BRANCH   2   3
ATOM      3  C   UNL     1       3.617  48.203  14.611  1.00  0.00     0.000 C 
BRANCH   3   4
ATOM      4  C   UNL     1       2.604  47.116  15.009  1.00  0.00     0.000 C 
BRANCH   4   5
ATOM      5  C   UNL     1       3.243  45.963  15.796  1.00  0.00     0.000 C 
BRANCH   5   6
ATOM      6  C   UNL     1       3.156  46.215  17.309  1.00  0.00     0.006 C 
BRANCH   6   7
ATOM      7  C   UNL     1       2.599  45.003  18.068  1.00  0.00     0.053 C 
BRANCH   7   8
ATOM      8  C   UNL     1       1.953  45.405  19.359  1.00  0.00     0.041 C 
ATOM      9  O   UNL     1       2.392  44.962  20.453  1.00  0.00    -0.550 OA
ATOM     10  O   UNL     1       0.888  46.296  19.356  1.00  0.00    -0.550 OA
ENDBRANCH   7   8
ENDBRANCH   6   7
ENDBRANCH   5   6
ENDBRANCH   4   5
ENDBRANCH   3   4
ENDBRANCH   2   3
ENDBRANCH   1   2
BRANCH   1  11
ATOM     11  C   UNL     1       4.739  47.945  10.861  1.00  0.00     0.000 C 
BRANCH  11  12
ATOM     12  C   UNL     1       4.165  48.608   9.597  1.00  0.00    -0.000 C 
BRANCH  12  13
ATOM     13  C   UNL     1       5.130  49.633   8.979  1.00  0.00    -0.000 C 
BRANCH  13  14
ATOM     14  C   UNL     1       6.444  49.762   9.765  1.00  0.00    -0.000 C 
BRANCH  14  15
ATOM     15  C   UNL     1       7.648  49.382   8.890  1.00  0.00    -0.000 C 
BRANCH  15  16
ATOM     16  C   UNL     1       8.153  47.952   9.152  1.00  0.00    -0.000 C 
BRANCH  16  17
ATOM     17  C   UNL     1       7.660  47.322  10.467  1.00  0.00    -0.003 C 
ATOM     18  C   UNL     1       8.259  47.981  11.708  1.00  0.00     0.004 C 
ENDBRANCH  16  17
ENDBRANCH  15  16
ENDBRANCH  14  15
ENDBRANCH  13  14
ENDBRANCH  12  13
ENDBRANCH  11  12
ENDBRANCH   1  11
TORSDOF 14
ENDMDL
MODEL 5
REMARK VINA RESULT:    11.700      3.680      7.893
REMARK INTER + INTRA:          23.179
REMARK INTER:                  22.776
REMARK INTRA:                   0.404
REMARK UNBOUND:                 1.903
REMARK SMILES CCCCCCCCCCCCCCCC(=O)[O-]
REMARK SMILES IDX 9 1 10 2 11 3 12 4 13 5 14 6 15 7 16 8 17 9 18 10 8 11 7 12
REMARK SMILES IDX 6 13 5 14 4 15 3 16 2 17 1 18
REMARK H PARENT
REMARK Flexibility Score: inf
ROOT
ATOM      1  C   UNL     1       4.239  48.289  10.155  1.00  0.00     0.000 C 
ENDROOT
BRANCH   1   2
ATOM      2  C   UNL     1       4.060  49.670   9.499  1.00  0.00     0.000 C 
BRANCH   2   3
ATOM      3  C   UNL     1       5.395  50.434   9.379  1.00  0.00     0.000 C 
BRANCH   3   4
ATOM      4  C   UNL     1       6.560  49.565   8.876  1.00  0.00     0.000 C 
BRANCH   4   5
ATOM      5  C   UNL     1       7.841  49.748   9.700  1.00  0.00     0.000 C 
BRANCH   5   6
ATOM      6  C   UNL     1       7.723  49.050  11.064  1.00  0.00     0.006 C 
BRANCH   6   7
ATOM      7  C   UNL     1       8.079  47.559  10.986  1.00  0.00     0.053 C 
BRANCH   7   8
ATOM      8  C   UNL     1       8.110  47.069   9.570  1.00  0.00     0.041 C 
ATOM      9  O   UNL     1       9.155  47.196   8.878  1.00  0.00    -0.550 OA
ATOM     10  O   UNL     1       6.997  46.440   9.026  1.00  0.00    -0.550 OA
ENDBRANCH   7   8
ENDBRANCH   6   7
ENDBRANCH   5   6
ENDBRANCH   4   5
ENDBRANCH   3   4
ENDBRANCH   2   3
ENDBRANCH   1   2
BRANCH   1  11
ATOM     11  C   UNL     1       4.798  48.376  11.584  1.00  0.00     0.000 C 
BRANCH  11  12
ATOM     12  C   UNL     1       3.859  47.745  12.626  1.00  0.00    -0.000 C 
BRANCH  12  13
ATOM     13  C   UNL     1       4.423  47.826  14.054  1.00  0.00    -0.000 C 
BRANCH  13  14
ATOM     14  C   UNL     1       3.367  48.250  15.087  1.00  0.00    -0.000 C 
BRANCH  14  15
ATOM     15  C   UNL     1       2.406  47.091  15.397  1.00  0.00    -0.000 C 
BRANCH  15  16
ATOM     16  C   UNL     1       3.079  45.942  16.168  1.00  0.00    -0.000 C 
BRANCH  16  17
ATOM     17  C   UNL     1       3.158  46.144  17.692  1.00  0.00    -0.003 C 
ATOM     18  C   UNL     1       2.642  44.942  18.482  1.00  0.00     0.004 C 
ENDBRANCH  16  17
ENDBRANCH  15  16
ENDBRANCH  14  15
ENDBRANCH  13  14
ENDBRANCH  12  13
ENDBRANCH  11  12
ENDBRANCH   1  11
TORSDOF 14
ENDMDL
MODEL 6
REMARK VINA RESULT:    12.016      7.613     10.052
REMARK INTER + INTRA:          23.753
REMARK INTER:                  24.114
REMARK INTRA:                  -0.362
REMARK UNBOUND:                 1.903
REMARK SMILES CCCCCCCCCCCCCCCC(=O)[O-]
REMARK SMILES IDX 9 1 10 2 11 3 12 4 13 5 14 6 15 7 16 8 17 9 18 10 8 11 7 12
REMARK SMILES IDX 6 13 5 14 4 15 3 16 2 17 1 18
REMARK H PARENT
REMARK Flexibility Score: inf
ROOT
ATOM      1  C   UNL     1      15.324  51.759  12.142  1.00  0.00     0.000 C 
ENDROOT
BRANCH   1   2
ATOM      2  C   UNL     1      15.504  51.528  10.630  1.00  0.00     0.000 C 
BRANCH   2   3
ATOM      3  C   UNL     1      14.496  50.500  10.075  1.00  0.00     0.000 C 
BRANCH   3   4
ATOM      4  C   UNL     1      15.035  49.690   8.884  1.00  0.00     0.000 C 
BRANCH   4   5
ATOM      5  C   UNL     1      14.540  48.237   8.876  1.00  0.00     0.000 C 
BRANCH   5   6
ATOM      6  C   UNL     1      15.596  47.292   9.467  1.00  0.00     0.006 C 
BRANCH   6   7
ATOM      7  C   UNL     1      15.438  45.853   8.957  1.00  0.00     0.053 C 
BRANCH   7   8
ATOM      8  C   UNL     1      14.469  45.071   9.791  1.00  0.00     0.041 C 
ATOM      9  O   UNL     1      14.438  43.814   9.715  1.00  0.00    -0.550 OA
ATOM     10  O   UNL     1      13.625  45.728  10.677  1.00  0.00    -0.550 OA
ENDBRANCH   7   8
ENDBRANCH   6   7
ENDBRANCH   5   6
ENDBRANCH   4   5
ENDBRANCH   3   4
ENDBRANCH   2   3
ENDBRANCH   1   2
BRANCH   1  11
ATOM     11  C   UNL     1      15.450  53.238  12.538  1.00  0.00     0.000 C 
BRANCH  11  12
ATOM     12  C   UNL     1      16.011  53.425  13.958  1.00  0.00    -0.000 C 
BRANCH  12  13
ATOM     13  C   UNL     1      17.008  52.321  14.348  1.00  0.00    -0.000 C 
BRANCH  13  14
ATOM     14  C   UNL     1      16.640  51.629  15.670  1.00  0.00    -0.000 C 
BRANCH  14  15
ATOM     15  C   UNL     1      17.902  51.249  16.460  1.00  0.00    -0.000 C 
BRANCH  15  16
ATOM     16  C   UNL     1      17.587  50.643  17.839  1.00  0.00    -0.000 C 
BRANCH  16  17
ATOM     17  C   UNL     1      18.803  50.062  18.584  1.00  0.00    -0.003 C 
ATOM     18  C   UNL     1      18.520  49.774  20.057  1.00  0.00     0.004 C 
ENDBRANCH  16  17
ENDBRANCH  15  16
ENDBRANCH  14  15
ENDBRANCH  13  14
ENDBRANCH  12  13
ENDBRANCH  11  12
ENDBRANCH   1  11
TORSDOF 14
ENDMDL
MODEL 7
REMARK VINA RESULT:    12.531      7.048      9.554
REMARK INTER + INTRA:          24.690
REMARK INTER:                  25.175
REMARK INTRA:                  -0.485
REMARK UNBOUND:                 1.903
REMARK SMILES CCCCCCCCCCCCCCCC(=O)[O-]
REMARK SMILES IDX 9 1 10 2 11 3 12 4 13 5 14 6 15 7 16 8 17 9 18 10 8 11 7 12
REMARK SMILES IDX 6 13 5 14 4 15 3 16 2 17 1 18
REMARK H PARENT
REMARK Flexibility Score: inf
ROOT
ATOM      1  C   UNL     1      15.132  50.195  10.844  1.00  0.00     0.000 C 
ENDROOT
BRANCH   1   2
ATOM      2  C   UNL     1      15.355  49.999   9.333  1.00  0.00     0.000 C 
BRANCH   2   3
ATOM      3  C   UNL     1      15.314  48.511   8.927  1.00  0.00     0.000 C 
BRANCH   3   4
ATOM      4  C   UNL     1      13.893  47.925   8.875  1.00  0.00     0.000 C 
BRANCH   4   5
ATOM      5  C   UNL     1      13.609  46.945  10.021  1.00  0.00     0.000 C 
BRANCH   5   6
ATOM      6  C   UNL     1      14.385  45.633   9.828  1.00  0.00     0.006 C 
BRANCH   6   7
ATOM      7  C   UNL     1      13.611  44.620   8.974  1.00  0.00     0.053 C 
BRANCH   7   8
ATOM      8  C   UNL     1      14.005  43.210   9.291  1.00  0.00     0.041 C 
ATOM      9  O   UNL     1      13.159  42.281   9.207  1.00  0.00    -0.550 OA
ATOM     10  O   UNL     1      15.316  42.917   9.647  1.00  0.00    -0.550 OA
ENDBRANCH   7   8
ENDBRANCH   6   7
ENDBRANCH   5   6
ENDBRANCH   4   5
ENDBRANCH   3   4
ENDBRANCH   2   3
ENDBRANCH   1   2
BRANCH   1  11
ATOM     11  C   UNL     1      15.040  51.676  11.245  1.00  0.00     0.000 C 
BRANCH  11  12
ATOM     12  C   UNL     1      16.111  52.077  12.274  1.00  0.00    -0.000 C 
BRANCH  12  13
ATOM     13  C   UNL     1      15.534  52.258  13.687  1.00  0.00    -0.000 C 
BRANCH  13  14
ATOM     14  C   UNL     1      16.621  52.473  14.751  1.00  0.00    -0.000 C 
BRANCH  14  15
ATOM     15  C   UNL     1      16.607  51.341  15.789  1.00  0.00    -0.000 C 
BRANCH  15  16
ATOM     16  C   UNL     1      17.791  51.409  16.769  1.00  0.00    -0.000 C 
BRANCH  16  17
ATOM     17  C   UNL     1      18.007  50.140  17.613  1.00  0.00    -0.003 C 
ATOM     18  C   UNL     1      19.022  50.336  18.738  1.00  0.00     0.004 C 
ENDBRANCH  16  17
ENDBRANCH  15  16
ENDBRANCH  14  15
ENDBRANCH  13  14
ENDBRANCH  12  13
ENDBRANCH  11  12
ENDBRANCH   1  11
TORSDOF 14
ENDMDL
