MODEL 1
REMARK VINA RESULT:    -4.362      0.000      0.000
REMARK INTER + INTRA:         -16.553
REMARK INTER:                 -11.503
REMARK INTRA:                  -5.050
REMARK UNBOUND:                -5.050
REMARK SMILES CCCCCCCCCCCCCCCCCCCCCCCCCCCCCC(=O)[O-]
REMARK SMILES IDX 16 1 17 2 18 3 19 4 20 5 21 6 22 7 23 8 24 9 25 10 26 11
REMARK SMILES IDX 27 12 28 13 29 14 30 15 31 16 32 17 15 18 14 19 13 20 12 21
REMARK SMILES IDX 11 22 10 23 9 24 8 25 7 26 6 27 5 28 4 29 3 30 2 31 1 32
REMARK H PARENT
REMARK Flexibility Score: inf
ROOT
ATOM      1  C   UNL     1     -22.483 -12.668 -20.046  1.00  0.00     0.000 C 
ENDROOT
BRANCH   1   2
ATOM      2  C   UNL     1     -21.114 -12.482 -20.727  1.00  0.00     0.000 C 
BRANCH   2   3
ATOM      3  C   UNL     1     -19.968 -12.309 -19.708  1.00  0.00     0.000 C 
BRANCH   3   4
ATOM      4  C   UNL     1     -19.291 -13.627 -19.291  1.00  0.00     0.000 C 
BRANCH   4   5
ATOM      5  C   UNL     1     -19.381 -13.899 -17.781  1.00  0.00     0.000 C 
BRANCH   5   6
ATOM      6  C   UNL     1     -19.513 -15.394 -17.453  1.00  0.00     0.000 C 
BRANCH   6   7
ATOM      7  C   UNL     1     -20.966 -15.819 -17.192  1.00  0.00     0.000 C 
BRANCH   7   8
ATOM      8  C   UNL     1     -21.511 -16.636 -18.369  1.00  0.00     0.000 C 
BRANCH   8   9
ATOM      9  C   UNL     1     -22.999 -16.337 -18.616  1.00  0.00     0.000 C 
BRANCH   9  10
ATOM     10  C   UNL     1     -23.323 -16.162 -20.109  1.00  0.00     0.000 C 
BRANCH  10  11
ATOM     11  C   UNL     1     -22.067 -16.236 -20.995  1.00  0.00     0.000 C 
BRANCH  11  12
ATOM     12  C   UNL     1     -22.387 -16.077 -22.491  1.00  0.00     0.000 C 
BRANCH  12  13
ATOM     13  C   UNL     1     -21.309 -15.291 -23.268  1.00  0.00     0.006 C 
BRANCH  13  14
ATOM     14  C   UNL     1     -20.472 -16.203 -24.174  1.00  0.00     0.053 C 
BRANCH  14  15
ATOM     15  C   UNL     1     -20.435 -15.666 -25.570  1.00  0.00     0.041 C 
ATOM     16  O   UNL     1     -19.332 -15.473 -26.145  1.00  0.00    -0.550 OA
ATOM     17  O   UNL     1     -21.620 -15.413 -26.249  1.00  0.00    -0.550 OA
ENDBRANCH  14  15
ENDBRANCH  13  14
ENDBRANCH  12  13
ENDBRANCH  11  12
ENDBRANCH  10  11
ENDBRANCH   9  10
ENDBRANCH   8   9
ENDBRANCH   7   8
ENDBRANCH   6   7
ENDBRANCH   5   6
ENDBRANCH   4   5
ENDBRANCH   3   4
ENDBRANCH   2   3
ENDBRANCH   1   2
BRANCH   1  18
ATOM     18  C   UNL     1     -22.576 -11.950 -18.686  1.00  0.00     0.000 C 
BRANCH  18  19
ATOM     19  C   UNL     1     -22.999 -12.846 -17.506  1.00  0.00     0.000 C 
BRANCH  19  20
ATOM     20  C   UNL     1     -23.014 -12.097 -16.161  1.00  0.00     0.000 C 
BRANCH  20  21
ATOM     21  C   UNL     1     -22.915 -13.056 -14.955  1.00  0.00     0.000 C 
BRANCH  21  22
ATOM     22  C   UNL     1     -24.253 -13.265 -14.227  1.00  0.00     0.000 C 
BRANCH  22  23
ATOM     23  C   UNL     1     -24.579 -14.752 -14.016  1.00  0.00     0.000 C 
BRANCH  23  24
ATOM     24  C   UNL     1     -24.105 -15.641 -15.178  1.00  0.00    -0.000 C 
BRANCH  24  25
ATOM     25  C   UNL     1     -23.633 -17.031 -14.723  1.00  0.00    -0.000 C 
BRANCH  25  26
ATOM     26  C   UNL     1     -24.607 -18.145 -15.145  1.00  0.00    -0.000 C 
BRANCH  26  27
ATOM     27  C   UNL     1     -24.941 -19.097 -13.980  1.00  0.00    -0.000 C 
BRANCH  27  28
ATOM     28  C   UNL     1     -24.399 -18.586 -12.627  1.00  0.00    -0.000 C 
BRANCH  28  29
ATOM     29  C   UNL     1     -25.491 -18.353 -11.561  1.00  0.00    -0.000 C 
BRANCH  29  30
ATOM     30  C   UNL     1     -26.231 -17.009 -11.668  1.00  0.00    -0.000 C 
BRANCH  30  31
ATOM     31  C   UNL     1     -27.652 -17.155 -12.235  1.00  0.00    -0.003 C 
ATOM     32  C   UNL     1     -27.775 -16.491 -13.605  1.00  0.00     0.004 C 
ENDBRANCH  30  31
ENDBRANCH  29  30
ENDBRANCH  28  29
ENDBRANCH  27  28
ENDBRANCH  26  27
ENDBRANCH  25  26
ENDBRANCH  24  25
ENDBRANCH  23  24
ENDBRANCH  22  23
ENDBRANCH  21  22
ENDBRANCH  20  21
ENDBRANCH  19  20
ENDBRANCH  18  19
ENDBRANCH   1  18
TORSDOF 28
ENDMDL
MODEL 2
REMARK VINA RESULT:    -4.355      2.680      4.986
REMARK INTER + INTRA:         -16.533
REMARK INTER:                 -12.091
REMARK INTRA:                  -4.442
REMARK UNBOUND:                -5.050
REMARK SMILES CCCCCCCCCCCCCCCCCCCCCCCCCCCCCC(=O)[O-]
REMARK SMILES IDX 16 1 17 2 18 3 19 4 20 5 21 6 22 7 23 8 24 9 25 10 26 11
REMARK SMILES IDX 27 12 28 13 29 14 30 15 31 16 32 17 15 18 14 19 13 20 12 21
REMARK SMILES IDX 11 22 10 23 9 24 8 25 7 26 6 27 5 28 4 29 3 30 2 31 1 32
REMARK H PARENT
REMARK Flexibility Score: inf
ROOT
ATOM      1  C   UNL     1     -23.111 -12.411 -16.487  1.00  0.00     0.000 C 
ENDROOT
BRANCH   1   2
ATOM      2  C   UNL     1     -22.930 -13.062 -15.103  1.00  0.00     0.000 C 
BRANCH   2   3
ATOM      3  C   UNL     1     -24.189 -12.927 -14.220  1.00  0.00     0.000 C 
BRANCH   3   4
ATOM      4  C   UNL     1     -24.984 -14.234 -14.048  1.00  0.00     0.000 C 
BRANCH   4   5
ATOM      5  C   UNL     1     -24.094 -15.488 -14.085  1.00  0.00     0.000 C 
BRANCH   5   6
ATOM      6  C   UNL     1     -24.526 -16.492 -15.165  1.00  0.00     0.000 C 
BRANCH   6   7
ATOM      7  C   UNL     1     -23.615 -16.463 -16.401  1.00  0.00     0.000 C 
BRANCH   7   8
ATOM      8  C   UNL     1     -23.800 -17.733 -17.240  1.00  0.00     0.000 C 
BRANCH   8   9
ATOM      9  C   UNL     1     -22.947 -17.688 -18.518  1.00  0.00     0.000 C 
BRANCH   9  10
ATOM     10  C   UNL     1     -23.539 -16.750 -19.585  1.00  0.00     0.000 C 
BRANCH  10  11
ATOM     11  C   UNL     1     -22.684 -15.490 -19.799  1.00  0.00     0.000 C 
BRANCH  11  12
ATOM     12  C   UNL     1     -21.618 -15.674 -20.891  1.00  0.00     0.000 C 
BRANCH  12  13
ATOM     13  C   UNL     1     -21.156 -14.347 -21.528  1.00  0.00     0.006 C 
BRANCH  13  14
ATOM     14  C   UNL     1     -19.628 -14.217 -21.546  1.00  0.00     0.053 C 
BRANCH  14  15
ATOM     15  C   UNL     1     -19.146 -13.874 -22.921  1.00  0.00     0.041 C 
ATOM     16  O   UNL     1     -17.998 -14.229 -23.296  1.00  0.00    -0.550 OA
ATOM     17  O   UNL     1     -19.980 -13.196 -23.801  1.00  0.00    -0.550 OA
ENDBRANCH  14  15
ENDBRANCH  13  14
ENDBRANCH  12  13
ENDBRANCH  11  12
ENDBRANCH  10  11
ENDBRANCH   9  10
ENDBRANCH   8   9
ENDBRANCH   7   8
ENDBRANCH   6   7
ENDBRANCH   5   6
ENDBRANCH   4   5
ENDBRANCH   3   4
ENDBRANCH   2   3
ENDBRANCH   1   2
BRANCH   1  18
ATOM     18  C   UNL     1     -22.041 -12.858 -17.501  1.00  0.00     0.000 C 
BRANCH  18  19
ATOM     19  C   UNL     1     -21.057 -13.925 -16.982  1.00  0.00     0.000 C 
BRANCH  19  20
ATOM     20  C   UNL     1     -19.670 -13.833 -17.642  1.00  0.00     0.000 C 
BRANCH  20  21
ATOM     21  C   UNL     1     -19.109 -15.220 -18.024  1.00  0.00     0.000 C 
BRANCH  21  22
ATOM     22  C   UNL     1     -19.664 -16.365 -17.161  1.00  0.00     0.000 C 
BRANCH  22  23
ATOM     23  C   UNL     1     -18.655 -17.511 -16.988  1.00  0.00     0.000 C 
BRANCH  23  24
ATOM     24  C   UNL     1     -19.069 -18.516 -15.902  1.00  0.00    -0.000 C 
BRANCH  24  25
ATOM     25  C   UNL     1     -20.590 -18.579 -15.684  1.00  0.00    -0.000 C 
BRANCH  25  26
ATOM     26  C   UNL     1     -20.981 -19.572 -14.576  1.00  0.00    -0.000 C 
BRANCH  26  27
ATOM     27  C   UNL     1     -22.139 -19.047 -13.707  1.00  0.00    -0.000 C 
BRANCH  27  28
ATOM     28  C   UNL     1     -21.933 -19.346 -12.206  1.00  0.00    -0.000 C 
BRANCH  28  29
ATOM     29  C   UNL     1     -20.637 -20.124 -11.893  1.00  0.00    -0.000 C 
BRANCH  29  30
ATOM     30  C   UNL     1     -20.843 -21.499 -11.237  1.00  0.00    -0.000 C 
BRANCH  30  31
ATOM     31  C   UNL     1     -20.750 -22.659 -12.240  1.00  0.00    -0.003 C 
ATOM     32  C   UNL     1     -19.311 -23.147 -12.394  1.00  0.00     0.004 C 
ENDBRANCH  30  31
ENDBRANCH  29  30
ENDBRANCH  28  29
ENDBRANCH  27  28
ENDBRANCH  26  27
ENDBRANCH  25  26
ENDBRANCH  24  25
ENDBRANCH  23  24
ENDBRANCH  22  23
ENDBRANCH  21  22
ENDBRANCH  20  21
ENDBRANCH  19  20
ENDBRANCH  18  19
ENDBRANCH   1  18
TORSDOF 28
ENDMDL
MODEL 3
REMARK VINA RESULT:    -4.351      3.849      8.567
REMARK INTER + INTRA:         -16.523
REMARK INTER:                 -11.414
REMARK INTRA:                  -5.110
REMARK UNBOUND:                -5.050
REMARK SMILES CCCCCCCCCCCCCCCCCCCCCCCCCCCCCC(=O)[O-]
REMARK SMILES IDX 16 1 17 2 18 3 19 4 20 5 21 6 22 7 23 8 24 9 25 10 26 11
REMARK SMILES IDX 27 12 28 13 29 14 30 15 31 16 32 17 15 18 14 19 13 20 12 21
REMARK SMILES IDX 11 22 10 23 9 24 8 25 7 26 6 27 5 28 4 29 3 30 2 31 1 32
REMARK H PARENT
REMARK Flexibility Score: inf
ROOT
ATOM      1  C   UNL     1     -22.082 -15.327 -21.203  1.00  0.00     0.000 C 
ENDROOT
BRANCH   1   2
ATOM      2  C   UNL     1     -22.822 -14.036 -20.805  1.00  0.00     0.000 C 
BRANCH   2   3
ATOM      3  C   UNL     1     -22.845 -13.817 -19.277  1.00  0.00     0.000 C 
BRANCH   3   4
ATOM      4  C   UNL     1     -22.670 -12.350 -18.847  1.00  0.00     0.000 C 
BRANCH   4   5
ATOM      5  C   UNL     1     -22.595 -12.176 -17.321  1.00  0.00     0.000 C 
BRANCH   5   6
ATOM      6  C   UNL     1     -22.966 -13.457 -16.557  1.00  0.00     0.000 C 
BRANCH   6   7
ATOM      7  C   UNL     1     -22.729 -13.337 -15.045  1.00  0.00     0.000 C 
BRANCH   7   8
ATOM      8  C   UNL     1     -23.903 -12.617 -14.368  1.00  0.00     0.000 C 
BRANCH   8   9
ATOM      9  C   UNL     1     -25.066 -13.584 -14.091  1.00  0.00     0.000 C 
BRANCH   9  10
ATOM     10  C   UNL     1     -24.580 -14.990 -13.698  1.00  0.00     0.000 C 
BRANCH  10  11
ATOM     11  C   UNL     1     -25.541 -16.096 -14.166  1.00  0.00     0.000 C 
BRANCH  11  12
ATOM     12  C   UNL     1     -24.871 -17.099 -15.120  1.00  0.00     0.000 C 
BRANCH  12  13
ATOM     13  C   UNL     1     -25.012 -18.566 -14.662  1.00  0.00     0.006 C 
BRANCH  13  14
ATOM     14  C   UNL     1     -23.655 -19.195 -14.320  1.00  0.00     0.053 C 
BRANCH  14  15
ATOM     15  C   UNL     1     -23.311 -18.954 -12.884  1.00  0.00     0.041 C 
ATOM     16  O   UNL     1     -24.216 -18.669 -12.056  1.00  0.00    -0.550 OA
ATOM     17  O   UNL     1     -21.997 -19.080 -12.453  1.00  0.00    -0.550 OA
ENDBRANCH  14  15
ENDBRANCH  13  14
ENDBRANCH  12  13
ENDBRANCH  11  12
ENDBRANCH  10  11
ENDBRANCH   9  10
ENDBRANCH   8   9
ENDBRANCH   7   8
ENDBRANCH   6   7
ENDBRANCH   5   6
ENDBRANCH   4   5
ENDBRANCH   3   4
ENDBRANCH   2   3
ENDBRANCH   1   2
BRANCH   1  18
ATOM     18  C   UNL     1     -22.399 -15.777 -22.642  1.00  0.00     0.000 C 
BRANCH  18  19
ATOM     19  C   UNL     1     -21.194 -16.325 -23.432  1.00  0.00     0.000 C 
BRANCH  19  20
ATOM     20  C   UNL     1     -21.005 -15.632 -24.793  1.00  0.00     0.000 C 
BRANCH  20  21
ATOM     21  C   UNL     1     -20.324 -14.252 -24.658  1.00  0.00     0.000 C 
BRANCH  21  22
ATOM     22  C   UNL     1     -18.843 -14.337 -24.253  1.00  0.00     0.000 C 
BRANCH  22  23
ATOM     23  C   UNL     1     -18.573 -13.692 -22.884  1.00  0.00     0.000 C 
BRANCH  23  24
ATOM     24  C   UNL     1     -19.714 -12.774 -22.417  1.00  0.00    -0.000 C 
BRANCH  24  25
ATOM     25  C   UNL     1     -19.556 -12.302 -20.963  1.00  0.00    -0.000 C 
BRANCH  25  26
ATOM     26  C   UNL     1     -19.115 -13.438 -20.025  1.00  0.00    -0.000 C 
BRANCH  26  27
ATOM     27  C   UNL     1     -19.144 -13.015 -18.544  1.00  0.00    -0.000 C 
BRANCH  27  28
ATOM     28  C   UNL     1     -19.546 -14.174 -17.606  1.00  0.00    -0.000 C 
BRANCH  28  29
ATOM     29  C   UNL     1     -19.001 -15.551 -18.042  1.00  0.00    -0.000 C 
BRANCH  29  30
ATOM     30  C   UNL     1     -20.073 -16.616 -18.329  1.00  0.00    -0.000 C 
BRANCH  30  31
ATOM     31  C   UNL     1     -21.118 -16.727 -17.208  1.00  0.00    -0.003 C 
ATOM     32  C   UNL     1     -22.515 -16.981 -17.772  1.00  0.00     0.004 C 
ENDBRANCH  30  31
ENDBRANCH  29  30
ENDBRANCH  28  29
ENDBRANCH  27  28
ENDBRANCH  26  27
ENDBRANCH  25  26
ENDBRANCH  24  25
ENDBRANCH  23  24
ENDBRANCH  22  23
ENDBRANCH  21  22
ENDBRANCH  20  21
ENDBRANCH  19  20
ENDBRANCH  18  19
ENDBRANCH   1  18
TORSDOF 28
ENDMDL
MODEL 4
REMARK VINA RESULT:    -4.260      4.574      8.201
REMARK INTER + INTRA:         -16.282
REMARK INTER:                 -12.041
REMARK INTRA:                  -4.241
REMARK UNBOUND:                -5.050
REMARK SMILES CCCCCCCCCCCCCCCCCCCCCCCCCCCCCC(=O)[O-]
REMARK SMILES IDX 16 1 17 2 18 3 19 4 20 5 21 6 22 7 23 8 24 9 25 10 26 11
REMARK SMILES IDX 27 12 28 13 29 14 30 15 31 16 32 17 15 18 14 19 13 20 12 21
REMARK SMILES IDX 11 22 10 23 9 24 8 25 7 26 6 27 5 28 4 29 3 30 2 31 1 32
REMARK H PARENT
REMARK Flexibility Score: inf
ROOT
ATOM      1  C   UNL     1     -22.597 -12.395 -19.670  1.00  0.00     0.000 C 
ENDROOT
BRANCH   1   2
ATOM      2  C   UNL     1     -22.263 -11.991 -18.222  1.00  0.00     0.000 C 
BRANCH   2   3
ATOM      3  C   UNL     1     -22.771 -13.021 -17.190  1.00  0.00     0.000 C 
BRANCH   3   4
ATOM      4  C   UNL     1     -23.111 -12.421 -15.814  1.00  0.00     0.000 C 
BRANCH   4   5
ATOM      5  C   UNL     1     -23.260 -13.485 -14.714  1.00  0.00     0.000 C 
BRANCH   5   6
ATOM      6  C   UNL     1     -24.677 -13.531 -14.120  1.00  0.00     0.000 C 
BRANCH   6   7
ATOM      7  C   UNL     1     -25.163 -14.964 -13.856  1.00  0.00     0.000 C 
BRANCH   7   8
ATOM      8  C   UNL     1     -24.497 -15.949 -14.824  1.00  0.00     0.000 C 
BRANCH   8   9
ATOM      9  C   UNL     1     -24.938 -17.394 -14.541  1.00  0.00     0.000 C 
BRANCH   9  10
ATOM     10  C   UNL     1     -25.219 -17.641 -13.049  1.00  0.00     0.000 C 
BRANCH  10  11
ATOM     11  C   UNL     1     -24.428 -18.836 -12.491  1.00  0.00     0.000 C 
BRANCH  11  12
ATOM     12  C   UNL     1     -22.967 -18.856 -12.972  1.00  0.00     0.000 C 
BRANCH  12  13
ATOM     13  C   UNL     1     -22.285 -20.230 -12.799  1.00  0.00     0.006 C 
BRANCH  13  14
ATOM     14  C   UNL     1     -20.801 -20.094 -12.436  1.00  0.00     0.053 C 
BRANCH  14  15
ATOM     15  C   UNL     1     -20.507 -20.805 -11.153  1.00  0.00     0.041 C 
ATOM     16  O   UNL     1     -19.681 -20.321 -10.335  1.00  0.00    -0.550 OA
ATOM     17  O   UNL     1     -21.174 -21.984 -10.843  1.00  0.00    -0.550 OA
ENDBRANCH  14  15
ENDBRANCH  13  14
ENDBRANCH  12  13
ENDBRANCH  11  12
ENDBRANCH  10  11
ENDBRANCH   9  10
ENDBRANCH   8   9
ENDBRANCH   7   8
ENDBRANCH   6   7
ENDBRANCH   5   6
ENDBRANCH   4   5
ENDBRANCH   3   4
ENDBRANCH   2   3
ENDBRANCH   1   2
BRANCH   1  18
ATOM     18  C   UNL     1     -21.358 -12.848 -20.465  1.00  0.00     0.000 C 
BRANCH  18  19
ATOM     19  C   UNL     1     -21.473 -14.242 -21.112  1.00  0.00     0.000 C 
BRANCH  19  20
ATOM     20  C   UNL     1     -22.753 -14.990 -20.698  1.00  0.00     0.000 C 
BRANCH  20  21
ATOM     21  C   UNL     1     -22.473 -16.105 -19.666  1.00  0.00     0.000 C 
BRANCH  21  22
ATOM     22  C   UNL     1     -23.605 -17.140 -19.560  1.00  0.00     0.000 C 
BRANCH  22  23
ATOM     23  C   UNL     1     -23.868 -17.575 -18.109  1.00  0.00     0.000 C 
BRANCH  23  24
ATOM     24  C   UNL     1     -22.577 -17.766 -17.297  1.00  0.00    -0.000 C 
BRANCH  24  25
ATOM     25  C   UNL     1     -22.300 -19.235 -16.937  1.00  0.00    -0.000 C 
BRANCH  25  26
ATOM     26  C   UNL     1     -20.794 -19.545 -16.868  1.00  0.00    -0.000 C 
BRANCH  26  27
ATOM     27  C   UNL     1     -20.121 -18.889 -15.648  1.00  0.00    -0.000 C 
BRANCH  27  28
ATOM     28  C   UNL     1     -18.860 -18.084 -16.032  1.00  0.00    -0.000 C 
BRANCH  28  29
ATOM     29  C   UNL     1     -18.910 -17.479 -17.451  1.00  0.00    -0.000 C 
BRANCH  29  30
ATOM     30  C   UNL     1     -19.522 -16.071 -17.539  1.00  0.00    -0.000 C 
BRANCH  30  31
ATOM     31  C   UNL     1     -18.536 -15.025 -18.082  1.00  0.00    -0.003 C 
ATOM     32  C   UNL     1     -18.952 -13.610 -17.684  1.00  0.00     0.004 C 
ENDBRANCH  30  31
ENDBRANCH  29  30
ENDBRANCH  28  29
ENDBRANCH  27  28
ENDBRANCH  26  27
ENDBRANCH  25  26
ENDBRANCH  24  25
ENDBRANCH  23  24
ENDBRANCH  22  23
ENDBRANCH  21  22
ENDBRANCH  20  21
ENDBRANCH  19  20
ENDBRANCH  18  19
ENDBRANCH   1  18
TORSDOF 28
ENDMDL
MODEL 5
REMARK VINA RESULT:    -4.244      3.869      7.343
REMARK INTER + INTRA:         -16.240
REMARK INTER:                 -11.387
REMARK INTRA:                  -4.852
REMARK UNBOUND:                -5.050
REMARK SMILES CCCCCCCCCCCCCCCCCCCCCCCCCCCCCC(=O)[O-]
REMARK SMILES IDX 16 1 17 2 18 3 19 4 20 5 21 6 22 7 23 8 24 9 25 10 26 11
REMARK SMILES IDX 27 12 28 13 29 14 30 15 31 16 32 17 15 18 14 19 13 20 12 21
REMARK SMILES IDX 11 22 10 23 9 24 8 25 7 26 6 27 5 28 4 29 3 30 2 31 1 32
REMARK H PARENT
REMARK Flexibility Score: inf
ROOT
ATOM      1  C   UNL     1     -22.688 -12.900 -17.081  1.00  0.00     0.000 C 
ENDROOT
BRANCH   1   2
ATOM      2  C   UNL     1     -22.543 -11.943 -18.279  1.00  0.00     0.000 C 
BRANCH   2   3
ATOM      3  C   UNL     1     -22.583 -12.684 -19.633  1.00  0.00     0.000 C 
BRANCH   3   4
ATOM      4  C   UNL     1     -21.350 -12.442 -20.521  1.00  0.00     0.000 C 
BRANCH   4   5
ATOM      5  C   UNL     1     -20.085 -12.102 -19.716  1.00  0.00     0.000 C 
BRANCH   5   6
ATOM      6  C   UNL     1     -19.252 -13.345 -19.365  1.00  0.00     0.000 C 
BRANCH   6   7
ATOM      7  C   UNL     1     -19.092 -13.545 -17.851  1.00  0.00     0.000 C 
BRANCH   7   8
ATOM      8  C   UNL     1     -19.489 -14.970 -17.448  1.00  0.00     0.000 C 
BRANCH   8   9
ATOM      9  C   UNL     1     -18.649 -16.018 -18.196  1.00  0.00     0.000 C 
BRANCH   9  10
ATOM     10  C   UNL     1     -18.688 -17.397 -17.515  1.00  0.00     0.000 C 
BRANCH  10  11
ATOM     11  C   UNL     1     -20.081 -17.736 -16.955  1.00  0.00     0.000 C 
BRANCH  11  12
ATOM     12  C   UNL     1     -20.019 -18.365 -15.554  1.00  0.00     0.000 C 
BRANCH  12  13
ATOM     13  C   UNL     1     -20.068 -19.908 -15.573  1.00  0.00     0.006 C 
BRANCH  13  14
ATOM     14  C   UNL     1     -21.329 -20.453 -14.891  1.00  0.00     0.053 C 
BRANCH  14  15
ATOM     15  C   UNL     1     -21.492 -19.852 -13.530  1.00  0.00     0.041 C 
ATOM     16  O   UNL     1     -22.487 -19.124 -13.275  1.00  0.00    -0.550 OA
ATOM     17  O   UNL     1     -20.565 -20.128 -12.533  1.00  0.00    -0.550 OA
ENDBRANCH  14  15
ENDBRANCH  13  14
ENDBRANCH  12  13
ENDBRANCH  11  12
ENDBRANCH  10  11
ENDBRANCH   9  10
ENDBRANCH   8   9
ENDBRANCH   7   8
ENDBRANCH   6   7
ENDBRANCH   5   6
ENDBRANCH   4   5
ENDBRANCH   3   4
ENDBRANCH   2   3
ENDBRANCH   1   2
BRANCH   1  18
ATOM     18  C   UNL     1     -23.325 -12.225 -15.851  1.00  0.00     0.000 C 
BRANCH  18  19
ATOM     19  C   UNL     1     -23.340 -13.084 -14.572  1.00  0.00     0.000 C 
BRANCH  19  20
ATOM     20  C   UNL     1     -24.758 -13.312 -14.020  1.00  0.00     0.000 C 
BRANCH  20  21
ATOM     21  C   UNL     1     -25.203 -14.786 -14.135  1.00  0.00     0.000 C 
BRANCH  21  22
ATOM     22  C   UNL     1     -24.033 -15.765 -14.331  1.00  0.00     0.000 C 
BRANCH  22  23
ATOM     23  C   UNL     1     -24.365 -16.880 -15.336  1.00  0.00     0.000 C 
BRANCH  23  24
ATOM     24  C   UNL     1     -23.788 -16.616 -16.736  1.00  0.00    -0.000 C 
BRANCH  24  25
ATOM     25  C   UNL     1     -23.762 -17.868 -17.627  1.00  0.00    -0.000 C 
BRANCH  25  26
ATOM     26  C   UNL     1     -23.948 -17.529 -19.116  1.00  0.00    -0.000 C 
BRANCH  26  27
ATOM     27  C   UNL     1     -23.377 -16.143 -19.473  1.00  0.00    -0.000 C 
BRANCH  27  28
ATOM     28  C   UNL     1     -21.893 -16.208 -19.898  1.00  0.00    -0.000 C 
BRANCH  28  29
ATOM     29  C   UNL     1     -21.683 -16.422 -21.412  1.00  0.00    -0.000 C 
BRANCH  29  30
ATOM     30  C   UNL     1     -20.404 -15.793 -21.988  1.00  0.00    -0.000 C 
BRANCH  30  31
ATOM     31  C   UNL     1     -20.684 -14.840 -23.161  1.00  0.00    -0.003 C 
ATOM     32  C   UNL     1     -20.863 -15.607 -24.470  1.00  0.00     0.004 C 
ENDBRANCH  30  31
ENDBRANCH  29  30
ENDBRANCH  28  29
ENDBRANCH  27  28
ENDBRANCH  26  27
ENDBRANCH  25  26
ENDBRANCH  24  25
ENDBRANCH  23  24
ENDBRANCH  22  23
ENDBRANCH  21  22
ENDBRANCH  20  21
ENDBRANCH  19  20
ENDBRANCH  18  19
ENDBRANCH   1  18
TORSDOF 28
ENDMDL
MODEL 6
REMARK VINA RESULT:    -4.208      3.787      6.578
REMARK INTER + INTRA:         -16.145
REMARK INTER:                 -11.328
REMARK INTRA:                  -4.818
REMARK UNBOUND:                -5.050
REMARK SMILES CCCCCCCCCCCCCCCCCCCCCCCCCCCCCC(=O)[O-]
REMARK SMILES IDX 16 1 17 2 18 3 19 4 20 5 21 6 22 7 23 8 24 9 25 10 26 11
REMARK SMILES IDX 27 12 28 13 29 14 30 15 31 16 32 17 15 18 14 19 13 20 12 21
REMARK SMILES IDX 11 22 10 23 9 24 8 25 7 26 6 27 5 28 4 29 3 30 2 31 1 32
REMARK H PARENT
REMARK Flexibility Score: inf
ROOT
ATOM      1  C   UNL     1     -23.358 -16.141 -15.541  1.00  0.00     0.000 C 
ENDROOT
BRANCH   1   2
ATOM      2  C   UNL     1     -24.337 -15.647 -14.459  1.00  0.00     0.000 C 
BRANCH   2   3
ATOM      3  C   UNL     1     -24.217 -14.129 -14.207  1.00  0.00     0.000 C 
BRANCH   3   4
ATOM      4  C   UNL     1     -23.001 -13.471 -14.882  1.00  0.00     0.000 C 
BRANCH   4   5
ATOM      5  C   UNL     1     -23.366 -12.210 -15.683  1.00  0.00     0.000 C 
BRANCH   5   6
ATOM      6  C   UNL     1     -22.678 -12.158 -17.056  1.00  0.00     0.000 C 
BRANCH   6   7
ATOM      7  C   UNL     1     -23.022 -13.365 -17.939  1.00  0.00     0.000 C 
BRANCH   7   8
ATOM      8  C   UNL     1     -22.837 -13.023 -19.422  1.00  0.00     0.000 C 
BRANCH   8   9
ATOM      9  C   UNL     1     -21.771 -11.932 -19.615  1.00  0.00     0.000 C 
BRANCH   9  10
ATOM     10  C   UNL     1     -20.545 -12.440 -20.393  1.00  0.00     0.000 C 
BRANCH  10  11
ATOM     11  C   UNL     1     -19.304 -12.595 -19.498  1.00  0.00     0.000 C 
BRANCH  11  12
ATOM     12  C   UNL     1     -19.487 -13.666 -18.410  1.00  0.00     0.000 C 
BRANCH  12  13
ATOM     13  C   UNL     1     -19.573 -15.101 -18.971  1.00  0.00     0.006 C 
BRANCH  13  14
ATOM     14  C   UNL     1     -20.448 -16.010 -18.097  1.00  0.00     0.053 C 
BRANCH  14  15
ATOM     15  C   UNL     1     -19.598 -16.832 -17.179  1.00  0.00     0.041 C 
ATOM     16  O   UNL     1     -20.134 -17.550 -16.295  1.00  0.00    -0.550 OA
ATOM     17  O   UNL     1     -18.217 -16.833 -17.326  1.00  0.00    -0.550 OA
ENDBRANCH  14  15
ENDBRANCH  13  14
ENDBRANCH  12  13
ENDBRANCH  11  12
ENDBRANCH  10  11
ENDBRANCH   9  10
ENDBRANCH   8   9
ENDBRANCH   7   8
ENDBRANCH   6   7
ENDBRANCH   5   6
ENDBRANCH   4   5
ENDBRANCH   3   4
ENDBRANCH   2   3
ENDBRANCH   1   2
BRANCH   1  18
ATOM     18  C   UNL     1     -23.893 -17.359 -16.318  1.00  0.00     0.000 C 
BRANCH  18  19
ATOM     19  C   UNL     1     -24.967 -18.182 -15.581  1.00  0.00     0.000 C 
BRANCH  19  20
ATOM     20  C   UNL     1     -24.385 -19.399 -14.840  1.00  0.00     0.000 C 
BRANCH  20  21
ATOM     21  C   UNL     1     -24.443 -19.235 -13.305  1.00  0.00     0.000 C 
BRANCH  21  22
ATOM     22  C   UNL     1     -23.064 -19.303 -12.629  1.00  0.00     0.000 C 
BRANCH  22  23
ATOM     23  C   UNL     1     -21.913 -19.071 -13.620  1.00  0.00     0.000 C 
BRANCH  23  24
ATOM     24  C   UNL     1     -20.618 -19.795 -13.216  1.00  0.00    -0.000 C 
BRANCH  24  25
ATOM     25  C   UNL     1     -20.530 -20.080 -11.707  1.00  0.00    -0.000 C 
BRANCH  25  26
ATOM     26  C   UNL     1     -20.251 -21.563 -11.409  1.00  0.00    -0.000 C 
BRANCH  26  27
ATOM     27  C   UNL     1     -21.539 -22.342 -11.078  1.00  0.00    -0.000 C 
BRANCH  27  28
ATOM     28  C   UNL     1     -21.817 -23.477 -12.088  1.00  0.00    -0.000 C 
BRANCH  28  29
ATOM     29  C   UNL     1     -22.657 -23.039 -13.307  1.00  0.00    -0.000 C 
BRANCH  29  30
ATOM     30  C   UNL     1     -21.852 -22.759 -14.587  1.00  0.00    -0.000 C 
BRANCH  30  31
ATOM     31  C   UNL     1     -20.659 -23.712 -14.762  1.00  0.00    -0.003 C 
ATOM     32  C   UNL     1     -19.334 -22.953 -14.742  1.00  0.00     0.004 C 
ENDBRANCH  30  31
ENDBRANCH  29  30
ENDBRANCH  28  29
ENDBRANCH  27  28
ENDBRANCH  26  27
ENDBRANCH  25  26
ENDBRANCH  24  25
ENDBRANCH  23  24
ENDBRANCH  22  23
ENDBRANCH  21  22
ENDBRANCH  20  21
ENDBRANCH  19  20
ENDBRANCH  18  19
ENDBRANCH   1  18
TORSDOF 28
ENDMDL
MODEL 7
REMARK VINA RESULT:    -4.197      4.307      8.463
REMARK INTER + INTRA:         -16.117
REMARK INTER:                 -11.995
REMARK INTRA:                  -4.123
REMARK UNBOUND:                -5.050
REMARK SMILES CCCCCCCCCCCCCCCCCCCCCCCCCCCCCC(=O)[O-]
REMARK SMILES IDX 16 1 17 2 18 3 19 4 20 5 21 6 22 7 23 8 24 9 25 10 26 11
REMARK SMILES IDX 27 12 28 13 29 14 30 15 31 16 32 17 15 18 14 19 13 20 12 21
REMARK SMILES IDX 11 22 10 23 9 24 8 25 7 26 6 27 5 28 4 29 3 30 2 31 1 32
REMARK H PARENT
REMARK Flexibility Score: inf
ROOT
ATOM      1  C   UNL     1     -24.224 -13.566 -14.243  1.00  0.00     0.000 C 
ENDROOT
BRANCH   1   2
ATOM      2  C   UNL     1     -24.462 -15.073 -14.035  1.00  0.00     0.000 C 
BRANCH   2   3
ATOM      3  C   UNL     1     -25.959 -15.417 -13.883  1.00  0.00     0.000 C 
BRANCH   3   4
ATOM      4  C   UNL     1     -26.232 -16.865 -13.439  1.00  0.00     0.000 C 
BRANCH   4   5
ATOM      5  C   UNL     1     -25.814 -17.138 -11.985  1.00  0.00     0.000 C 
BRANCH   5   6
ATOM      6  C   UNL     1     -24.847 -18.326 -11.858  1.00  0.00     0.000 C 
BRANCH   6   7
ATOM      7  C   UNL     1     -24.708 -19.122 -13.164  1.00  0.00     0.000 C 
BRANCH   7   8
ATOM      8  C   UNL     1     -23.273 -19.039 -13.698  1.00  0.00     0.000 C 
BRANCH   8   9
ATOM      9  C   UNL     1     -22.247 -19.104 -12.555  1.00  0.00     0.000 C 
BRANCH   9  10
ATOM     10  C   UNL     1     -21.791 -20.542 -12.256  1.00  0.00     0.000 C 
BRANCH  10  11
ATOM     11  C   UNL     1     -20.558 -20.589 -11.338  1.00  0.00     0.000 C 
BRANCH  11  12
ATOM     12  C   UNL     1     -19.957 -22.000 -11.222  1.00  0.00     0.000 C 
BRANCH  12  13
ATOM     13  C   UNL     1     -20.746 -23.067 -12.009  1.00  0.00     0.006 C 
BRANCH  13  14
ATOM     14  C   UNL     1     -19.863 -23.805 -13.024  1.00  0.00     0.053 C 
BRANCH  14  15
ATOM     15  C   UNL     1     -19.701 -22.991 -14.268  1.00  0.00     0.041 C 
ATOM     16  O   UNL     1     -18.551 -22.752 -14.723  1.00  0.00    -0.550 OA
ATOM     17  O   UNL     1     -20.821 -22.529 -14.948  1.00  0.00    -0.550 OA
ENDBRANCH  14  15
ENDBRANCH  13  14
ENDBRANCH  12  13
ENDBRANCH  11  12
ENDBRANCH  10  11
ENDBRANCH   9  10
ENDBRANCH   8   9
ENDBRANCH   7   8
ENDBRANCH   6   7
ENDBRANCH   5   6
ENDBRANCH   4   5
ENDBRANCH   3   4
ENDBRANCH   2   3
ENDBRANCH   1   2
BRANCH   1  18
ATOM     18  C   UNL     1     -22.889 -13.264 -14.952  1.00  0.00     0.000 C 
BRANCH  18  19
ATOM     19  C   UNL     1     -23.015 -12.463 -16.262  1.00  0.00     0.000 C 
BRANCH  19  20
ATOM     20  C   UNL     1     -22.549 -13.257 -17.496  1.00  0.00     0.000 C 
BRANCH  20  21
ATOM     21  C   UNL     1     -21.736 -12.388 -18.480  1.00  0.00     0.000 C 
BRANCH  21  22
ATOM     22  C   UNL     1     -20.245 -12.759 -18.538  1.00  0.00     0.000 C 
BRANCH  22  23
ATOM     23  C   UNL     1     -19.844 -13.747 -17.430  1.00  0.00     0.000 C 
BRANCH  23  24
ATOM     24  C   UNL     1     -18.801 -14.777 -17.895  1.00  0.00    -0.000 C 
BRANCH  24  25
ATOM     25  C   UNL     1     -19.405 -15.914 -18.734  1.00  0.00    -0.000 C 
BRANCH  25  26
ATOM     26  C   UNL     1     -19.168 -17.296 -18.101  1.00  0.00    -0.000 C 
BRANCH  26  27
ATOM     27  C   UNL     1     -19.680 -17.367 -16.650  1.00  0.00    -0.000 C 
BRANCH  27  28
ATOM     28  C   UNL     1     -21.139 -17.865 -16.563  1.00  0.00    -0.000 C 
BRANCH  28  29
ATOM     29  C   UNL     1     -22.160 -16.761 -16.214  1.00  0.00    -0.000 C 
BRANCH  29  30
ATOM     30  C   UNL     1     -23.378 -16.680 -17.149  1.00  0.00    -0.000 C 
BRANCH  30  31
ATOM     31  C   UNL     1     -22.996 -16.761 -18.635  1.00  0.00    -0.003 C 
ATOM     32  C   UNL     1     -23.680 -17.943 -19.321  1.00  0.00     0.004 C 
ENDBRANCH  30  31
ENDBRANCH  29  30
ENDBRANCH  28  29
ENDBRANCH  27  28
ENDBRANCH  26  27
ENDBRANCH  25  26
ENDBRANCH  24  25
ENDBRANCH  23  24
ENDBRANCH  22  23
ENDBRANCH  21  22
ENDBRANCH  20  21
ENDBRANCH  19  20
ENDBRANCH  18  19
ENDBRANCH   1  18
TORSDOF 28
ENDMDL
MODEL 8
REMARK VINA RESULT:    -4.185      4.290      9.366
REMARK INTER + INTRA:         -16.084
REMARK INTER:                 -11.587
REMARK INTRA:                  -4.498
REMARK UNBOUND:                -5.050
REMARK SMILES CCCCCCCCCCCCCCCCCCCCCCCCCCCCCC(=O)[O-]
REMARK SMILES IDX 16 1 17 2 18 3 19 4 20 5 21 6 22 7 23 8 24 9 25 10 26 11
REMARK SMILES IDX 27 12 28 13 29 14 30 15 31 16 32 17 15 18 14 19 13 20 12 21
REMARK SMILES IDX 11 22 10 23 9 24 8 25 7 26 6 27 5 28 4 29 3 30 2 31 1 32
REMARK H PARENT
REMARK Flexibility Score: inf
ROOT
ATOM      1  C   UNL     1     -20.677 -15.401 -17.399  1.00  0.00     0.000 C 
ENDROOT
BRANCH   1   2
ATOM      2  C   UNL     1     -21.097 -14.135 -16.629  1.00  0.00     0.000 C 
BRANCH   2   3
ATOM      3  C   UNL     1     -22.627 -13.935 -16.616  1.00  0.00     0.000 C 
BRANCH   3   4
ATOM      4  C   UNL     1     -23.073 -12.501 -16.280  1.00  0.00     0.000 C 
BRANCH   4   5
ATOM      5  C   UNL     1     -23.852 -12.407 -14.957  1.00  0.00     0.000 C 
BRANCH   5   6
ATOM      6  C   UNL     1     -23.806 -13.711 -14.146  1.00  0.00     0.000 C 
BRANCH   6   7
ATOM      7  C   UNL     1     -25.173 -14.406 -14.061  1.00  0.00     0.000 C 
BRANCH   7   8
ATOM      8  C   UNL     1     -25.013 -15.863 -13.608  1.00  0.00     0.000 C 
BRANCH   8   9
ATOM      9  C   UNL     1     -25.446 -16.842 -14.711  1.00  0.00     0.000 C 
BRANCH   9  10
ATOM     10  C   UNL     1     -24.306 -17.162 -15.693  1.00  0.00     0.000 C 
BRANCH  10  11
ATOM     11  C   UNL     1     -22.941 -17.270 -14.993  1.00  0.00     0.000 C 
BRANCH  11  12
ATOM     12  C   UNL     1     -22.551 -18.724 -14.676  1.00  0.00     0.000 C 
BRANCH  12  13
ATOM     13  C   UNL     1     -22.272 -18.970 -13.178  1.00  0.00     0.006 C 
BRANCH  13  14
ATOM     14  C   UNL     1     -21.024 -19.836 -12.960  1.00  0.00     0.053 C 
BRANCH  14  15
ATOM     15  C   UNL     1     -21.319 -20.952 -12.008  1.00  0.00     0.041 C 
ATOM     16  O   UNL     1     -22.326 -21.686 -12.187  1.00  0.00    -0.550 OA
ATOM     17  O   UNL     1     -20.461 -21.204 -10.945  1.00  0.00    -0.550 OA
ENDBRANCH  14  15
ENDBRANCH  13  14
ENDBRANCH  12  13
ENDBRANCH  11  12
ENDBRANCH  10  11
ENDBRANCH   9  10
ENDBRANCH   8   9
ENDBRANCH   7   8
ENDBRANCH   6   7
ENDBRANCH   5   6
ENDBRANCH   4   5
ENDBRANCH   3   4
ENDBRANCH   2   3
ENDBRANCH   1   2
BRANCH   1  18
ATOM     18  C   UNL     1     -19.366 -15.214 -18.186  1.00  0.00     0.000 C 
BRANCH  18  19
ATOM     19  C   UNL     1     -18.887 -13.755 -18.315  1.00  0.00     0.000 C 
BRANCH  19  20
ATOM     20  C   UNL     1     -19.272 -13.115 -19.660  1.00  0.00     0.000 C 
BRANCH  20  21
ATOM     21  C   UNL     1     -20.405 -12.077 -19.513  1.00  0.00     0.000 C 
BRANCH  21  22
ATOM     22  C   UNL     1     -21.571 -12.300 -20.490  1.00  0.00     0.000 C 
BRANCH  22  23
ATOM     23  C   UNL     1     -22.531 -13.403 -20.015  1.00  0.00     0.000 C 
BRANCH  23  24
ATOM     24  C   UNL     1     -22.735 -14.510 -21.061  1.00  0.00    -0.000 C 
BRANCH  24  25
ATOM     25  C   UNL     1     -21.763 -15.690 -20.893  1.00  0.00    -0.000 C 
BRANCH  25  26
ATOM     26  C   UNL     1     -21.106 -16.099 -22.222  1.00  0.00    -0.000 C 
BRANCH  26  27
ATOM     27  C   UNL     1     -21.964 -15.706 -23.440  1.00  0.00    -0.000 C 
BRANCH  27  28
ATOM     28  C   UNL     1     -21.197 -15.851 -24.773  1.00  0.00    -0.000 C 
BRANCH  28  29
ATOM     29  C   UNL     1     -20.451 -14.572 -25.209  1.00  0.00    -0.000 C 
BRANCH  29  30
ATOM     30  C   UNL     1     -18.943 -14.562 -24.910  1.00  0.00    -0.000 C 
BRANCH  30  31
ATOM     31  C   UNL     1     -18.585 -13.719 -23.676  1.00  0.00    -0.003 C 
ATOM     32  C   UNL     1     -19.631 -12.635 -23.422  1.00  0.00     0.004 C 
ENDBRANCH  30  31
ENDBRANCH  29  30
ENDBRANCH  28  29
ENDBRANCH  27  28
ENDBRANCH  26  27
ENDBRANCH  25  26
ENDBRANCH  24  25
ENDBRANCH  23  24
ENDBRANCH  22  23
ENDBRANCH  21  22
ENDBRANCH  20  21
ENDBRANCH  19  20
ENDBRANCH  18  19
ENDBRANCH   1  18
TORSDOF 28
ENDMDL
MODEL 9
REMARK VINA RESULT:    -4.170      4.765      9.099
REMARK INTER + INTRA:         -16.044
REMARK INTER:                 -12.220
REMARK INTRA:                  -3.824
REMARK UNBOUND:                -5.050
REMARK SMILES CCCCCCCCCCCCCCCCCCCCCCCCCCCCCC(=O)[O-]
REMARK SMILES IDX 16 1 17 2 18 3 19 4 20 5 21 6 22 7 23 8 24 9 25 10 26 11
REMARK SMILES IDX 27 12 28 13 29 14 30 15 31 16 32 17 15 18 14 19 13 20 12 21
REMARK SMILES IDX 11 22 10 23 9 24 8 25 7 26 6 27 5 28 4 29 3 30 2 31 1 32
REMARK H PARENT
REMARK Flexibility Score: inf
ROOT
ATOM      1  C   UNL     1     -23.932 -15.700 -14.695  1.00  0.00     0.000 C 
ENDROOT
BRANCH   1   2
ATOM      2  C   UNL     1     -25.109 -15.111 -13.894  1.00  0.00     0.000 C 
BRANCH   2   3
ATOM      3  C   UNL     1     -26.255 -16.126 -13.699  1.00  0.00     0.000 C 
BRANCH   3   4
ATOM      4  C   UNL     1     -26.281 -16.789 -12.310  1.00  0.00     0.000 C 
BRANCH   4   5
ATOM      5  C   UNL     1     -26.009 -18.301 -12.359  1.00  0.00     0.000 C 
BRANCH   5   6
ATOM      6  C   UNL     1     -24.513 -18.640 -12.267  1.00  0.00     0.000 C 
BRANCH   6   7
ATOM      7  C   UNL     1     -23.936 -19.148 -13.596  1.00  0.00     0.000 C 
BRANCH   7   8
ATOM      8  C   UNL     1     -22.444 -18.808 -13.704  1.00  0.00     0.000 C 
BRANCH   8   9
ATOM      9  C   UNL     1     -21.615 -20.046 -14.082  1.00  0.00     0.000 C 
BRANCH   9  10
ATOM     10  C   UNL     1     -20.561 -20.394 -13.017  1.00  0.00     0.000 C 
BRANCH  10  11
ATOM     11  C   UNL     1     -21.194 -20.868 -11.697  1.00  0.00     0.000 C 
BRANCH  11  12
ATOM     12  C   UNL     1     -20.707 -22.264 -11.273  1.00  0.00     0.000 C 
BRANCH  12  13
ATOM     13  C   UNL     1     -19.581 -22.818 -12.171  1.00  0.00     0.006 C 
BRANCH  13  14
ATOM     14  C   UNL     1     -19.919 -24.208 -12.726  1.00  0.00     0.053 C 
BRANCH  14  15
ATOM     15  C   UNL     1     -21.367 -24.289 -13.096  1.00  0.00     0.041 C 
ATOM     16  O   UNL     1     -22.160 -24.978 -12.402  1.00  0.00    -0.550 OA
ATOM     17  O   UNL     1     -21.847 -23.572 -14.185  1.00  0.00    -0.550 OA
ENDBRANCH  14  15
ENDBRANCH  13  14
ENDBRANCH  12  13
ENDBRANCH  11  12
ENDBRANCH  10  11
ENDBRANCH   9  10
ENDBRANCH   8   9
ENDBRANCH   7   8
ENDBRANCH   6   7
ENDBRANCH   5   6
ENDBRANCH   4   5
ENDBRANCH   3   4
ENDBRANCH   2   3
ENDBRANCH   1   2
BRANCH   1  18
ATOM     18  C   UNL     1     -23.103 -14.621 -15.418  1.00  0.00     0.000 C 
BRANCH  18  19
ATOM     19  C   UNL     1     -23.441 -13.170 -15.028  1.00  0.00     0.000 C 
BRANCH  19  20
ATOM     20  C   UNL     1     -23.133 -12.161 -16.148  1.00  0.00     0.000 C 
BRANCH  20  21
ATOM     21  C   UNL     1     -22.699 -12.854 -17.458  1.00  0.00     0.000 C 
BRANCH  21  22
ATOM     22  C   UNL     1     -22.185 -11.876 -18.528  1.00  0.00     0.000 C 
BRANCH  22  23
ATOM     23  C   UNL     1     -22.151 -12.505 -19.930  1.00  0.00     0.000 C 
BRANCH  23  24
ATOM     24  C   UNL     1     -23.052 -13.745 -20.052  1.00  0.00    -0.000 C 
BRANCH  24  25
ATOM     25  C   UNL     1     -22.529 -14.776 -21.066  1.00  0.00    -0.000 C 
BRANCH  25  26
ATOM     26  C   UNL     1     -22.345 -16.169 -20.440  1.00  0.00    -0.000 C 
BRANCH  26  27
ATOM     27  C   UNL     1     -22.534 -16.149 -18.911  1.00  0.00    -0.000 C 
BRANCH  27  28
ATOM     28  C   UNL     1     -21.930 -17.394 -18.225  1.00  0.00    -0.000 C 
BRANCH  28  29
ATOM     29  C   UNL     1     -20.652 -17.103 -17.409  1.00  0.00    -0.000 C 
BRANCH  29  30
ATOM     30  C   UNL     1     -20.354 -15.613 -17.173  1.00  0.00    -0.000 C 
BRANCH  30  31
ATOM     31  C   UNL     1     -19.095 -15.132 -17.909  1.00  0.00    -0.003 C 
ATOM     32  C   UNL     1     -18.916 -13.620 -17.778  1.00  0.00     0.004 C 
ENDBRANCH  30  31
ENDBRANCH  29  30
ENDBRANCH  28  29
ENDBRANCH  27  28
ENDBRANCH  26  27
ENDBRANCH  25  26
ENDBRANCH  24  25
ENDBRANCH  23  24
ENDBRANCH  22  23
ENDBRANCH  21  22
ENDBRANCH  20  21
ENDBRANCH  19  20
ENDBRANCH  18  19
ENDBRANCH   1  18
TORSDOF 28
ENDMDL
