MODEL 1
REMARK VINA RESULT:    -5.823      0.000      0.000
REMARK INTER + INTRA:          -6.817
REMARK INTER:                  -6.674
REMARK INTRA:                  -0.144
REMARK UNBOUND:                -0.144
REMARK SMILES O=C([O-])C=Cc1ccc(O)cc1
REMARK SMILES IDX 6 1 7 2 12 3 8 4 11 5 9 6 5 7 4 8 2 9 1 10 3 11 10 12
REMARK H PARENT 10 13
REMARK Flexibility Score: inf
ROOT
ATOM      1  C   UNL     1     -31.325  -2.973 -18.246  1.00  0.00    -0.025 A 
ATOM      2  C   UNL     1     -32.439  -2.486 -18.952  1.00  0.00     0.012 A 
ATOM      3  C   UNL     1     -30.066  -2.973 -18.865  1.00  0.00     0.012 A 
ATOM      4  C   UNL     1     -32.302  -2.055 -20.275  1.00  0.00     0.047 A 
ATOM      5  C   UNL     1     -29.931  -2.542 -20.189  1.00  0.00     0.047 A 
ATOM      6  C   UNL     1     -31.046  -2.086 -20.898  1.00  0.00     0.115 A 
ENDROOT
BRANCH   1   7
ATOM      7  C   UNL     1     -31.435  -3.382 -16.830  1.00  0.00     0.010 C 
ATOM      8  C   UNL     1     -32.173  -4.404 -16.370  1.00  0.00     0.025 C 
BRANCH   8   9
ATOM      9  C   UNL     1     -32.862  -5.411 -17.201  1.00  0.00     0.064 C 
ATOM     10  O   UNL     1     -32.318  -6.506 -17.497  1.00  0.00    -0.545 OA
ATOM     11  O   UNL     1     -34.168  -5.171 -17.608  1.00  0.00    -0.545 OA
ENDBRANCH   8   9
ENDBRANCH   1   7
BRANCH   6  12
ATOM     12  O   UNL     1     -30.898  -1.661 -22.217  1.00  0.00    -0.508 OA
ATOM     13  H   UNL     1     -31.000  -2.302 -22.994  1.00  0.00     0.293 HD
ENDBRANCH   6  12
TORSDOF 3
ENDMDL
MODEL 2
REMARK VINA RESULT:    -5.382      6.136      9.356
REMARK INTER + INTRA:          -6.312
REMARK INTER:                  -6.048
REMARK INTRA:                  -0.264
REMARK UNBOUND:                -0.144
REMARK SMILES O=C([O-])C=Cc1ccc(O)cc1
REMARK SMILES IDX 6 1 7 2 12 3 8 4 11 5 9 6 5 7 4 8 2 9 1 10 3 11 10 12
REMARK H PARENT 10 13
REMARK Flexibility Score: inf
ROOT
ATOM      1  C   UNL     1     -37.314  -6.913 -13.731  1.00  0.00    -0.025 A 
ATOM      2  C   UNL     1     -37.284  -8.316 -13.829  1.00  0.00     0.012 A 
ATOM      3  C   UNL     1     -38.538  -6.268 -13.497  1.00  0.00     0.012 A 
ATOM      4  C   UNL     1     -38.469  -9.054 -13.745  1.00  0.00     0.047 A 
ATOM      5  C   UNL     1     -39.722  -7.008 -13.413  1.00  0.00     0.047 A 
ATOM      6  C   UNL     1     -39.691  -8.400 -13.540  1.00  0.00     0.115 A 
ENDROOT
BRANCH   1   7
ATOM      7  C   UNL     1     -36.070  -6.116 -13.762  1.00  0.00     0.010 C 
ATOM      8  C   UNL     1     -35.565  -5.504 -14.845  1.00  0.00     0.025 C 
BRANCH   8   9
ATOM      9  C   UNL     1     -36.242  -5.362 -16.148  1.00  0.00     0.064 C 
ATOM     10  O   UNL     1     -35.973  -6.119 -17.118  1.00  0.00    -0.545 OA
ATOM     11  O   UNL     1     -37.247  -4.414 -16.288  1.00  0.00    -0.545 OA
ENDBRANCH   8   9
ENDBRANCH   1   7
BRANCH   6  12
ATOM     12  O   UNL     1     -40.878  -9.125 -13.457  1.00  0.00    -0.508 OA
ATOM     13  H   UNL     1     -41.554  -9.123 -14.211  1.00  0.00     0.293 HD
ENDBRANCH   6  12
TORSDOF 3
ENDMDL
MODEL 3
REMARK VINA RESULT:    -5.318      6.165      9.338
REMARK INTER + INTRA:          -6.239
REMARK INTER:                  -6.001
REMARK INTRA:                  -0.238
REMARK UNBOUND:                -0.144
REMARK SMILES O=C([O-])C=Cc1ccc(O)cc1
REMARK SMILES IDX 6 1 7 2 12 3 8 4 11 5 9 6 5 7 4 8 2 9 1 10 3 11 10 12
REMARK H PARENT 10 13
REMARK Flexibility Score: inf
ROOT
ATOM      1  C   UNL     1     -37.335  -6.849 -13.568  1.00  0.00    -0.025 A 
ATOM      2  C   UNL     1     -38.580  -6.215 -13.402  1.00  0.00     0.012 A 
ATOM      3  C   UNL     1     -37.293  -8.238 -13.761  1.00  0.00     0.012 A 
ATOM      4  C   UNL     1     -39.757  -6.970 -13.378  1.00  0.00     0.047 A 
ATOM      5  C   UNL     1     -38.471  -8.991 -13.736  1.00  0.00     0.047 A 
ATOM      6  C   UNL     1     -39.704  -8.361 -13.541  1.00  0.00     0.115 A 
ENDROOT
BRANCH   1   7
ATOM      7  C   UNL     1     -36.084  -6.068 -13.652  1.00  0.00     0.010 C 
ATOM      8  C   UNL     1     -35.609  -5.475 -14.759  1.00  0.00     0.025 C 
BRANCH   8   9
ATOM      9  C   UNL     1     -36.329  -5.341 -16.040  1.00  0.00     0.064 C 
ATOM     10  O   UNL     1     -37.243  -4.489 -16.197  1.00  0.00    -0.545 OA
ATOM     11  O   UNL     1     -35.942  -6.126 -17.118  1.00  0.00    -0.545 OA
ENDBRANCH   8   9
ENDBRANCH   1   7
BRANCH   6  12
ATOM     12  O   UNL     1     -40.870  -9.123 -13.517  1.00  0.00    -0.508 OA
ATOM     13  H   UNL     1     -41.644  -8.888 -12.907  1.00  0.00     0.293 HD
ENDBRANCH   6  12
TORSDOF 3
ENDMDL
MODEL 4
REMARK VINA RESULT:    -5.240      5.824      9.062
REMARK INTER + INTRA:          -6.150
REMARK INTER:                  -5.860
REMARK INTRA:                  -0.290
REMARK UNBOUND:                -0.144
REMARK SMILES O=C([O-])C=Cc1ccc(O)cc1
REMARK SMILES IDX 6 1 7 2 12 3 8 4 11 5 9 6 5 7 4 8 2 9 1 10 3 11 10 12
REMARK H PARENT 10 13
REMARK Flexibility Score: inf
ROOT
ATOM      1  C   UNL     1     -37.114  -6.516 -13.632  1.00  0.00    -0.025 A 
ATOM      2  C   UNL     1     -36.910  -7.906 -13.700  1.00  0.00     0.012 A 
ATOM      3  C   UNL     1     -38.423  -6.016 -13.574  1.00  0.00     0.012 A 
ATOM      4  C   UNL     1     -38.004  -8.776 -13.760  1.00  0.00     0.047 A 
ATOM      5  C   UNL     1     -39.515  -6.888 -13.634  1.00  0.00     0.047 A 
ATOM      6  C   UNL     1     -39.309  -8.268 -13.732  1.00  0.00     0.115 A 
ENDROOT
BRANCH   1   7
ATOM      7  C   UNL     1     -35.976  -5.581 -13.513  1.00  0.00     0.010 C 
ATOM      8  C   UNL     1     -35.309  -5.032 -14.540  1.00  0.00     0.025 C 
BRANCH   8   9
ATOM      9  C   UNL     1     -35.696  -5.115 -15.961  1.00  0.00     0.064 C 
ATOM     10  O   UNL     1     -36.360  -4.202 -16.519  1.00  0.00    -0.545 OA
ATOM     11  O   UNL     1     -35.258  -6.194 -16.719  1.00  0.00    -0.545 OA
ENDBRANCH   8   9
ENDBRANCH   1   7
BRANCH   6  12
ATOM     12  O   UNL     1     -40.406  -9.125 -13.793  1.00  0.00    -0.508 OA
ATOM     13  H   UNL     1     -40.499  -9.912 -13.162  1.00  0.00     0.293 HD
ENDBRANCH   6  12
TORSDOF 3
ENDMDL
MODEL 5
REMARK VINA RESULT:    -5.096      5.665      8.730
REMARK INTER + INTRA:          -5.984
REMARK INTER:                  -5.698
REMARK INTRA:                  -0.286
REMARK UNBOUND:                -0.144
REMARK SMILES O=C([O-])C=Cc1ccc(O)cc1
REMARK SMILES IDX 6 1 7 2 12 3 8 4 11 5 9 6 5 7 4 8 2 9 1 10 3 11 10 12
REMARK H PARENT 10 13
REMARK Flexibility Score: inf
ROOT
ATOM      1  C   UNL     1     -37.107  -6.182 -13.456  1.00  0.00    -0.025 A 
ATOM      2  C   UNL     1     -38.451  -5.779 -13.553  1.00  0.00     0.012 A 
ATOM      3  C   UNL     1     -36.760  -7.502 -13.782  1.00  0.00     0.012 A 
ATOM      4  C   UNL     1     -39.438  -6.700 -13.919  1.00  0.00     0.047 A 
ATOM      5  C   UNL     1     -37.749  -8.421 -14.149  1.00  0.00     0.047 A 
ATOM      6  C   UNL     1     -39.088  -8.025 -14.215  1.00  0.00     0.115 A 
ENDROOT
BRANCH   1   7
ATOM      7  C   UNL     1     -36.040  -5.214 -13.124  1.00  0.00     0.010 C 
ATOM      8  C   UNL     1     -35.335  -4.498 -14.013  1.00  0.00     0.025 C 
BRANCH   8   9
ATOM      9  C   UNL     1     -35.612  -4.407 -15.460  1.00  0.00     0.064 C 
ATOM     10  O   UNL     1     -36.314  -3.480 -15.941  1.00  0.00    -0.545 OA
ATOM     11  O   UNL     1     -35.028  -5.330 -16.319  1.00  0.00    -0.545 OA
ENDBRANCH   8   9
ENDBRANCH   1   7
BRANCH   6  12
ATOM     12  O   UNL     1     -40.063  -8.952 -14.580  1.00  0.00    -0.508 OA
ATOM     13  H   UNL     1     -40.480  -9.576 -13.900  1.00  0.00     0.293 HD
ENDBRANCH   6  12
TORSDOF 3
ENDMDL
MODEL 6
REMARK VINA RESULT:    -5.078      5.801      7.644
REMARK INTER + INTRA:          -5.964
REMARK INTER:                  -5.752
REMARK INTRA:                  -0.211
REMARK UNBOUND:                -0.144
REMARK SMILES O=C([O-])C=Cc1ccc(O)cc1
REMARK SMILES IDX 6 1 7 2 12 3 8 4 11 5 9 6 5 7 4 8 2 9 1 10 3 11 10 12
REMARK H PARENT 10 13
REMARK Flexibility Score: inf
ROOT
ATOM      1  C   UNL     1     -36.341  -6.691 -13.989  1.00  0.00    -0.025 A 
ATOM      2  C   UNL     1     -36.270  -5.566 -13.149  1.00  0.00     0.012 A 
ATOM      3  C   UNL     1     -35.997  -6.560 -15.343  1.00  0.00     0.012 A 
ATOM      4  C   UNL     1     -35.910  -4.319 -13.670  1.00  0.00     0.047 A 
ATOM      5  C   UNL     1     -35.636  -5.312 -15.862  1.00  0.00     0.047 A 
ATOM      6  C   UNL     1     -35.596  -4.189 -15.029  1.00  0.00     0.115 A 
ENDROOT
BRANCH   1   7
ATOM      7  C   UNL     1     -36.666  -8.029 -13.451  1.00  0.00     0.010 C 
ATOM      8  C   UNL     1     -37.853  -8.646 -13.564  1.00  0.00     0.025 C 
BRANCH   8   9
ATOM      9  C   UNL     1     -38.986  -8.188 -14.390  1.00  0.00     0.064 C 
ATOM     10  O   UNL     1     -39.962  -7.571 -13.888  1.00  0.00    -0.545 OA
ATOM     11  O   UNL     1     -38.943  -8.383 -15.765  1.00  0.00    -0.545 OA
ENDBRANCH   8   9
ENDBRANCH   1   7
BRANCH   6  12
ATOM     12  O   UNL     1     -35.237  -2.952 -15.560  1.00  0.00    -0.508 OA
ATOM     13  H   UNL     1     -34.493  -2.863 -16.241  1.00  0.00     0.293 HD
ENDBRANCH   6  12
TORSDOF 3
ENDMDL
MODEL 7
REMARK VINA RESULT:    -4.928      6.535      8.837
REMARK INTER + INTRA:          -5.791
REMARK INTER:                  -5.754
REMARK INTRA:                  -0.037
REMARK UNBOUND:                -0.144
REMARK SMILES O=C([O-])C=Cc1ccc(O)cc1
REMARK SMILES IDX 6 1 7 2 12 3 8 4 11 5 9 6 5 7 4 8 2 9 1 10 3 11 10 12
REMARK H PARENT 10 13
REMARK Flexibility Score: inf
ROOT
ATOM      1  C   UNL     1     -37.950  -7.725 -14.608  1.00  0.00    -0.025 A 
ATOM      2  C   UNL     1     -38.157  -7.074 -15.838  1.00  0.00     0.012 A 
ATOM      3  C   UNL     1     -36.895  -7.310 -13.781  1.00  0.00     0.012 A 
ATOM      4  C   UNL     1     -37.288  -6.060 -16.253  1.00  0.00     0.047 A 
ATOM      5  C   UNL     1     -36.028  -6.295 -14.198  1.00  0.00     0.047 A 
ATOM      6  C   UNL     1     -36.219  -5.671 -15.435  1.00  0.00     0.115 A 
ENDROOT
BRANCH   1   7
ATOM      7  C   UNL     1     -38.885  -8.761 -14.124  1.00  0.00     0.010 C 
ATOM      8  C   UNL     1     -39.995  -8.532 -13.403  1.00  0.00     0.025 C 
BRANCH   8   9
ATOM      9  C   UNL     1     -40.579  -7.208 -13.118  1.00  0.00     0.064 C 
ATOM     10  O   UNL     1     -39.894  -6.280 -12.613  1.00  0.00    -0.545 OA
ATOM     11  O   UNL     1     -41.897  -6.959 -13.478  1.00  0.00    -0.545 OA
ENDBRANCH   8   9
ENDBRANCH   1   7
BRANCH   6  12
ATOM     12  O   UNL     1     -35.346  -4.662 -15.839  1.00  0.00    -0.508 OA
ATOM     13  H   UNL     1     -34.372  -4.664 -15.563  1.00  0.00     0.293 HD
ENDBRANCH   6  12
TORSDOF 3
ENDMDL
MODEL 8
REMARK VINA RESULT:    -4.922      3.889      7.111
REMARK INTER + INTRA:          -5.785
REMARK INTER:                  -5.530
REMARK INTRA:                  -0.255
REMARK UNBOUND:                -0.144
REMARK SMILES O=C([O-])C=Cc1ccc(O)cc1
REMARK SMILES IDX 6 1 7 2 12 3 8 4 11 5 9 6 5 7 4 8 2 9 1 10 3 11 10 12
REMARK H PARENT 10 13
REMARK Flexibility Score: inf
ROOT
ATOM      1  C   UNL     1     -36.005  -5.273 -15.703  1.00  0.00    -0.025 A 
ATOM      2  C   UNL     1     -36.409  -6.540 -16.160  1.00  0.00     0.012 A 
ATOM      3  C   UNL     1     -35.799  -5.073 -14.330  1.00  0.00     0.012 A 
ATOM      4  C   UNL     1     -36.652  -7.574 -15.250  1.00  0.00     0.047 A 
ATOM      5  C   UNL     1     -36.042  -6.108 -13.421  1.00  0.00     0.047 A 
ATOM      6  C   UNL     1     -36.472  -7.358 -13.877  1.00  0.00     0.115 A 
ENDROOT
BRANCH   1   7
ATOM      7  C   UNL     1     -35.690  -4.182 -16.649  1.00  0.00     0.010 C 
ATOM      8  C   UNL     1     -34.467  -3.885 -17.114  1.00  0.00     0.025 C 
BRANCH   8   9
ATOM      9  C   UNL     1     -33.249  -4.693 -16.913  1.00  0.00     0.064 C 
ATOM     10  O   UNL     1     -33.085  -5.796 -17.499  1.00  0.00    -0.545 OA
ATOM     11  O   UNL     1     -32.231  -4.193 -16.112  1.00  0.00    -0.545 OA
ENDBRANCH   8   9
ENDBRANCH   1   7
BRANCH   6  12
ATOM     12  O   UNL     1     -36.712  -8.380 -12.960  1.00  0.00    -0.508 OA
ATOM     13  H   UNL     1     -36.913  -8.182 -11.987  1.00  0.00     0.293 HD
ENDBRANCH   6  12
TORSDOF 3
ENDMDL
MODEL 9
REMARK VINA RESULT:    -4.837      4.040      7.029
REMARK INTER + INTRA:          -5.687
REMARK INTER:                  -5.407
REMARK INTRA:                  -0.281
REMARK UNBOUND:                -0.144
REMARK SMILES O=C([O-])C=Cc1ccc(O)cc1
REMARK SMILES IDX 6 1 7 2 12 3 8 4 11 5 9 6 5 7 4 8 2 9 1 10 3 11 10 12
REMARK H PARENT 10 13
REMARK Flexibility Score: inf
ROOT
ATOM      1  C   UNL     1     -36.204  -5.405 -15.452  1.00  0.00    -0.025 A 
ATOM      2  C   UNL     1     -37.328  -5.076 -16.232  1.00  0.00     0.012 A 
ATOM      3  C   UNL     1     -36.064  -6.714 -14.970  1.00  0.00     0.012 A 
ATOM      4  C   UNL     1     -38.318  -6.032 -16.479  1.00  0.00     0.047 A 
ATOM      5  C   UNL     1     -37.055  -7.669 -15.219  1.00  0.00     0.047 A 
ATOM      6  C   UNL     1     -38.185  -7.330 -15.969  1.00  0.00     0.115 A 
ENDROOT
BRANCH   1   7
ATOM      7  C   UNL     1     -35.119  -4.428 -15.224  1.00  0.00     0.010 C 
ATOM      8  C   UNL     1     -34.022  -4.291 -15.986  1.00  0.00     0.025 C 
BRANCH   8   9
ATOM      9  C   UNL     1     -33.785  -4.957 -17.281  1.00  0.00     0.064 C 
ATOM     10  O   UNL     1     -34.297  -4.527 -18.347  1.00  0.00    -0.545 OA
ATOM     11  O   UNL     1     -32.921  -6.044 -17.334  1.00  0.00    -0.545 OA
ENDBRANCH   8   9
ENDBRANCH   1   7
BRANCH   6  12
ATOM     12  O   UNL     1     -39.167  -8.290 -16.208  1.00  0.00    -0.508 OA
ATOM     13  H   UNL     1     -40.110  -8.029 -16.467  1.00  0.00     0.293 HD
ENDBRANCH   6  12
TORSDOF 3
ENDMDL
