MODEL 1
REMARK VINA RESULT:     6.389      0.000      0.000
REMARK INTER + INTRA:          14.884
REMARK INTER:                  16.101
REMARK INTRA:                  -1.217
REMARK UNBOUND:                -1.217
REMARK SMILES CCCCCCCCCCCCCCCCCCCCCCCCCCCC(=O)[O-]
REMARK SMILES IDX 15 1 16 2 17 3 18 4 19 5 20 6 21 7 22 8 23 9 24 10 25 11
REMARK SMILES IDX 26 12 27 13 28 14 29 15 30 16 14 17 13 18 12 19 11 20 10 21
REMARK SMILES IDX 9 22 8 23 7 24 6 25 5 26 4 27 3 28 2 29 1 30
REMARK H PARENT
REMARK Flexibility Score: inf
ROOT
ATOM      1  C   UNL     1       3.355 -24.866  -6.111  1.00  0.00     0.000 C 
ENDROOT
BRANCH   1   2
ATOM      2  C   UNL     1       3.819 -24.308  -4.753  1.00  0.00     0.000 C 
BRANCH   2   3
ATOM      3  C   UNL     1       2.721 -23.521  -4.004  1.00  0.00     0.000 C 
BRANCH   3   4
ATOM      4  C   UNL     1       3.265 -22.663  -2.842  1.00  0.00     0.000 C 
BRANCH   4   5
ATOM      5  C   UNL     1       2.165 -21.913  -2.070  1.00  0.00     0.000 C 
BRANCH   5   6
ATOM      6  C   UNL     1       0.786 -22.027  -2.748  1.00  0.00     0.000 C 
BRANCH   6   7
ATOM      7  C   UNL     1      -0.367 -21.754  -1.763  1.00  0.00     0.000 C 
BRANCH   7   8
ATOM      8  C   UNL     1      -1.757 -21.767  -2.429  1.00  0.00     0.000 C 
BRANCH   8   9
ATOM      9  C   UNL     1      -1.702 -21.318  -3.897  1.00  0.00     0.000 C 
BRANCH   9  10
ATOM     10  C   UNL     1      -3.018 -21.640  -4.618  1.00  0.00     0.000 C 
BRANCH  10  11
ATOM     11  C   UNL     1      -2.802 -22.164  -6.049  1.00  0.00     0.000 C 
BRANCH  11  12
ATOM     12  C   UNL     1      -3.804 -21.628  -7.093  1.00  0.00     0.006 C 
BRANCH  12  13
ATOM     13  C   UNL     1      -4.936 -20.769  -6.510  1.00  0.00     0.053 C 
BRANCH  13  14
ATOM     14  C   UNL     1      -4.610 -19.308  -6.550  1.00  0.00     0.041 C 
ATOM     15  O   UNL     1      -3.902 -18.790  -5.645  1.00  0.00    -0.550 OA
ATOM     16  O   UNL     1      -5.122 -18.509  -7.562  1.00  0.00    -0.550 OA
ENDBRANCH  13  14
ENDBRANCH  12  13
ENDBRANCH  11  12
ENDBRANCH  10  11
ENDBRANCH   9  10
ENDBRANCH   8   9
ENDBRANCH   7   8
ENDBRANCH   6   7
ENDBRANCH   5   6
ENDBRANCH   4   5
ENDBRANCH   3   4
ENDBRANCH   2   3
ENDBRANCH   1   2
BRANCH   1  17
ATOM     17  C   UNL     1       3.093 -26.381  -6.057  1.00  0.00     0.000 C 
BRANCH  17  18
ATOM     18  C   UNL     1       2.455 -26.925  -7.348  1.00  0.00     0.000 C 
BRANCH  18  19
ATOM     19  C   UNL     1       1.959 -28.382  -7.265  1.00  0.00     0.000 C 
BRANCH  19  20
ATOM     20  C   UNL     1       2.965 -29.435  -7.761  1.00  0.00     0.000 C 
BRANCH  20  21
ATOM     21  C   UNL     1       2.654 -30.850  -7.236  1.00  0.00     0.000 C 
BRANCH  21  22
ATOM     22  C   UNL     1       2.259 -30.857  -5.750  1.00  0.00    -0.000 C 
BRANCH  22  23
ATOM     23  C   UNL     1       1.444 -32.101  -5.358  1.00  0.00    -0.000 C 
BRANCH  23  24
ATOM     24  C   UNL     1       0.030 -32.090  -5.966  1.00  0.00    -0.000 C 
BRANCH  24  25
ATOM     25  C   UNL     1      -1.066 -31.967  -4.897  1.00  0.00    -0.000 C 
BRANCH  25  26
ATOM     26  C   UNL     1      -2.127 -30.933  -5.310  1.00  0.00    -0.000 C 
BRANCH  26  27
ATOM     27  C   UNL     1      -3.485 -31.173  -4.629  1.00  0.00    -0.000 C 
BRANCH  27  28
ATOM     28  C   UNL     1      -4.517 -31.812  -5.575  1.00  0.00    -0.000 C 
BRANCH  28  29
ATOM     29  C   UNL     1      -4.204 -31.555  -7.055  1.00  0.00    -0.003 C 
ATOM     30  C   UNL     1      -4.922 -30.320  -7.599  1.00  0.00     0.004 C 
ENDBRANCH  28  29
ENDBRANCH  27  28
ENDBRANCH  26  27
ENDBRANCH  25  26
ENDBRANCH  24  25
ENDBRANCH  23  24
ENDBRANCH  22  23
ENDBRANCH  21  22
ENDBRANCH  20  21
ENDBRANCH  19  20
ENDBRANCH  18  19
ENDBRANCH  17  18
ENDBRANCH   1  17
TORSDOF 26
ENDMDL
MODEL 2
REMARK VINA RESULT:     7.388      1.652      2.161
REMARK INTER + INTRA:          17.400
REMARK INTER:                  17.561
REMARK INTRA:                  -0.161
REMARK UNBOUND:                -1.217
REMARK SMILES CCCCCCCCCCCCCCCCCCCCCCCCCCCC(=O)[O-]
REMARK SMILES IDX 15 1 16 2 17 3 18 4 19 5 20 6 21 7 22 8 23 9 24 10 25 11
REMARK SMILES IDX 26 12 27 13 28 14 29 15 30 16 14 17 13 18 12 19 11 20 10 21
REMARK SMILES IDX 9 22 8 23 7 24 6 25 5 26 4 27 3 28 2 29 1 30
REMARK H PARENT
REMARK Flexibility Score: inf
ROOT
ATOM      1  C   UNL     1       3.556 -24.047  -5.486  1.00  0.00     0.000 C 
ENDROOT
BRANCH   1   2
ATOM      2  C   UNL     1       3.463 -23.887  -3.957  1.00  0.00     0.000 C 
BRANCH   2   3
ATOM      3  C   UNL     1       2.156 -23.211  -3.487  1.00  0.00     0.000 C 
BRANCH   3   4
ATOM      4  C   UNL     1       2.334 -22.347  -2.221  1.00  0.00     0.000 C 
BRANCH   4   5
ATOM      5  C   UNL     1       1.034 -21.662  -1.761  1.00  0.00     0.000 C 
BRANCH   5   6
ATOM      6  C   UNL     1      -0.219 -22.279  -2.413  1.00  0.00     0.000 C 
BRANCH   6   7
ATOM      7  C   UNL     1      -1.330 -21.234  -2.635  1.00  0.00     0.000 C 
BRANCH   7   8
ATOM      8  C   UNL     1      -1.875 -21.218  -4.076  1.00  0.00     0.000 C 
BRANCH   8   9
ATOM      9  C   UNL     1      -2.405 -19.835  -4.481  1.00  0.00     0.000 C 
BRANCH   9  10
ATOM     10  C   UNL     1      -3.095 -19.892  -5.851  1.00  0.00     0.000 C 
BRANCH  10  11
ATOM     11  C   UNL     1      -4.418 -20.676  -5.821  1.00  0.00     0.000 C 
BRANCH  11  12
ATOM     12  C   UNL     1      -4.365 -22.064  -6.493  1.00  0.00     0.006 C 
BRANCH  12  13
ATOM     13  C   UNL     1      -3.200 -22.252  -7.478  1.00  0.00     0.053 C 
BRANCH  13  14
ATOM     14  C   UNL     1      -1.947 -22.694  -6.788  1.00  0.00     0.041 C 
ATOM     15  O   UNL     1      -0.825 -22.517  -7.333  1.00  0.00    -0.550 OA
ATOM     16  O   UNL     1      -2.019 -23.339  -5.561  1.00  0.00    -0.550 OA
ENDBRANCH  13  14
ENDBRANCH  12  13
ENDBRANCH  11  12
ENDBRANCH  10  11
ENDBRANCH   9  10
ENDBRANCH   8   9
ENDBRANCH   7   8
ENDBRANCH   6   7
ENDBRANCH   5   6
ENDBRANCH   4   5
ENDBRANCH   3   4
ENDBRANCH   2   3
ENDBRANCH   1   2
BRANCH   1  17
ATOM     17  C   UNL     1       3.852 -25.500  -5.901  1.00  0.00     0.000 C 
BRANCH  17  18
ATOM     18  C   UNL     1       2.580 -26.296  -6.240  1.00  0.00     0.000 C 
BRANCH  18  19
ATOM     19  C   UNL     1       2.775 -27.429  -7.266  1.00  0.00     0.000 C 
BRANCH  19  20
ATOM     20  C   UNL     1       2.134 -28.772  -6.875  1.00  0.00     0.000 C 
BRANCH  20  21
ATOM     21  C   UNL     1       3.100 -29.962  -7.032  1.00  0.00     0.000 C 
BRANCH  21  22
ATOM     22  C   UNL     1       2.368 -31.302  -7.207  1.00  0.00    -0.000 C 
BRANCH  22  23
ATOM     23  C   UNL     1       1.969 -31.940  -5.865  1.00  0.00    -0.000 C 
BRANCH  23  24
ATOM     24  C   UNL     1       0.489 -31.699  -5.519  1.00  0.00    -0.000 C 
BRANCH  24  25
ATOM     25  C   UNL     1       0.298 -31.188  -4.082  1.00  0.00    -0.000 C 
BRANCH  25  26
ATOM     26  C   UNL     1      -1.190 -30.962  -3.769  1.00  0.00    -0.000 C 
BRANCH  26  27
ATOM     27  C   UNL     1      -2.120 -31.737  -4.717  1.00  0.00    -0.000 C 
BRANCH  27  28
ATOM     28  C   UNL     1      -3.595 -31.674  -4.284  1.00  0.00    -0.000 C 
BRANCH  28  29
ATOM     29  C   UNL     1      -4.567 -31.858  -5.459  1.00  0.00    -0.003 C 
ATOM     30  C   UNL     1      -4.070 -31.188  -6.739  1.00  0.00     0.004 C 
ENDBRANCH  28  29
ENDBRANCH  27  28
ENDBRANCH  26  27
ENDBRANCH  25  26
ENDBRANCH  24  25
ENDBRANCH  23  24
ENDBRANCH  22  23
ENDBRANCH  21  22
ENDBRANCH  20  21
ENDBRANCH  19  20
ENDBRANCH  18  19
ENDBRANCH  17  18
ENDBRANCH   1  17
TORSDOF 26
ENDMDL
MODEL 3
REMARK VINA RESULT:     7.668      4.039      9.909
REMARK INTER + INTRA:          18.107
REMARK INTER:                  19.287
REMARK INTRA:                  -1.180
REMARK UNBOUND:                -1.217
REMARK SMILES CCCCCCCCCCCCCCCCCCCCCCCCCCCC(=O)[O-]
REMARK SMILES IDX 15 1 16 2 17 3 18 4 19 5 20 6 21 7 22 8 23 9 24 10 25 11
REMARK SMILES IDX 26 12 27 13 28 14 29 15 30 16 14 17 13 18 12 19 11 20 10 21
REMARK SMILES IDX 9 22 8 23 7 24 6 25 5 26 4 27 3 28 2 29 1 30
REMARK H PARENT
REMARK Flexibility Score: inf
ROOT
ATOM      1  C   UNL     1       3.567 -27.226  -5.461  1.00  0.00     0.000 C 
ENDROOT
BRANCH   1   2
ATOM      2  C   UNL     1       2.915 -26.952  -6.829  1.00  0.00     0.000 C 
BRANCH   2   3
ATOM      3  C   UNL     1       2.366 -28.223  -7.514  1.00  0.00     0.000 C 
BRANCH   3   4
ATOM      4  C   UNL     1       2.704 -29.523  -6.755  1.00  0.00     0.000 C 
BRANCH   4   5
ATOM      5  C   UNL     1       2.763 -30.763  -7.665  1.00  0.00     0.000 C 
BRANCH   5   6
ATOM      6  C   UNL     1       3.064 -32.056  -6.880  1.00  0.00     0.000 C 
BRANCH   6   7
ATOM      7  C   UNL     1       2.279 -32.125  -5.556  1.00  0.00     0.000 C 
BRANCH   7   8
ATOM      8  C   UNL     1       0.751 -32.125  -5.750  1.00  0.00     0.000 C 
BRANCH   8   9
ATOM      9  C   UNL     1       0.112 -30.791  -5.337  1.00  0.00     0.000 C 
BRANCH   9  10
ATOM     10  C   UNL     1      -1.289 -31.013  -4.749  1.00  0.00     0.000 C 
BRANCH  10  11
ATOM     11  C   UNL     1      -1.265 -31.273  -3.233  1.00  0.00     0.000 C 
BRANCH  11  12
ATOM     12  C   UNL     1       0.146 -31.352  -2.612  1.00  0.00     0.006 C 
BRANCH  12  13
ATOM     13  C   UNL     1       0.522 -30.152  -1.728  1.00  0.00     0.053 C 
BRANCH  13  14
ATOM     14  C   UNL     1       1.002 -30.579  -0.375  1.00  0.00     0.041 C 
ATOM     15  O   UNL     1       1.579 -29.755   0.383  1.00  0.00    -0.550 OA
ATOM     16  O   UNL     1       0.847 -31.897   0.033  1.00  0.00    -0.550 OA
ENDBRANCH  13  14
ENDBRANCH  12  13
ENDBRANCH  11  12
ENDBRANCH  10  11
ENDBRANCH   9  10
ENDBRANCH   8   9
ENDBRANCH   7   8
ENDBRANCH   6   7
ENDBRANCH   5   6
ENDBRANCH   4   5
ENDBRANCH   3   4
ENDBRANCH   2   3
ENDBRANCH   1   2
BRANCH   1  17
ATOM     17  C   UNL     1       4.022 -25.930  -4.765  1.00  0.00     0.000 C 
BRANCH  17  18
ATOM     18  C   UNL     1       3.891 -24.689  -5.664  1.00  0.00     0.000 C 
BRANCH  18  19
ATOM     19  C   UNL     1       3.203 -23.478  -5.005  1.00  0.00     0.000 C 
BRANCH  19  20
ATOM     20  C   UNL     1       2.884 -23.652  -3.509  1.00  0.00     0.000 C 
BRANCH  20  21
ATOM     21  C   UNL     1       2.882 -22.315  -2.742  1.00  0.00     0.000 C 
BRANCH  21  22
ATOM     22  C   UNL     1       1.926 -22.325  -1.538  1.00  0.00    -0.000 C 
BRANCH  22  23
ATOM     23  C   UNL     1       0.634 -21.532  -1.799  1.00  0.00    -0.000 C 
BRANCH  23  24
ATOM     24  C   UNL     1      -0.250 -22.189  -2.874  1.00  0.00    -0.000 C 
BRANCH  24  25
ATOM     25  C   UNL     1      -1.574 -21.440  -3.083  1.00  0.00    -0.000 C 
BRANCH  25  26
ATOM     26  C   UNL     1      -1.822 -21.159  -4.575  1.00  0.00    -0.000 C 
BRANCH  26  27
ATOM     27  C   UNL     1      -2.961 -22.013  -5.157  1.00  0.00    -0.000 C 
BRANCH  27  28
ATOM     28  C   UNL     1      -3.292 -21.643  -6.614  1.00  0.00    -0.000 C 
BRANCH  28  29
ATOM     29  C   UNL     1      -4.717 -21.095  -6.777  1.00  0.00    -0.003 C 
ATOM     30  C   UNL     1      -4.830 -19.626  -6.368  1.00  0.00     0.004 C 
ENDBRANCH  28  29
ENDBRANCH  27  28
ENDBRANCH  26  27
ENDBRANCH  25  26
ENDBRANCH  24  25
ENDBRANCH  23  24
ENDBRANCH  22  23
ENDBRANCH  21  22
ENDBRANCH  20  21
ENDBRANCH  19  20
ENDBRANCH  18  19
ENDBRANCH  17  18
ENDBRANCH   1  17
TORSDOF 26
ENDMDL
MODEL 4
REMARK VINA RESULT:     7.681      2.222      3.374
REMARK INTER + INTRA:          18.140
REMARK INTER:                  18.818
REMARK INTRA:                  -0.677
REMARK UNBOUND:                -1.217
REMARK SMILES CCCCCCCCCCCCCCCCCCCCCCCCCCCC(=O)[O-]
REMARK SMILES IDX 15 1 16 2 17 3 18 4 19 5 20 6 21 7 22 8 23 9 24 10 25 11
REMARK SMILES IDX 26 12 27 13 28 14 29 15 30 16 14 17 13 18 12 19 11 20 10 21
REMARK SMILES IDX 9 22 8 23 7 24 6 25 5 26 4 27 3 28 2 29 1 30
REMARK H PARENT
REMARK Flexibility Score: inf
ROOT
ATOM      1  C   UNL     1       3.750 -24.802  -5.974  1.00  0.00     0.000 C 
ENDROOT
BRANCH   1   2
ATOM      2  C   UNL     1       4.053 -24.189  -4.594  1.00  0.00     0.000 C 
BRANCH   2   3
ATOM      3  C   UNL     1       2.830 -23.505  -3.944  1.00  0.00     0.000 C 
BRANCH   3   4
ATOM      4  C   UNL     1       3.207 -22.515  -2.821  1.00  0.00     0.000 C 
BRANCH   4   5
ATOM      5  C   UNL     1       1.991 -21.988  -2.038  1.00  0.00     0.000 C 
BRANCH   5   6
ATOM      6  C   UNL     1       0.659 -22.266  -2.762  1.00  0.00     0.000 C 
BRANCH   6   7
ATOM      7  C   UNL     1      -0.550 -21.723  -1.976  1.00  0.00     0.000 C 
BRANCH   7   8
ATOM      8  C   UNL     1      -1.822 -21.578  -2.833  1.00  0.00     0.000 C 
BRANCH   8   9
ATOM      9  C   UNL     1      -1.515 -21.067  -4.248  1.00  0.00     0.000 C 
BRANCH   9  10
ATOM     10  C   UNL     1      -2.766 -21.122  -5.135  1.00  0.00     0.000 C 
BRANCH  10  11
ATOM     11  C   UNL     1      -2.586 -22.030  -6.365  1.00  0.00     0.000 C 
BRANCH  11  12
ATOM     12  C   UNL     1      -3.863 -22.244  -7.204  1.00  0.00     0.006 C 
BRANCH  12  13
ATOM     13  C   UNL     1      -5.122 -21.571  -6.636  1.00  0.00     0.053 C 
BRANCH  13  14
ATOM     14  C   UNL     1      -5.056 -20.078  -6.740  1.00  0.00     0.041 C 
ATOM     15  O   UNL     1      -4.986 -19.522  -7.869  1.00  0.00    -0.550 OA
ATOM     16  O   UNL     1      -5.030 -19.302  -5.590  1.00  0.00    -0.550 OA
ENDBRANCH  13  14
ENDBRANCH  12  13
ENDBRANCH  11  12
ENDBRANCH  10  11
ENDBRANCH   9  10
ENDBRANCH   8   9
ENDBRANCH   7   8
ENDBRANCH   6   7
ENDBRANCH   5   6
ENDBRANCH   4   5
ENDBRANCH   3   4
ENDBRANCH   2   3
ENDBRANCH   1   2
BRANCH   1  17
ATOM     17  C   UNL     1       3.287 -26.266  -5.871  1.00  0.00     0.000 C 
BRANCH  17  18
ATOM     18  C   UNL     1       3.175 -26.957  -7.241  1.00  0.00     0.000 C 
BRANCH  18  19
ATOM     19  C   UNL     1       2.308 -28.231  -7.259  1.00  0.00     0.000 C 
BRANCH  19  20
ATOM     20  C   UNL     1       3.025 -29.492  -7.772  1.00  0.00     0.000 C 
BRANCH  20  21
ATOM     21  C   UNL     1       2.266 -30.789  -7.428  1.00  0.00     0.000 C 
BRANCH  21  22
ATOM     22  C   UNL     1       2.805 -31.472  -6.161  1.00  0.00    -0.000 C 
BRANCH  22  23
ATOM     23  C   UNL     1       1.686 -32.048  -5.275  1.00  0.00    -0.000 C 
BRANCH  23  24
ATOM     24  C   UNL     1       0.644 -30.986  -4.884  1.00  0.00    -0.000 C 
BRANCH  24  25
ATOM     25  C   UNL     1       0.236 -31.081  -3.406  1.00  0.00    -0.000 C 
BRANCH  25  26
ATOM     26  C   UNL     1       1.371 -31.680  -2.557  1.00  0.00    -0.000 C 
BRANCH  26  27
ATOM     27  C   UNL     1       1.185 -31.420  -1.053  1.00  0.00    -0.000 C 
BRANCH  27  28
ATOM     28  C   UNL     1       0.559 -30.044  -0.762  1.00  0.00    -0.000 C 
BRANCH  28  29
ATOM     29  C   UNL     1       1.603 -28.989  -0.370  1.00  0.00    -0.003 C 
ATOM     30  C   UNL     1       2.026 -29.099   1.094  1.00  0.00     0.004 C 
ENDBRANCH  28  29
ENDBRANCH  27  28
ENDBRANCH  26  27
ENDBRANCH  25  26
ENDBRANCH  24  25
ENDBRANCH  23  24
ENDBRANCH  22  23
ENDBRANCH  21  22
ENDBRANCH  20  21
ENDBRANCH  19  20
ENDBRANCH  18  19
ENDBRANCH  17  18
ENDBRANCH   1  17
TORSDOF 26
ENDMDL
MODEL 5
REMARK VINA RESULT:     7.843      3.276      9.421
REMARK INTER + INTRA:          18.549
REMARK INTER:                  20.181
REMARK INTRA:                  -1.632
REMARK UNBOUND:                -1.217
REMARK SMILES CCCCCCCCCCCCCCCCCCCCCCCCCCCC(=O)[O-]
REMARK SMILES IDX 15 1 16 2 17 3 18 4 19 5 20 6 21 7 22 8 23 9 24 10 25 11
REMARK SMILES IDX 26 12 27 13 28 14 29 15 30 16 14 17 13 18 12 19 11 20 10 21
REMARK SMILES IDX 9 22 8 23 7 24 6 25 5 26 4 27 3 28 2 29 1 30
REMARK H PARENT
REMARK Flexibility Score: inf
ROOT
ATOM      1  C   UNL     1       3.300 -27.402  -5.787  1.00  0.00     0.000 C 
ENDROOT
BRANCH   1   2
ATOM      2  C   UNL     1       3.025 -27.130  -7.277  1.00  0.00     0.000 C 
BRANCH   2   3
ATOM      3  C   UNL     1       2.715 -28.408  -8.088  1.00  0.00     0.000 C 
BRANCH   3   4
ATOM      4  C   UNL     1       2.895 -29.708  -7.277  1.00  0.00     0.000 C 
BRANCH   4   5
ATOM      5  C   UNL     1       1.813 -30.763  -7.566  1.00  0.00     0.000 C 
BRANCH   5   6
ATOM      6  C   UNL     1       1.994 -32.040  -6.721  1.00  0.00     0.000 C 
BRANCH   6   7
ATOM      7  C   UNL     1       1.695 -31.795  -5.230  1.00  0.00     0.000 C 
BRANCH   7   8
ATOM      8  C   UNL     1       0.197 -31.591  -4.932  1.00  0.00     0.000 C 
BRANCH   8   9
ATOM      9  C   UNL     1      -0.070 -31.330  -3.443  1.00  0.00     0.000 C 
BRANCH   9  10
ATOM     10  C   UNL     1      -1.519 -31.680  -3.076  1.00  0.00     0.000 C 
BRANCH  10  11
ATOM     11  C   UNL     1      -2.542 -30.720  -3.707  1.00  0.00     0.000 C 
BRANCH  11  12
ATOM     12  C   UNL     1      -3.764 -31.408  -4.351  1.00  0.00     0.006 C 
BRANCH  12  13
ATOM     13  C   UNL     1      -3.503 -32.001  -5.744  1.00  0.00     0.053 C 
BRANCH  13  14
ATOM     14  C   UNL     1      -3.986 -31.101  -6.839  1.00  0.00     0.041 C 
ATOM     15  O   UNL     1      -4.882 -30.245  -6.608  1.00  0.00    -0.550 OA
ATOM     16  O   UNL     1      -3.476 -31.233  -8.123  1.00  0.00    -0.550 OA
ENDBRANCH  13  14
ENDBRANCH  12  13
ENDBRANCH  11  12
ENDBRANCH  10  11
ENDBRANCH   9  10
ENDBRANCH   8   9
ENDBRANCH   7   8
ENDBRANCH   6   7
ENDBRANCH   5   6
ENDBRANCH   4   5
ENDBRANCH   3   4
ENDBRANCH   2   3
ENDBRANCH   1   2
BRANCH   1  17
ATOM     17  C   UNL     1       3.346 -26.105  -4.959  1.00  0.00     0.000 C 
BRANCH  17  18
ATOM     18  C   UNL     1       4.194 -25.003  -5.618  1.00  0.00     0.000 C 
BRANCH  18  19
ATOM     19  C   UNL     1       3.941 -23.580  -5.083  1.00  0.00     0.000 C 
BRANCH  19  20
ATOM     20  C   UNL     1       2.719 -23.446  -4.158  1.00  0.00     0.000 C 
BRANCH  20  21
ATOM     21  C   UNL     1       2.969 -22.488  -2.976  1.00  0.00     0.000 C 
BRANCH  21  22
ATOM     22  C   UNL     1       1.897 -22.607  -1.881  1.00  0.00    -0.000 C 
BRANCH  22  23
ATOM     23  C   UNL     1       0.802 -21.533  -2.003  1.00  0.00    -0.000 C 
BRANCH  23  24
ATOM     24  C   UNL     1      -0.219 -21.861  -3.107  1.00  0.00    -0.000 C 
BRANCH  24  25
ATOM     25  C   UNL     1      -1.667 -21.610  -2.659  1.00  0.00    -0.000 C 
BRANCH  25  26
ATOM     26  C   UNL     1      -2.637 -21.699  -3.850  1.00  0.00    -0.000 C 
BRANCH  26  27
ATOM     27  C   UNL     1      -1.910 -21.773  -5.202  1.00  0.00    -0.000 C 
BRANCH  27  28
ATOM     28  C   UNL     1      -2.868 -21.636  -6.399  1.00  0.00    -0.000 C 
BRANCH  28  29
ATOM     29  C   UNL     1      -4.235 -21.060  -6.001  1.00  0.00    -0.003 C 
ATOM     30  C   UNL     1      -4.433 -19.627  -6.494  1.00  0.00     0.004 C 
ENDBRANCH  28  29
ENDBRANCH  27  28
ENDBRANCH  26  27
ENDBRANCH  25  26
ENDBRANCH  24  25
ENDBRANCH  23  24
ENDBRANCH  22  23
ENDBRANCH  21  22
ENDBRANCH  20  21
ENDBRANCH  19  20
ENDBRANCH  18  19
ENDBRANCH  17  18
ENDBRANCH   1  17
TORSDOF 26
ENDMDL
MODEL 6
REMARK VINA RESULT:     8.304      2.329      3.511
REMARK INTER + INTRA:          19.708
REMARK INTER:                  19.980
REMARK INTRA:                  -0.271
REMARK UNBOUND:                -1.217
REMARK SMILES CCCCCCCCCCCCCCCCCCCCCCCCCCCC(=O)[O-]
REMARK SMILES IDX 15 1 16 2 17 3 18 4 19 5 20 6 21 7 22 8 23 9 24 10 25 11
REMARK SMILES IDX 26 12 27 13 28 14 29 15 30 16 14 17 13 18 12 19 11 20 10 21
REMARK SMILES IDX 9 22 8 23 7 24 6 25 5 26 4 27 3 28 2 29 1 30
REMARK H PARENT
REMARK Flexibility Score: inf
ROOT
ATOM      1  C   UNL     1       3.311 -24.015  -5.468  1.00  0.00     0.000 C 
ENDROOT
BRANCH   1   2
ATOM      2  C   UNL     1       3.427 -23.480  -4.029  1.00  0.00     0.000 C 
BRANCH   2   3
ATOM      3  C   UNL     1       2.061 -23.215  -3.359  1.00  0.00     0.000 C 
BRANCH   3   4
ATOM      4  C   UNL     1       2.154 -22.308  -2.114  1.00  0.00     0.000 C 
BRANCH   4   5
ATOM      5  C   UNL     1       0.821 -21.629  -1.752  1.00  0.00     0.000 C 
BRANCH   5   6
ATOM      6  C   UNL     1      -0.371 -22.219  -2.531  1.00  0.00     0.000 C 
BRANCH   6   7
ATOM      7  C   UNL     1      -1.445 -21.156  -2.836  1.00  0.00     0.000 C 
BRANCH   7   8
ATOM      8  C   UNL     1      -1.809 -21.066  -4.330  1.00  0.00     0.000 C 
BRANCH   8   9
ATOM      9  C   UNL     1      -2.568 -19.774  -4.667  1.00  0.00     0.000 C 
BRANCH   9  10
ATOM     10  C   UNL     1      -3.531 -19.995  -5.842  1.00  0.00     0.000 C 
BRANCH  10  11
ATOM     11  C   UNL     1      -4.213 -21.373  -5.803  1.00  0.00     0.000 C 
BRANCH  11  12
ATOM     12  C   UNL     1      -3.885 -22.293  -6.998  1.00  0.00     0.006 C 
BRANCH  12  13
ATOM     13  C   UNL     1      -2.474 -22.110  -7.577  1.00  0.00     0.053 C 
BRANCH  13  14
ATOM     14  C   UNL     1      -1.445 -22.875  -6.803  1.00  0.00     0.041 C 
ATOM     15  O   UNL     1      -0.321 -23.124  -7.314  1.00  0.00    -0.550 OA
ATOM     16  O   UNL     1      -1.742 -23.350  -5.533  1.00  0.00    -0.550 OA
ENDBRANCH  13  14
ENDBRANCH  12  13
ENDBRANCH  11  12
ENDBRANCH  10  11
ENDBRANCH   9  10
ENDBRANCH   8   9
ENDBRANCH   7   8
ENDBRANCH   6   7
ENDBRANCH   5   6
ENDBRANCH   4   5
ENDBRANCH   3   4
ENDBRANCH   2   3
ENDBRANCH   1   2
BRANCH   1  17
ATOM     17  C   UNL     1       4.195 -25.253  -5.701  1.00  0.00     0.000 C 
BRANCH  17  18
ATOM     18  C   UNL     1       3.401 -26.571  -5.663  1.00  0.00     0.000 C 
BRANCH  18  19
ATOM     19  C   UNL     1       2.830 -27.025  -7.020  1.00  0.00     0.000 C 
BRANCH  19  20
ATOM     20  C   UNL     1       2.232 -28.443  -7.026  1.00  0.00     0.000 C 
BRANCH  20  21
ATOM     21  C   UNL     1       2.962 -29.393  -7.996  1.00  0.00     0.000 C 
BRANCH  21  22
ATOM     22  C   UNL     1       2.531 -30.859  -7.827  1.00  0.00    -0.000 C 
BRANCH  22  23
ATOM     23  C   UNL     1       2.861 -31.417  -6.432  1.00  0.00    -0.000 C 
BRANCH  23  24
ATOM     24  C   UNL     1       1.622 -31.993  -5.724  1.00  0.00    -0.000 C 
BRANCH  24  25
ATOM     25  C   UNL     1       0.691 -30.894  -5.188  1.00  0.00    -0.000 C 
BRANCH  25  26
ATOM     26  C   UNL     1      -0.573 -31.501  -4.556  1.00  0.00    -0.000 C 
BRANCH  26  27
ATOM     27  C   UNL     1      -0.676 -31.218  -3.048  1.00  0.00    -0.000 C 
BRANCH  27  28
ATOM     28  C   UNL     1       0.654 -30.734  -2.444  1.00  0.00    -0.000 C 
BRANCH  28  29
ATOM     29  C   UNL     1       0.701 -30.884  -0.917  1.00  0.00    -0.003 C 
ATOM     30  C   UNL     1       1.460 -29.743  -0.239  1.00  0.00     0.004 C 
ENDBRANCH  28  29
ENDBRANCH  27  28
ENDBRANCH  26  27
ENDBRANCH  25  26
ENDBRANCH  24  25
ENDBRANCH  23  24
ENDBRANCH  22  23
ENDBRANCH  21  22
ENDBRANCH  20  21
ENDBRANCH  19  20
ENDBRANCH  18  19
ENDBRANCH  17  18
ENDBRANCH   1  17
TORSDOF 26
ENDMDL
MODEL 7
REMARK VINA RESULT:     8.829      4.084     10.284
REMARK INTER + INTRA:          21.032
REMARK INTER:                  21.889
REMARK INTRA:                  -0.857
REMARK UNBOUND:                -1.217
REMARK SMILES CCCCCCCCCCCCCCCCCCCCCCCCCCCC(=O)[O-]
REMARK SMILES IDX 15 1 16 2 17 3 18 4 19 5 20 6 21 7 22 8 23 9 24 10 25 11
REMARK SMILES IDX 26 12 27 13 28 14 29 15 30 16 14 17 13 18 12 19 11 20 10 21
REMARK SMILES IDX 9 22 8 23 7 24 6 25 5 26 4 27 3 28 2 29 1 30
REMARK H PARENT
REMARK Flexibility Score: inf
ROOT
ATOM      1  C   UNL     1       3.637 -23.493  -3.842  1.00  0.00     0.000 C 
ENDROOT
BRANCH   1   2
ATOM      2  C   UNL     1       3.808 -23.840  -5.333  1.00  0.00     0.000 C 
BRANCH   2   3
ATOM      3  C   UNL     1       4.266 -25.295  -5.578  1.00  0.00     0.000 C 
BRANCH   3   4
ATOM      4  C   UNL     1       3.110 -26.246  -5.954  1.00  0.00     0.000 C 
BRANCH   4   5
ATOM      5  C   UNL     1       3.299 -26.925  -7.322  1.00  0.00     0.000 C 
BRANCH   5   6
ATOM      6  C   UNL     1       2.227 -27.997  -7.602  1.00  0.00     0.000 C 
BRANCH   6   7
ATOM      7  C   UNL     1       2.604 -29.364  -6.998  1.00  0.00     0.000 C 
BRANCH   7   8
ATOM      8  C   UNL     1       3.285 -30.310  -8.005  1.00  0.00     0.000 C 
BRANCH   8   9
ATOM      9  C   UNL     1       2.825 -31.766  -7.839  1.00  0.00     0.000 C 
BRANCH   9  10
ATOM     10  C   UNL     1       1.432 -31.830  -7.196  1.00  0.00     0.000 C 
BRANCH  10  11
ATOM     11  C   UNL     1       1.483 -31.809  -5.658  1.00  0.00     0.000 C 
BRANCH  11  12
ATOM     12  C   UNL     1       0.489 -30.836  -4.990  1.00  0.00     0.006 C 
BRANCH  12  13
ATOM     13  C   UNL     1      -0.654 -31.518  -4.223  1.00  0.00     0.053 C 
BRANCH  13  14
ATOM     14  C   UNL     1      -0.480 -31.407  -2.739  1.00  0.00     0.041 C 
ATOM     15  O   UNL     1      -1.446 -31.646  -1.966  1.00  0.00    -0.550 OA
ATOM     16  O   UNL     1       0.738 -31.003  -2.211  1.00  0.00    -0.550 OA
ENDBRANCH  13  14
ENDBRANCH  12  13
ENDBRANCH  11  12
ENDBRANCH  10  11
ENDBRANCH   9  10
ENDBRANCH   8   9
ENDBRANCH   7   8
ENDBRANCH   6   7
ENDBRANCH   5   6
ENDBRANCH   4   5
ENDBRANCH   3   4
ENDBRANCH   2   3
ENDBRANCH   1   2
BRANCH   1  17
ATOM     17  C   UNL     1       2.173 -23.179  -3.484  1.00  0.00     0.000 C 
BRANCH  17  18
ATOM     18  C   UNL     1       2.033 -22.417  -2.154  1.00  0.00     0.000 C 
BRANCH  18  19
ATOM     19  C   UNL     1       0.713 -21.640  -1.986  1.00  0.00     0.000 C 
BRANCH  19  20
ATOM     20  C   UNL     1      -0.426 -22.095  -2.915  1.00  0.00     0.000 C 
BRANCH  20  21
ATOM     21  C   UNL     1      -1.472 -20.989  -3.160  1.00  0.00     0.000 C 
BRANCH  21  22
ATOM     22  C   UNL     1      -2.216 -21.161  -4.493  1.00  0.00    -0.000 C 
BRANCH  22  23
ATOM     23  C   UNL     1      -3.495 -22.006  -4.355  1.00  0.00    -0.000 C 
BRANCH  23  24
ATOM     24  C   UNL     1      -3.938 -22.620  -5.695  1.00  0.00    -0.000 C 
BRANCH  24  25
ATOM     25  C   UNL     1      -3.399 -21.840  -6.904  1.00  0.00    -0.000 C 
BRANCH  25  26
ATOM     26  C   UNL     1      -4.527 -21.506  -7.894  1.00  0.00    -0.000 C 
BRANCH  26  27
ATOM     27  C   UNL     1      -5.121 -20.106  -7.665  1.00  0.00    -0.000 C 
BRANCH  27  28
ATOM     28  C   UNL     1      -4.308 -19.275  -6.657  1.00  0.00    -0.000 C 
BRANCH  28  29
ATOM     29  C   UNL     1      -5.120 -18.125  -6.044  1.00  0.00    -0.003 C 
ATOM     30  C   UNL     1      -4.896 -16.799  -6.770  1.00  0.00     0.004 C 
ENDBRANCH  28  29
ENDBRANCH  27  28
ENDBRANCH  26  27
ENDBRANCH  25  26
ENDBRANCH  24  25
ENDBRANCH  23  24
ENDBRANCH  22  23
ENDBRANCH  21  22
ENDBRANCH  20  21
ENDBRANCH  19  20
ENDBRANCH  18  19
ENDBRANCH  17  18
ENDBRANCH   1  17
TORSDOF 26
ENDMDL
