MODEL 1
REMARK VINA RESULT:    18.913      0.000      0.000
REMARK INTER + INTRA:          49.315
REMARK INTER:                  49.871
REMARK INTRA:                  -0.556
REMARK UNBOUND:                -0.556
REMARK SMILES CCCCCCCCCCCCCCCCCCCCCCCCCCCCCC(=O)[O-]
REMARK SMILES IDX 16 1 17 2 18 3 19 4 20 5 21 6 22 7 23 8 24 9 25 10 26 11
REMARK SMILES IDX 27 12 28 13 29 14 30 15 31 16 32 17 15 18 14 19 13 20 12 21
REMARK SMILES IDX 11 22 10 23 9 24 8 25 7 26 6 27 5 28 4 29 3 30 2 31 1 32
REMARK H PARENT
REMARK Flexibility Score: inf
ROOT
ATOM      1  C   UNL     1      25.662  44.285   5.761  1.00  0.00     0.000 C 
ENDROOT
BRANCH   1   2
ATOM      2  C   UNL     1      26.359  44.978   6.943  1.00  0.00     0.000 C 
BRANCH   2   3
ATOM      3  C   UNL     1      25.868  46.427   7.092  1.00  0.00     0.000 C 
BRANCH   3   4
ATOM      4  C   UNL     1      27.026  47.393   7.407  1.00  0.00     0.000 C 
BRANCH   4   5
ATOM      5  C   UNL     1      27.788  47.823   6.140  1.00  0.00     0.000 C 
BRANCH   5   6
ATOM      6  C   UNL     1      27.434  46.962   4.913  1.00  0.00     0.000 C 
BRANCH   6   7
ATOM      7  C   UNL     1      28.680  46.349   4.239  1.00  0.00     0.000 C 
BRANCH   7   8
ATOM      8  C   UNL     1      28.490  44.935   3.655  1.00  0.00     0.000 C 
BRANCH   8   9
ATOM      9  C   UNL     1      29.666  44.389   2.821  1.00  0.00     0.000 C 
BRANCH   9  10
ATOM     10  C   UNL     1      29.374  44.255   1.311  1.00  0.00     0.000 C 
BRANCH  10  11
ATOM     11  C   UNL     1      30.473  43.497   0.538  1.00  0.00     0.000 C 
BRANCH  11  12
ATOM     12  C   UNL     1      29.902  42.594  -0.575  1.00  0.00     0.000 C 
BRANCH  12  13
ATOM     13  C   UNL     1      30.433  42.916  -1.983  1.00  0.00     0.006 C 
BRANCH  13  14
ATOM     14  C   UNL     1      29.321  43.158  -3.010  1.00  0.00     0.053 C 
BRANCH  14  15
ATOM     15  C   UNL     1      28.765  41.858  -3.502  1.00  0.00     0.041 C 
ATOM     16  O   UNL     1      27.947  41.214  -2.797  1.00  0.00    -0.550 OA
ATOM     17  O   UNL     1      29.180  41.339  -4.725  1.00  0.00    -0.550 OA
ENDBRANCH  14  15
ENDBRANCH  13  14
ENDBRANCH  12  13
ENDBRANCH  11  12
ENDBRANCH  10  11
ENDBRANCH   9  10
ENDBRANCH   8   9
ENDBRANCH   7   8
ENDBRANCH   6   7
ENDBRANCH   5   6
ENDBRANCH   4   5
ENDBRANCH   3   4
ENDBRANCH   2   3
ENDBRANCH   1   2
BRANCH   1  18
ATOM     18  C   UNL     1      26.618  43.402   4.920  1.00  0.00     0.000 C 
BRANCH  18  19
ATOM     19  C   UNL     1      26.161  43.203   3.456  1.00  0.00     0.000 C 
BRANCH  19  20
ATOM     20  C   UNL     1      25.499  44.455   2.854  1.00  0.00     0.000 C 
BRANCH  20  21
ATOM     21  C   UNL     1      24.179  44.125   2.124  1.00  0.00     0.000 C 
BRANCH  21  22
ATOM     22  C   UNL     1      23.868  42.615   2.116  1.00  0.00     0.000 C 
BRANCH  22  23
ATOM     23  C   UNL     1      22.654  42.237   2.985  1.00  0.00     0.000 C 
BRANCH  23  24
ATOM     24  C   UNL     1      22.891  42.523   4.479  1.00  0.00    -0.000 C 
BRANCH  24  25
ATOM     25  C   UNL     1      23.287  41.268   5.273  1.00  0.00    -0.000 C 
BRANCH  25  26
ATOM     26  C   UNL     1      24.468  40.514   4.635  1.00  0.00    -0.000 C 
BRANCH  26  27
ATOM     27  C   UNL     1      25.552  40.136   5.666  1.00  0.00    -0.000 C 
BRANCH  27  28
ATOM     28  C   UNL     1      25.448  38.693   6.202  1.00  0.00    -0.000 C 
BRANCH  28  29
ATOM     29  C   UNL     1      26.224  38.490   7.513  1.00  0.00    -0.000 C 
BRANCH  29  30
ATOM     30  C   UNL     1      25.696  39.422   8.614  1.00  0.00    -0.000 C 
BRANCH  30  31
ATOM     31  C   UNL     1      24.178  39.614   8.491  1.00  0.00    -0.003 C 
ATOM     32  C   UNL     1      23.584  40.171   9.782  1.00  0.00     0.004 C 
ENDBRANCH  30  31
ENDBRANCH  29  30
ENDBRANCH  28  29
ENDBRANCH  27  28
ENDBRANCH  26  27
ENDBRANCH  25  26
ENDBRANCH  24  25
ENDBRANCH  23  24
ENDBRANCH  22  23
ENDBRANCH  21  22
ENDBRANCH  20  21
ENDBRANCH  19  20
ENDBRANCH  18  19
ENDBRANCH   1  18
TORSDOF 28
ENDMDL
MODEL 2
REMARK VINA RESULT:    18.932      3.863      9.504
REMARK INTER + INTRA:          49.367
REMARK INTER:                  50.857
REMARK INTRA:                  -1.490
REMARK UNBOUND:                -0.556
REMARK SMILES CCCCCCCCCCCCCCCCCCCCCCCCCCCCCC(=O)[O-]
REMARK SMILES IDX 16 1 17 2 18 3 19 4 20 5 21 6 22 7 23 8 24 9 25 10 26 11
REMARK SMILES IDX 27 12 28 13 29 14 30 15 31 16 32 17 15 18 14 19 13 20 12 21
REMARK SMILES IDX 11 22 10 23 9 24 8 25 7 26 6 27 5 28 4 29 3 30 2 31 1 32
REMARK H PARENT
REMARK Flexibility Score: inf
ROOT
ATOM      1  C   UNL     1      27.337  47.131   6.842  1.00  0.00     0.000 C 
ENDROOT
BRANCH   1   2
ATOM      2  C   UNL     1      26.048  46.422   7.290  1.00  0.00     0.000 C 
BRANCH   2   3
ATOM      3  C   UNL     1      25.705  45.262   6.342  1.00  0.00     0.000 C 
BRANCH   3   4
ATOM      4  C   UNL     1      26.782  44.162   6.373  1.00  0.00     0.000 C 
BRANCH   4   5
ATOM      5  C   UNL     1      26.668  43.198   5.179  1.00  0.00     0.000 C 
BRANCH   5   6
ATOM      6  C   UNL     1      25.502  43.553   4.238  1.00  0.00     0.000 C 
BRANCH   6   7
ATOM      7  C   UNL     1      25.668  42.942   2.831  1.00  0.00     0.000 C 
BRANCH   7   8
ATOM      8  C   UNL     1      24.374  42.406   2.185  1.00  0.00     0.000 C 
BRANCH   8   9
ATOM      9  C   UNL     1      23.072  43.123   2.593  1.00  0.00     0.000 C 
BRANCH   9  10
ATOM     10  C   UNL     1      22.271  42.416   3.706  1.00  0.00     0.000 C 
BRANCH  10  11
ATOM     11  C   UNL     1      23.002  42.385   5.065  1.00  0.00     0.000 C 
BRANCH  11  12
ATOM     12  C   UNL     1      23.006  40.982   5.706  1.00  0.00     0.000 C 
BRANCH  12  13
ATOM     13  C   UNL     1      24.397  40.328   5.784  1.00  0.00     0.006 C 
BRANCH  13  14
ATOM     14  C   UNL     1      24.556  39.379   6.977  1.00  0.00     0.053 C 
BRANCH  14  15
ATOM     15  C   UNL     1      25.744  38.488   6.788  1.00  0.00     0.041 C 
ATOM     16  O   UNL     1      26.740  38.593   7.550  1.00  0.00    -0.550 OA
ATOM     17  O   UNL     1      25.769  37.567   5.745  1.00  0.00    -0.550 OA
ENDBRANCH  14  15
ENDBRANCH  13  14
ENDBRANCH  12  13
ENDBRANCH  11  12
ENDBRANCH  10  11
ENDBRANCH   9  10
ENDBRANCH   8   9
ENDBRANCH   7   8
ENDBRANCH   6   7
ENDBRANCH   5   6
ENDBRANCH   4   5
ENDBRANCH   3   4
ENDBRANCH   2   3
ENDBRANCH   1   2
BRANCH   1  18
ATOM     18  C   UNL     1      27.462  47.257   5.304  1.00  0.00     0.000 C 
BRANCH  18  19
ATOM     19  C   UNL     1      28.618  46.426   4.700  1.00  0.00     0.000 C 
BRANCH  19  20
ATOM     20  C   UNL     1      28.168  45.509   3.549  1.00  0.00     0.000 C 
BRANCH  20  21
ATOM     21  C   UNL     1      29.305  44.588   3.055  1.00  0.00     0.000 C 
BRANCH  21  22
ATOM     22  C   UNL     1      29.015  43.983   1.667  1.00  0.00     0.000 C 
BRANCH  22  23
ATOM     23  C   UNL     1      30.188  44.135   0.679  1.00  0.00     0.000 C 
BRANCH  23  24
ATOM     24  C   UNL     1      30.196  43.032  -0.394  1.00  0.00    -0.000 C 
BRANCH  24  25
ATOM     25  C   UNL     1      31.615  42.629  -0.829  1.00  0.00    -0.000 C 
BRANCH  25  26
ATOM     26  C   UNL     1      32.706  43.373  -0.039  1.00  0.00    -0.000 C 
BRANCH  26  27
ATOM     27  C   UNL     1      34.096  42.721  -0.197  1.00  0.00    -0.000 C 
BRANCH  27  28
ATOM     28  C   UNL     1      35.263  43.723  -0.302  1.00  0.00    -0.000 C 
BRANCH  28  29
ATOM     29  C   UNL     1      35.776  43.888  -1.742  1.00  0.00    -0.000 C 
BRANCH  29  30
ATOM     30  C   UNL     1      37.275  44.222  -1.756  1.00  0.00    -0.000 C 
BRANCH  30  31
ATOM     31  C   UNL     1      38.105  43.049  -1.217  1.00  0.00    -0.003 C 
ATOM     32  C   UNL     1      39.012  42.468  -2.299  1.00  0.00     0.004 C 
ENDBRANCH  30  31
ENDBRANCH  29  30
ENDBRANCH  28  29
ENDBRANCH  27  28
ENDBRANCH  26  27
ENDBRANCH  25  26
ENDBRANCH  24  25
ENDBRANCH  23  24
ENDBRANCH  22  23
ENDBRANCH  21  22
ENDBRANCH  20  21
ENDBRANCH  19  20
ENDBRANCH  18  19
ENDBRANCH   1  18
TORSDOF 28
ENDMDL
MODEL 3
REMARK VINA RESULT:    19.338      3.535      4.965
REMARK INTER + INTRA:          50.435
REMARK INTER:                  51.466
REMARK INTRA:                  -1.031
REMARK UNBOUND:                -0.556
REMARK SMILES CCCCCCCCCCCCCCCCCCCCCCCCCCCCCC(=O)[O-]
REMARK SMILES IDX 16 1 17 2 18 3 19 4 20 5 21 6 22 7 23 8 24 9 25 10 26 11
REMARK SMILES IDX 27 12 28 13 29 14 30 15 31 16 32 17 15 18 14 19 13 20 12 21
REMARK SMILES IDX 11 22 10 23 9 24 8 25 7 26 6 27 5 28 4 29 3 30 2 31 1 32
REMARK H PARENT
REMARK Flexibility Score: inf
ROOT
ATOM      1  C   UNL     1      27.497  47.192   7.073  1.00  0.00     0.000 C 
ENDROOT
BRANCH   1   2
ATOM      2  C   UNL     1      27.622  47.840   5.685  1.00  0.00     0.000 C 
BRANCH   2   3
ATOM      3  C   UNL     1      28.617  47.063   4.807  1.00  0.00     0.000 C 
BRANCH   3   4
ATOM      4  C   UNL     1      27.989  45.780   4.231  1.00  0.00     0.000 C 
BRANCH   4   5
ATOM      5  C   UNL     1      29.029  44.876   3.546  1.00  0.00     0.000 C 
BRANCH   5   6
ATOM      6  C   UNL     1      28.669  44.559   2.083  1.00  0.00     0.000 C 
BRANCH   6   7
ATOM      7  C   UNL     1      29.912  44.470   1.172  1.00  0.00     0.000 C 
BRANCH   7   8
ATOM      8  C   UNL     1      30.275  43.053   0.683  1.00  0.00     0.000 C 
BRANCH   8   9
ATOM      9  C   UNL     1      30.939  42.972  -0.706  1.00  0.00     0.000 C 
BRANCH   9  10
ATOM     10  C   UNL     1      32.385  42.432  -0.696  1.00  0.00     0.000 C 
BRANCH  10  11
ATOM     11  C   UNL     1      33.440  43.508  -0.366  1.00  0.00     0.000 C 
BRANCH  11  12
ATOM     12  C   UNL     1      34.874  42.942  -0.327  1.00  0.00     0.000 C 
BRANCH  12  13
ATOM     13  C   UNL     1      35.840  43.602  -1.328  1.00  0.00     0.006 C 
BRANCH  13  14
ATOM     14  C   UNL     1      37.246  43.824  -0.759  1.00  0.00     0.053 C 
BRANCH  14  15
ATOM     15  C   UNL     1      38.288  43.436  -1.761  1.00  0.00     0.041 C 
ATOM     16  O   UNL     1      38.752  42.267  -1.770  1.00  0.00    -0.550 OA
ATOM     17  O   UNL     1      38.774  44.378  -2.663  1.00  0.00    -0.550 OA
ENDBRANCH  14  15
ENDBRANCH  13  14
ENDBRANCH  12  13
ENDBRANCH  11  12
ENDBRANCH  10  11
ENDBRANCH   9  10
ENDBRANCH   8   9
ENDBRANCH   7   8
ENDBRANCH   6   7
ENDBRANCH   5   6
ENDBRANCH   4   5
ENDBRANCH   3   4
ENDBRANCH   2   3
ENDBRANCH   1   2
BRANCH   1  18
ATOM     18  C   UNL     1      26.044  46.799   7.436  1.00  0.00     0.000 C 
BRANCH  18  19
ATOM     19  C   UNL     1      25.625  45.404   6.918  1.00  0.00     0.000 C 
BRANCH  19  20
ATOM     20  C   UNL     1      26.801  44.416   6.824  1.00  0.00     0.000 C 
BRANCH  20  21
ATOM     21  C   UNL     1      26.593  43.362   5.714  1.00  0.00     0.000 C 
BRANCH  21  22
ATOM     22  C   UNL     1      25.809  43.920   4.509  1.00  0.00     0.000 C 
BRANCH  22  23
ATOM     23  C   UNL     1      25.892  43.021   3.260  1.00  0.00     0.000 C 
BRANCH  23  24
ATOM     24  C   UNL     1      24.699  43.230   2.309  1.00  0.00    -0.000 C 
BRANCH  24  25
ATOM     25  C   UNL     1      23.660  42.100   2.396  1.00  0.00    -0.000 C 
BRANCH  25  26
ATOM     26  C   UNL     1      22.626  42.335   3.511  1.00  0.00    -0.000 C 
BRANCH  26  27
ATOM     27  C   UNL     1      23.196  42.043   4.915  1.00  0.00    -0.000 C 
BRANCH  27  28
ATOM     28  C   UNL     1      23.774  40.624   5.087  1.00  0.00    -0.000 C 
BRANCH  28  29
ATOM     29  C   UNL     1      24.567  40.461   6.393  1.00  0.00    -0.000 C 
BRANCH  29  30
ATOM     30  C   UNL     1      24.753  38.976   6.740  1.00  0.00    -0.000 C 
BRANCH  30  31
ATOM     31  C   UNL     1      26.233  38.649   6.979  1.00  0.00    -0.003 C 
ATOM     32  C   UNL     1      26.777  37.717   5.900  1.00  0.00     0.004 C 
ENDBRANCH  30  31
ENDBRANCH  29  30
ENDBRANCH  28  29
ENDBRANCH  27  28
ENDBRANCH  26  27
ENDBRANCH  25  26
ENDBRANCH  24  25
ENDBRANCH  23  24
ENDBRANCH  22  23
ENDBRANCH  21  22
ENDBRANCH  20  21
ENDBRANCH  19  20
ENDBRANCH  18  19
ENDBRANCH   1  18
TORSDOF 28
ENDMDL
MODEL 4
REMARK VINA RESULT:    19.367      1.164      2.075
REMARK INTER + INTRA:          50.513
REMARK INTER:                  51.230
REMARK INTRA:                  -0.717
REMARK UNBOUND:                -0.556
REMARK SMILES CCCCCCCCCCCCCCCCCCCCCCCCCCCCCC(=O)[O-]
REMARK SMILES IDX 16 1 17 2 18 3 19 4 20 5 21 6 22 7 23 8 24 9 25 10 26 11
REMARK SMILES IDX 27 12 28 13 29 14 30 15 31 16 32 17 15 18 14 19 13 20 12 21
REMARK SMILES IDX 11 22 10 23 9 24 8 25 7 26 6 27 5 28 4 29 3 30 2 31 1 32
REMARK H PARENT
REMARK Flexibility Score: inf
ROOT
ATOM      1  C   UNL     1      26.752  43.205   5.510  1.00  0.00     0.000 C 
ENDROOT
BRANCH   1   2
ATOM      2  C   UNL     1      26.673  44.019   6.812  1.00  0.00     0.000 C 
BRANCH   2   3
ATOM      3  C   UNL     1      25.607  45.122   6.702  1.00  0.00     0.000 C 
BRANCH   3   4
ATOM      4  C   UNL     1      25.814  46.223   7.759  1.00  0.00     0.000 C 
BRANCH   4   5
ATOM      5  C   UNL     1      26.352  47.529   7.145  1.00  0.00     0.000 C 
BRANCH   5   6
ATOM      6  C   UNL     1      27.847  47.445   6.786  1.00  0.00     0.000 C 
BRANCH   6   7
ATOM      7  C   UNL     1      28.104  47.617   5.274  1.00  0.00     0.000 C 
BRANCH   7   8
ATOM      8  C   UNL     1      27.477  46.538   4.368  1.00  0.00     0.000 C 
BRANCH   8   9
ATOM      9  C   UNL     1      28.267  45.219   4.249  1.00  0.00     0.000 C 
BRANCH   9  10
ATOM     10  C   UNL     1      29.251  45.165   3.061  1.00  0.00     0.000 C 
BRANCH  10  11
ATOM     11  C   UNL     1      28.808  44.202   1.940  1.00  0.00     0.000 C 
BRANCH  11  12
ATOM     12  C   UNL     1      29.980  43.379   1.366  1.00  0.00     0.000 C 
BRANCH  12  13
ATOM     13  C   UNL     1      30.270  43.646  -0.122  1.00  0.00     0.006 C 
BRANCH  13  14
ATOM     14  C   UNL     1      30.251  42.378  -0.981  1.00  0.00     0.053 C 
BRANCH  14  15
ATOM     15  C   UNL     1      29.338  42.550  -2.155  1.00  0.00     0.041 C 
ATOM     16  O   UNL     1      28.504  41.653  -2.444  1.00  0.00    -0.550 OA
ATOM     17  O   UNL     1      29.432  43.686  -2.954  1.00  0.00    -0.550 OA
ENDBRANCH  14  15
ENDBRANCH  13  14
ENDBRANCH  12  13
ENDBRANCH  11  12
ENDBRANCH  10  11
ENDBRANCH   9  10
ENDBRANCH   8   9
ENDBRANCH   7   8
ENDBRANCH   6   7
ENDBRANCH   5   6
ENDBRANCH   4   5
ENDBRANCH   3   4
ENDBRANCH   2   3
ENDBRANCH   1   2
BRANCH   1  18
ATOM     18  C   UNL     1      25.691  43.624   4.462  1.00  0.00     0.000 C 
BRANCH  18  19
ATOM     19  C   UNL     1      25.839  42.906   3.100  1.00  0.00     0.000 C 
BRANCH  19  20
ATOM     20  C   UNL     1      24.618  43.092   2.183  1.00  0.00     0.000 C 
BRANCH  20  21
ATOM     21  C   UNL     1      23.858  41.769   1.945  1.00  0.00     0.000 C 
BRANCH  21  22
ATOM     22  C   UNL     1      22.364  41.870   2.312  1.00  0.00     0.000 C 
BRANCH  22  23
ATOM     23  C   UNL     1      22.059  42.992   3.324  1.00  0.00     0.000 C 
BRANCH  23  24
ATOM     24  C   UNL     1      22.842  42.823   4.638  1.00  0.00    -0.000 C 
BRANCH  24  25
ATOM     25  C   UNL     1      22.651  41.435   5.274  1.00  0.00    -0.000 C 
BRANCH  25  26
ATOM     26  C   UNL     1      23.988  40.737   5.579  1.00  0.00    -0.000 C 
BRANCH  26  27
ATOM     27  C   UNL     1      23.965  39.980   6.923  1.00  0.00    -0.000 C 
BRANCH  27  28
ATOM     28  C   UNL     1      25.311  39.975   7.676  1.00  0.00    -0.000 C 
BRANCH  28  29
ATOM     29  C   UNL     1      26.003  38.603   7.648  1.00  0.00    -0.000 C 
BRANCH  29  30
ATOM     30  C   UNL     1      26.754  38.394   6.325  1.00  0.00    -0.000 C 
BRANCH  30  31
ATOM     31  C   UNL     1      25.866  37.682   5.295  1.00  0.00    -0.003 C 
ATOM     32  C   UNL     1      24.824  36.799   5.977  1.00  0.00     0.004 C 
ENDBRANCH  30  31
ENDBRANCH  29  30
ENDBRANCH  28  29
ENDBRANCH  27  28
ENDBRANCH  26  27
ENDBRANCH  25  26
ENDBRANCH  24  25
ENDBRANCH  23  24
ENDBRANCH  22  23
ENDBRANCH  21  22
ENDBRANCH  20  21
ENDBRANCH  19  20
ENDBRANCH  18  19
ENDBRANCH   1  18
TORSDOF 28
ENDMDL
MODEL 5
REMARK VINA RESULT:    19.389      3.219      8.414
REMARK INTER + INTRA:          50.570
REMARK INTER:                  51.269
REMARK INTRA:                  -0.699
REMARK UNBOUND:                -0.556
REMARK SMILES CCCCCCCCCCCCCCCCCCCCCCCCCCCCCC(=O)[O-]
REMARK SMILES IDX 16 1 17 2 18 3 19 4 20 5 21 6 22 7 23 8 24 9 25 10 26 11
REMARK SMILES IDX 27 12 28 13 29 14 30 15 31 16 32 17 15 18 14 19 13 20 12 21
REMARK SMILES IDX 11 22 10 23 9 24 8 25 7 26 6 27 5 28 4 29 3 30 2 31 1 32
REMARK H PARENT
REMARK Flexibility Score: inf
ROOT
ATOM      1  C   UNL     1      25.985  45.162   6.932  1.00  0.00     0.000 C 
ENDROOT
BRANCH   1   2
ATOM      2  C   UNL     1      26.950  43.964   6.915  1.00  0.00     0.000 C 
BRANCH   2   3
ATOM      3  C   UNL     1      26.820  43.178   5.601  1.00  0.00     0.000 C 
BRANCH   3   4
ATOM      4  C   UNL     1      26.012  43.957   4.546  1.00  0.00     0.000 C 
BRANCH   4   5
ATOM      5  C   UNL     1      26.115  43.326   3.146  1.00  0.00     0.000 C 
BRANCH   5   6
ATOM      6  C   UNL     1      24.810  43.455   2.339  1.00  0.00     0.000 C 
BRANCH   6   7
ATOM      7  C   UNL     1      24.179  42.086   2.010  1.00  0.00     0.000 C 
BRANCH   7   8
ATOM      8  C   UNL     1      22.728  41.891   2.498  1.00  0.00     0.000 C 
BRANCH   8   9
ATOM      9  C   UNL     1      22.307  42.745   3.710  1.00  0.00     0.000 C 
BRANCH   9  10
ATOM     10  C   UNL     1      23.149  42.514   4.982  1.00  0.00     0.000 C 
BRANCH  10  11
ATOM     11  C   UNL     1      23.308  41.024   5.351  1.00  0.00     0.000 C 
BRANCH  11  12
ATOM     12  C   UNL     1      24.769  40.539   5.245  1.00  0.00     0.000 C 
BRANCH  12  13
ATOM     13  C   UNL     1      24.913  39.043   4.910  1.00  0.00     0.006 C 
BRANCH  13  14
ATOM     14  C   UNL     1      25.975  38.332   5.756  1.00  0.00     0.053 C 
BRANCH  14  15
ATOM     15  C   UNL     1      25.870  38.745   7.191  1.00  0.00     0.041 C 
ATOM     16  O   UNL     1      24.884  39.422   7.583  1.00  0.00    -0.550 OA
ATOM     17  O   UNL     1      26.880  38.416   8.090  1.00  0.00    -0.550 OA
ENDBRANCH  14  15
ENDBRANCH  13  14
ENDBRANCH  12  13
ENDBRANCH  11  12
ENDBRANCH  10  11
ENDBRANCH   9  10
ENDBRANCH   8   9
ENDBRANCH   7   8
ENDBRANCH   6   7
ENDBRANCH   5   6
ENDBRANCH   4   5
ENDBRANCH   3   4
ENDBRANCH   2   3
ENDBRANCH   1   2
BRANCH   1  18
ATOM     18  C   UNL     1      26.316  46.197   8.036  1.00  0.00     0.000 C 
BRANCH  18  19
ATOM     19  C   UNL     1      26.407  47.653   7.522  1.00  0.00     0.000 C 
BRANCH  19  20
ATOM     20  C   UNL     1      27.696  47.934   6.730  1.00  0.00     0.000 C 
BRANCH  20  21
ATOM     21  C   UNL     1      27.563  47.546   5.241  1.00  0.00     0.000 C 
BRANCH  21  22
ATOM     22  C   UNL     1      28.636  46.532   4.795  1.00  0.00     0.000 C 
BRANCH  22  23
ATOM     23  C   UNL     1      28.144  45.565   3.701  1.00  0.00     0.000 C 
BRANCH  23  24
ATOM     24  C   UNL     1      29.281  44.697   3.133  1.00  0.00    -0.000 C 
BRANCH  24  25
ATOM     25  C   UNL     1      29.283  44.643   1.596  1.00  0.00    -0.000 C 
BRANCH  25  26
ATOM     26  C   UNL     1      29.640  43.247   1.056  1.00  0.00    -0.000 C 
BRANCH  26  27
ATOM     27  C   UNL     1      30.869  43.272   0.123  1.00  0.00    -0.000 C 
BRANCH  27  28
ATOM     28  C   UNL     1      30.697  42.466  -1.181  1.00  0.00    -0.000 C 
BRANCH  28  29
ATOM     29  C   UNL     1      29.644  43.074  -2.120  1.00  0.00    -0.000 C 
BRANCH  29  30
ATOM     30  C   UNL     1      29.834  42.568  -3.558  1.00  0.00    -0.000 C 
BRANCH  30  31
ATOM     31  C   UNL     1      28.575  41.846  -4.058  1.00  0.00    -0.003 C 
ATOM     32  C   UNL     1      27.862  41.122  -2.919  1.00  0.00     0.004 C 
ENDBRANCH  30  31
ENDBRANCH  29  30
ENDBRANCH  28  29
ENDBRANCH  27  28
ENDBRANCH  26  27
ENDBRANCH  25  26
ENDBRANCH  24  25
ENDBRANCH  23  24
ENDBRANCH  22  23
ENDBRANCH  21  22
ENDBRANCH  20  21
ENDBRANCH  19  20
ENDBRANCH  18  19
ENDBRANCH   1  18
TORSDOF 28
ENDMDL
MODEL 6
REMARK VINA RESULT:    19.611      4.502     10.049
REMARK INTER + INTRA:          51.155
REMARK INTER:                  51.943
REMARK INTRA:                  -0.788
REMARK UNBOUND:                -0.556
REMARK SMILES CCCCCCCCCCCCCCCCCCCCCCCCCCCCCC(=O)[O-]
REMARK SMILES IDX 16 1 17 2 18 3 19 4 20 5 21 6 22 7 23 8 24 9 25 10 26 11
REMARK SMILES IDX 27 12 28 13 29 14 30 15 31 16 32 17 15 18 14 19 13 20 12 21
REMARK SMILES IDX 11 22 10 23 9 24 8 25 7 26 6 27 5 28 4 29 3 30 2 31 1 32
REMARK H PARENT
REMARK Flexibility Score: inf
ROOT
ATOM      1  C   UNL     1      28.498  46.290   4.878  1.00  0.00     0.000 C 
ENDROOT
BRANCH   1   2
ATOM      2  C   UNL     1      27.513  47.366   5.364  1.00  0.00     0.000 C 
BRANCH   2   3
ATOM      3  C   UNL     1      27.440  47.385   6.899  1.00  0.00     0.000 C 
BRANCH   3   4
ATOM      4  C   UNL     1      26.296  46.499   7.427  1.00  0.00     0.000 C 
BRANCH   4   5
ATOM      5  C   UNL     1      25.850  45.445   6.397  1.00  0.00     0.000 C 
BRANCH   5   6
ATOM      6  C   UNL     1      26.741  44.189   6.410  1.00  0.00     0.000 C 
BRANCH   6   7
ATOM      7  C   UNL     1      26.606  43.353   5.119  1.00  0.00     0.000 C 
BRANCH   7   8
ATOM      8  C   UNL     1      25.625  43.911   4.068  1.00  0.00     0.000 C 
BRANCH   8   9
ATOM      9  C   UNL     1      25.150  42.911   2.995  1.00  0.00     0.000 C 
BRANCH   9  10
ATOM     10  C   UNL     1      23.677  42.474   3.131  1.00  0.00     0.000 C 
BRANCH  10  11
ATOM     11  C   UNL     1      23.362  41.786   4.475  1.00  0.00     0.000 C 
BRANCH  11  12
ATOM     12  C   UNL     1      24.489  40.840   4.938  1.00  0.00     0.000 C 
BRANCH  12  13
ATOM     13  C   UNL     1      24.114  39.952   6.139  1.00  0.00     0.006 C 
BRANCH  13  14
ATOM     14  C   UNL     1      25.269  39.747   7.126  1.00  0.00     0.053 C 
BRANCH  14  15
ATOM     15  C   UNL     1      26.022  38.494   6.803  1.00  0.00     0.041 C 
ATOM     16  O   UNL     1      27.028  38.168   7.484  1.00  0.00    -0.550 OA
ATOM     17  O   UNL     1      25.635  37.705   5.724  1.00  0.00    -0.550 OA
ENDBRANCH  14  15
ENDBRANCH  13  14
ENDBRANCH  12  13
ENDBRANCH  11  12
ENDBRANCH  10  11
ENDBRANCH   9  10
ENDBRANCH   8   9
ENDBRANCH   7   8
ENDBRANCH   6   7
ENDBRANCH   5   6
ENDBRANCH   4   5
ENDBRANCH   3   4
ENDBRANCH   2   3
ENDBRANCH   1   2
BRANCH   1  18
ATOM     18  C   UNL     1      28.225  45.823   3.426  1.00  0.00     0.000 C 
BRANCH  18  19
ATOM     19  C   UNL     1      28.985  44.535   3.030  1.00  0.00     0.000 C 
BRANCH  19  20
ATOM     20  C   UNL     1      29.335  44.477   1.533  1.00  0.00     0.000 C 
BRANCH  20  21
ATOM     21  C   UNL     1      30.150  43.216   1.172  1.00  0.00     0.000 C 
BRANCH  21  22
ATOM     22  C   UNL     1      30.014  42.829  -0.315  1.00  0.00     0.000 C 
BRANCH  22  23
ATOM     23  C   UNL     1      31.370  42.660  -1.028  1.00  0.00     0.000 C 
BRANCH  23  24
ATOM     24  C   UNL     1      32.551  43.122  -0.155  1.00  0.00    -0.000 C 
BRANCH  24  25
ATOM     25  C   UNL     1      33.899  43.064  -0.894  1.00  0.00    -0.000 C 
BRANCH  25  26
ATOM     26  C   UNL     1      35.017  43.802  -0.137  1.00  0.00    -0.000 C 
BRANCH  26  27
ATOM     27  C   UNL     1      36.111  44.343  -1.082  1.00  0.00    -0.000 C 
BRANCH  27  28
ATOM     28  C   UNL     1      37.493  43.682  -0.904  1.00  0.00    -0.000 C 
BRANCH  28  29
ATOM     29  C   UNL     1      38.219  43.455  -2.239  1.00  0.00    -0.000 C 
BRANCH  29  30
ATOM     30  C   UNL     1      39.258  42.331  -2.115  1.00  0.00    -0.000 C 
BRANCH  30  31
ATOM     31  C   UNL     1      39.131  41.335  -3.276  1.00  0.00    -0.003 C 
ATOM     32  C   UNL     1      38.858  39.922  -2.767  1.00  0.00     0.004 C 
ENDBRANCH  30  31
ENDBRANCH  29  30
ENDBRANCH  28  29
ENDBRANCH  27  28
ENDBRANCH  26  27
ENDBRANCH  25  26
ENDBRANCH  24  25
ENDBRANCH  23  24
ENDBRANCH  22  23
ENDBRANCH  21  22
ENDBRANCH  20  21
ENDBRANCH  19  20
ENDBRANCH  18  19
ENDBRANCH   1  18
TORSDOF 28
ENDMDL
MODEL 7
REMARK VINA RESULT:    19.868      0.988      1.853
REMARK INTER + INTRA:          51.834
REMARK INTER:                  52.331
REMARK INTRA:                  -0.497
REMARK UNBOUND:                -0.556
REMARK SMILES CCCCCCCCCCCCCCCCCCCCCCCCCCCCCC(=O)[O-]
REMARK SMILES IDX 16 1 17 2 18 3 19 4 20 5 21 6 22 7 23 8 24 9 25 10 26 11
REMARK SMILES IDX 27 12 28 13 29 14 30 15 31 16 32 17 15 18 14 19 13 20 12 21
REMARK SMILES IDX 11 22 10 23 9 24 8 25 7 26 6 27 5 28 4 29 3 30 2 31 1 32
REMARK H PARENT
REMARK Flexibility Score: inf
ROOT
ATOM      1  C   UNL     1      25.932  43.778   4.740  1.00  0.00     0.000 C 
ENDROOT
BRANCH   1   2
ATOM      2  C   UNL     1      26.959  43.462   5.839  1.00  0.00     0.000 C 
BRANCH   2   3
ATOM      3  C   UNL     1      26.731  44.351   7.072  1.00  0.00     0.000 C 
BRANCH   3   4
ATOM      4  C   UNL     1      25.763  45.510   6.769  1.00  0.00     0.000 C 
BRANCH   4   5
ATOM      5  C   UNL     1      26.179  46.817   7.467  1.00  0.00     0.000 C 
BRANCH   5   6
ATOM      6  C   UNL     1      27.493  47.395   6.911  1.00  0.00     0.000 C 
BRANCH   6   7
ATOM      7  C   UNL     1      27.493  47.493   5.370  1.00  0.00     0.000 C 
BRANCH   7   8
ATOM      8  C   UNL     1      28.574  46.659   4.653  1.00  0.00     0.000 C 
BRANCH   8   9
ATOM      9  C   UNL     1      28.055  45.526   3.744  1.00  0.00     0.000 C 
BRANCH   9  10
ATOM     10  C   UNL     1      29.131  44.511   3.307  1.00  0.00     0.000 C 
BRANCH  10  11
ATOM     11  C   UNL     1      29.588  44.691   1.844  1.00  0.00     0.000 C 
BRANCH  11  12
ATOM     12  C   UNL     1      29.572  43.369   1.049  1.00  0.00     0.000 C 
BRANCH  12  13
ATOM     13  C   UNL     1      30.331  43.429  -0.289  1.00  0.00     0.006 C 
BRANCH  13  14
ATOM     14  C   UNL     1      30.051  42.228  -1.199  1.00  0.00     0.053 C 
BRANCH  14  15
ATOM     15  C   UNL     1      29.348  42.664  -2.447  1.00  0.00     0.041 C 
ATOM     16  O   UNL     1      28.703  41.830  -3.133  1.00  0.00    -0.550 OA
ATOM     17  O   UNL     1      29.434  43.987  -2.872  1.00  0.00    -0.550 OA
ENDBRANCH  14  15
ENDBRANCH  13  14
ENDBRANCH  12  13
ENDBRANCH  11  12
ENDBRANCH  10  11
ENDBRANCH   9  10
ENDBRANCH   8   9
ENDBRANCH   7   8
ENDBRANCH   6   7
ENDBRANCH   5   6
ENDBRANCH   4   5
ENDBRANCH   3   4
ENDBRANCH   2   3
ENDBRANCH   1   2
BRANCH   1  18
ATOM     18  C   UNL     1      26.191  43.007   3.422  1.00  0.00     0.000 C 
BRANCH  18  19
ATOM     19  C   UNL     1      25.066  43.166   2.372  1.00  0.00     0.000 C 
BRANCH  19  20
ATOM     20  C   UNL     1      24.263  41.874   2.146  1.00  0.00     0.000 C 
BRANCH  20  21
ATOM     21  C   UNL     1      22.763  42.152   1.904  1.00  0.00     0.000 C 
BRANCH  21  22
ATOM     22  C   UNL     1      22.043  42.658   3.170  1.00  0.00     0.000 C 
BRANCH  22  23
ATOM     23  C   UNL     1      22.943  42.668   4.421  1.00  0.00     0.000 C 
BRANCH  23  24
ATOM     24  C   UNL     1      22.344  41.852   5.580  1.00  0.00    -0.000 C 
BRANCH  24  25
ATOM     25  C   UNL     1      23.070  40.517   5.810  1.00  0.00    -0.000 C 
BRANCH  25  26
ATOM     26  C   UNL     1      24.567  40.592   5.459  1.00  0.00    -0.000 C 
BRANCH  26  27
ATOM     27  C   UNL     1      25.013  39.445   4.527  1.00  0.00    -0.000 C 
BRANCH  27  28
ATOM     28  C   UNL     1      25.714  38.275   5.246  1.00  0.00    -0.000 C 
BRANCH  28  29
ATOM     29  C   UNL     1      25.354  38.193   6.738  1.00  0.00    -0.000 C 
BRANCH  29  30
ATOM     30  C   UNL     1      26.041  39.315   7.530  1.00  0.00    -0.000 C 
BRANCH  30  31
ATOM     31  C   UNL     1      25.350  39.535   8.882  1.00  0.00    -0.003 C 
ATOM     32  C   UNL     1      23.837  39.658   8.719  1.00  0.00     0.004 C 
ENDBRANCH  30  31
ENDBRANCH  29  30
ENDBRANCH  28  29
ENDBRANCH  27  28
ENDBRANCH  26  27
ENDBRANCH  25  26
ENDBRANCH  24  25
ENDBRANCH  23  24
ENDBRANCH  22  23
ENDBRANCH  21  22
ENDBRANCH  20  21
ENDBRANCH  19  20
ENDBRANCH  18  19
ENDBRANCH   1  18
TORSDOF 28
ENDMDL
MODEL 8
REMARK VINA RESULT:    20.481      3.600      5.720
REMARK INTER + INTRA:          53.451
REMARK INTER:                  51.472
REMARK INTRA:                   1.979
REMARK UNBOUND:                -0.556
REMARK SMILES CCCCCCCCCCCCCCCCCCCCCCCCCCCCCC(=O)[O-]
REMARK SMILES IDX 16 1 17 2 18 3 19 4 20 5 21 6 22 7 23 8 24 9 25 10 26 11
REMARK SMILES IDX 27 12 28 13 29 14 30 15 31 16 32 17 15 18 14 19 13 20 12 21
REMARK SMILES IDX 11 22 10 23 9 24 8 25 7 26 6 27 5 28 4 29 3 30 2 31 1 32
REMARK H PARENT
REMARK Flexibility Score: inf
ROOT
ATOM      1  C   UNL     1      22.526  42.436   3.375  1.00  0.00     0.000 C 
ENDROOT
BRANCH   1   2
ATOM      2  C   UNL     1      23.575  42.198   2.277  1.00  0.00     0.000 C 
BRANCH   2   3
ATOM      3  C   UNL     1      24.844  43.023   2.546  1.00  0.00     0.000 C 
BRANCH   3   4
ATOM      4  C   UNL     1      25.462  42.688   3.916  1.00  0.00     0.000 C 
BRANCH   4   5
ATOM      5  C   UNL     1      26.724  43.521   4.206  1.00  0.00     0.000 C 
BRANCH   5   6
ATOM      6  C   UNL     1      26.520  44.526   5.355  1.00  0.00     0.000 C 
BRANCH   6   7
ATOM      7  C   UNL     1      27.379  45.798   5.189  1.00  0.00     0.000 C 
BRANCH   7   8
ATOM      8  C   UNL     1      28.203  45.876   3.888  1.00  0.00     0.000 C 
BRANCH   8   9
ATOM      9  C   UNL     1      28.718  44.532   3.336  1.00  0.00     0.000 C 
BRANCH   9  10
ATOM     10  C   UNL     1      29.385  44.620   1.948  1.00  0.00     0.000 C 
BRANCH  10  11
ATOM     11  C   UNL     1      29.794  43.248   1.374  1.00  0.00     0.000 C 
BRANCH  11  12
ATOM     12  C   UNL     1      30.603  43.368   0.066  1.00  0.00     0.000 C 
BRANCH  12  13
ATOM     13  C   UNL     1      30.204  42.351  -1.019  1.00  0.00     0.006 C 
BRANCH  13  14
ATOM     14  C   UNL     1      29.530  42.995  -2.236  1.00  0.00     0.053 C 
BRANCH  14  15
ATOM     15  C   UNL     1      28.857  41.956  -3.077  1.00  0.00     0.041 C 
ATOM     16  O   UNL     1      29.147  41.844  -4.296  1.00  0.00    -0.550 OA
ATOM     17  O   UNL     1      27.880  41.134  -2.523  1.00  0.00    -0.550 OA
ENDBRANCH  14  15
ENDBRANCH  13  14
ENDBRANCH  12  13
ENDBRANCH  11  12
ENDBRANCH  10  11
ENDBRANCH   9  10
ENDBRANCH   8   9
ENDBRANCH   7   8
ENDBRANCH   6   7
ENDBRANCH   5   6
ENDBRANCH   4   5
ENDBRANCH   3   4
ENDBRANCH   2   3
ENDBRANCH   1   2
BRANCH   1  18
ATOM     18  C   UNL     1      23.121  42.408   4.805  1.00  0.00     0.000 C 
BRANCH  18  19
ATOM     19  C   UNL     1      23.239  40.988   5.406  1.00  0.00     0.000 C 
BRANCH  19  20
ATOM     20  C   UNL     1      24.695  40.514   5.554  1.00  0.00     0.000 C 
BRANCH  20  21
ATOM     21  C   UNL     1      24.806  39.212   6.378  1.00  0.00     0.000 C 
BRANCH  21  22
ATOM     22  C   UNL     1      26.267  38.769   6.592  1.00  0.00     0.000 C 
BRANCH  22  23
ATOM     23  C   UNL     1      26.532  37.314   6.163  1.00  0.00     0.000 C 
BRANCH  23  24
ATOM     24  C   UNL     1      26.653  36.361   7.366  1.00  0.00    -0.000 C 
BRANCH  24  25
ATOM     25  C   UNL     1      26.368  34.895   6.999  1.00  0.00    -0.000 C 
BRANCH  25  26
ATOM     26  C   UNL     1      27.585  33.982   7.229  1.00  0.00    -0.000 C 
BRANCH  26  27
ATOM     27  C   UNL     1      27.179  32.538   7.593  1.00  0.00    -0.000 C 
BRANCH  27  28
ATOM     28  C   UNL     1      28.195  31.461   7.160  1.00  0.00    -0.000 C 
BRANCH  28  29
ATOM     29  C   UNL     1      29.649  31.867   7.449  1.00  0.00    -0.000 C 
BRANCH  29  30
ATOM     30  C   UNL     1      30.254  30.990   8.555  1.00  0.00    -0.000 C 
BRANCH  30  31
ATOM     31  C   UNL     1      31.515  31.638   9.142  1.00  0.00    -0.003 C 
ATOM     32  C   UNL     1      31.774  33.008   8.522  1.00  0.00     0.004 C 
ENDBRANCH  30  31
ENDBRANCH  29  30
ENDBRANCH  28  29
ENDBRANCH  27  28
ENDBRANCH  26  27
ENDBRANCH  25  26
ENDBRANCH  24  25
ENDBRANCH  23  24
ENDBRANCH  22  23
ENDBRANCH  21  22
ENDBRANCH  20  21
ENDBRANCH  19  20
ENDBRANCH  18  19
ENDBRANCH   1  18
TORSDOF 28
ENDMDL
MODEL 9
REMARK VINA RESULT:    20.931      3.653      9.130
REMARK INTER + INTRA:          54.638
REMARK INTER:                  55.979
REMARK INTRA:                  -1.341
REMARK UNBOUND:                -0.556
REMARK SMILES CCCCCCCCCCCCCCCCCCCCCCCCCCCCCC(=O)[O-]
REMARK SMILES IDX 16 1 17 2 18 3 19 4 20 5 21 6 22 7 23 8 24 9 25 10 26 11
REMARK SMILES IDX 27 12 28 13 29 14 30 15 31 16 32 17 15 18 14 19 13 20 12 21
REMARK SMILES IDX 11 22 10 23 9 24 8 25 7 26 6 27 5 28 4 29 3 30 2 31 1 32
REMARK H PARENT
REMARK Flexibility Score: inf
ROOT
ATOM      1  C   UNL     1      26.661  43.762   5.848  1.00  0.00     0.000 C 
ENDROOT
BRANCH   1   2
ATOM      2  C   UNL     1      26.445  43.020   4.520  1.00  0.00     0.000 C 
BRANCH   2   3
ATOM      3  C   UNL     1      25.305  43.665   3.714  1.00  0.00     0.000 C 
BRANCH   3   4
ATOM      4  C   UNL     1      25.091  42.957   2.362  1.00  0.00     0.000 C 
BRANCH   4   5
ATOM      5  C   UNL     1      23.764  42.178   2.315  1.00  0.00     0.000 C 
BRANCH   5   6
ATOM      6  C   UNL     1      22.715  42.731   3.298  1.00  0.00     0.000 C 
BRANCH   6   7
ATOM      7  C   UNL     1      23.030  42.372   4.765  1.00  0.00     0.000 C 
BRANCH   7   8
ATOM      8  C   UNL     1      23.335  40.884   5.032  1.00  0.00     0.000 C 
BRANCH   8   9
ATOM      9  C   UNL     1      24.816  40.538   5.288  1.00  0.00     0.000 C 
BRANCH   9  10
ATOM     10  C   UNL     1      25.167  39.046   5.109  1.00  0.00     0.000 C 
BRANCH  10  11
ATOM     11  C   UNL     1      26.031  38.476   6.252  1.00  0.00     0.000 C 
BRANCH  11  12
ATOM     12  C   UNL     1      25.989  39.351   7.522  1.00  0.00     0.000 C 
BRANCH  12  13
ATOM     13  C   UNL     1      25.027  38.839   8.610  1.00  0.00     0.006 C 
BRANCH  13  14
ATOM     14  C   UNL     1      23.702  39.609   8.660  1.00  0.00     0.053 C 
BRANCH  14  15
ATOM     15  C   UNL     1      23.690  40.561   9.816  1.00  0.00     0.041 C 
ATOM     16  O   UNL     1      22.726  40.560  10.624  1.00  0.00    -0.550 OA
ATOM     17  O   UNL     1      24.726  41.475   9.980  1.00  0.00    -0.550 OA
ENDBRANCH  14  15
ENDBRANCH  13  14
ENDBRANCH  12  13
ENDBRANCH  11  12
ENDBRANCH  10  11
ENDBRANCH   9  10
ENDBRANCH   8   9
ENDBRANCH   7   8
ENDBRANCH   6   7
ENDBRANCH   5   6
ENDBRANCH   4   5
ENDBRANCH   3   4
ENDBRANCH   2   3
ENDBRANCH   1   2
BRANCH   1  18
ATOM     18  C   UNL     1      25.900  45.109   5.927  1.00  0.00     0.000 C 
BRANCH  18  19
ATOM     19  C   UNL     1      26.191  45.918   7.213  1.00  0.00     0.000 C 
BRANCH  19  20
ATOM     20  C   UNL     1      27.216  47.046   6.998  1.00  0.00     0.000 C 
BRANCH  20  21
ATOM     21  C   UNL     1      27.340  47.449   5.513  1.00  0.00     0.000 C 
BRANCH  21  22
ATOM     22  C   UNL     1      28.571  46.821   4.830  1.00  0.00     0.000 C 
BRANCH  22  23
ATOM     23  C   UNL     1      28.211  45.922   3.630  1.00  0.00     0.000 C 
BRANCH  23  24
ATOM     24  C   UNL     1      28.994  44.597   3.636  1.00  0.00    -0.000 C 
BRANCH  24  25
ATOM     25  C   UNL     1      28.879  43.829   2.309  1.00  0.00    -0.000 C 
BRANCH  25  26
ATOM     26  C   UNL     1      29.825  44.379   1.226  1.00  0.00    -0.000 C 
BRANCH  26  27
ATOM     27  C   UNL     1      30.663  43.270   0.557  1.00  0.00    -0.000 C 
BRANCH  27  28
ATOM     28  C   UNL     1      30.029  42.669  -0.714  1.00  0.00    -0.000 C 
BRANCH  28  29
ATOM     29  C   UNL     1      29.958  43.675  -1.874  1.00  0.00    -0.000 C 
BRANCH  29  30
ATOM     30  C   UNL     1      29.555  42.977  -3.182  1.00  0.00    -0.000 C 
BRANCH  30  31
ATOM     31  C   UNL     1      28.829  41.655  -2.899  1.00  0.00    -0.003 C 
ATOM     32  C   UNL     1      27.878  41.290  -4.035  1.00  0.00     0.004 C 
ENDBRANCH  30  31
ENDBRANCH  29  30
ENDBRANCH  28  29
ENDBRANCH  27  28
ENDBRANCH  26  27
ENDBRANCH  25  26
ENDBRANCH  24  25
ENDBRANCH  23  24
ENDBRANCH  22  23
ENDBRANCH  21  22
ENDBRANCH  20  21
ENDBRANCH  19  20
ENDBRANCH  18  19
ENDBRANCH   1  18
TORSDOF 28
ENDMDL
