MODEL 1
REMARK VINA RESULT:    -3.999      0.000      0.000
REMARK INTER + INTRA:         -13.733
REMARK INTER:                  -9.143
REMARK INTRA:                  -4.589
REMARK UNBOUND:                -4.589
REMARK SMILES CCCCCCCCCCCCCCCCCCCCCCCC(=O)[O-]
REMARK SMILES IDX 13 1 14 2 15 3 16 4 17 5 18 6 19 7 20 8 21 9 22 10 23 11
REMARK SMILES IDX 24 12 25 13 26 14 12 15 11 16 10 17 9 18 8 19 7 20 6 21 5 22
REMARK SMILES IDX 4 23 3 24 2 25 1 26
REMARK H PARENT
REMARK Flexibility Score: inf
ROOT
ATOM      1  C   UNL     1      -8.932  -5.568   6.079  1.00  0.00     0.000 C 
ENDROOT
BRANCH   1   2
ATOM      2  C   UNL     1      -9.985  -6.154   7.042  1.00  0.00     0.000 C 
BRANCH   2   3
ATOM      3  C   UNL     1     -11.419  -6.039   6.498  1.00  0.00     0.000 C 
BRANCH   3   4
ATOM      4  C   UNL     1     -11.494  -6.227   4.974  1.00  0.00     0.000 C 
BRANCH   4   5
ATOM      5  C   UNL     1     -12.760  -5.615   4.337  1.00  0.00     0.000 C 
BRANCH   5   6
ATOM      6  C   UNL     1     -13.210  -4.333   5.059  1.00  0.00     0.000 C 
BRANCH   6   7
ATOM      7  C   UNL     1     -14.007  -3.387   4.147  1.00  0.00     0.000 C 
BRANCH   7   8
ATOM      8  C   UNL     1     -13.491  -1.941   4.195  1.00  0.00     0.000 C 
BRANCH   8   9
ATOM      9  C   UNL     1     -12.835  -1.637   5.550  1.00  0.00     0.000 C 
BRANCH   9  10
ATOM     10  C   UNL     1     -13.174  -0.232   6.083  1.00  0.00     0.006 C 
BRANCH  10  11
ATOM     11  C   UNL     1     -14.671   0.117   6.023  1.00  0.00     0.053 C 
BRANCH  11  12
ATOM     12  C   UNL     1     -15.475  -0.624   7.049  1.00  0.00     0.041 C 
ATOM     13  O   UNL     1     -16.360  -1.444   6.688  1.00  0.00    -0.550 OA
ATOM     14  O   UNL     1     -15.272  -0.383   8.403  1.00  0.00    -0.550 OA
ENDBRANCH  11  12
ENDBRANCH  10  11
ENDBRANCH   9  10
ENDBRANCH   8   9
ENDBRANCH   7   8
ENDBRANCH   6   7
ENDBRANCH   5   6
ENDBRANCH   4   5
ENDBRANCH   3   4
ENDBRANCH   2   3
ENDBRANCH   1   2
BRANCH   1  15
ATOM     15  C   UNL     1      -8.692  -4.056   6.259  1.00  0.00     0.000 C 
BRANCH  15  16
ATOM     16  C   UNL     1      -9.410  -3.154   5.239  1.00  0.00     0.000 C 
BRANCH  16  17
ATOM     17  C   UNL     1      -9.132  -3.489   3.759  1.00  0.00     0.000 C 
BRANCH  17  18
ATOM     18  C   UNL     1     -10.324  -3.276   2.804  1.00  0.00    -0.000 C 
BRANCH  18  19
ATOM     19  C   UNL     1     -10.446  -1.856   2.223  1.00  0.00    -0.000 C 
BRANCH  19  20
ATOM     20  C   UNL     1      -9.084  -1.178   2.019  1.00  0.00    -0.000 C 
BRANCH  20  21
ATOM     21  C   UNL     1      -9.031   0.177   2.736  1.00  0.00    -0.000 C 
BRANCH  21  22
ATOM     22  C   UNL     1     -10.122   0.273   3.814  1.00  0.00    -0.000 C 
BRANCH  22  23
ATOM     23  C   UNL     1     -10.453   1.723   4.206  1.00  0.00    -0.000 C 
BRANCH  23  24
ATOM     24  C   UNL     1     -11.654   2.344   3.465  1.00  0.00    -0.000 C 
BRANCH  24  25
ATOM     25  C   UNL     1     -12.529   1.342   2.691  1.00  0.00    -0.003 C 
ATOM     26  C   UNL     1     -14.018   1.683   2.748  1.00  0.00     0.004 C 
ENDBRANCH  24  25
ENDBRANCH  23  24
ENDBRANCH  22  23
ENDBRANCH  21  22
ENDBRANCH  20  21
ENDBRANCH  19  20
ENDBRANCH  18  19
ENDBRANCH  17  18
ENDBRANCH  16  17
ENDBRANCH  15  16
ENDBRANCH   1  15
TORSDOF 22
ENDMDL
MODEL 2
REMARK VINA RESULT:    -3.882      1.324      2.400
REMARK INTER + INTRA:         -13.464
REMARK INTER:                  -9.264
REMARK INTRA:                  -4.200
REMARK UNBOUND:                -4.589
REMARK SMILES CCCCCCCCCCCCCCCCCCCCCCCC(=O)[O-]
REMARK SMILES IDX 13 1 14 2 15 3 16 4 17 5 18 6 19 7 20 8 21 9 22 10 23 11
REMARK SMILES IDX 24 12 25 13 26 14 12 15 11 16 10 17 9 18 8 19 7 20 6 21 5 22
REMARK SMILES IDX 4 23 3 24 2 25 1 26
REMARK H PARENT
REMARK Flexibility Score: inf
ROOT
ATOM      1  C   UNL     1     -11.095  -6.691   5.630  1.00  0.00     0.000 C 
ENDROOT
BRANCH   1   2
ATOM      2  C   UNL     1     -12.192  -5.713   5.157  1.00  0.00     0.000 C 
BRANCH   2   3
ATOM      3  C   UNL     1     -12.482  -4.604   6.182  1.00  0.00     0.000 C 
BRANCH   3   4
ATOM      4  C   UNL     1     -13.567  -3.624   5.705  1.00  0.00     0.000 C 
BRANCH   4   5
ATOM      5  C   UNL     1     -13.468  -3.272   4.206  1.00  0.00     0.000 C 
BRANCH   5   6
ATOM      6  C   UNL     1     -13.002  -1.823   3.980  1.00  0.00     0.000 C 
BRANCH   6   7
ATOM      7  C   UNL     1     -12.265  -1.241   5.197  1.00  0.00     0.000 C 
BRANCH   7   8
ATOM      8  C   UNL     1     -12.845   0.106   5.653  1.00  0.00     0.000 C 
BRANCH   8   9
ATOM      9  C   UNL     1     -13.725  -0.068   6.898  1.00  0.00     0.000 C 
BRANCH   9  10
ATOM     10  C   UNL     1     -15.192   0.336   6.663  1.00  0.00     0.006 C 
BRANCH  10  11
ATOM     11  C   UNL     1     -16.098  -0.824   6.215  1.00  0.00     0.053 C 
BRANCH  11  12
ATOM     12  C   UNL     1     -16.416  -0.772   4.750  1.00  0.00     0.041 C 
ATOM     13  O   UNL     1     -16.783  -1.815   4.145  1.00  0.00    -0.550 OA
ATOM     14  O   UNL     1     -16.274   0.418   4.045  1.00  0.00    -0.550 OA
ENDBRANCH  11  12
ENDBRANCH  10  11
ENDBRANCH   9  10
ENDBRANCH   8   9
ENDBRANCH   7   8
ENDBRANCH   6   7
ENDBRANCH   5   6
ENDBRANCH   4   5
ENDBRANCH   3   4
ENDBRANCH   2   3
ENDBRANCH   1   2
BRANCH   1  15
ATOM     15  C   UNL     1     -10.144  -6.100   6.689  1.00  0.00     0.000 C 
BRANCH  15  16
ATOM     16  C   UNL     1      -8.854  -5.471   6.131  1.00  0.00     0.000 C 
BRANCH  16  17
ATOM     17  C   UNL     1      -8.826  -3.928   6.127  1.00  0.00     0.000 C 
BRANCH  17  18
ATOM     18  C   UNL     1      -8.521  -3.281   4.761  1.00  0.00    -0.000 C 
BRANCH  18  19
ATOM     19  C   UNL     1      -9.609  -3.480   3.691  1.00  0.00    -0.000 C 
BRANCH  19  20
ATOM     20  C   UNL     1      -9.656  -2.335   2.670  1.00  0.00    -0.000 C 
BRANCH  20  21
ATOM     21  C   UNL     1      -8.482  -1.369   2.873  1.00  0.00    -0.000 C 
BRANCH  21  22
ATOM     22  C   UNL     1      -8.863   0.059   2.452  1.00  0.00    -0.000 C 
BRANCH  22  23
ATOM     23  C   UNL     1      -9.866   0.721   3.412  1.00  0.00    -0.000 C 
BRANCH  23  24
ATOM     24  C   UNL     1     -10.823   1.738   2.760  1.00  0.00    -0.000 C 
BRANCH  24  25
ATOM     25  C   UNL     1     -12.007   1.119   1.996  1.00  0.00    -0.003 C 
ATOM     26  C   UNL     1     -13.342   1.790   2.320  1.00  0.00     0.004 C 
ENDBRANCH  24  25
ENDBRANCH  23  24
ENDBRANCH  22  23
ENDBRANCH  21  22
ENDBRANCH  20  21
ENDBRANCH  19  20
ENDBRANCH  18  19
ENDBRANCH  17  18
ENDBRANCH  16  17
ENDBRANCH  15  16
ENDBRANCH   1  15
TORSDOF 22
ENDMDL
MODEL 3
REMARK VINA RESULT:    -3.860      2.425      3.865
REMARK INTER + INTRA:         -13.413
REMARK INTER:                  -9.447
REMARK INTRA:                  -3.966
REMARK UNBOUND:                -4.589
REMARK SMILES CCCCCCCCCCCCCCCCCCCCCCCC(=O)[O-]
REMARK SMILES IDX 13 1 14 2 15 3 16 4 17 5 18 6 19 7 20 8 21 9 22 10 23 11
REMARK SMILES IDX 24 12 25 13 26 14 12 15 11 16 10 17 9 18 8 19 7 20 6 21 5 22
REMARK SMILES IDX 4 23 3 24 2 25 1 26
REMARK H PARENT
REMARK Flexibility Score: inf
ROOT
ATOM      1  C   UNL     1      -8.473  -4.271   6.302  1.00  0.00     0.000 C 
ENDROOT
BRANCH   1   2
ATOM      2  C   UNL     1      -8.998  -5.614   6.851  1.00  0.00     0.000 C 
BRANCH   2   3
ATOM      3  C   UNL     1      -9.030  -6.721   5.784  1.00  0.00     0.000 C 
BRANCH   3   4
ATOM      4  C   UNL     1     -10.433  -7.323   5.594  1.00  0.00     0.000 C 
BRANCH   4   5
ATOM      5  C   UNL     1     -11.501  -6.707   6.522  1.00  0.00     0.000 C 
BRANCH   5   6
ATOM      6  C   UNL     1     -12.602  -5.977   5.734  1.00  0.00     0.000 C 
BRANCH   6   7
ATOM      7  C   UNL     1     -12.239  -5.776   4.254  1.00  0.00     0.000 C 
BRANCH   7   8
ATOM      8  C   UNL     1     -13.474  -5.590   3.360  1.00  0.00     0.000 C 
BRANCH   8   9
ATOM      9  C   UNL     1     -14.758  -5.972   4.110  1.00  0.00     0.000 C 
BRANCH   9  10
ATOM     10  C   UNL     1     -15.799  -4.837   4.142  1.00  0.00     0.006 C 
BRANCH  10  11
ATOM     11  C   UNL     1     -17.080  -5.141   3.345  1.00  0.00     0.053 C 
BRANCH  11  12
ATOM     12  C   UNL     1     -17.646  -6.493   3.662  1.00  0.00     0.041 C 
ATOM     13  O   UNL     1     -18.116  -6.730   4.806  1.00  0.00    -0.550 OA
ATOM     14  O   UNL     1     -17.624  -7.502   2.705  1.00  0.00    -0.550 OA
ENDBRANCH  11  12
ENDBRANCH  10  11
ENDBRANCH   9  10
ENDBRANCH   8   9
ENDBRANCH   7   8
ENDBRANCH   6   7
ENDBRANCH   5   6
ENDBRANCH   4   5
ENDBRANCH   3   4
ENDBRANCH   2   3
ENDBRANCH   1   2
BRANCH   1  15
ATOM     15  C   UNL     1      -9.486  -3.516   5.419  1.00  0.00     0.000 C 
BRANCH  15  16
ATOM     16  C   UNL     1      -9.110  -3.422   3.929  1.00  0.00     0.000 C 
BRANCH  16  17
ATOM     17  C   UNL     1     -10.284  -3.117   2.976  1.00  0.00     0.000 C 
BRANCH  17  18
ATOM     18  C   UNL     1     -10.050  -1.943   2.003  1.00  0.00    -0.000 C 
BRANCH  18  19
ATOM     19  C   UNL     1      -8.725  -1.188   2.203  1.00  0.00    -0.000 C 
BRANCH  19  20
ATOM     20  C   UNL     1      -8.930   0.291   2.557  1.00  0.00    -0.000 C 
BRANCH  20  21
ATOM     21  C   UNL     1     -10.418   0.606   2.760  1.00  0.00    -0.000 C 
BRANCH  21  22
ATOM     22  C   UNL     1     -10.721   0.912   4.234  1.00  0.00    -0.000 C 
BRANCH  22  23
ATOM     23  C   UNL     1     -11.792  -0.016   4.833  1.00  0.00    -0.000 C 
BRANCH  23  24
ATOM     24  C   UNL     1     -12.858  -0.513   3.837  1.00  0.00    -0.000 C 
BRANCH  24  25
ATOM     25  C   UNL     1     -13.566  -1.818   4.241  1.00  0.00    -0.003 C 
ATOM     26  C   UNL     1     -13.060  -2.385   5.567  1.00  0.00     0.004 C 
ENDBRANCH  24  25
ENDBRANCH  23  24
ENDBRANCH  22  23
ENDBRANCH  21  22
ENDBRANCH  20  21
ENDBRANCH  19  20
ENDBRANCH  18  19
ENDBRANCH  17  18
ENDBRANCH  16  17
ENDBRANCH  15  16
ENDBRANCH   1  15
TORSDOF 22
ENDMDL
MODEL 4
REMARK VINA RESULT:    -3.833      1.751      5.183
REMARK INTER + INTRA:         -13.351
REMARK INTER:                  -9.303
REMARK INTRA:                  -4.048
REMARK UNBOUND:                -4.589
REMARK SMILES CCCCCCCCCCCCCCCCCCCCCCCC(=O)[O-]
REMARK SMILES IDX 13 1 14 2 15 3 16 4 17 5 18 6 19 7 20 8 21 9 22 10 23 11
REMARK SMILES IDX 24 12 25 13 26 14 12 15 11 16 10 17 9 18 8 19 7 20 6 21 5 22
REMARK SMILES IDX 4 23 3 24 2 25 1 26
REMARK H PARENT
REMARK Flexibility Score: inf
ROOT
ATOM      1  C   UNL     1      -9.420  -2.348   4.122  1.00  0.00     0.000 C 
ENDROOT
BRANCH   1   2
ATOM      2  C   UNL     1      -9.745  -2.372   2.614  1.00  0.00     0.000 C 
BRANCH   2   3
ATOM      3  C   UNL     1      -9.261  -1.111   1.880  1.00  0.00     0.000 C 
BRANCH   3   4
ATOM      4  C   UNL     1      -9.374   0.159   2.742  1.00  0.00     0.000 C 
BRANCH   4   5
ATOM      5  C   UNL     1     -10.521   1.098   2.311  1.00  0.00     0.000 C 
BRANCH   5   6
ATOM      6  C   UNL     1     -11.750   0.969   3.228  1.00  0.00     0.000 C 
BRANCH   6   7
ATOM      7  C   UNL     1     -12.704  -0.153   2.788  1.00  0.00     0.000 C 
BRANCH   7   8
ATOM      8  C   UNL     1     -13.205  -1.001   3.967  1.00  0.00     0.000 C 
BRANCH   8   9
ATOM      9  C   UNL     1     -12.462  -0.637   5.260  1.00  0.00     0.000 C 
BRANCH   9  10
ATOM     10  C   UNL     1     -13.409  -0.274   6.419  1.00  0.00     0.006 C 
BRANCH  10  11
ATOM     11  C   UNL     1     -14.750   0.331   5.966  1.00  0.00     0.053 C 
BRANCH  11  12
ATOM     12  C   UNL     1     -14.649   1.798   5.676  1.00  0.00     0.041 C 
ATOM     13  O   UNL     1     -14.440   2.615   6.612  1.00  0.00    -0.550 OA
ATOM     14  O   UNL     1     -14.821   2.268   4.379  1.00  0.00    -0.550 OA
ENDBRANCH  11  12
ENDBRANCH  10  11
ENDBRANCH   9  10
ENDBRANCH   8   9
ENDBRANCH   7   8
ENDBRANCH   6   7
ENDBRANCH   5   6
ENDBRANCH   4   5
ENDBRANCH   3   4
ENDBRANCH   2   3
ENDBRANCH   1   2
BRANCH   1  15
ATOM     15  C   UNL     1      -8.463  -3.468   4.575  1.00  0.00     0.000 C 
BRANCH  15  16
ATOM     16  C   UNL     1      -8.629  -3.918   6.038  1.00  0.00     0.000 C 
BRANCH  16  17
ATOM     17  C   UNL     1      -9.089  -5.379   6.226  1.00  0.00     0.000 C 
BRANCH  17  18
ATOM     18  C   UNL     1      -9.870  -5.978   5.038  1.00  0.00    -0.000 C 
BRANCH  18  19
ATOM     19  C   UNL     1     -11.400  -5.992   5.208  1.00  0.00    -0.000 C 
BRANCH  19  20
ATOM     20  C   UNL     1     -12.034  -4.610   4.999  1.00  0.00    -0.000 C 
BRANCH  20  21
ATOM     21  C   UNL     1     -12.707  -4.516   3.624  1.00  0.00    -0.000 C 
BRANCH  21  22
ATOM     22  C   UNL     1     -13.547  -5.770   3.334  1.00  0.00    -0.000 C 
BRANCH  22  23
ATOM     23  C   UNL     1     -15.061  -5.497   3.353  1.00  0.00    -0.000 C 
BRANCH  23  24
ATOM     24  C   UNL     1     -15.480  -4.173   4.021  1.00  0.00    -0.000 C 
BRANCH  24  25
ATOM     25  C   UNL     1     -16.025  -4.312   5.453  1.00  0.00    -0.003 C 
ATOM     26  C   UNL     1     -15.276  -3.444   6.464  1.00  0.00     0.004 C 
ENDBRANCH  24  25
ENDBRANCH  23  24
ENDBRANCH  22  23
ENDBRANCH  21  22
ENDBRANCH  20  21
ENDBRANCH  19  20
ENDBRANCH  18  19
ENDBRANCH  17  18
ENDBRANCH  16  17
ENDBRANCH  15  16
ENDBRANCH   1  15
TORSDOF 22
ENDMDL
MODEL 5
REMARK VINA RESULT:    -3.801      2.290      5.874
REMARK INTER + INTRA:         -13.279
REMARK INTER:                  -9.771
REMARK INTRA:                  -3.509
REMARK UNBOUND:                -4.589
REMARK SMILES CCCCCCCCCCCCCCCCCCCCCCCC(=O)[O-]
REMARK SMILES IDX 13 1 14 2 15 3 16 4 17 5 18 6 19 7 20 8 21 9 22 10 23 11
REMARK SMILES IDX 24 12 25 13 26 14 12 15 11 16 10 17 9 18 8 19 7 20 6 21 5 22
REMARK SMILES IDX 4 23 3 24 2 25 1 26
REMARK H PARENT
REMARK Flexibility Score: inf
ROOT
ATOM      1  C   UNL     1     -12.427  -0.657   4.161  1.00  0.00     0.000 C 
ENDROOT
BRANCH   1   2
ATOM      2  C   UNL     1     -13.807  -1.345   4.092  1.00  0.00     0.000 C 
BRANCH   2   3
ATOM      3  C   UNL     1     -13.763  -2.814   4.544  1.00  0.00     0.000 C 
BRANCH   3   4
ATOM      4  C   UNL     1     -12.806  -3.044   5.726  1.00  0.00     0.000 C 
BRANCH   4   5
ATOM      5  C   UNL     1     -12.565  -4.535   6.046  1.00  0.00     0.000 C 
BRANCH   5   6
ATOM      6  C   UNL     1     -12.309  -5.365   4.776  1.00  0.00     0.000 C 
BRANCH   6   7
ATOM      7  C   UNL     1     -12.790  -6.819   4.911  1.00  0.00     0.000 C 
BRANCH   7   8
ATOM      8  C   UNL     1     -14.197  -7.035   4.335  1.00  0.00     0.000 C 
BRANCH   8   9
ATOM      9  C   UNL     1     -14.304  -6.457   2.917  1.00  0.00     0.000 C 
BRANCH   9  10
ATOM     10  C   UNL     1     -15.737  -6.037   2.542  1.00  0.00     0.006 C 
BRANCH  10  11
ATOM     11  C   UNL     1     -16.398  -5.087   3.557  1.00  0.00     0.053 C 
BRANCH  11  12
ATOM     12  C   UNL     1     -17.737  -5.579   4.017  1.00  0.00     0.041 C 
ATOM     13  O   UNL     1     -18.791  -5.030   3.599  1.00  0.00    -0.550 OA
ATOM     14  O   UNL     1     -17.822  -6.620   4.934  1.00  0.00    -0.550 OA
ENDBRANCH  11  12
ENDBRANCH  10  11
ENDBRANCH   9  10
ENDBRANCH   8   9
ENDBRANCH   7   8
ENDBRANCH   6   7
ENDBRANCH   5   6
ENDBRANCH   4   5
ENDBRANCH   3   4
ENDBRANCH   2   3
ENDBRANCH   1   2
BRANCH   1  15
ATOM     15  C   UNL     1     -12.299   0.581   3.251  1.00  0.00     0.000 C 
BRANCH  15  16
ATOM     16  C   UNL     1     -10.924   0.760   2.581  1.00  0.00     0.000 C 
BRANCH  16  17
ATOM     17  C   UNL     1      -9.721   0.271   3.415  1.00  0.00     0.000 C 
BRANCH  17  18
ATOM     18  C   UNL     1      -8.884  -0.849   2.764  1.00  0.00    -0.000 C 
BRANCH  18  19
ATOM     19  C   UNL     1      -9.700  -2.024   2.197  1.00  0.00    -0.000 C 
BRANCH  19  20
ATOM     20  C   UNL     1      -9.828  -3.191   3.186  1.00  0.00    -0.000 C 
BRANCH  20  21
ATOM     21  C   UNL     1      -8.650  -3.212   4.168  1.00  0.00    -0.000 C 
BRANCH  21  22
ATOM     22  C   UNL     1      -9.138  -3.411   5.611  1.00  0.00    -0.000 C 
BRANCH  22  23
ATOM     23  C   UNL     1      -8.327  -4.469   6.379  1.00  0.00    -0.000 C 
BRANCH  23  24
ATOM     24  C   UNL     1      -9.109  -5.741   6.763  1.00  0.00    -0.000 C 
BRANCH  24  25
ATOM     25  C   UNL     1      -9.106  -6.852   5.699  1.00  0.00    -0.003 C 
ATOM     26  C   UNL     1      -8.543  -8.175   6.219  1.00  0.00     0.004 C 
ENDBRANCH  24  25
ENDBRANCH  23  24
ENDBRANCH  22  23
ENDBRANCH  21  22
ENDBRANCH  20  21
ENDBRANCH  19  20
ENDBRANCH  18  19
ENDBRANCH  17  18
ENDBRANCH  16  17
ENDBRANCH  15  16
ENDBRANCH   1  15
TORSDOF 22
ENDMDL
MODEL 6
REMARK VINA RESULT:    -3.778      1.788      2.703
REMARK INTER + INTRA:         -13.226
REMARK INTER:                  -9.671
REMARK INTRA:                  -3.555
REMARK UNBOUND:                -4.589
REMARK SMILES CCCCCCCCCCCCCCCCCCCCCCCC(=O)[O-]
REMARK SMILES IDX 13 1 14 2 15 3 16 4 17 5 18 6 19 7 20 8 21 9 22 10 23 11
REMARK SMILES IDX 24 12 25 13 26 14 12 15 11 16 10 17 9 18 8 19 7 20 6 21 5 22
REMARK SMILES IDX 4 23 3 24 2 25 1 26
REMARK H PARENT
REMARK Flexibility Score: inf
ROOT
ATOM      1  C   UNL     1      -9.801  -6.506   5.174  1.00  0.00     0.000 C 
ENDROOT
BRANCH   1   2
ATOM      2  C   UNL     1     -10.992  -7.470   5.354  1.00  0.00     0.000 C 
BRANCH   2   3
ATOM      3  C   UNL     1     -12.351  -6.751   5.321  1.00  0.00     0.000 C 
BRANCH   3   4
ATOM      4  C   UNL     1     -12.280  -5.377   4.634  1.00  0.00     0.000 C 
BRANCH   4   5
ATOM      5  C   UNL     1     -13.104  -5.294   3.331  1.00  0.00     0.000 C 
BRANCH   5   6
ATOM      6  C   UNL     1     -14.235  -6.336   3.294  1.00  0.00     0.000 C 
BRANCH   6   7
ATOM      7  C   UNL     1     -15.605  -5.715   2.976  1.00  0.00     0.000 C 
BRANCH   7   8
ATOM      8  C   UNL     1     -16.673  -6.071   4.020  1.00  0.00     0.000 C 
BRANCH   8   9
ATOM      9  C   UNL     1     -17.160  -4.816   4.759  1.00  0.00     0.000 C 
BRANCH   9  10
ATOM     10  C   UNL     1     -16.451  -3.530   4.295  1.00  0.00     0.006 C 
BRANCH  10  11
ATOM     11  C   UNL     1     -15.967  -2.632   5.447  1.00  0.00     0.053 C 
BRANCH  11  12
ATOM     12  C   UNL     1     -16.272  -1.183   5.213  1.00  0.00     0.041 C 
ATOM     13  O   UNL     1     -16.837  -0.819   4.147  1.00  0.00    -0.550 OA
ATOM     14  O   UNL     1     -15.902  -0.229   6.154  1.00  0.00    -0.550 OA
ENDBRANCH  11  12
ENDBRANCH  10  11
ENDBRANCH   9  10
ENDBRANCH   8   9
ENDBRANCH   7   8
ENDBRANCH   6   7
ENDBRANCH   5   6
ENDBRANCH   4   5
ENDBRANCH   3   4
ENDBRANCH   2   3
ENDBRANCH   1   2
BRANCH   1  15
ATOM     15  C   UNL     1      -9.241  -5.949   6.497  1.00  0.00     0.000 C 
BRANCH  15  16
ATOM     16  C   UNL     1      -8.537  -4.584   6.386  1.00  0.00     0.000 C 
BRANCH  16  17
ATOM     17  C   UNL     1      -9.318  -3.506   5.606  1.00  0.00     0.000 C 
BRANCH  17  18
ATOM     18  C   UNL     1      -8.713  -3.115   4.243  1.00  0.00    -0.000 C 
BRANCH  18  19
ATOM     19  C   UNL     1      -9.686  -3.195   3.053  1.00  0.00    -0.000 C 
BRANCH  19  20
ATOM     20  C   UNL     1      -9.605  -1.967   2.136  1.00  0.00    -0.000 C 
BRANCH  20  21
ATOM     21  C   UNL     1      -8.944  -0.785   2.855  1.00  0.00    -0.000 C 
BRANCH  21  22
ATOM     22  C   UNL     1      -9.809   0.481   2.748  1.00  0.00    -0.000 C 
BRANCH  22  23
ATOM     23  C   UNL     1     -10.419   0.908   4.093  1.00  0.00    -0.000 C 
BRANCH  23  24
ATOM     24  C   UNL     1     -11.149  -0.208   4.866  1.00  0.00    -0.000 C 
BRANCH  24  25
ATOM     25  C   UNL     1     -12.640  -0.369   4.521  1.00  0.00    -0.003 C 
ATOM     26  C   UNL     1     -12.926  -1.609   3.674  1.00  0.00     0.004 C 
ENDBRANCH  24  25
ENDBRANCH  23  24
ENDBRANCH  22  23
ENDBRANCH  21  22
ENDBRANCH  20  21
ENDBRANCH  19  20
ENDBRANCH  18  19
ENDBRANCH  17  18
ENDBRANCH  16  17
ENDBRANCH  15  16
ENDBRANCH   1  15
TORSDOF 22
ENDMDL
MODEL 7
REMARK VINA RESULT:    -3.764      1.988      4.866
REMARK INTER + INTRA:         -13.194
REMARK INTER:                  -9.554
REMARK INTRA:                  -3.640
REMARK UNBOUND:                -4.589
REMARK SMILES CCCCCCCCCCCCCCCCCCCCCCCC(=O)[O-]
REMARK SMILES IDX 13 1 14 2 15 3 16 4 17 5 18 6 19 7 20 8 21 9 22 10 23 11
REMARK SMILES IDX 24 12 25 13 26 14 12 15 11 16 10 17 9 18 8 19 7 20 6 21 5 22
REMARK SMILES IDX 4 23 3 24 2 25 1 26
REMARK H PARENT
REMARK Flexibility Score: inf
ROOT
ATOM      1  C   UNL     1     -10.057  -6.511   7.298  1.00  0.00     0.000 C 
ENDROOT
BRANCH   1   2
ATOM      2  C   UNL     1      -9.120  -5.972   6.197  1.00  0.00     0.000 C 
BRANCH   2   3
ATOM      3  C   UNL     1      -8.576  -4.569   6.511  1.00  0.00     0.000 C 
BRANCH   3   4
ATOM      4  C   UNL     1      -8.705  -3.601   5.323  1.00  0.00     0.000 C 
BRANCH   4   5
ATOM      5  C   UNL     1      -9.336  -4.242   4.068  1.00  0.00     0.000 C 
BRANCH   5   6
ATOM      6  C   UNL     1      -9.698  -3.195   3.002  1.00  0.00     0.000 C 
BRANCH   6   7
ATOM      7  C   UNL     1      -9.455  -1.753   3.479  1.00  0.00     0.000 C 
BRANCH   7   8
ATOM      8  C   UNL     1      -8.420  -1.012   2.620  1.00  0.00     0.000 C 
BRANCH   8   9
ATOM      9  C   UNL     1      -9.026   0.255   2.000  1.00  0.00     0.000 C 
BRANCH   9  10
ATOM     10  C   UNL     1     -10.559   0.318   2.133  1.00  0.00     0.006 C 
BRANCH  10  11
ATOM     11  C   UNL     1     -11.125   1.747   2.193  1.00  0.00     0.053 C 
BRANCH  11  12
ATOM     12  C   UNL     1     -12.365   1.840   3.031  1.00  0.00     0.041 C 
ATOM     13  O   UNL     1     -13.495   1.632   2.515  1.00  0.00    -0.550 OA
ATOM     14  O   UNL     1     -12.277   2.191   4.373  1.00  0.00    -0.550 OA
ENDBRANCH  11  12
ENDBRANCH  10  11
ENDBRANCH   9  10
ENDBRANCH   8   9
ENDBRANCH   7   8
ENDBRANCH   6   7
ENDBRANCH   5   6
ENDBRANCH   4   5
ENDBRANCH   3   4
ENDBRANCH   2   3
ENDBRANCH   1   2
BRANCH   1  15
ATOM     15  C   UNL     1     -11.447  -6.934   6.785  1.00  0.00     0.000 C 
BRANCH  15  16
ATOM     16  C   UNL     1     -11.599  -6.956   5.253  1.00  0.00     0.000 C 
BRANCH  16  17
ATOM     17  C   UNL     1     -13.021  -6.663   4.732  1.00  0.00     0.000 C 
BRANCH  17  18
ATOM     18  C   UNL     1     -13.145  -5.419   3.828  1.00  0.00    -0.000 C 
BRANCH  18  19
ATOM     19  C   UNL     1     -12.873  -4.077   4.531  1.00  0.00    -0.000 C 
BRANCH  19  20
ATOM     20  C   UNL     1     -13.850  -2.973   4.104  1.00  0.00    -0.000 C 
BRANCH  20  21
ATOM     21  C   UNL     1     -13.151  -1.609   4.052  1.00  0.00    -0.000 C 
BRANCH  21  22
ATOM     22  C   UNL     1     -12.546  -1.247   5.418  1.00  0.00    -0.000 C 
BRANCH  22  23
ATOM     23  C   UNL     1     -13.592  -0.734   6.422  1.00  0.00    -0.000 C 
BRANCH  23  24
ATOM     24  C   UNL     1     -13.738  -1.578   7.704  1.00  0.00    -0.000 C 
BRANCH  24  25
ATOM     25  C   UNL     1     -14.745  -2.737   7.607  1.00  0.00    -0.003 C 
ATOM     26  C   UNL     1     -14.130  -4.093   7.954  1.00  0.00     0.004 C 
ENDBRANCH  24  25
ENDBRANCH  23  24
ENDBRANCH  22  23
ENDBRANCH  21  22
ENDBRANCH  20  21
ENDBRANCH  19  20
ENDBRANCH  18  19
ENDBRANCH  17  18
ENDBRANCH  16  17
ENDBRANCH  15  16
ENDBRANCH   1  15
TORSDOF 22
ENDMDL
MODEL 8
REMARK VINA RESULT:    -3.716      2.202      4.987
REMARK INTER + INTRA:         -13.085
REMARK INTER:                  -8.982
REMARK INTRA:                  -4.104
REMARK UNBOUND:                -4.589
REMARK SMILES CCCCCCCCCCCCCCCCCCCCCCCC(=O)[O-]
REMARK SMILES IDX 13 1 14 2 15 3 16 4 17 5 18 6 19 7 20 8 21 9 22 10 23 11
REMARK SMILES IDX 24 12 25 13 26 14 12 15 11 16 10 17 9 18 8 19 7 20 6 21 5 22
REMARK SMILES IDX 4 23 3 24 2 25 1 26
REMARK H PARENT
REMARK Flexibility Score: inf
ROOT
ATOM      1  C   UNL     1      -9.304  -1.702   3.057  1.00  0.00     0.000 C 
ENDROOT
BRANCH   1   2
ATOM      2  C   UNL     1      -9.691  -2.551   4.286  1.00  0.00     0.000 C 
BRANCH   2   3
ATOM      3  C   UNL     1      -8.614  -3.583   4.659  1.00  0.00     0.000 C 
BRANCH   3   4
ATOM      4  C   UNL     1      -8.566  -3.874   6.169  1.00  0.00     0.000 C 
BRANCH   4   5
ATOM      5  C   UNL     1      -8.980  -5.316   6.534  1.00  0.00     0.000 C 
BRANCH   5   6
ATOM      6  C   UNL     1      -9.389  -6.133   5.296  1.00  0.00     0.000 C 
BRANCH   6   7
ATOM      7  C   UNL     1     -10.904  -6.381   5.224  1.00  0.00     0.000 C 
BRANCH   7   8
ATOM      8  C   UNL     1     -11.686  -5.597   6.288  1.00  0.00     0.000 C 
BRANCH   8   9
ATOM      9  C   UNL     1     -12.579  -4.531   5.639  1.00  0.00     0.000 C 
BRANCH   9  10
ATOM     10  C   UNL     1     -12.857  -4.802   4.149  1.00  0.00     0.006 C 
BRANCH  10  11
ATOM     11  C   UNL     1     -14.345  -4.720   3.764  1.00  0.00     0.053 C 
BRANCH  11  12
ATOM     12  C   UNL     1     -14.956  -6.071   3.539  1.00  0.00     0.041 C 
ATOM     13  O   UNL     1     -15.220  -6.817   4.519  1.00  0.00    -0.550 OA
ATOM     14  O   UNL     1     -15.201  -6.521   2.247  1.00  0.00    -0.550 OA
ENDBRANCH  11  12
ENDBRANCH  10  11
ENDBRANCH   9  10
ENDBRANCH   8   9
ENDBRANCH   7   8
ENDBRANCH   6   7
ENDBRANCH   5   6
ENDBRANCH   4   5
ENDBRANCH   3   4
ENDBRANCH   2   3
ENDBRANCH   1   2
BRANCH   1  15
ATOM     15  C   UNL     1      -9.358  -0.182   3.304  1.00  0.00     0.000 C 
BRANCH  15  16
ATOM     16  C   UNL     1     -10.160   0.621   2.264  1.00  0.00     0.000 C 
BRANCH  16  17
ATOM     17  C   UNL     1     -11.019   1.765   2.841  1.00  0.00     0.000 C 
BRANCH  17  18
ATOM     18  C   UNL     1     -12.373   1.332   3.438  1.00  0.00    -0.000 C 
BRANCH  18  19
ATOM     19  C   UNL     1     -12.993   0.076   2.799  1.00  0.00    -0.000 C 
BRANCH  19  20
ATOM     20  C   UNL     1     -13.093  -1.102   3.777  1.00  0.00    -0.000 C 
BRANCH  20  21
ATOM     21  C   UNL     1     -12.806  -0.649   5.214  1.00  0.00    -0.000 C 
BRANCH  21  22
ATOM     22  C   UNL     1     -13.917  -1.109   6.170  1.00  0.00    -0.000 C 
BRANCH  22  23
ATOM     23  C   UNL     1     -15.202  -1.535   5.439  1.00  0.00    -0.000 C 
BRANCH  23  24
ATOM     24  C   UNL     1     -16.392  -0.566   5.588  1.00  0.00    -0.000 C 
BRANCH  24  25
ATOM     25  C   UNL     1     -16.752   0.221   4.316  1.00  0.00    -0.003 C 
ATOM     26  C   UNL     1     -16.039   1.570   4.228  1.00  0.00     0.004 C 
ENDBRANCH  24  25
ENDBRANCH  23  24
ENDBRANCH  22  23
ENDBRANCH  21  22
ENDBRANCH  20  21
ENDBRANCH  19  20
ENDBRANCH  18  19
ENDBRANCH  17  18
ENDBRANCH  16  17
ENDBRANCH  15  16
ENDBRANCH   1  15
TORSDOF 22
ENDMDL
