MODEL 1
REMARK VINA RESULT:    -6.197      0.000      0.000
REMARK INTER + INTRA:         -18.954
REMARK INTER:                 -15.615
REMARK INTRA:                  -3.339
REMARK UNBOUND:                -3.339
REMARK SMILES CCCCCCCCCCCCCCCCCCCCCCCCCCCC(=O)[O-]
REMARK SMILES IDX 15 1 16 2 17 3 18 4 19 5 20 6 21 7 22 8 23 9 24 10 25 11
REMARK SMILES IDX 26 12 27 13 28 14 29 15 30 16 14 17 13 18 12 19 11 20 10 21
REMARK SMILES IDX 9 22 8 23 7 24 6 25 5 26 4 27 3 28 2 29 1 30
REMARK H PARENT
REMARK Flexibility Score: inf
ROOT
ATOM      1  C   UNL     1      55.887  36.327  43.596  1.00  0.00     0.000 C 
ENDROOT
BRANCH   1   2
ATOM      2  C   UNL     1      56.121  35.095  42.700  1.00  0.00     0.000 C 
BRANCH   2   3
ATOM      3  C   UNL     1      55.064  33.982  42.818  1.00  0.00     0.000 C 
BRANCH   3   4
ATOM      4  C   UNL     1      55.611  32.545  42.710  1.00  0.00     0.000 C 
BRANCH   4   5
ATOM      5  C   UNL     1      54.895  31.556  43.642  1.00  0.00     0.000 C 
BRANCH   5   6
ATOM      6  C   UNL     1      54.655  30.217  42.930  1.00  0.00     0.000 C 
BRANCH   6   7
ATOM      7  C   UNL     1      53.241  29.658  43.165  1.00  0.00     0.000 C 
BRANCH   7   8
ATOM      8  C   UNL     1      52.185  30.095  42.128  1.00  0.00     0.000 C 
BRANCH   8   9
ATOM      9  C   UNL     1      50.760  30.281  42.682  1.00  0.00     0.000 C 
BRANCH   9  10
ATOM     10  C   UNL     1      50.298  31.743  42.815  1.00  0.00     0.000 C 
BRANCH  10  11
ATOM     11  C   UNL     1      51.352  32.778  42.369  1.00  0.00     0.000 C 
BRANCH  11  12
ATOM     12  C   UNL     1      51.622  33.848  43.441  1.00  0.00     0.006 C 
BRANCH  12  13
ATOM     13  C   UNL     1      50.450  33.998  44.421  1.00  0.00     0.053 C 
BRANCH  13  14
ATOM     14  C   UNL     1      50.510  35.294  45.169  1.00  0.00     0.041 C 
ATOM     15  O   UNL     1      51.450  35.514  45.978  1.00  0.00    -0.550 OA
ATOM     16  O   UNL     1      49.514  36.245  44.996  1.00  0.00    -0.550 OA
ENDBRANCH  13  14
ENDBRANCH  12  13
ENDBRANCH  11  12
ENDBRANCH  10  11
ENDBRANCH   9  10
ENDBRANCH   8   9
ENDBRANCH   7   8
ENDBRANCH   6   7
ENDBRANCH   5   6
ENDBRANCH   4   5
ENDBRANCH   3   4
ENDBRANCH   2   3
ENDBRANCH   1   2
BRANCH   1  17
ATOM     17  C   UNL     1      54.546  36.309  44.360  1.00  0.00     0.000 C 
BRANCH  17  18
ATOM     18  C   UNL     1      54.030  37.722  44.684  1.00  0.00     0.000 C 
BRANCH  18  19
ATOM     19  C   UNL     1      52.941  38.202  43.707  1.00  0.00     0.000 C 
BRANCH  19  20
ATOM     20  C   UNL     1      52.652  37.250  42.527  1.00  0.00     0.000 C 
BRANCH  20  21
ATOM     21  C   UNL     1      53.098  37.759  41.141  1.00  0.00     0.000 C 
BRANCH  21  22
ATOM     22  C   UNL     1      54.417  38.552  41.128  1.00  0.00    -0.000 C 
BRANCH  22  23
ATOM     23  C   UNL     1      55.535  37.839  40.348  1.00  0.00    -0.000 C 
BRANCH  23  24
ATOM     24  C   UNL     1      56.619  38.807  39.841  1.00  0.00    -0.000 C 
BRANCH  24  25
ATOM     25  C   UNL     1      57.751  38.155  39.021  1.00  0.00    -0.000 C 
BRANCH  25  26
ATOM     26  C   UNL     1      58.222  38.967  37.803  1.00  0.00    -0.000 C 
BRANCH  26  27
ATOM     27  C   UNL     1      59.649  38.600  37.357  1.00  0.00    -0.000 C 
BRANCH  27  28
ATOM     28  C   UNL     1      60.557  38.241  38.550  1.00  0.00    -0.000 C 
BRANCH  28  29
ATOM     29  C   UNL     1      61.852  39.072  38.607  1.00  0.00    -0.003 C 
ATOM     30  C   UNL     1      61.749  40.392  37.845  1.00  0.00     0.004 C 
ENDBRANCH  28  29
ENDBRANCH  27  28
ENDBRANCH  26  27
ENDBRANCH  25  26
ENDBRANCH  24  25
ENDBRANCH  23  24
ENDBRANCH  22  23
ENDBRANCH  21  22
ENDBRANCH  20  21
ENDBRANCH  19  20
ENDBRANCH  18  19
ENDBRANCH  17  18
ENDBRANCH   1  17
TORSDOF 26
ENDMDL
MODEL 2
REMARK VINA RESULT:    -6.176      1.785      3.485
REMARK INTER + INTRA:         -18.904
REMARK INTER:                 -15.522
REMARK INTRA:                  -3.382
REMARK UNBOUND:                -3.339
REMARK SMILES CCCCCCCCCCCCCCCCCCCCCCCCCCCC(=O)[O-]
REMARK SMILES IDX 15 1 16 2 17 3 18 4 19 5 20 6 21 7 22 8 23 9 24 10 25 11
REMARK SMILES IDX 26 12 27 13 28 14 29 15 30 16 14 17 13 18 12 19 11 20 10 21
REMARK SMILES IDX 9 22 8 23 7 24 6 25 5 26 4 27 3 28 2 29 1 30
REMARK H PARENT
REMARK Flexibility Score: inf
ROOT
ATOM      1  C   UNL     1      55.042  32.395  43.382  1.00  0.00     0.000 C 
ENDROOT
BRANCH   1   2
ATOM      2  C   UNL     1      55.239  30.889  43.639  1.00  0.00     0.000 C 
BRANCH   2   3
ATOM      3  C   UNL     1      54.482  29.950  42.682  1.00  0.00     0.000 C 
BRANCH   3   4
ATOM      4  C   UNL     1      53.055  29.574  43.125  1.00  0.00     0.000 C 
BRANCH   4   5
ATOM      5  C   UNL     1      51.989  29.907  42.070  1.00  0.00     0.000 C 
BRANCH   5   6
ATOM      6  C   UNL     1      50.752  30.536  42.729  1.00  0.00     0.000 C 
BRANCH   6   7
ATOM      7  C   UNL     1      50.439  31.944  42.194  1.00  0.00     0.000 C 
BRANCH   7   8
ATOM      8  C   UNL     1      51.542  32.995  42.433  1.00  0.00     0.000 C 
BRANCH   8   9
ATOM      9  C   UNL     1      51.380  33.837  43.712  1.00  0.00     0.000 C 
BRANCH   9  10
ATOM     10  C   UNL     1      52.323  35.050  43.818  1.00  0.00     0.000 C 
BRANCH  10  11
ATOM     11  C   UNL     1      53.270  35.004  45.036  1.00  0.00     0.000 C 
BRANCH  11  12
ATOM     12  C   UNL     1      53.144  36.249  45.931  1.00  0.00     0.006 C 
BRANCH  12  13
ATOM     13  C   UNL     1      52.493  37.428  45.197  1.00  0.00     0.053 C 
BRANCH  13  14
ATOM     14  C   UNL     1      53.271  38.696  45.376  1.00  0.00     0.041 C 
ATOM     15  O   UNL     1      53.668  39.341  44.370  1.00  0.00    -0.550 OA
ATOM     16  O   UNL     1      53.582  39.149  46.651  1.00  0.00    -0.550 OA
ENDBRANCH  13  14
ENDBRANCH  12  13
ENDBRANCH  11  12
ENDBRANCH  10  11
ENDBRANCH   9  10
ENDBRANCH   8   9
ENDBRANCH   7   8
ENDBRANCH   6   7
ENDBRANCH   5   6
ENDBRANCH   4   5
ENDBRANCH   3   4
ENDBRANCH   2   3
ENDBRANCH   1   2
BRANCH   1  17
ATOM     17  C   UNL     1      55.969  32.979  42.294  1.00  0.00     0.000 C 
BRANCH  17  18
ATOM     18  C   UNL     1      55.619  34.434  41.936  1.00  0.00     0.000 C 
BRANCH  18  19
ATOM     19  C   UNL     1      56.202  35.454  42.931  1.00  0.00     0.000 C 
BRANCH  19  20
ATOM     20  C   UNL     1      55.597  36.871  42.848  1.00  0.00     0.000 C 
BRANCH  20  21
ATOM     21  C   UNL     1      54.543  37.078  41.740  1.00  0.00     0.000 C 
BRANCH  21  22
ATOM     22  C   UNL     1      54.906  38.137  40.683  1.00  0.00    -0.000 C 
BRANCH  22  23
ATOM     23  C   UNL     1      55.999  37.660  39.711  1.00  0.00    -0.000 C 
BRANCH  23  24
ATOM     24  C   UNL     1      57.318  38.437  39.868  1.00  0.00    -0.000 C 
BRANCH  24  25
ATOM     25  C   UNL     1      58.236  38.432  38.628  1.00  0.00    -0.000 C 
BRANCH  25  26
ATOM     26  C   UNL     1      57.673  37.686  37.406  1.00  0.00    -0.000 C 
BRANCH  26  27
ATOM     27  C   UNL     1      58.757  36.933  36.616  1.00  0.00    -0.000 C 
BRANCH  27  28
ATOM     28  C   UNL     1      60.170  37.483  36.897  1.00  0.00    -0.000 C 
BRANCH  28  29
ATOM     29  C   UNL     1      60.998  37.726  35.622  1.00  0.00    -0.003 C 
ATOM     30  C   UNL     1      61.914  38.944  35.728  1.00  0.00     0.004 C 
ENDBRANCH  28  29
ENDBRANCH  27  28
ENDBRANCH  26  27
ENDBRANCH  25  26
ENDBRANCH  24  25
ENDBRANCH  23  24
ENDBRANCH  22  23
ENDBRANCH  21  22
ENDBRANCH  20  21
ENDBRANCH  19  20
ENDBRANCH  18  19
ENDBRANCH  17  18
ENDBRANCH   1  17
TORSDOF 26
ENDMDL
MODEL 3
REMARK VINA RESULT:    -6.113      2.528      5.190
REMARK INTER + INTRA:         -18.743
REMARK INTER:                 -15.223
REMARK INTRA:                  -3.520
REMARK UNBOUND:                -3.339
REMARK SMILES CCCCCCCCCCCCCCCCCCCCCCCCCCCC(=O)[O-]
REMARK SMILES IDX 15 1 16 2 17 3 18 4 19 5 20 6 21 7 22 8 23 9 24 10 25 11
REMARK SMILES IDX 26 12 27 13 28 14 29 15 30 16 14 17 13 18 12 19 11 20 10 21
REMARK SMILES IDX 9 22 8 23 7 24 6 25 5 26 4 27 3 28 2 29 1 30
REMARK H PARENT
REMARK Flexibility Score: inf
ROOT
ATOM      1  C   UNL     1      55.983  35.607  43.126  1.00  0.00     0.000 C 
ENDROOT
BRANCH   1   2
ATOM      2  C   UNL     1      55.373  34.338  42.501  1.00  0.00     0.000 C 
BRANCH   2   3
ATOM      3  C   UNL     1      54.122  33.787  43.210  1.00  0.00     0.000 C 
BRANCH   3   4
ATOM      4  C   UNL     1      52.812  34.539  42.907  1.00  0.00     0.000 C 
BRANCH   4   5
ATOM      5  C   UNL     1      51.557  33.689  43.155  1.00  0.00     0.000 C 
BRANCH   5   6
ATOM      6  C   UNL     1      50.752  34.243  44.339  1.00  0.00     0.000 C 
BRANCH   6   7
ATOM      7  C   UNL     1      51.153  35.679  44.717  1.00  0.00     0.000 C 
BRANCH   7   8
ATOM      8  C   UNL     1      51.377  35.920  46.225  1.00  0.00     0.000 C 
BRANCH   8   9
ATOM      9  C   UNL     1      52.566  36.834  46.574  1.00  0.00     0.000 C 
BRANCH   9  10
ATOM     10  C   UNL     1      53.703  36.851  45.536  1.00  0.00     0.000 C 
BRANCH  10  11
ATOM     11  C   UNL     1      54.116  38.266  45.081  1.00  0.00     0.000 C 
BRANCH  11  12
ATOM     12  C   UNL     1      52.931  39.082  44.536  1.00  0.00     0.006 C 
BRANCH  12  13
ATOM     13  C   UNL     1      53.034  39.319  43.024  1.00  0.00     0.053 C 
BRANCH  13  14
ATOM     14  C   UNL     1      52.972  40.776  42.680  1.00  0.00     0.041 C 
ATOM     15  O   UNL     1      52.137  41.525  43.254  1.00  0.00    -0.550 OA
ATOM     16  O   UNL     1      53.812  41.300  41.708  1.00  0.00    -0.550 OA
ENDBRANCH  13  14
ENDBRANCH  12  13
ENDBRANCH  11  12
ENDBRANCH  10  11
ENDBRANCH   9  10
ENDBRANCH   8   9
ENDBRANCH   7   8
ENDBRANCH   6   7
ENDBRANCH   5   6
ENDBRANCH   4   5
ENDBRANCH   3   4
ENDBRANCH   2   3
ENDBRANCH   1   2
BRANCH   1  17
ATOM     17  C   UNL     1      56.443  36.661  42.097  1.00  0.00     0.000 C 
BRANCH  17  18
ATOM     18  C   UNL     1      55.269  37.282  41.320  1.00  0.00     0.000 C 
BRANCH  18  19
ATOM     19  C   UNL     1      55.723  38.103  40.100  1.00  0.00     0.000 C 
BRANCH  19  20
ATOM     20  C   UNL     1      55.940  37.291  38.806  1.00  0.00     0.000 C 
BRANCH  20  21
ATOM     21  C   UNL     1      57.143  37.725  37.943  1.00  0.00     0.000 C 
BRANCH  21  22
ATOM     22  C   UNL     1      58.299  38.383  38.718  1.00  0.00    -0.000 C 
BRANCH  22  23
ATOM     23  C   UNL     1      59.480  38.770  37.811  1.00  0.00    -0.000 C 
BRANCH  23  24
ATOM     24  C   UNL     1      60.569  37.683  37.754  1.00  0.00    -0.000 C 
BRANCH  24  25
ATOM     25  C   UNL     1      60.510  36.759  36.520  1.00  0.00    -0.000 C 
BRANCH  25  26
ATOM     26  C   UNL     1      60.992  37.396  35.206  1.00  0.00    -0.000 C 
BRANCH  26  27
ATOM     27  C   UNL     1      59.968  37.259  34.066  1.00  0.00    -0.000 C 
BRANCH  27  28
ATOM     28  C   UNL     1      58.521  37.166  34.592  1.00  0.00    -0.000 C 
BRANCH  28  29
ATOM     29  C   UNL     1      57.607  38.293  34.077  1.00  0.00    -0.003 C 
ATOM     30  C   UNL     1      58.019  39.674  34.584  1.00  0.00     0.004 C 
ENDBRANCH  28  29
ENDBRANCH  27  28
ENDBRANCH  26  27
ENDBRANCH  25  26
ENDBRANCH  24  25
ENDBRANCH  23  24
ENDBRANCH  22  23
ENDBRANCH  21  22
ENDBRANCH  20  21
ENDBRANCH  19  20
ENDBRANCH  18  19
ENDBRANCH  17  18
ENDBRANCH   1  17
TORSDOF 26
ENDMDL
MODEL 4
REMARK VINA RESULT:    -6.086      1.573      2.848
REMARK INTER + INTRA:         -18.676
REMARK INTER:                 -15.637
REMARK INTRA:                  -3.039
REMARK UNBOUND:                -3.339
REMARK SMILES CCCCCCCCCCCCCCCCCCCCCCCCCCCC(=O)[O-]
REMARK SMILES IDX 15 1 16 2 17 3 18 4 19 5 20 6 21 7 22 8 23 9 24 10 25 11
REMARK SMILES IDX 26 12 27 13 28 14 29 15 30 16 14 17 13 18 12 19 11 20 10 21
REMARK SMILES IDX 9 22 8 23 7 24 6 25 5 26 4 27 3 28 2 29 1 30
REMARK H PARENT
REMARK Flexibility Score: inf
ROOT
ATOM      1  C   UNL     1      55.786  34.422  41.770  1.00  0.00     0.000 C 
ENDROOT
BRANCH   1   2
ATOM      2  C   UNL     1      55.853  32.926  42.132  1.00  0.00     0.000 C 
BRANCH   2   3
ATOM      3  C   UNL     1      55.014  32.503  43.352  1.00  0.00     0.000 C 
BRANCH   3   4
ATOM      4  C   UNL     1      55.227  31.051  43.823  1.00  0.00     0.000 C 
BRANCH   4   5
ATOM      5  C   UNL     1      54.678  30.010  42.837  1.00  0.00     0.000 C 
BRANCH   5   6
ATOM      6  C   UNL     1      53.258  29.583  43.234  1.00  0.00     0.000 C 
BRANCH   6   7
ATOM      7  C   UNL     1      52.227  29.818  42.118  1.00  0.00     0.000 C 
BRANCH   7   8
ATOM      8  C   UNL     1      50.787  30.087  42.604  1.00  0.00     0.000 C 
BRANCH   8   9
ATOM      9  C   UNL     1      50.319  31.550  42.490  1.00  0.00     0.000 C 
BRANCH   9  10
ATOM     10  C   UNL     1      51.449  32.593  42.411  1.00  0.00     0.000 C 
BRANCH  10  11
ATOM     11  C   UNL     1      51.336  33.721  43.458  1.00  0.00     0.000 C 
BRANCH  11  12
ATOM     12  C   UNL     1      52.304  34.884  43.180  1.00  0.00     0.006 C 
BRANCH  12  13
ATOM     13  C   UNL     1      52.722  35.612  44.465  1.00  0.00     0.053 C 
BRANCH  13  14
ATOM     14  C   UNL     1      51.599  36.420  45.040  1.00  0.00     0.041 C 
ATOM     15  O   UNL     1      51.138  37.405  44.404  1.00  0.00    -0.550 OA
ATOM     16  O   UNL     1      51.082  36.105  46.289  1.00  0.00    -0.550 OA
ENDBRANCH  13  14
ENDBRANCH  12  13
ENDBRANCH  11  12
ENDBRANCH  10  11
ENDBRANCH   9  10
ENDBRANCH   8   9
ENDBRANCH   7   8
ENDBRANCH   6   7
ENDBRANCH   5   6
ENDBRANCH   4   5
ENDBRANCH   3   4
ENDBRANCH   2   3
ENDBRANCH   1   2
BRANCH   1  17
ATOM     17  C   UNL     1      55.996  35.374  42.966  1.00  0.00     0.000 C 
BRANCH  17  18
ATOM     18  C   UNL     1      56.107  36.848  42.538  1.00  0.00     0.000 C 
BRANCH  18  19
ATOM     19  C   UNL     1      54.778  37.421  42.011  1.00  0.00     0.000 C 
BRANCH  19  20
ATOM     20  C   UNL     1      54.848  38.049  40.603  1.00  0.00     0.000 C 
BRANCH  20  21
ATOM     21  C   UNL     1      55.940  37.477  39.675  1.00  0.00     0.000 C 
BRANCH  21  22
ATOM     22  C   UNL     1      57.247  38.289  39.627  1.00  0.00    -0.000 C 
BRANCH  22  23
ATOM     23  C   UNL     1      57.942  38.221  38.256  1.00  0.00    -0.000 C 
BRANCH  23  24
ATOM     24  C   UNL     1      59.459  38.467  38.343  1.00  0.00    -0.000 C 
BRANCH  24  25
ATOM     25  C   UNL     1      60.312  37.680  37.327  1.00  0.00    -0.000 C 
BRANCH  25  26
ATOM     26  C   UNL     1      59.511  36.819  36.335  1.00  0.00    -0.000 C 
BRANCH  26  27
ATOM     27  C   UNL     1      59.938  37.042  34.873  1.00  0.00    -0.000 C 
BRANCH  27  28
ATOM     28  C   UNL     1      58.731  37.303  33.948  1.00  0.00    -0.000 C 
BRANCH  28  29
ATOM     29  C   UNL     1      57.561  38.012  34.652  1.00  0.00    -0.003 C 
ATOM     30  C   UNL     1      57.679  39.534  34.622  1.00  0.00     0.004 C 
ENDBRANCH  28  29
ENDBRANCH  27  28
ENDBRANCH  26  27
ENDBRANCH  25  26
ENDBRANCH  24  25
ENDBRANCH  23  24
ENDBRANCH  22  23
ENDBRANCH  21  22
ENDBRANCH  20  21
ENDBRANCH  19  20
ENDBRANCH  18  19
ENDBRANCH  17  18
ENDBRANCH   1  17
TORSDOF 26
ENDMDL
MODEL 5
REMARK VINA RESULT:    -5.972      2.823      6.356
REMARK INTER + INTRA:         -18.389
REMARK INTER:                 -14.449
REMARK INTRA:                  -3.939
REMARK UNBOUND:                -3.339
REMARK SMILES CCCCCCCCCCCCCCCCCCCCCCCCCCCC(=O)[O-]
REMARK SMILES IDX 15 1 16 2 17 3 18 4 19 5 20 6 21 7 22 8 23 9 24 10 25 11
REMARK SMILES IDX 26 12 27 13 28 14 29 15 30 16 14 17 13 18 12 19 11 20 10 21
REMARK SMILES IDX 9 22 8 23 7 24 6 25 5 26 4 27 3 28 2 29 1 30
REMARK H PARENT
REMARK Flexibility Score: inf
ROOT
ATOM      1  C   UNL     1      55.436  37.629  41.177  1.00  0.00     0.000 C 
ENDROOT
BRANCH   1   2
ATOM      2  C   UNL     1      53.937  37.272  41.184  1.00  0.00     0.000 C 
BRANCH   2   3
ATOM      3  C   UNL     1      52.973  38.472  41.220  1.00  0.00     0.000 C 
BRANCH   3   4
ATOM      4  C   UNL     1      53.609  39.813  41.634  1.00  0.00     0.000 C 
BRANCH   4   5
ATOM      5  C   UNL     1      52.987  40.409  42.905  1.00  0.00     0.000 C 
BRANCH   5   6
ATOM      6  C   UNL     1      52.757  39.317  43.960  1.00  0.00     0.000 C 
BRANCH   6   7
ATOM      7  C   UNL     1      54.042  38.929  44.710  1.00  0.00     0.000 C 
BRANCH   7   8
ATOM      8  C   UNL     1      53.944  38.989  46.249  1.00  0.00     0.000 C 
BRANCH   8   9
ATOM      9  C   UNL     1      52.824  38.133  46.868  1.00  0.00     0.000 C 
BRANCH   9  10
ATOM     10  C   UNL     1      52.911  36.626  46.568  1.00  0.00     0.000 C 
BRANCH  10  11
ATOM     11  C   UNL     1      51.799  36.107  45.632  1.00  0.00     0.000 C 
BRANCH  11  12
ATOM     12  C   UNL     1      52.356  35.362  44.406  1.00  0.00     0.006 C 
BRANCH  12  13
ATOM     13  C   UNL     1      53.880  35.194  44.472  1.00  0.00     0.053 C 
BRANCH  13  14
ATOM     14  C   UNL     1      54.389  34.283  43.397  1.00  0.00     0.041 C 
ATOM     15  O   UNL     1      55.496  34.515  42.843  1.00  0.00    -0.550 OA
ATOM     16  O   UNL     1      53.628  33.197  42.987  1.00  0.00    -0.550 OA
ENDBRANCH  13  14
ENDBRANCH  12  13
ENDBRANCH  11  12
ENDBRANCH  10  11
ENDBRANCH   9  10
ENDBRANCH   8   9
ENDBRANCH   7   8
ENDBRANCH   6   7
ENDBRANCH   5   6
ENDBRANCH   4   5
ENDBRANCH   3   4
ENDBRANCH   2   3
ENDBRANCH   1   2
BRANCH   1  17
ATOM     17  C   UNL     1      56.085  37.614  39.777  1.00  0.00     0.000 C 
BRANCH  17  18
ATOM     18  C   UNL     1      57.090  38.762  39.577  1.00  0.00     0.000 C 
BRANCH  18  19
ATOM     19  C   UNL     1      58.178  38.433  38.538  1.00  0.00     0.000 C 
BRANCH  19  20
ATOM     20  C   UNL     1      57.663  37.820  37.220  1.00  0.00     0.000 C 
BRANCH  20  21
ATOM     21  C   UNL     1      58.678  36.948  36.453  1.00  0.00     0.000 C 
BRANCH  21  22
ATOM     22  C   UNL     1      58.591  37.038  34.918  1.00  0.00    -0.000 C 
BRANCH  22  23
ATOM     23  C   UNL     1      59.970  36.996  34.239  1.00  0.00    -0.000 C 
BRANCH  23  24
ATOM     24  C   UNL     1      61.133  37.006  35.248  1.00  0.00    -0.000 C 
BRANCH  24  25
ATOM     25  C   UNL     1      61.893  38.344  35.361  1.00  0.00    -0.000 C 
BRANCH  25  26
ATOM     26  C   UNL     1      61.496  39.218  36.563  1.00  0.00    -0.000 C 
BRANCH  26  27
ATOM     27  C   UNL     1      60.444  40.282  36.205  1.00  0.00    -0.000 C 
BRANCH  27  28
ATOM     28  C   UNL     1      60.462  40.637  34.704  1.00  0.00    -0.000 C 
BRANCH  28  29
ATOM     29  C   UNL     1      59.070  40.594  34.048  1.00  0.00    -0.003 C 
ATOM     30  C   UNL     1      57.930  40.727  35.055  1.00  0.00     0.004 C 
ENDBRANCH  28  29
ENDBRANCH  27  28
ENDBRANCH  26  27
ENDBRANCH  25  26
ENDBRANCH  24  25
ENDBRANCH  23  24
ENDBRANCH  22  23
ENDBRANCH  21  22
ENDBRANCH  20  21
ENDBRANCH  19  20
ENDBRANCH  18  19
ENDBRANCH  17  18
ENDBRANCH   1  17
TORSDOF 26
ENDMDL
MODEL 6
REMARK VINA RESULT:    -5.952      2.338      5.906
REMARK INTER + INTRA:         -18.337
REMARK INTER:                 -14.683
REMARK INTRA:                  -3.654
REMARK UNBOUND:                -3.339
REMARK SMILES CCCCCCCCCCCCCCCCCCCCCCCCCCCC(=O)[O-]
REMARK SMILES IDX 15 1 16 2 17 3 18 4 19 5 20 6 21 7 22 8 23 9 24 10 25 11
REMARK SMILES IDX 26 12 27 13 28 14 29 15 30 16 14 17 13 18 12 19 11 20 10 21
REMARK SMILES IDX 9 22 8 23 7 24 6 25 5 26 4 27 3 28 2 29 1 30
REMARK H PARENT
REMARK Flexibility Score: inf
ROOT
ATOM      1  C   UNL     1      55.280  37.522  40.712  1.00  0.00     0.000 C 
ENDROOT
BRANCH   1   2
ATOM      2  C   UNL     1      54.597  38.873  40.993  1.00  0.00     0.000 C 
BRANCH   2   3
ATOM      3  C   UNL     1      53.236  38.790  41.710  1.00  0.00     0.000 C 
BRANCH   3   4
ATOM      4  C   UNL     1      53.088  39.700  42.944  1.00  0.00     0.000 C 
BRANCH   4   5
ATOM      5  C   UNL     1      52.676  38.936  44.211  1.00  0.00     0.000 C 
BRANCH   5   6
ATOM      6  C   UNL     1      53.894  38.683  45.112  1.00  0.00     0.000 C 
BRANCH   6   7
ATOM      7  C   UNL     1      54.223  37.189  45.270  1.00  0.00     0.000 C 
BRANCH   7   8
ATOM      8  C   UNL     1      54.804  36.511  44.012  1.00  0.00     0.000 C 
BRANCH   8   9
ATOM      9  C   UNL     1      54.100  35.210  43.583  1.00  0.00     0.000 C 
BRANCH   9  10
ATOM     10  C   UNL     1      52.623  35.370  43.179  1.00  0.00     0.000 C 
BRANCH  10  11
ATOM     11  C   UNL     1      51.737  34.161  43.547  1.00  0.00     0.000 C 
BRANCH  11  12
ATOM     12  C   UNL     1      50.799  34.455  44.731  1.00  0.00     0.006 C 
BRANCH  12  13
ATOM     13  C   UNL     1      50.986  35.875  45.282  1.00  0.00     0.053 C 
BRANCH  13  14
ATOM     14  C   UNL     1      50.820  35.923  46.770  1.00  0.00     0.041 C 
ATOM     15  O   UNL     1      49.712  35.632  47.293  1.00  0.00    -0.550 OA
ATOM     16  O   UNL     1      51.879  36.317  47.577  1.00  0.00    -0.550 OA
ENDBRANCH  13  14
ENDBRANCH  12  13
ENDBRANCH  11  12
ENDBRANCH  10  11
ENDBRANCH   9  10
ENDBRANCH   8   9
ENDBRANCH   7   8
ENDBRANCH   6   7
ENDBRANCH   5   6
ENDBRANCH   4   5
ENDBRANCH   3   4
ENDBRANCH   2   3
ENDBRANCH   1   2
BRANCH   1  17
ATOM     17  C   UNL     1      55.978  37.439  39.337  1.00  0.00     0.000 C 
BRANCH  17  18
ATOM     18  C   UNL     1      57.138  38.441  39.201  1.00  0.00     0.000 C 
BRANCH  18  19
ATOM     19  C   UNL     1      58.080  38.111  38.028  1.00  0.00     0.000 C 
BRANCH  19  20
ATOM     20  C   UNL     1      59.581  38.327  38.312  1.00  0.00     0.000 C 
BRANCH  20  21
ATOM     21  C   UNL     1      60.547  37.522  37.418  1.00  0.00     0.000 C 
BRANCH  21  22
ATOM     22  C   UNL     1      59.871  36.637  36.355  1.00  0.00    -0.000 C 
BRANCH  22  23
ATOM     23  C   UNL     1      60.341  36.956  34.926  1.00  0.00    -0.000 C 
BRANCH  23  24
ATOM     24  C   UNL     1      61.653  37.761  34.895  1.00  0.00    -0.000 C 
BRANCH  24  25
ATOM     25  C   UNL     1      61.553  39.157  34.247  1.00  0.00    -0.000 C 
BRANCH  25  26
ATOM     26  C   UNL     1      60.126  39.607  33.890  1.00  0.00    -0.000 C 
BRANCH  26  27
ATOM     27  C   UNL     1      59.449  40.397  35.024  1.00  0.00    -0.000 C 
BRANCH  27  28
ATOM     28  C   UNL     1      57.913  40.261  34.993  1.00  0.00    -0.000 C 
BRANCH  28  29
ATOM     29  C   UNL     1      57.419  39.101  34.109  1.00  0.00    -0.003 C 
ATOM     30  C   UNL     1      56.548  38.102  34.868  1.00  0.00     0.004 C 
ENDBRANCH  28  29
ENDBRANCH  27  28
ENDBRANCH  26  27
ENDBRANCH  25  26
ENDBRANCH  24  25
ENDBRANCH  23  24
ENDBRANCH  22  23
ENDBRANCH  21  22
ENDBRANCH  20  21
ENDBRANCH  19  20
ENDBRANCH  18  19
ENDBRANCH  17  18
ENDBRANCH   1  17
TORSDOF 26
ENDMDL
MODEL 7
REMARK VINA RESULT:    -5.935      2.689      5.763
REMARK INTER + INTRA:         -18.295
REMARK INTER:                 -14.457
REMARK INTRA:                  -3.838
REMARK UNBOUND:                -3.339
REMARK SMILES CCCCCCCCCCCCCCCCCCCCCCCCCCCC(=O)[O-]
REMARK SMILES IDX 15 1 16 2 17 3 18 4 19 5 20 6 21 7 22 8 23 9 24 10 25 11
REMARK SMILES IDX 26 12 27 13 28 14 29 15 30 16 14 17 13 18 12 19 11 20 10 21
REMARK SMILES IDX 9 22 8 23 7 24 6 25 5 26 4 27 3 28 2 29 1 30
REMARK H PARENT
REMARK Flexibility Score: inf
ROOT
ATOM      1  C   UNL     1      55.056  38.024  40.939  1.00  0.00     0.000 C 
ENDROOT
BRANCH   1   2
ATOM      2  C   UNL     1      53.870  38.896  41.395  1.00  0.00     0.000 C 
BRANCH   2   3
ATOM      3  C   UNL     1      53.041  38.327  42.561  1.00  0.00     0.000 C 
BRANCH   3   4
ATOM      4  C   UNL     1      53.659  38.519  43.959  1.00  0.00     0.000 C 
BRANCH   4   5
ATOM      5  C   UNL     1      52.632  38.391  45.095  1.00  0.00     0.000 C 
BRANCH   5   6
ATOM      6  C   UNL     1      53.127  37.406  46.164  1.00  0.00     0.000 C 
BRANCH   6   7
ATOM      7  C   UNL     1      52.281  36.123  46.234  1.00  0.00     0.000 C 
BRANCH   7   8
ATOM      8  C   UNL     1      51.123  36.048  45.218  1.00  0.00     0.000 C 
BRANCH   8   9
ATOM      9  C   UNL     1      50.536  34.641  44.994  1.00  0.00     0.000 C 
BRANCH   9  10
ATOM     10  C   UNL     1      51.053  33.910  43.742  1.00  0.00     0.000 C 
BRANCH  10  11
ATOM     11  C   UNL     1      52.066  34.727  42.911  1.00  0.00     0.000 C 
BRANCH  11  12
ATOM     12  C   UNL     1      53.462  34.080  42.879  1.00  0.00     0.006 C 
BRANCH  12  13
ATOM     13  C   UNL     1      54.519  34.945  43.577  1.00  0.00     0.053 C 
BRANCH  13  14
ATOM     14  C   UNL     1      55.806  34.982  42.810  1.00  0.00     0.041 C 
ATOM     15  O   UNL     1      56.008  34.162  41.875  1.00  0.00    -0.550 OA
ATOM     16  O   UNL     1      56.792  35.899  43.145  1.00  0.00    -0.550 OA
ENDBRANCH  13  14
ENDBRANCH  12  13
ENDBRANCH  11  12
ENDBRANCH  10  11
ENDBRANCH   9  10
ENDBRANCH   8   9
ENDBRANCH   7   8
ENDBRANCH   6   7
ENDBRANCH   5   6
ENDBRANCH   4   5
ENDBRANCH   3   4
ENDBRANCH   2   3
ENDBRANCH   1   2
BRANCH   1  17
ATOM     17  C   UNL     1      54.968  37.552  39.472  1.00  0.00     0.000 C 
BRANCH  17  18
ATOM     18  C   UNL     1      56.353  37.341  38.835  1.00  0.00     0.000 C 
BRANCH  18  19
ATOM     19  C   UNL     1      57.366  38.433  39.223  1.00  0.00     0.000 C 
BRANCH  19  20
ATOM     20  C   UNL     1      58.524  38.639  38.225  1.00  0.00     0.000 C 
BRANCH  20  21
ATOM     21  C   UNL     1      59.913  38.184  38.718  1.00  0.00     0.000 C 
BRANCH  21  22
ATOM     22  C   UNL     1      60.856  37.654  37.622  1.00  0.00    -0.000 C 
BRANCH  22  23
ATOM     23  C   UNL     1      60.105  36.957  36.475  1.00  0.00    -0.000 C 
BRANCH  23  24
ATOM     24  C   UNL     1      60.731  37.234  35.097  1.00  0.00    -0.000 C 
BRANCH  24  25
ATOM     25  C   UNL     1      61.435  38.599  34.957  1.00  0.00    -0.000 C 
BRANCH  25  26
ATOM     26  C   UNL     1      60.587  39.704  34.305  1.00  0.00    -0.000 C 
BRANCH  26  27
ATOM     27  C   UNL     1      59.752  40.496  35.327  1.00  0.00    -0.000 C 
BRANCH  27  28
ATOM     28  C   UNL     1      58.249  40.491  34.981  1.00  0.00    -0.000 C 
BRANCH  28  29
ATOM     29  C   UNL     1      57.812  39.258  34.168  1.00  0.00    -0.003 C 
ATOM     30  C   UNL     1      56.928  38.300  34.965  1.00  0.00     0.004 C 
ENDBRANCH  28  29
ENDBRANCH  27  28
ENDBRANCH  26  27
ENDBRANCH  25  26
ENDBRANCH  24  25
ENDBRANCH  23  24
ENDBRANCH  22  23
ENDBRANCH  21  22
ENDBRANCH  20  21
ENDBRANCH  19  20
ENDBRANCH  18  19
ENDBRANCH  17  18
ENDBRANCH   1  17
TORSDOF 26
ENDMDL
MODEL 8
REMARK VINA RESULT:    -5.892      2.565      6.532
REMARK INTER + INTRA:         -18.187
REMARK INTER:                 -14.765
REMARK INTRA:                  -3.422
REMARK UNBOUND:                -3.339
REMARK SMILES CCCCCCCCCCCCCCCCCCCCCCCCCCCC(=O)[O-]
REMARK SMILES IDX 15 1 16 2 17 3 18 4 19 5 20 6 21 7 22 8 23 9 24 10 25 11
REMARK SMILES IDX 26 12 27 13 28 14 29 15 30 16 14 17 13 18 12 19 11 20 10 21
REMARK SMILES IDX 9 22 8 23 7 24 6 25 5 26 4 27 3 28 2 29 1 30
REMARK H PARENT
REMARK Flexibility Score: inf
ROOT
ATOM      1  C   UNL     1      55.594  37.328  38.734  1.00  0.00     0.000 C 
ENDROOT
BRANCH   1   2
ATOM      2  C   UNL     1      55.758  37.365  40.265  1.00  0.00     0.000 C 
BRANCH   2   3
ATOM      3  C   UNL     1      54.832  38.348  41.006  1.00  0.00     0.000 C 
BRANCH   3   4
ATOM      4  C   UNL     1      53.696  37.695  41.816  1.00  0.00     0.000 C 
BRANCH   4   5
ATOM      5  C   UNL     1      53.104  38.627  42.883  1.00  0.00     0.000 C 
BRANCH   5   6
ATOM      6  C   UNL     1      53.992  38.651  44.135  1.00  0.00     0.000 C 
BRANCH   6   7
ATOM      7  C   UNL     1      53.242  38.230  45.410  1.00  0.00     0.000 C 
BRANCH   7   8
ATOM      8  C   UNL     1      53.428  36.754  45.821  1.00  0.00     0.000 C 
BRANCH   8   9
ATOM      9  C   UNL     1      52.133  35.925  45.892  1.00  0.00     0.000 C 
BRANCH   9  10
ATOM     10  C   UNL     1      51.430  35.694  44.542  1.00  0.00     0.000 C 
BRANCH  10  11
ATOM     11  C   UNL     1      51.788  34.351  43.870  1.00  0.00     0.000 C 
BRANCH  11  12
ATOM     12  C   UNL     1      52.973  34.475  42.896  1.00  0.00     0.006 C 
BRANCH  12  13
ATOM     13  C   UNL     1      54.277  33.931  43.496  1.00  0.00     0.053 C 
BRANCH  13  14
ATOM     14  C   UNL     1      55.484  34.485  42.803  1.00  0.00     0.041 C 
ATOM     15  O   UNL     1      55.965  33.892  41.801  1.00  0.00    -0.550 OA
ATOM     16  O   UNL     1      56.095  35.636  43.280  1.00  0.00    -0.550 OA
ENDBRANCH  13  14
ENDBRANCH  12  13
ENDBRANCH  11  12
ENDBRANCH  10  11
ENDBRANCH   9  10
ENDBRANCH   8   9
ENDBRANCH   7   8
ENDBRANCH   6   7
ENDBRANCH   5   6
ENDBRANCH   4   5
ENDBRANCH   3   4
ENDBRANCH   2   3
ENDBRANCH   1   2
BRANCH   1  17
ATOM     17  C   UNL     1      56.906  37.553  37.951  1.00  0.00     0.000 C 
BRANCH  17  18
ATOM     18  C   UNL     1      57.883  38.486  38.688  1.00  0.00     0.000 C 
BRANCH  18  19
ATOM     19  C   UNL     1      59.117  38.852  37.843  1.00  0.00     0.000 C 
BRANCH  19  20
ATOM     20  C   UNL     1      60.468  38.372  38.412  1.00  0.00     0.000 C 
BRANCH  20  21
ATOM     21  C   UNL     1      61.619  39.397  38.340  1.00  0.00     0.000 C 
BRANCH  21  22
ATOM     22  C   UNL     1      61.686  40.215  37.037  1.00  0.00    -0.000 C 
BRANCH  22  23
ATOM     23  C   UNL     1      62.712  39.658  36.035  1.00  0.00    -0.000 C 
BRANCH  23  24
ATOM     24  C   UNL     1      62.200  39.679  34.584  1.00  0.00    -0.000 C 
BRANCH  24  25
ATOM     25  C   UNL     1      60.889  38.904  34.338  1.00  0.00    -0.000 C 
BRANCH  25  26
ATOM     26  C   UNL     1      60.898  37.443  34.818  1.00  0.00    -0.000 C 
BRANCH  26  27
ATOM     27  C   UNL     1      59.501  36.797  34.788  1.00  0.00    -0.000 C 
BRANCH  27  28
ATOM     28  C   UNL     1      58.475  37.664  34.031  1.00  0.00    -0.000 C 
BRANCH  28  29
ATOM     29  C   UNL     1      57.027  37.159  34.167  1.00  0.00    -0.003 C 
ATOM     30  C   UNL     1      56.033  38.275  34.487  1.00  0.00     0.004 C 
ENDBRANCH  28  29
ENDBRANCH  27  28
ENDBRANCH  26  27
ENDBRANCH  25  26
ENDBRANCH  24  25
ENDBRANCH  23  24
ENDBRANCH  22  23
ENDBRANCH  21  22
ENDBRANCH  20  21
ENDBRANCH  19  20
ENDBRANCH  18  19
ENDBRANCH  17  18
ENDBRANCH   1  17
TORSDOF 26
ENDMDL
MODEL 9
REMARK VINA RESULT:    -5.839      2.306      5.418
REMARK INTER + INTRA:         -18.054
REMARK INTER:                 -14.660
REMARK INTRA:                  -3.394
REMARK UNBOUND:                -3.339
REMARK SMILES CCCCCCCCCCCCCCCCCCCCCCCCCCCC(=O)[O-]
REMARK SMILES IDX 15 1 16 2 17 3 18 4 19 5 20 6 21 7 22 8 23 9 24 10 25 11
REMARK SMILES IDX 26 12 27 13 28 14 29 15 30 16 14 17 13 18 12 19 11 20 10 21
REMARK SMILES IDX 9 22 8 23 7 24 6 25 5 26 4 27 3 28 2 29 1 30
REMARK H PARENT
REMARK Flexibility Score: inf
ROOT
ATOM      1  C   UNL     1      55.261  38.659  40.629  1.00  0.00     0.000 C 
ENDROOT
BRANCH   1   2
ATOM      2  C   UNL     1      53.872  38.047  40.893  1.00  0.00     0.000 C 
BRANCH   2   3
ATOM      3  C   UNL     1      53.750  37.215  42.183  1.00  0.00     0.000 C 
BRANCH   3   4
ATOM      4  C   UNL     1      54.912  37.378  43.181  1.00  0.00     0.000 C 
BRANCH   4   5
ATOM      5  C   UNL     1      55.827  36.146  43.249  1.00  0.00     0.000 C 
BRANCH   5   6
ATOM      6  C   UNL     1      55.401  35.097  42.211  1.00  0.00     0.000 C 
BRANCH   6   7
ATOM      7  C   UNL     1      55.545  33.655  42.724  1.00  0.00     0.000 C 
BRANCH   7   8
ATOM      8  C   UNL     1      54.244  33.017  43.256  1.00  0.00     0.000 C 
BRANCH   8   9
ATOM      9  C   UNL     1      52.964  33.837  43.010  1.00  0.00     0.000 C 
BRANCH   9  10
ATOM     10  C   UNL     1      52.140  34.155  44.272  1.00  0.00     0.000 C 
BRANCH  10  11
ATOM     11  C   UNL     1      51.567  35.587  44.303  1.00  0.00     0.000 C 
BRANCH  11  12
ATOM     12  C   UNL     1      51.503  36.168  45.726  1.00  0.00     0.006 C 
BRANCH  12  13
ATOM     13  C   UNL     1      52.895  36.506  46.279  1.00  0.00     0.053 C 
BRANCH  13  14
ATOM     14  C   UNL     1      53.058  37.976  46.519  1.00  0.00     0.041 C 
ATOM     15  O   UNL     1      53.463  38.392  47.637  1.00  0.00    -0.550 OA
ATOM     16  O   UNL     1      52.737  38.885  45.522  1.00  0.00    -0.550 OA
ENDBRANCH  13  14
ENDBRANCH  12  13
ENDBRANCH  11  12
ENDBRANCH  10  11
ENDBRANCH   9  10
ENDBRANCH   8   9
ENDBRANCH   7   8
ENDBRANCH   6   7
ENDBRANCH   5   6
ENDBRANCH   4   5
ENDBRANCH   3   4
ENDBRANCH   2   3
ENDBRANCH   1   2
BRANCH   1  17
ATOM     17  C   UNL     1      56.132  37.854  39.642  1.00  0.00     0.000 C 
BRANCH  17  18
ATOM     18  C   UNL     1      57.549  38.434  39.492  1.00  0.00     0.000 C 
BRANCH  18  19
ATOM     19  C   UNL     1      58.193  38.103  38.134  1.00  0.00     0.000 C 
BRANCH  19  20
ATOM     20  C   UNL     1      59.682  38.484  38.003  1.00  0.00     0.000 C 
BRANCH  20  21
ATOM     21  C   UNL     1      60.615  37.355  37.517  1.00  0.00     0.000 C 
BRANCH  21  22
ATOM     22  C   UNL     1      60.221  36.713  36.175  1.00  0.00    -0.000 C 
BRANCH  22  23
ATOM     23  C   UNL     1      61.083  37.207  35.001  1.00  0.00    -0.000 C 
BRANCH  23  24
ATOM     24  C   UNL     1      61.554  38.662  35.177  1.00  0.00    -0.000 C 
BRANCH  24  25
ATOM     25  C   UNL     1      60.751  39.713  34.382  1.00  0.00    -0.000 C 
BRANCH  25  26
ATOM     26  C   UNL     1      59.671  40.453  35.190  1.00  0.00    -0.000 C 
BRANCH  26  27
ATOM     27  C   UNL     1      58.270  40.325  34.567  1.00  0.00    -0.000 C 
BRANCH  27  28
ATOM     28  C   UNL     1      58.061  38.962  33.876  1.00  0.00    -0.000 C 
BRANCH  28  29
ATOM     29  C   UNL     1      57.057  38.052  34.605  1.00  0.00    -0.003 C 
ATOM     30  C   UNL     1      55.604  38.356  34.245  1.00  0.00     0.004 C 
ENDBRANCH  28  29
ENDBRANCH  27  28
ENDBRANCH  26  27
ENDBRANCH  25  26
ENDBRANCH  24  25
ENDBRANCH  23  24
ENDBRANCH  22  23
ENDBRANCH  21  22
ENDBRANCH  20  21
ENDBRANCH  19  20
ENDBRANCH  18  19
ENDBRANCH  17  18
ENDBRANCH   1  17
TORSDOF 26
ENDMDL
