MODEL 1
REMARK VINA RESULT:    -3.481      0.000      0.000
REMARK INTER + INTRA:          -6.133
REMARK INTER:                  -5.515
REMARK INTRA:                  -0.618
REMARK UNBOUND:                -0.618
REMARK SMILES CCCCCCCCCCCC(=O)[O-]
REMARK SMILES IDX 7 1 8 2 9 3 10 4 11 5 12 6 13 7 14 8 6 9 5 10 4 11 3 12 2 13
REMARK SMILES IDX 1 14
REMARK H PARENT
REMARK Flexibility Score: inf
ROOT
ATOM      1  C   UNL     1       7.776   8.602  33.234  1.00  0.00     0.000 C 
ENDROOT
BRANCH   1   2
ATOM      2  C   UNL     1       6.625   7.603  33.444  1.00  0.00     0.000 C 
BRANCH   2   3
ATOM      3  C   UNL     1       6.456   7.199  34.919  1.00  0.00     0.000 C 
BRANCH   3   4
ATOM      4  C   UNL     1       7.010   5.795  35.213  1.00  0.00     0.006 C 
BRANCH   4   5
ATOM      5  C   UNL     1       8.262   5.827  36.100  1.00  0.00     0.053 C 
BRANCH   5   6
ATOM      6  C   UNL     1       9.155   4.670  35.780  1.00  0.00     0.041 C 
ATOM      7  O   UNL     1      10.290   4.867  35.270  1.00  0.00    -0.550 OA
ATOM      8  O   UNL     1       8.717   3.371  36.000  1.00  0.00    -0.550 OA
ENDBRANCH   5   6
ENDBRANCH   4   5
ENDBRANCH   3   4
ENDBRANCH   2   3
ENDBRANCH   1   2
BRANCH   1   9
ATOM      9  C   UNL     1       7.282   9.982  32.764  1.00  0.00     0.000 C 
BRANCH   9  10
ATOM     10  C   UNL     1       5.875  10.316  33.287  1.00  0.00    -0.000 C 
BRANCH  10  11
ATOM     11  C   UNL     1       5.905  11.270  34.494  1.00  0.00    -0.000 C 
BRANCH  11  12
ATOM     12  C   UNL     1       5.895  10.521  35.837  1.00  0.00    -0.000 C 
BRANCH  12  13
ATOM     13  C   UNL     1       5.889  11.469  37.046  1.00  0.00    -0.003 C 
ATOM     14  C   UNL     1       7.120  12.369  37.043  1.00  0.00     0.004 C 
ENDBRANCH  12  13
ENDBRANCH  11  12
ENDBRANCH  10  11
ENDBRANCH   9  10
ENDBRANCH   1   9
TORSDOF 10
ENDMDL
MODEL 2
REMARK VINA RESULT:    -3.407      4.362      6.916
REMARK INTER + INTRA:          -6.016
REMARK INTER:                  -5.594
REMARK INTRA:                  -0.423
REMARK UNBOUND:                -0.618
REMARK SMILES CCCCCCCCCCCC(=O)[O-]
REMARK SMILES IDX 7 1 8 2 9 3 10 4 11 5 12 6 13 7 14 8 6 9 5 10 4 11 3 12 2 13
REMARK SMILES IDX 1 14
REMARK H PARENT
REMARK Flexibility Score: inf
ROOT
ATOM      1  C   UNL     1       6.910   9.675  33.753  1.00  0.00     0.000 C 
ENDROOT
BRANCH   1   2
ATOM      2  C   UNL     1       6.523   9.472  35.228  1.00  0.00     0.000 C 
BRANCH   2   3
ATOM      3  C   UNL     1       5.884  10.726  35.849  1.00  0.00     0.000 C 
BRANCH   3   4
ATOM      4  C   UNL     1       5.880  11.924  34.885  1.00  0.00     0.006 C 
BRANCH   4   5
ATOM      5  C   UNL     1       5.915  13.272  35.617  1.00  0.00     0.053 C 
BRANCH   5   6
ATOM      6  C   UNL     1       5.937  14.398  34.632  1.00  0.00     0.041 C 
ATOM      7  O   UNL     1       5.946  14.160  33.395  1.00  0.00    -0.550 OA
ATOM      8  O   UNL     1       5.997  15.712  35.079  1.00  0.00    -0.550 OA
ENDBRANCH   5   6
ENDBRANCH   4   5
ENDBRANCH   3   4
ENDBRANCH   2   3
ENDBRANCH   1   2
BRANCH   1   9
ATOM      9  C   UNL     1       7.091   8.344  33.001  1.00  0.00     0.000 C 
BRANCH   9  10
ATOM     10  C   UNL     1       6.523   7.144  33.776  1.00  0.00    -0.000 C 
BRANCH  10  11
ATOM     11  C   UNL     1       7.626   6.251  34.372  1.00  0.00    -0.000 C 
BRANCH  11  12
ATOM     12  C   UNL     1       7.666   6.309  35.907  1.00  0.00    -0.000 C 
BRANCH  12  13
ATOM     13  C   UNL     1       9.021   5.871  36.483  1.00  0.00    -0.003 C 
ATOM     14  C   UNL     1       9.548   4.634  35.764  1.00  0.00     0.004 C 
ENDBRANCH  12  13
ENDBRANCH  11  12
ENDBRANCH  10  11
ENDBRANCH   9  10
ENDBRANCH   1   9
TORSDOF 10
ENDMDL
MODEL 3
REMARK VINA RESULT:    -3.279      3.975      6.697
REMARK INTER + INTRA:          -5.813
REMARK INTER:                  -5.130
REMARK INTRA:                  -0.683
REMARK UNBOUND:                -0.618
REMARK SMILES CCCCCCCCCCCC(=O)[O-]
REMARK SMILES IDX 7 1 8 2 9 3 10 4 11 5 12 6 13 7 14 8 6 9 5 10 4 11 3 12 2 13
REMARK SMILES IDX 1 14
REMARK H PARENT
REMARK Flexibility Score: inf
ROOT
ATOM      1  C   UNL     1       7.591   7.959  33.376  1.00  0.00     0.000 C 
ENDROOT
BRANCH   1   2
ATOM      2  C   UNL     1       6.960   9.257  33.909  1.00  0.00     0.000 C 
BRANCH   2   3
ATOM      3  C   UNL     1       6.416  10.154  32.784  1.00  0.00     0.000 C 
BRANCH   3   4
ATOM      4  C   UNL     1       5.905  11.507  33.304  1.00  0.00     0.006 C 
BRANCH   4   5
ATOM      5  C   UNL     1       5.875  11.579  34.836  1.00  0.00     0.053 C 
BRANCH   5   6
ATOM      6  C   UNL     1       5.983  13.000  35.293  1.00  0.00     0.041 C 
ATOM      7  O   UNL     1       6.100  13.265  36.519  1.00  0.00    -0.550 OA
ATOM      8  O   UNL     1       5.905  14.035  34.370  1.00  0.00    -0.550 OA
ENDBRANCH   5   6
ENDBRANCH   4   5
ENDBRANCH   3   4
ENDBRANCH   2   3
ENDBRANCH   1   2
BRANCH   1   9
ATOM      9  C   UNL     1       7.101   6.710  34.130  1.00  0.00     0.000 C 
BRANCH   9  10
ATOM     10  C   UNL     1       5.928   7.014  35.077  1.00  0.00    -0.000 C 
BRANCH  10  11
ATOM     11  C   UNL     1       5.905   6.085  36.304  1.00  0.00    -0.000 C 
BRANCH  11  12
ATOM     12  C   UNL     1       7.059   5.069  36.296  1.00  0.00    -0.000 C 
BRANCH  12  13
ATOM     13  C   UNL     1       6.569   3.613  36.278  1.00  0.00    -0.003 C 
ATOM     14  C   UNL     1       5.906   3.274  34.947  1.00  0.00     0.004 C 
ENDBRANCH  12  13
ENDBRANCH  11  12
ENDBRANCH  10  11
ENDBRANCH   9  10
ENDBRANCH   1   9
TORSDOF 10
ENDMDL
MODEL 4
REMARK VINA RESULT:    -3.034      3.219      7.090
REMARK INTER + INTRA:          -5.426
REMARK INTER:                  -4.836
REMARK INTRA:                  -0.589
REMARK UNBOUND:                -0.618
REMARK SMILES CCCCCCCCCCCC(=O)[O-]
REMARK SMILES IDX 7 1 8 2 9 3 10 4 11 5 12 6 13 7 14 8 6 9 5 10 4 11 3 12 2 13
REMARK SMILES IDX 1 14
REMARK H PARENT
REMARK Flexibility Score: inf
ROOT
ATOM      1  C   UNL     1       6.863   5.187  36.246  1.00  0.00     0.000 C 
ENDROOT
BRANCH   1   2
ATOM      2  C   UNL     1       7.688   6.341  35.651  1.00  0.00     0.000 C 
BRANCH   2   3
ATOM      3  C   UNL     1       7.639   6.371  34.114  1.00  0.00     0.000 C 
BRANCH   3   4
ATOM      4  C   UNL     1       6.578   7.346  33.577  1.00  0.00     0.006 C 
BRANCH   4   5
ATOM      5  C   UNL     1       7.172   8.703  33.176  1.00  0.00     0.053 C 
BRANCH   5   6
ATOM      6  C   UNL     1       6.402   9.817  33.814  1.00  0.00     0.041 C 
ATOM      7  O   UNL     1       5.899   9.666  34.959  1.00  0.00    -0.550 OA
ATOM      8  O   UNL     1       6.196  11.005  33.124  1.00  0.00    -0.550 OA
ENDBRANCH   5   6
ENDBRANCH   4   5
ENDBRANCH   3   4
ENDBRANCH   2   3
ENDBRANCH   1   2
BRANCH   1   9
ATOM      9  C   UNL     1       7.708   4.247  37.125  1.00  0.00     0.000 C 
BRANCH   9  10
ATOM     10  C   UNL     1       7.467   2.763  36.805  1.00  0.00    -0.000 C 
BRANCH  10  11
ATOM     11  C   UNL     1       8.652   2.119  36.062  1.00  0.00    -0.000 C 
BRANCH  11  12
ATOM     12  C   UNL     1       9.879   1.925  36.967  1.00  0.00    -0.000 C 
BRANCH  12  13
ATOM     13  C   UNL     1      10.905   3.060  36.827  1.00  0.00    -0.003 C 
ATOM     14  C   UNL     1      10.796   3.732  35.462  1.00  0.00     0.004 C 
ENDBRANCH  12  13
ENDBRANCH  11  12
ENDBRANCH  10  11
ENDBRANCH   9  10
ENDBRANCH   1   9
TORSDOF 10
ENDMDL
MODEL 5
REMARK VINA RESULT:    -3.012     20.687     22.446
REMARK INTER + INTRA:          -5.391
REMARK INTER:                  -3.821
REMARK INTRA:                  -1.570
REMARK UNBOUND:                -0.618
REMARK SMILES CCCCCCCCCCCC(=O)[O-]
REMARK SMILES IDX 7 1 8 2 9 3 10 4 11 5 12 6 13 7 14 8 6 9 5 10 4 11 3 12 2 13
REMARK SMILES IDX 1 14
REMARK H PARENT
REMARK Flexibility Score: inf
ROOT
ATOM      1  C   UNL     1      19.746   3.551  19.305  1.00  0.00     0.000 C 
ENDROOT
BRANCH   1   2
ATOM      2  C   UNL     1      20.538   3.457  20.620  1.00  0.00     0.000 C 
BRANCH   2   3
ATOM      3  C   UNL     1      21.494   2.253  20.649  1.00  0.00     0.000 C 
BRANCH   3   4
ATOM      4  C   UNL     1      22.964   2.662  20.461  1.00  0.00     0.006 C 
BRANCH   4   5
ATOM      5  C   UNL     1      23.239   4.103  20.909  1.00  0.00     0.053 C 
BRANCH   5   6
ATOM      6  C   UNL     1      24.712   4.345  21.011  1.00  0.00     0.041 C 
ATOM      7  O   UNL     1      25.421   4.397  19.971  1.00  0.00    -0.550 OA
ATOM      8  O   UNL     1      25.313   4.464  22.258  1.00  0.00    -0.550 OA
ENDBRANCH   5   6
ENDBRANCH   4   5
ENDBRANCH   3   4
ENDBRANCH   2   3
ENDBRANCH   1   2
BRANCH   1   9
ATOM      9  C   UNL     1      19.906   2.297  18.427  1.00  0.00     0.000 C 
BRANCH   9  10
ATOM     10  C   UNL     1      20.710   2.571  17.146  1.00  0.00    -0.000 C 
BRANCH  10  11
ATOM     11  C   UNL     1      21.086   4.055  16.991  1.00  0.00    -0.000 C 
BRANCH  11  12
ATOM     12  C   UNL     1      22.602   4.292  17.078  1.00  0.00    -0.000 C 
BRANCH  12  13
ATOM     13  C   UNL     1      22.956   5.685  17.621  1.00  0.00    -0.003 C 
ATOM     14  C   UNL     1      21.709   6.416  18.108  1.00  0.00     0.004 C 
ENDBRANCH  12  13
ENDBRANCH  11  12
ENDBRANCH  10  11
ENDBRANCH   9  10
ENDBRANCH   1   9
TORSDOF 10
ENDMDL
MODEL 6
REMARK VINA RESULT:    -2.879     22.360     24.042
REMARK INTER + INTRA:          -5.180
REMARK INTER:                  -4.454
REMARK INTRA:                  -0.726
REMARK UNBOUND:                -0.618
REMARK SMILES CCCCCCCCCCCC(=O)[O-]
REMARK SMILES IDX 7 1 8 2 9 3 10 4 11 5 12 6 13 7 14 8 6 9 5 10 4 11 3 12 2 13
REMARK SMILES IDX 1 14
REMARK H PARENT
REMARK Flexibility Score: inf
ROOT
ATOM      1  C   UNL     1      19.218  21.168  20.849  1.00  0.00     0.000 C 
ENDROOT
BRANCH   1   2
ATOM      2  C   UNL     1      20.700  20.780  20.713  1.00  0.00     0.000 C 
BRANCH   2   3
ATOM      3  C   UNL     1      21.648  21.951  21.023  1.00  0.00     0.000 C 
BRANCH   3   4
ATOM      4  C   UNL     1      23.067  21.719  20.480  1.00  0.00     0.006 C 
BRANCH   4   5
ATOM      5  C   UNL     1      23.239  20.333  19.845  1.00  0.00     0.053 C 
BRANCH   5   6
ATOM      6  C   UNL     1      24.523  19.710  20.295  1.00  0.00     0.041 C 
ATOM      7  O   UNL     1      24.737  18.484  20.098  1.00  0.00    -0.550 OA
ATOM      8  O   UNL     1      25.464  20.470  20.976  1.00  0.00    -0.550 OA
ENDBRANCH   5   6
ENDBRANCH   4   5
ENDBRANCH   3   4
ENDBRANCH   2   3
ENDBRANCH   1   2
BRANCH   1   9
ATOM      9  C   UNL     1      18.716  22.010  19.662  1.00  0.00     0.000 C 
BRANCH   9  10
ATOM     10  C   UNL     1      18.338  21.150  18.444  1.00  0.00    -0.000 C 
BRANCH  10  11
ATOM     11  C   UNL     1      16.840  20.800  18.411  1.00  0.00    -0.000 C 
BRANCH  11  12
ATOM     12  C   UNL     1      16.590  19.283  18.382  1.00  0.00    -0.000 C 
BRANCH  12  13
ATOM     13  C   UNL     1      17.700  18.485  19.082  1.00  0.00    -0.003 C 
ATOM     14  C   UNL     1      18.256  17.400  18.166  1.00  0.00     0.004 C 
ENDBRANCH  12  13
ENDBRANCH  11  12
ENDBRANCH  10  11
ENDBRANCH   9  10
ENDBRANCH   1   9
TORSDOF 10
ENDMDL
MODEL 7
REMARK VINA RESULT:    -2.736     22.237     24.428
REMARK INTER + INTRA:          -4.954
REMARK INTER:                  -4.075
REMARK INTRA:                  -0.879
REMARK UNBOUND:                -0.618
REMARK SMILES CCCCCCCCCCCC(=O)[O-]
REMARK SMILES IDX 7 1 8 2 9 3 10 4 11 5 12 6 13 7 14 8 6 9 5 10 4 11 3 12 2 13
REMARK SMILES IDX 1 14
REMARK H PARENT
REMARK Flexibility Score: inf
ROOT
ATOM      1  C   UNL     1      21.498  20.947  20.650  1.00  0.00     0.000 C 
ENDROOT
BRANCH   1   2
ATOM      2  C   UNL     1      19.986  20.993  20.928  1.00  0.00     0.000 C 
BRANCH   2   3
ATOM      3  C   UNL     1      19.231  21.900  19.942  1.00  0.00     0.000 C 
BRANCH   3   4
ATOM      4  C   UNL     1      18.183  21.134  19.120  1.00  0.00     0.006 C 
BRANCH   4   5
ATOM      5  C   UNL     1      18.744  19.849  18.496  1.00  0.00     0.053 C 
BRANCH   5   6
ATOM      6  C   UNL     1      17.965  18.660  18.964  1.00  0.00     0.041 C 
ATOM      7  O   UNL     1      17.118  18.780  19.889  1.00  0.00    -0.550 OA
ATOM      8  O   UNL     1      18.207  17.408  18.413  1.00  0.00    -0.550 OA
ENDBRANCH   5   6
ENDBRANCH   4   5
ENDBRANCH   3   4
ENDBRANCH   2   3
ENDBRANCH   1   2
BRANCH   1   9
ATOM      9  C   UNL     1      21.899  21.788  19.424  1.00  0.00     0.000 C 
BRANCH   9  10
ATOM     10  C   UNL     1      22.412  20.926  18.258  1.00  0.00    -0.000 C 
BRANCH  10  11
ATOM     11  C   UNL     1      23.922  20.643  18.352  1.00  0.00    -0.000 C 
BRANCH  11  12
ATOM     12  C   UNL     1      24.225  19.175  18.697  1.00  0.00    -0.000 C 
BRANCH  12  13
ATOM     13  C   UNL     1      24.605  18.978  20.172  1.00  0.00    -0.003 C 
ATOM     14  C   UNL     1      25.787  18.024  20.311  1.00  0.00     0.004 C 
ENDBRANCH  12  13
ENDBRANCH  11  12
ENDBRANCH  10  11
ENDBRANCH   9  10
ENDBRANCH   1   9
TORSDOF 10
ENDMDL
MODEL 8
REMARK VINA RESULT:    -2.715     21.155     22.798
REMARK INTER + INTRA:          -4.919
REMARK INTER:                  -3.725
REMARK INTRA:                  -1.194
REMARK UNBOUND:                -0.618
REMARK SMILES CCCCCCCCCCCC(=O)[O-]
REMARK SMILES IDX 7 1 8 2 9 3 10 4 11 5 12 6 13 7 14 8 6 9 5 10 4 11 3 12 2 13
REMARK SMILES IDX 1 14
REMARK H PARENT
REMARK Flexibility Score: inf
ROOT
ATOM      1  C   UNL     1      20.800   3.265  20.701  1.00  0.00     0.000 C 
ENDROOT
BRANCH   1   2
ATOM      2  C   UNL     1      19.996   3.805  19.507  1.00  0.00     0.000 C 
BRANCH   2   3
ATOM      3  C   UNL     1      20.467   3.218  18.165  1.00  0.00     0.000 C 
BRANCH   3   4
ATOM      4  C   UNL     1      21.153   4.266  17.272  1.00  0.00     0.006 C 
BRANCH   4   5
ATOM      5  C   UNL     1      21.308   5.625  17.968  1.00  0.00     0.053 C 
BRANCH   5   6
ATOM      6  C   UNL     1      22.501   6.351  17.430  1.00  0.00     0.041 C 
ATOM      7  O   UNL     1      23.627   5.787  17.399  1.00  0.00    -0.550 OA
ATOM      8  O   UNL     1      22.381   7.670  17.009  1.00  0.00    -0.550 OA
ENDBRANCH   5   6
ENDBRANCH   4   5
ENDBRANCH   3   4
ENDBRANCH   2   3
ENDBRANCH   1   2
BRANCH   1   9
ATOM      9  C   UNL     1      21.572   1.978  20.361  1.00  0.00     0.000 C 
BRANCH   9  10
ATOM     10  C   UNL     1      23.083   2.108  20.619  1.00  0.00    -0.000 C 
BRANCH  10  11
ATOM     11  C   UNL     1      23.779   3.024  19.596  1.00  0.00    -0.000 C 
BRANCH  11  12
ATOM     12  C   UNL     1      24.711   4.050  20.262  1.00  0.00    -0.000 C 
BRANCH  12  13
ATOM     13  C   UNL     1      24.347   4.316  21.731  1.00  0.00    -0.003 C 
ATOM     14  C   UNL     1      25.531   4.030  22.649  1.00  0.00     0.004 C 
ENDBRANCH  12  13
ENDBRANCH  11  12
ENDBRANCH  10  11
ENDBRANCH   9  10
ENDBRANCH   1   9
TORSDOF 10
ENDMDL
MODEL 9
REMARK VINA RESULT:    -2.676     21.391     23.367
REMARK INTER + INTRA:          -4.858
REMARK INTER:                  -3.417
REMARK INTRA:                  -1.441
REMARK UNBOUND:                -0.618
REMARK SMILES CCCCCCCCCCCC(=O)[O-]
REMARK SMILES IDX 7 1 8 2 9 3 10 4 11 5 12 6 13 7 14 8 6 9 5 10 4 11 3 12 2 13
REMARK SMILES IDX 1 14
REMARK H PARENT
REMARK Flexibility Score: inf
ROOT
ATOM      1  C   UNL     1      20.580   3.662  20.657  1.00  0.00     0.000 C 
ENDROOT
BRANCH   1   2
ATOM      2  C   UNL     1      19.981   3.766  19.244  1.00  0.00     0.000 C 
BRANCH   2   3
ATOM      3  C   UNL     1      20.930   3.224  18.160  1.00  0.00     0.000 C 
BRANCH   3   4
ATOM      4  C   UNL     1      21.295   4.287  17.111  1.00  0.00     0.006 C 
BRANCH   4   5
ATOM      5  C   UNL     1      21.209   5.717  17.663  1.00  0.00     0.053 C 
BRANCH   5   6
ATOM      6  C   UNL     1      22.413   6.505  17.254  1.00  0.00     0.041 C 
ATOM      7  O   UNL     1      22.295   7.712  16.912  1.00  0.00    -0.550 OA
ATOM      8  O   UNL     1      23.660   5.896  17.204  1.00  0.00    -0.550 OA
ENDBRANCH   5   6
ENDBRANCH   4   5
ENDBRANCH   3   4
ENDBRANCH   2   3
ENDBRANCH   1   2
BRANCH   1   9
ATOM      9  C   UNL     1      22.075   3.300  20.641  1.00  0.00     0.000 C 
BRANCH   9  10
ATOM     10  C   UNL     1      22.985   4.536  20.738  1.00  0.00    -0.000 C 
BRANCH  10  11
ATOM     11  C   UNL     1      24.419   4.253  20.258  1.00  0.00    -0.000 C 
BRANCH  11  12
ATOM     12  C   UNL     1      24.548   2.889  19.560  1.00  0.00    -0.000 C 
BRANCH  12  13
ATOM     13  C   UNL     1      25.206   2.989  18.176  1.00  0.00    -0.003 C 
ATOM     14  C   UNL     1      24.430   2.182  17.140  1.00  0.00     0.004 C 
ENDBRANCH  12  13
ENDBRANCH  11  12
ENDBRANCH  10  11
ENDBRANCH   9  10
ENDBRANCH   1   9
TORSDOF 10
ENDMDL
