MODEL 1
REMARK VINA RESULT:    -2.681      0.000      0.000
REMARK INTER + INTRA:          -7.939
REMARK INTER:                  -5.033
REMARK INTRA:                  -2.906
REMARK UNBOUND:                -2.906
REMARK SMILES CCCCCCCCC=CCCCCCCCC(=O)[O-]
REMARK SMILES IDX 10 1 9 2 11 3 12 4 13 5 14 6 15 7 16 8 17 9 18 10 19 11
REMARK SMILES IDX 20 12 8 13 7 14 6 15 5 16 4 17 3 18 2 19 1 20
REMARK H PARENT
REMARK Flexibility Score: inf
ROOT
ATOM      1  C   UNL     1      10.277   6.212  -9.612  1.00  0.00    -0.031 C 
ATOM      2  C   UNL     1       9.456   6.276 -10.678  1.00  0.00    -0.031 C 
ENDROOT
BRANCH   1   3
ATOM      3  C   UNL     1       9.890   6.614  -8.212  1.00  0.00     0.027 C 
BRANCH   3   4
ATOM      4  C   UNL     1      10.277   8.073  -7.937  1.00  0.00     0.004 C 
BRANCH   4   5
ATOM      5  C   UNL     1       9.111   8.908  -7.376  1.00  0.00     0.000 C 
BRANCH   5   6
ATOM      6  C   UNL     1       7.926   8.091  -6.832  1.00  0.00     0.000 C 
BRANCH   6   7
ATOM      7  C   UNL     1       6.565   8.752  -7.111  1.00  0.00     0.000 C 
BRANCH   7   8
ATOM      8  C   UNL     1       5.479   8.329  -6.104  1.00  0.00     0.006 C 
BRANCH   8   9
ATOM      9  C   UNL     1       5.779   7.015  -5.362  1.00  0.00     0.053 C 
BRANCH   9  10
ATOM     10  C   UNL     1       5.303   7.050  -3.942  1.00  0.00     0.041 C 
ATOM     11  O   UNL     1       4.182   6.563  -3.637  1.00  0.00    -0.550 OA
ATOM     12  O   UNL     1       6.083   7.649  -2.962  1.00  0.00    -0.550 OA
ENDBRANCH   9  10
ENDBRANCH   8   9
ENDBRANCH   7   8
ENDBRANCH   6   7
ENDBRANCH   5   6
ENDBRANCH   4   5
ENDBRANCH   3   4
ENDBRANCH   1   3
BRANCH   2  13
ATOM     13  C   UNL     1       8.057   6.840 -10.648  1.00  0.00     0.027 C 
BRANCH  13  14
ATOM     14  C   UNL     1       7.022   5.719 -10.509  1.00  0.00     0.004 C 
BRANCH  14  15
ATOM     15  C   UNL     1       6.019   6.035  -9.389  1.00  0.00     0.000 C 
BRANCH  15  16
ATOM     16  C   UNL     1       5.763   4.835  -8.462  1.00  0.00     0.000 C 
BRANCH  16  17
ATOM     17  C   UNL     1       7.007   4.445  -7.645  1.00  0.00    -0.000 C 
BRANCH  17  18
ATOM     18  C   UNL     1       7.506   3.022  -7.956  1.00  0.00    -0.000 C 
BRANCH  18  19
ATOM     19  C   UNL     1       8.966   2.936  -8.436  1.00  0.00    -0.003 C 
ATOM     20  C   UNL     1       9.979   3.065  -7.299  1.00  0.00     0.004 C 
ENDBRANCH  18  19
ENDBRANCH  17  18
ENDBRANCH  16  17
ENDBRANCH  15  16
ENDBRANCH  14  15
ENDBRANCH  13  14
ENDBRANCH   2  13
TORSDOF 15
ENDMDL
MODEL 2
REMARK VINA RESULT:    -2.677      1.909      3.145
REMARK INTER + INTRA:          -7.930
REMARK INTER:                  -5.305
REMARK INTRA:                  -2.625
REMARK UNBOUND:                -2.906
REMARK SMILES CCCCCCCCC=CCCCCCCCC(=O)[O-]
REMARK SMILES IDX 10 1 9 2 11 3 12 4 13 5 14 6 15 7 16 8 17 9 18 10 19 11
REMARK SMILES IDX 20 12 8 13 7 14 6 15 5 16 4 17 3 18 2 19 1 20
REMARK H PARENT
REMARK Flexibility Score: inf
ROOT
ATOM      1  C   UNL     1       8.509   7.766  -8.381  1.00  0.00    -0.031 C 
ATOM      2  C   UNL     1       7.324   7.325  -7.917  1.00  0.00    -0.031 C 
ENDROOT
BRANCH   1   3
ATOM      3  C   UNL     1       9.850   7.310  -7.866  1.00  0.00     0.027 C 
BRANCH   3   4
ATOM      4  C   UNL     1      10.893   8.428  -7.998  1.00  0.00     0.004 C 
BRANCH   4   5
ATOM      5  C   UNL     1      10.281   9.836  -7.879  1.00  0.00     0.000 C 
BRANCH   5   6
ATOM      6  C   UNL     1      10.606  10.581  -6.571  1.00  0.00     0.000 C 
BRANCH   6   7
ATOM      7  C   UNL     1       9.353  10.910  -5.742  1.00  0.00     0.000 C 
BRANCH   7   8
ATOM      8  C   UNL     1       8.707   9.659  -5.118  1.00  0.00     0.006 C 
BRANCH   8   9
ATOM      9  C   UNL     1       8.528   9.731  -3.592  1.00  0.00     0.053 C 
BRANCH   9  10
ATOM     10  C   UNL     1       7.132   9.385  -3.172  1.00  0.00     0.041 C 
ATOM     11  O   UNL     1       6.709   8.205  -3.289  1.00  0.00    -0.550 OA
ATOM     12  O   UNL     1       6.288  10.374  -2.684  1.00  0.00    -0.550 OA
ENDBRANCH   9  10
ENDBRANCH   8   9
ENDBRANCH   7   8
ENDBRANCH   6   7
ENDBRANCH   5   6
ENDBRANCH   4   5
ENDBRANCH   3   4
ENDBRANCH   1   3
BRANCH   2  13
ATOM     13  C   UNL     1       7.159   6.378  -6.755  1.00  0.00     0.027 C 
BRANCH  13  14
ATOM     14  C   UNL     1       6.298   5.174  -7.153  1.00  0.00     0.004 C 
BRANCH  14  15
ATOM     15  C   UNL     1       7.105   3.870  -7.067  1.00  0.00     0.000 C 
BRANCH  15  16
ATOM     16  C   UNL     1       8.606   4.112  -6.843  1.00  0.00     0.000 C 
BRANCH  16  17
ATOM     17  C   UNL     1       9.482   3.395  -7.885  1.00  0.00    -0.000 C 
BRANCH  17  18
ATOM     18  C   UNL     1       8.826   3.330  -9.276  1.00  0.00    -0.000 C 
BRANCH  18  19
ATOM     19  C   UNL     1       9.091   4.549 -10.178  1.00  0.00    -0.003 C 
ATOM     20  C   UNL     1       7.845   5.024 -10.925  1.00  0.00     0.004 C 
ENDBRANCH  18  19
ENDBRANCH  17  18
ENDBRANCH  16  17
ENDBRANCH  15  16
ENDBRANCH  14  15
ENDBRANCH  13  14
ENDBRANCH   2  13
TORSDOF 15
ENDMDL
MODEL 3
REMARK VINA RESULT:    -2.657     11.101     14.042
REMARK INTER + INTRA:          -7.892
REMARK INTER:                  -6.009
REMARK INTRA:                  -1.884
REMARK UNBOUND:                -2.906
REMARK SMILES CCCCCCCCC=CCCCCCCCC(=O)[O-]
REMARK SMILES IDX 10 1 9 2 11 3 12 4 13 5 14 6 15 7 16 8 17 9 18 10 19 11
REMARK SMILES IDX 20 12 8 13 7 14 6 15 5 16 4 17 3 18 2 19 1 20
REMARK H PARENT
REMARK Flexibility Score: inf
ROOT
ATOM      1  C   UNL     1       6.649  -3.788  -3.027  1.00  0.00    -0.031 C 
ATOM      2  C   UNL     1       6.064  -4.488  -2.037  1.00  0.00    -0.031 C 
ENDROOT
BRANCH   1   3
ATOM      3  C   UNL     1       7.927  -3.002  -2.878  1.00  0.00     0.027 C 
BRANCH   3   4
ATOM      4  C   UNL     1       8.951  -3.419  -3.943  1.00  0.00     0.004 C 
BRANCH   4   5
ATOM      5  C   UNL     1       8.734  -4.855  -4.453  1.00  0.00     0.000 C 
BRANCH   5   6
ATOM      6  C   UNL     1       9.392  -5.957  -3.603  1.00  0.00     0.000 C 
BRANCH   6   7
ATOM      7  C   UNL     1      10.797  -5.572  -3.107  1.00  0.00     0.000 C 
BRANCH   7   8
ATOM      8  C   UNL     1      10.865  -5.412  -1.577  1.00  0.00     0.006 C 
BRANCH   8   9
ATOM      9  C   UNL     1      11.294  -4.013  -1.103  1.00  0.00     0.053 C 
BRANCH   9  10
ATOM     10  C   UNL     1      12.748  -3.754  -1.356  1.00  0.00     0.041 C 
ATOM     11  O   UNL     1      13.115  -3.196  -2.424  1.00  0.00    -0.550 OA
ATOM     12  O   UNL     1      13.698  -4.159  -0.428  1.00  0.00    -0.550 OA
ENDBRANCH   9  10
ENDBRANCH   8   9
ENDBRANCH   7   8
ENDBRANCH   6   7
ENDBRANCH   5   6
ENDBRANCH   4   5
ENDBRANCH   3   4
ENDBRANCH   1   3
BRANCH   2  13
ATOM     13  C   UNL     1       6.550  -4.520  -0.610  1.00  0.00     0.027 C 
BRANCH  13  14
ATOM     14  C   UNL     1       7.475  -5.719  -0.377  1.00  0.00     0.004 C 
BRANCH  14  15
ATOM     15  C   UNL     1       7.547  -6.075   1.116  1.00  0.00     0.000 C 
BRANCH  15  16
ATOM     16  C   UNL     1       6.307  -5.614   1.899  1.00  0.00     0.000 C 
BRANCH  16  17
ATOM     17  C   UNL     1       6.643  -5.181   3.336  1.00  0.00    -0.000 C 
BRANCH  17  18
ATOM     18  C   UNL     1       5.567  -4.270   3.955  1.00  0.00    -0.000 C 
BRANCH  18  19
ATOM     19  C   UNL     1       5.953  -2.783   4.053  1.00  0.00    -0.003 C 
ATOM     20  C   UNL     1       5.810  -2.039   2.726  1.00  0.00     0.004 C 
ENDBRANCH  18  19
ENDBRANCH  17  18
ENDBRANCH  16  17
ENDBRANCH  15  16
ENDBRANCH  14  15
ENDBRANCH  13  14
ENDBRANCH   2  13
TORSDOF 15
ENDMDL
MODEL 4
REMARK VINA RESULT:    -2.653     17.999     19.765
REMARK INTER + INTRA:          -7.886
REMARK INTER:                  -5.110
REMARK INTRA:                  -2.777
REMARK UNBOUND:                -2.906
REMARK SMILES CCCCCCCCC=CCCCCCCCC(=O)[O-]
REMARK SMILES IDX 10 1 9 2 11 3 12 4 13 5 14 6 15 7 16 8 17 9 18 10 19 11
REMARK SMILES IDX 20 12 8 13 7 14 6 15 5 16 4 17 3 18 2 19 1 20
REMARK H PARENT
REMARK Flexibility Score: inf
ROOT
ATOM      1  C   UNL     1      18.355   3.321   7.803  1.00  0.00    -0.031 C 
ATOM      2  C   UNL     1      19.669   3.533   7.600  1.00  0.00    -0.031 C 
ENDROOT
BRANCH   1   3
ATOM      3  C   UNL     1      17.749   2.922   9.124  1.00  0.00     0.027 C 
BRANCH   3   4
ATOM      4  C   UNL     1      16.571   1.961   8.914  1.00  0.00     0.004 C 
BRANCH   4   5
ATOM      5  C   UNL     1      16.142   1.851   7.440  1.00  0.00     0.000 C 
BRANCH   5   6
ATOM      6  C   UNL     1      15.787   0.430   6.966  1.00  0.00     0.000 C 
BRANCH   6   7
ATOM      7  C   UNL     1      15.729  -0.588   8.119  1.00  0.00     0.000 C 
BRANCH   7   8
ATOM      8  C   UNL     1      16.367  -1.941   7.751  1.00  0.00     0.006 C 
BRANCH   8   9
ATOM      9  C   UNL     1      15.820  -2.571   6.459  1.00  0.00     0.053 C 
BRANCH   9  10
ATOM     10  C   UNL     1      14.529  -3.295   6.689  1.00  0.00     0.041 C 
ATOM     11  O   UNL     1      13.771  -3.562   5.720  1.00  0.00    -0.550 OA
ATOM     12  O   UNL     1      14.148  -3.645   7.978  1.00  0.00    -0.550 OA
ENDBRANCH   9  10
ENDBRANCH   8   9
ENDBRANCH   7   8
ENDBRANCH   6   7
ENDBRANCH   5   6
ENDBRANCH   4   5
ENDBRANCH   3   4
ENDBRANCH   1   3
BRANCH   2  13
ATOM     13  C   UNL     1      20.741   3.318   8.639  1.00  0.00     0.027 C 
BRANCH  13  14
ATOM     14  C   UNL     1      22.025   2.785   7.993  1.00  0.00     0.004 C 
BRANCH  14  15
ATOM     15  C   UNL     1      21.834   2.577   6.483  1.00  0.00     0.000 C 
BRANCH  15  16
ATOM     16  C   UNL     1      22.621   1.372   5.944  1.00  0.00     0.000 C 
BRANCH  16  17
ATOM     17  C   UNL     1      21.737   0.128   5.750  1.00  0.00    -0.000 C 
BRANCH  17  18
ATOM     18  C   UNL     1      20.273   0.478   5.426  1.00  0.00    -0.000 C 
BRANCH  18  19
ATOM     19  C   UNL     1      19.235  -0.104   6.403  1.00  0.00    -0.003 C 
ATOM     20  C   UNL     1      19.759  -0.220   7.834  1.00  0.00     0.004 C 
ENDBRANCH  18  19
ENDBRANCH  17  18
ENDBRANCH  16  17
ENDBRANCH  15  16
ENDBRANCH  14  15
ENDBRANCH  13  14
ENDBRANCH   2  13
TORSDOF 15
ENDMDL
MODEL 5
REMARK VINA RESULT:    -2.604     17.833     19.536
REMARK INTER + INTRA:          -7.794
REMARK INTER:                  -4.855
REMARK INTRA:                  -2.939
REMARK UNBOUND:                -2.906
REMARK SMILES CCCCCCCCC=CCCCCCCCC(=O)[O-]
REMARK SMILES IDX 10 1 9 2 11 3 12 4 13 5 14 6 15 7 16 8 17 9 18 10 19 11
REMARK SMILES IDX 20 12 8 13 7 14 6 15 5 16 4 17 3 18 2 19 1 20
REMARK H PARENT
REMARK Flexibility Score: inf
ROOT
ATOM      1  C   UNL     1      19.992   2.337   6.605  1.00  0.00    -0.031 C 
ATOM      2  C   UNL     1      20.347   1.104   7.013  1.00  0.00    -0.031 C 
ENDROOT
BRANCH   1   3
ATOM      3  C   UNL     1      19.672   3.484   7.530  1.00  0.00     0.027 C 
BRANCH   3   4
ATOM      4  C   UNL     1      18.157   3.611   7.737  1.00  0.00     0.004 C 
BRANCH   4   5
ATOM      5  C   UNL     1      17.679   2.995   9.065  1.00  0.00     0.000 C 
BRANCH   5   6
ATOM      6  C   UNL     1      16.498   2.014   8.943  1.00  0.00     0.000 C 
BRANCH   6   7
ATOM      7  C   UNL     1      16.134   1.695   7.483  1.00  0.00     0.000 C 
BRANCH   7   8
ATOM      8  C   UNL     1      16.384   0.220   7.116  1.00  0.00     0.006 C 
BRANCH   8   9
ATOM      9  C   UNL     1      15.536  -0.785   7.913  1.00  0.00     0.053 C 
BRANCH   9  10
ATOM     10  C   UNL     1      15.327  -2.065   7.162  1.00  0.00     0.041 C 
ATOM     11  O   UNL     1      15.496  -2.102   5.915  1.00  0.00    -0.550 OA
ATOM     12  O   UNL     1      14.912  -3.207   7.836  1.00  0.00    -0.550 OA
ENDBRANCH   9  10
ENDBRANCH   8   9
ENDBRANCH   7   8
ENDBRANCH   6   7
ENDBRANCH   5   6
ENDBRANCH   4   5
ENDBRANCH   3   4
ENDBRANCH   1   3
BRANCH   2  13
ATOM     13  C   UNL     1      20.393   0.660   8.454  1.00  0.00     0.027 C 
BRANCH  13  14
ATOM     14  C   UNL     1      19.457  -0.531   8.685  1.00  0.00     0.004 C 
BRANCH  14  15
ATOM     15  C   UNL     1      20.009  -1.801   8.021  1.00  0.00     0.000 C 
BRANCH  15  16
ATOM     16  C   UNL     1      18.991  -2.476   7.088  1.00  0.00     0.000 C 
BRANCH  16  17
ATOM     17  C   UNL     1      19.141  -2.026   5.624  1.00  0.00    -0.000 C 
BRANCH  17  18
ATOM     18  C   UNL     1      20.583  -2.158   5.101  1.00  0.00    -0.000 C 
BRANCH  18  19
ATOM     19  C   UNL     1      20.983  -1.128   4.029  1.00  0.00    -0.003 C 
ATOM     20  C   UNL     1      19.817  -0.249   3.580  1.00  0.00     0.004 C 
ENDBRANCH  18  19
ENDBRANCH  17  18
ENDBRANCH  16  17
ENDBRANCH  15  16
ENDBRANCH  14  15
ENDBRANCH  13  14
ENDBRANCH   2  13
TORSDOF 15
ENDMDL
MODEL 6
REMARK VINA RESULT:    -2.561      1.330      3.698
REMARK INTER + INTRA:          -7.713
REMARK INTER:                  -4.858
REMARK INTRA:                  -2.855
REMARK UNBOUND:                -2.906
REMARK SMILES CCCCCCCCC=CCCCCCCCC(=O)[O-]
REMARK SMILES IDX 10 1 9 2 11 3 12 4 13 5 14 6 15 7 16 8 17 9 18 10 19 11
REMARK SMILES IDX 20 12 8 13 7 14 6 15 5 16 4 17 3 18 2 19 1 20
REMARK H PARENT
REMARK Flexibility Score: inf
ROOT
ATOM      1  C   UNL     1       8.642   3.854  -6.993  1.00  0.00    -0.031 C 
ATOM      2  C   UNL     1       9.374   3.586  -8.091  1.00  0.00    -0.031 C 
ENDROOT
BRANCH   1   3
ATOM      3  C   UNL     1       7.146   4.044  -6.989  1.00  0.00     0.027 C 
BRANCH   3   4
ATOM      4  C   UNL     1       6.755   5.268  -6.151  1.00  0.00     0.004 C 
BRANCH   4   5
ATOM      5  C   UNL     1       5.420   5.895  -6.593  1.00  0.00     0.000 C 
BRANCH   5   6
ATOM      6  C   UNL     1       5.535   6.976  -7.684  1.00  0.00     0.000 C 
BRANCH   6   7
ATOM      7  C   UNL     1       5.159   8.379  -7.178  1.00  0.00     0.000 C 
BRANCH   7   8
ATOM      8  C   UNL     1       4.925   8.422  -5.657  1.00  0.00     0.006 C 
BRANCH   8   9
ATOM      9  C   UNL     1       6.020   9.158  -4.866  1.00  0.00     0.053 C 
BRANCH   9  10
ATOM     10  C   UNL     1       6.252   8.543  -3.520  1.00  0.00     0.041 C 
ATOM     11  O   UNL     1       5.888   7.359  -3.293  1.00  0.00    -0.550 OA
ATOM     12  O   UNL     1       6.841   9.288  -2.507  1.00  0.00    -0.550 OA
ENDBRANCH   9  10
ENDBRANCH   8   9
ENDBRANCH   7   8
ENDBRANCH   6   7
ENDBRANCH   5   6
ENDBRANCH   4   5
ENDBRANCH   3   4
ENDBRANCH   1   3
BRANCH   2  13
ATOM     13  C   UNL     1       8.822   3.523  -9.493  1.00  0.00     0.027 C 
BRANCH  13  14
ATOM     14  C   UNL     1       9.181   4.791 -10.276  1.00  0.00     0.004 C 
BRANCH  14  15
ATOM     15  C   UNL     1       8.089   5.860 -10.119  1.00  0.00     0.000 C 
BRANCH  15  16
ATOM     16  C   UNL     1       8.662   7.264  -9.870  1.00  0.00     0.000 C 
BRANCH  16  17
ATOM     17  C   UNL     1      10.021   7.228  -9.148  1.00  0.00    -0.000 C 
BRANCH  17  18
ATOM     18  C   UNL     1       9.886   7.240  -7.615  1.00  0.00    -0.000 C 
BRANCH  18  19
ATOM     19  C   UNL     1       8.904   8.286  -7.057  1.00  0.00    -0.003 C 
ATOM     20  C   UNL     1       9.564   9.633  -6.768  1.00  0.00     0.004 C 
ENDBRANCH  18  19
ENDBRANCH  17  18
ENDBRANCH  16  17
ENDBRANCH  15  16
ENDBRANCH  14  15
ENDBRANCH  13  14
ENDBRANCH   2  13
TORSDOF 15
ENDMDL
MODEL 7
REMARK VINA RESULT:    -2.557      2.480      4.452
REMARK INTER + INTRA:          -7.706
REMARK INTER:                  -5.056
REMARK INTRA:                  -2.649
REMARK UNBOUND:                -2.906
REMARK SMILES CCCCCCCCC=CCCCCCCCC(=O)[O-]
REMARK SMILES IDX 10 1 9 2 11 3 12 4 13 5 14 6 15 7 16 8 17 9 18 10 19 11
REMARK SMILES IDX 20 12 8 13 7 14 6 15 5 16 4 17 3 18 2 19 1 20
REMARK H PARENT
REMARK Flexibility Score: inf
ROOT
ATOM      1  C   UNL     1       6.585   4.919  -6.048  1.00  0.00    -0.031 C 
ATOM      2  C   UNL     1       6.066   3.693  -6.253  1.00  0.00    -0.031 C 
ENDROOT
BRANCH   1   3
ATOM      3  C   UNL     1       5.967   6.201  -6.543  1.00  0.00     0.027 C 
BRANCH   3   4
ATOM      4  C   UNL     1       7.024   7.308  -6.657  1.00  0.00     0.004 C 
BRANCH   4   5
ATOM      5  C   UNL     1       7.884   7.187  -7.928  1.00  0.00     0.000 C 
BRANCH   5   6
ATOM      6  C   UNL     1       9.364   6.837  -7.685  1.00  0.00     0.000 C 
BRANCH   6   7
ATOM      7  C   UNL     1      10.318   7.581  -8.634  1.00  0.00     0.000 C 
BRANCH   7   8
ATOM      8  C   UNL     1      10.088   9.103  -8.638  1.00  0.00     0.006 C 
BRANCH   8   9
ATOM      9  C   UNL     1      11.038   9.891  -7.719  1.00  0.00     0.053 C 
BRANCH   9  10
ATOM     10  C   UNL     1      10.343  10.395  -6.491  1.00  0.00     0.041 C 
ATOM     11  O   UNL     1       9.733   9.595  -5.734  1.00  0.00    -0.550 OA
ATOM     12  O   UNL     1      10.341  11.754  -6.202  1.00  0.00    -0.550 OA
ENDBRANCH   9  10
ENDBRANCH   8   9
ENDBRANCH   7   8
ENDBRANCH   6   7
ENDBRANCH   5   6
ENDBRANCH   4   5
ENDBRANCH   3   4
ENDBRANCH   1   3
BRANCH   2  13
ATOM     13  C   UNL     1       4.837   3.412  -7.081  1.00  0.00     0.027 C 
BRANCH  13  14
ATOM     14  C   UNL     1       5.224   2.865  -8.460  1.00  0.00     0.004 C 
BRANCH  14  15
ATOM     15  C   UNL     1       5.330   4.000  -9.490  1.00  0.00     0.000 C 
BRANCH  15  16
ATOM     16  C   UNL     1       6.783   4.324  -9.872  1.00  0.00     0.000 C 
BRANCH  16  17
ATOM     17  C   UNL     1       7.736   3.141  -9.628  1.00  0.00    -0.000 C 
BRANCH  17  18
ATOM     18  C   UNL     1       9.076   3.571  -9.003  1.00  0.00    -0.000 C 
BRANCH  18  19
ATOM     19  C   UNL     1       9.548   2.706  -7.820  1.00  0.00    -0.003 C 
ATOM     20  C   UNL     1       9.871   3.525  -6.571  1.00  0.00     0.004 C 
ENDBRANCH  18  19
ENDBRANCH  17  18
ENDBRANCH  16  17
ENDBRANCH  15  16
ENDBRANCH  14  15
ENDBRANCH  13  14
ENDBRANCH   2  13
TORSDOF 15
ENDMDL
MODEL 8
REMARK VINA RESULT:    -2.557      1.338      2.939
REMARK INTER + INTRA:          -7.705
REMARK INTER:                  -4.957
REMARK INTRA:                  -2.748
REMARK UNBOUND:                -2.906
REMARK SMILES CCCCCCCCC=CCCCCCCCC(=O)[O-]
REMARK SMILES IDX 10 1 9 2 11 3 12 4 13 5 14 6 15 7 16 8 17 9 18 10 19 11
REMARK SMILES IDX 20 12 8 13 7 14 6 15 5 16 4 17 3 18 2 19 1 20
REMARK H PARENT
REMARK Flexibility Score: inf
ROOT
ATOM      1  C   UNL     1       8.244   7.800  -7.434  1.00  0.00    -0.031 C 
ATOM      2  C   UNL     1       9.515   7.431  -7.682  1.00  0.00    -0.031 C 
ENDROOT
BRANCH   1   3
ATOM      3  C   UNL     1       7.254   8.219  -8.491  1.00  0.00     0.027 C 
BRANCH   3   4
ATOM      4  C   UNL     1       6.372   7.035  -8.911  1.00  0.00     0.004 C 
BRANCH   4   5
ATOM      5  C   UNL     1       4.995   7.040  -8.223  1.00  0.00     0.000 C 
BRANCH   5   6
ATOM      6  C   UNL     1       4.288   8.406  -8.185  1.00  0.00     0.000 C 
BRANCH   6   7
ATOM      7  C   UNL     1       3.957   8.870  -6.756  1.00  0.00     0.000 C 
BRANCH   7   8
ATOM      8  C   UNL     1       4.695   8.053  -5.679  1.00  0.00     0.006 C 
BRANCH   8   9
ATOM      9  C   UNL     1       5.704   8.863  -4.848  1.00  0.00     0.053 C 
BRANCH   9  10
ATOM     10  C   UNL     1       6.143   8.125  -3.620  1.00  0.00     0.041 C 
ATOM     11  O   UNL     1       7.088   8.570  -2.917  1.00  0.00    -0.550 OA
ATOM     12  O   UNL     1       5.530   6.928  -3.272  1.00  0.00    -0.550 OA
ENDBRANCH   9  10
ENDBRANCH   8   9
ENDBRANCH   7   8
ENDBRANCH   6   7
ENDBRANCH   5   6
ENDBRANCH   4   5
ENDBRANCH   3   4
ENDBRANCH   1   3
BRANCH   2  13
ATOM     13  C   UNL     1      10.165   7.466  -9.042  1.00  0.00     0.027 C 
BRANCH  13  14
ATOM     14  C   UNL     1      10.474   6.047  -9.534  1.00  0.00     0.004 C 
BRANCH  14  15
ATOM     15  C   UNL     1       9.688   5.727 -10.814  1.00  0.00     0.000 C 
BRANCH  15  16
ATOM     16  C   UNL     1       8.514   4.765 -10.568  1.00  0.00     0.000 C 
BRANCH  16  17
ATOM     17  C   UNL     1       8.871   3.637  -9.585  1.00  0.00    -0.000 C 
BRANCH  17  18
ATOM     18  C   UNL     1       7.863   3.508  -8.428  1.00  0.00    -0.000 C 
BRANCH  18  19
ATOM     19  C   UNL     1       8.363   4.031  -7.070  1.00  0.00    -0.003 C 
ATOM     20  C   UNL     1       9.793   3.598  -6.751  1.00  0.00     0.004 C 
ENDBRANCH  18  19
ENDBRANCH  17  18
ENDBRANCH  16  17
ENDBRANCH  15  16
ENDBRANCH  14  15
ENDBRANCH  13  14
ENDBRANCH   2  13
TORSDOF 15
ENDMDL
MODEL 9
REMARK VINA RESULT:    -2.534      1.686      3.199
REMARK INTER + INTRA:          -7.662
REMARK INTER:                  -4.571
REMARK INTRA:                  -3.091
REMARK UNBOUND:                -2.906
REMARK SMILES CCCCCCCCC=CCCCCCCCC(=O)[O-]
REMARK SMILES IDX 10 1 9 2 11 3 12 4 13 5 14 6 15 7 16 8 17 9 18 10 19 11
REMARK SMILES IDX 20 12 8 13 7 14 6 15 5 16 4 17 3 18 2 19 1 20
REMARK H PARENT
REMARK Flexibility Score: inf
ROOT
ATOM      1  C   UNL     1       9.635   4.510  -7.708  1.00  0.00    -0.031 C 
ATOM      2  C   UNL     1       8.987   3.351  -7.482  1.00  0.00    -0.031 C 
ENDROOT
BRANCH   1   3
ATOM      3  C   UNL     1       9.795   5.147  -9.065  1.00  0.00     0.027 C 
BRANCH   3   4
ATOM      4  C   UNL     1       9.440   6.639  -9.012  1.00  0.00     0.004 C 
BRANCH   4   5
ATOM      5  C   UNL     1       9.874   7.312  -7.697  1.00  0.00     0.000 C 
BRANCH   5   6
ATOM      6  C   UNL     1       9.885   8.851  -7.724  1.00  0.00     0.000 C 
BRANCH   6   7
ATOM      7  C   UNL     1       8.475   9.459  -7.812  1.00  0.00     0.000 C 
BRANCH   7   8
ATOM      8  C   UNL     1       8.136  10.356  -6.607  1.00  0.00     0.006 C 
BRANCH   8   9
ATOM      9  C   UNL     1       7.063   9.781  -5.668  1.00  0.00     0.053 C 
BRANCH   9  10
ATOM     10  C   UNL     1       7.655   9.223  -4.410  1.00  0.00     0.041 C 
ATOM     11  O   UNL     1       6.961   8.499  -3.649  1.00  0.00    -0.550 OA
ATOM     12  O   UNL     1       8.965   9.530  -4.063  1.00  0.00    -0.550 OA
ENDBRANCH   9  10
ENDBRANCH   8   9
ENDBRANCH   7   8
ENDBRANCH   6   7
ENDBRANCH   5   6
ENDBRANCH   4   5
ENDBRANCH   3   4
ENDBRANCH   1   3
BRANCH   2  13
ATOM     13  C   UNL     1       8.403   2.473  -8.559  1.00  0.00     0.027 C 
BRANCH  13  14
ATOM     14  C   UNL     1       6.921   2.796  -8.780  1.00  0.00     0.004 C 
BRANCH  14  15
ATOM     15  C   UNL     1       6.711   3.523 -10.118  1.00  0.00     0.000 C 
BRANCH  15  16
ATOM     16  C   UNL     1       5.967   4.858  -9.960  1.00  0.00     0.000 C 
BRANCH  16  17
ATOM     17  C   UNL     1       5.487   5.101  -8.518  1.00  0.00    -0.000 C 
BRANCH  17  18
ATOM     18  C   UNL     1       6.036   6.407  -7.916  1.00  0.00    -0.000 C 
BRANCH  18  19
ATOM     19  C   UNL     1       6.602   6.276  -6.490  1.00  0.00    -0.003 C 
ATOM     20  C   UNL     1       6.148   5.002  -5.780  1.00  0.00     0.004 C 
ENDBRANCH  18  19
ENDBRANCH  17  18
ENDBRANCH  16  17
ENDBRANCH  15  16
ENDBRANCH  14  15
ENDBRANCH  13  14
ENDBRANCH   2  13
TORSDOF 15
ENDMDL
