MODEL 1
REMARK VINA RESULT:    -3.717      0.000      0.000
REMARK INTER + INTRA:         -11.123
REMARK INTER:                  -8.063
REMARK INTRA:                  -3.059
REMARK UNBOUND:                -3.059
REMARK SMILES CCCCCCCCCCCCCCCCCCCCCC(=O)[O-]
REMARK SMILES IDX 12 1 11 2 10 3 9 4 8 5 7 6 6 7 5 8 4 9 3 10 2 11 1 12 13 13
REMARK SMILES IDX 14 14 15 15 16 16 17 17 18 18 19 19 20 20 21 21 22 22 23 23
REMARK SMILES IDX 24 24
REMARK H PARENT
REMARK Flexibility Score: inf
ROOT
ATOM      1  C   UNL     1       1.957  -7.601   4.721  1.00  0.00     0.000 C 
ENDROOT
BRANCH   1   2
ATOM      2  C   UNL     1       2.023  -8.953   3.989  1.00  0.00     0.000 C 
BRANCH   2   3
ATOM      3  C   UNL     1       3.373  -9.670   4.174  1.00  0.00     0.000 C 
BRANCH   3   4
ATOM      4  C   UNL     1       4.528  -9.137   3.306  1.00  0.00    -0.000 C 
BRANCH   4   5
ATOM      5  C   UNL     1       5.611  -8.415   4.121  1.00  0.00    -0.000 C 
BRANCH   5   6
ATOM      6  C   UNL     1       5.892  -9.151   5.437  1.00  0.00    -0.000 C 
BRANCH   6   7
ATOM      7  C   UNL     1       7.137  -8.581   6.132  1.00  0.00    -0.000 C 
BRANCH   7   8
ATOM      8  C   UNL     1       7.093  -7.051   6.284  1.00  0.00    -0.000 C 
BRANCH   8   9
ATOM      9  C   UNL     1       8.363  -6.313   5.822  1.00  0.00    -0.000 C 
BRANCH   9  10
ATOM     10  C   UNL     1       8.615  -6.444   4.312  1.00  0.00    -0.000 C 
BRANCH  10  11
ATOM     11  C   UNL     1       7.800  -5.408   3.529  1.00  0.00    -0.003 C 
ATOM     12  C   UNL     1       7.593  -5.848   2.082  1.00  0.00     0.004 C 
ENDBRANCH  10  11
ENDBRANCH   9  10
ENDBRANCH   8   9
ENDBRANCH   7   8
ENDBRANCH   6   7
ENDBRANCH   5   6
ENDBRANCH   4   5
ENDBRANCH   3   4
ENDBRANCH   2   3
ENDBRANCH   1   2
BRANCH   1  13
ATOM     13  C   UNL     1       2.370  -7.699   6.202  1.00  0.00     0.000 C 
BRANCH  13  14
ATOM     14  C   UNL     1       3.364  -6.626   6.685  1.00  0.00     0.000 C 
BRANCH  14  15
ATOM     15  C   UNL     1       3.785  -5.651   5.573  1.00  0.00     0.000 C 
BRANCH  15  16
ATOM     16  C   UNL     1       3.884  -4.194   6.059  1.00  0.00     0.000 C 
BRANCH  16  17
ATOM     17  C   UNL     1       2.557  -3.572   6.530  1.00  0.00     0.000 C 
BRANCH  17  18
ATOM     18  C   UNL     1       1.399  -3.808   5.544  1.00  0.00     0.000 C 
BRANCH  18  19
ATOM     19  C   UNL     1       0.178  -4.451   6.232  1.00  0.00     0.000 C 
BRANCH  19  20
ATOM     20  C   UNL     1      -0.912  -3.442   6.640  1.00  0.00     0.006 C 
BRANCH  20  21
ATOM     21  C   UNL     1      -1.994  -4.024   7.569  1.00  0.00     0.053 C 
BRANCH  21  22
ATOM     22  C   UNL     1      -3.132  -4.653   6.821  1.00  0.00     0.041 C 
ATOM     23  O   UNL     1      -3.441  -4.245   5.670  1.00  0.00    -0.550 OA
ATOM     24  O   UNL     1      -3.899  -5.640   7.425  1.00  0.00    -0.550 OA
ENDBRANCH  21  22
ENDBRANCH  20  21
ENDBRANCH  19  20
ENDBRANCH  18  19
ENDBRANCH  17  18
ENDBRANCH  16  17
ENDBRANCH  15  16
ENDBRANCH  14  15
ENDBRANCH  13  14
ENDBRANCH   1  13
TORSDOF 20
ENDMDL
MODEL 2
REMARK VINA RESULT:    -3.689      6.310      8.353
REMARK INTER + INTRA:         -11.060
REMARK INTER:                  -8.512
REMARK INTRA:                  -2.549
REMARK UNBOUND:                -3.059
REMARK SMILES CCCCCCCCCCCCCCCCCCCCCC(=O)[O-]
REMARK SMILES IDX 12 1 11 2 10 3 9 4 8 5 7 6 6 7 5 8 4 9 3 10 2 11 1 12 13 13
REMARK SMILES IDX 14 14 15 15 16 16 17 17 18 18 19 19 20 20 21 21 22 22 23 23
REMARK SMILES IDX 24 24
REMARK H PARENT
REMARK Flexibility Score: inf
ROOT
ATOM      1  C   UNL     1       5.239   0.707   6.307  1.00  0.00     0.000 C 
ENDROOT
BRANCH   1   2
ATOM      2  C   UNL     1       3.898   0.023   6.623  1.00  0.00     0.000 C 
BRANCH   2   3
ATOM      3  C   UNL     1       3.908  -1.487   6.318  1.00  0.00     0.000 C 
BRANCH   3   4
ATOM      4  C   UNL     1       3.983  -1.857   4.825  1.00  0.00    -0.000 C 
BRANCH   4   5
ATOM      5  C   UNL     1       5.208  -2.716   4.478  1.00  0.00    -0.000 C 
BRANCH   5   6
ATOM      6  C   UNL     1       5.547  -3.679   5.623  1.00  0.00    -0.000 C 
BRANCH   6   7
ATOM      7  C   UNL     1       4.619  -4.903   5.605  1.00  0.00    -0.000 C 
BRANCH   7   8
ATOM      8  C   UNL     1       5.379  -6.232   5.453  1.00  0.00    -0.000 C 
BRANCH   8   9
ATOM      9  C   UNL     1       6.816  -6.102   4.917  1.00  0.00    -0.000 C 
BRANCH   9  10
ATOM     10  C   UNL     1       6.980  -6.675   3.501  1.00  0.00    -0.000 C 
BRANCH  10  11
ATOM     11  C   UNL     1       7.760  -5.706   2.604  1.00  0.00    -0.003 C 
ATOM     12  C   UNL     1       8.474  -4.641   3.433  1.00  0.00     0.004 C 
ENDBRANCH  10  11
ENDBRANCH   9  10
ENDBRANCH   8   9
ENDBRANCH   7   8
ENDBRANCH   6   7
ENDBRANCH   5   6
ENDBRANCH   4   5
ENDBRANCH   3   4
ENDBRANCH   2   3
ENDBRANCH   1   2
BRANCH   1  13
ATOM     13  C   UNL     1       6.458  -0.115   6.770  1.00  0.00     0.000 C 
BRANCH  13  14
ATOM     14  C   UNL     1       7.626  -0.189   5.768  1.00  0.00     0.000 C 
BRANCH  14  15
ATOM     15  C   UNL     1       7.719   1.047   4.859  1.00  0.00     0.000 C 
BRANCH  15  16
ATOM     16  C   UNL     1       9.148   1.611   4.759  1.00  0.00     0.000 C 
BRANCH  16  17
ATOM     17  C   UNL     1       9.349   2.997   5.399  1.00  0.00     0.000 C 
BRANCH  17  18
ATOM     18  C   UNL     1       8.111   3.488   6.170  1.00  0.00     0.000 C 
BRANCH  18  19
ATOM     19  C   UNL     1       7.786   4.963   5.862  1.00  0.00     0.000 C 
BRANCH  19  20
ATOM     20  C   UNL     1       6.291   5.233   5.609  1.00  0.00     0.006 C 
BRANCH  20  21
ATOM     21  C   UNL     1       5.479   3.980   5.232  1.00  0.00     0.053 C 
BRANCH  21  22
ATOM     22  C   UNL     1       4.134   4.305   4.651  1.00  0.00     0.041 C 
ATOM     23  O   UNL     1       3.793   5.504   4.465  1.00  0.00    -0.550 OA
ATOM     24  O   UNL     1       3.228   3.288   4.383  1.00  0.00    -0.550 OA
ENDBRANCH  21  22
ENDBRANCH  20  21
ENDBRANCH  19  20
ENDBRANCH  18  19
ENDBRANCH  17  18
ENDBRANCH  16  17
ENDBRANCH  15  16
ENDBRANCH  14  15
ENDBRANCH  13  14
ENDBRANCH   1  13
TORSDOF 20
ENDMDL
MODEL 3
REMARK VINA RESULT:    -3.670      2.936      4.329
REMARK INTER + INTRA:         -11.020
REMARK INTER:                  -7.946
REMARK INTRA:                  -3.074
REMARK UNBOUND:                -3.059
REMARK SMILES CCCCCCCCCCCCCCCCCCCCCC(=O)[O-]
REMARK SMILES IDX 12 1 11 2 10 3 9 4 8 5 7 6 6 7 5 8 4 9 3 10 2 11 1 12 13 13
REMARK SMILES IDX 14 14 15 15 16 16 17 17 18 18 19 19 20 20 21 21 22 22 23 23
REMARK SMILES IDX 24 24
REMARK H PARENT
REMARK Flexibility Score: inf
ROOT
ATOM      1  C   UNL     1       0.108  -7.475   4.828  1.00  0.00     0.000 C 
ENDROOT
BRANCH   1   2
ATOM      2  C   UNL     1       0.956  -8.597   4.205  1.00  0.00     0.000 C 
BRANCH   2   3
ATOM      3  C   UNL     1       2.467  -8.298   4.240  1.00  0.00     0.000 C 
BRANCH   3   4
ATOM      4  C   UNL     1       3.367  -9.383   3.621  1.00  0.00    -0.000 C 
BRANCH   4   5
ATOM      5  C   UNL     1       4.841  -8.958   3.523  1.00  0.00    -0.000 C 
BRANCH   5   6
ATOM      6  C   UNL     1       5.147  -7.806   4.486  1.00  0.00    -0.000 C 
BRANCH   6   7
ATOM      7  C   UNL     1       6.339  -6.975   3.989  1.00  0.00    -0.000 C 
BRANCH   7   8
ATOM      8  C   UNL     1       7.575  -7.095   4.897  1.00  0.00    -0.000 C 
BRANCH   8   9
ATOM      9  C   UNL     1       8.836  -6.377   4.379  1.00  0.00    -0.000 C 
BRANCH   9  10
ATOM     10  C   UNL     1       8.525  -5.320   3.309  1.00  0.00    -0.000 C 
BRANCH  10  11
ATOM     11  C   UNL     1       9.420  -4.087   3.480  1.00  0.00    -0.003 C 
ATOM     12  C   UNL     1       9.276  -3.491   4.878  1.00  0.00     0.004 C 
ENDBRANCH  10  11
ENDBRANCH   9  10
ENDBRANCH   8   9
ENDBRANCH   7   8
ENDBRANCH   6   7
ENDBRANCH   5   6
ENDBRANCH   4   5
ENDBRANCH   3   4
ENDBRANCH   2   3
ENDBRANCH   1   2
BRANCH   1  13
ATOM     13  C   UNL     1       0.173  -7.456   6.367  1.00  0.00     0.000 C 
BRANCH  13  14
ATOM     14  C   UNL     1       0.610  -6.119   6.997  1.00  0.00     0.000 C 
BRANCH  14  15
ATOM     15  C   UNL     1       0.593  -4.950   5.998  1.00  0.00     0.000 C 
BRANCH  15  16
ATOM     16  C   UNL     1       1.937  -4.203   5.928  1.00  0.00     0.000 C 
BRANCH  16  17
ATOM     17  C   UNL     1       3.184  -5.104   5.895  1.00  0.00     0.000 C 
BRANCH  17  18
ATOM     18  C   UNL     1       4.119  -4.880   7.096  1.00  0.00     0.000 C 
BRANCH  18  19
ATOM     19  C   UNL     1       5.447  -4.216   6.678  1.00  0.00     0.000 C 
BRANCH  19  20
ATOM     20  C   UNL     1       5.544  -3.908   5.172  1.00  0.00     0.006 C 
BRANCH  20  21
ATOM     21  C   UNL     1       5.719  -2.413   4.844  1.00  0.00     0.053 C 
BRANCH  21  22
ATOM     22  C   UNL     1       4.427  -1.650   4.880  1.00  0.00     0.041 C 
ATOM     23  O   UNL     1       3.754  -1.486   3.827  1.00  0.00    -0.550 OA
ATOM     24  O   UNL     1       4.003  -1.057   6.061  1.00  0.00    -0.550 OA
ENDBRANCH  21  22
ENDBRANCH  20  21
ENDBRANCH  19  20
ENDBRANCH  18  19
ENDBRANCH  17  18
ENDBRANCH  16  17
ENDBRANCH  15  16
ENDBRANCH  14  15
ENDBRANCH  13  14
ENDBRANCH   1  13
TORSDOF 20
ENDMDL
MODEL 4
REMARK VINA RESULT:    -3.660      4.100      5.797
REMARK INTER + INTRA:         -10.999
REMARK INTER:                  -8.560
REMARK INTRA:                  -2.439
REMARK UNBOUND:                -3.059
REMARK SMILES CCCCCCCCCCCCCCCCCCCCCC(=O)[O-]
REMARK SMILES IDX 12 1 11 2 10 3 9 4 8 5 7 6 6 7 5 8 4 9 3 10 2 11 1 12 13 13
REMARK SMILES IDX 14 14 15 15 16 16 17 17 18 18 19 19 20 20 21 21 22 22 23 23
REMARK SMILES IDX 24 24
REMARK H PARENT
REMARK Flexibility Score: inf
ROOT
ATOM      1  C   UNL     1       1.474  -3.906   5.880  1.00  0.00     0.000 C 
ENDROOT
BRANCH   1   2
ATOM      2  C   UNL     1       0.918  -5.330   6.055  1.00  0.00     0.000 C 
BRANCH   2   3
ATOM      3  C   UNL     1       1.610  -6.360   5.143  1.00  0.00     0.000 C 
BRANCH   3   4
ATOM      4  C   UNL     1       0.751  -7.577   4.751  1.00  0.00    -0.000 C 
BRANCH   4   5
ATOM      5  C   UNL     1       1.552  -8.676   4.038  1.00  0.00    -0.000 C 
BRANCH   5   6
ATOM      6  C   UNL     1       3.037  -8.609   4.416  1.00  0.00    -0.000 C 
BRANCH   6   7
ATOM      7  C   UNL     1       3.893  -9.421   3.433  1.00  0.00    -0.000 C 
BRANCH   7   8
ATOM      8  C   UNL     1       5.284  -8.807   3.199  1.00  0.00    -0.000 C 
BRANCH   8   9
ATOM      9  C   UNL     1       5.802  -7.914   4.342  1.00  0.00    -0.000 C 
BRANCH   9  10
ATOM     10  C   UNL     1       6.743  -6.802   3.852  1.00  0.00    -0.000 C 
BRANCH  10  11
ATOM     11  C   UNL     1       6.437  -5.476   4.557  1.00  0.00    -0.003 C 
ATOM     12  C   UNL     1       5.247  -5.616   5.504  1.00  0.00     0.004 C 
ENDBRANCH  10  11
ENDBRANCH   9  10
ENDBRANCH   8   9
ENDBRANCH   7   8
ENDBRANCH   6   7
ENDBRANCH   5   6
ENDBRANCH   4   5
ENDBRANCH   3   4
ENDBRANCH   2   3
ENDBRANCH   1   2
BRANCH   1  13
ATOM     13  C   UNL     1       2.556  -3.552   6.918  1.00  0.00     0.000 C 
BRANCH  13  14
ATOM     14  C   UNL     1       3.398  -2.302   6.597  1.00  0.00     0.000 C 
BRANCH  14  15
ATOM     15  C   UNL     1       3.750  -2.180   5.105  1.00  0.00     0.000 C 
BRANCH  15  16
ATOM     16  C   UNL     1       5.217  -1.781   4.866  1.00  0.00     0.000 C 
BRANCH  16  17
ATOM     17  C   UNL     1       6.133  -1.896   6.098  1.00  0.00     0.000 C 
BRANCH  17  18
ATOM     18  C   UNL     1       6.384  -0.545   6.790  1.00  0.00     0.000 C 
BRANCH  18  19
ATOM     19  C   UNL     1       6.124   0.645   5.843  1.00  0.00     0.000 C 
BRANCH  19  20
ATOM     20  C   UNL     1       5.288   1.773   6.475  1.00  0.00     0.006 C 
BRANCH  20  21
ATOM     21  C   UNL     1       3.776   1.664   6.206  1.00  0.00     0.053 C 
BRANCH  21  22
ATOM     22  C   UNL     1       3.226   2.846   5.463  1.00  0.00     0.041 C 
ATOM     23  O   UNL     1       2.326   2.691   4.594  1.00  0.00    -0.550 OA
ATOM     24  O   UNL     1       3.757   4.111   5.678  1.00  0.00    -0.550 OA
ENDBRANCH  21  22
ENDBRANCH  20  21
ENDBRANCH  19  20
ENDBRANCH  18  19
ENDBRANCH  17  18
ENDBRANCH  16  17
ENDBRANCH  15  16
ENDBRANCH  14  15
ENDBRANCH  13  14
ENDBRANCH   1  13
TORSDOF 20
ENDMDL
MODEL 5
REMARK VINA RESULT:    -3.618      3.247      4.112
REMARK INTER + INTRA:         -10.908
REMARK INTER:                  -7.911
REMARK INTRA:                  -2.996
REMARK UNBOUND:                -3.059
REMARK SMILES CCCCCCCCCCCCCCCCCCCCCC(=O)[O-]
REMARK SMILES IDX 12 1 11 2 10 3 9 4 8 5 7 6 6 7 5 8 4 9 3 10 2 11 1 12 13 13
REMARK SMILES IDX 14 14 15 15 16 16 17 17 18 18 19 19 20 20 21 21 22 22 23 23
REMARK SMILES IDX 24 24
REMARK H PARENT
REMARK Flexibility Score: inf
ROOT
ATOM      1  C   UNL     1       1.033  -8.224   4.464  1.00  0.00     0.000 C 
ENDROOT
BRANCH   1   2
ATOM      2  C   UNL     1       1.584  -9.406   3.648  1.00  0.00     0.000 C 
BRANCH   2   3
ATOM      3  C   UNL     1       3.001  -9.825   4.081  1.00  0.00     0.000 C 
BRANCH   3   4
ATOM      4  C   UNL     1       4.063  -9.805   2.966  1.00  0.00    -0.000 C 
BRANCH   4   5
ATOM      5  C   UNL     1       5.444  -9.346   3.459  1.00  0.00    -0.000 C 
BRANCH   5   6
ATOM      6  C   UNL     1       5.387  -7.913   4.001  1.00  0.00    -0.000 C 
BRANCH   6   7
ATOM      7  C   UNL     1       5.979  -7.836   5.416  1.00  0.00    -0.000 C 
BRANCH   7   8
ATOM      8  C   UNL     1       6.456  -6.422   5.791  1.00  0.00    -0.000 C 
BRANCH   8   9
ATOM      9  C   UNL     1       5.993  -5.304   4.839  1.00  0.00    -0.000 C 
BRANCH   9  10
ATOM     10  C   UNL     1       7.162  -4.522   4.222  1.00  0.00    -0.000 C 
BRANCH  10  11
ATOM     11  C   UNL     1       8.172  -5.472   3.568  1.00  0.00    -0.003 C 
ATOM     12  C   UNL     1       7.785  -5.780   2.124  1.00  0.00     0.004 C 
ENDBRANCH  10  11
ENDBRANCH   9  10
ENDBRANCH   8   9
ENDBRANCH   7   8
ENDBRANCH   6   7
ENDBRANCH   5   6
ENDBRANCH   4   5
ENDBRANCH   3   4
ENDBRANCH   2   3
ENDBRANCH   1   2
BRANCH   1  13
ATOM     13  C   UNL     1       2.031  -7.700   5.513  1.00  0.00     0.000 C 
BRANCH  13  14
ATOM     14  C   UNL     1       2.395  -6.207   5.396  1.00  0.00     0.000 C 
BRANCH  14  15
ATOM     15  C   UNL     1       2.167  -5.428   6.702  1.00  0.00     0.000 C 
BRANCH  15  16
ATOM     16  C   UNL     1       3.459  -5.231   7.515  1.00  0.00     0.000 C 
BRANCH  16  17
ATOM     17  C   UNL     1       3.939  -3.773   7.636  1.00  0.00     0.000 C 
BRANCH  17  18
ATOM     18  C   UNL     1       3.094  -2.792   6.805  1.00  0.00     0.000 C 
BRANCH  18  19
ATOM     19  C   UNL     1       3.753  -2.467   5.449  1.00  0.00     0.000 C 
BRANCH  19  20
ATOM     20  C   UNL     1       4.740  -1.286   5.501  1.00  0.00     0.006 C 
BRANCH  20  21
ATOM     21  C   UNL     1       4.583  -0.388   6.742  1.00  0.00     0.053 C 
BRANCH  21  22
ATOM     22  C   UNL     1       3.649   0.765   6.517  1.00  0.00     0.041 C 
ATOM     23  O   UNL     1       3.752   1.476   5.482  1.00  0.00    -0.550 OA
ATOM     24  O   UNL     1       2.712   1.100   7.485  1.00  0.00    -0.550 OA
ENDBRANCH  21  22
ENDBRANCH  20  21
ENDBRANCH  19  20
ENDBRANCH  18  19
ENDBRANCH  17  18
ENDBRANCH  16  17
ENDBRANCH  15  16
ENDBRANCH  14  15
ENDBRANCH  13  14
ENDBRANCH   1  13
TORSDOF 20
ENDMDL
MODEL 6
REMARK VINA RESULT:    -3.582      4.461      6.764
REMARK INTER + INTRA:         -10.829
REMARK INTER:                  -8.386
REMARK INTRA:                  -2.443
REMARK UNBOUND:                -3.059
REMARK SMILES CCCCCCCCCCCCCCCCCCCCCC(=O)[O-]
REMARK SMILES IDX 12 1 11 2 10 3 9 4 8 5 7 6 6 7 5 8 4 9 3 10 2 11 1 12 13 13
REMARK SMILES IDX 14 14 15 15 16 16 17 17 18 18 19 19 20 20 21 21 22 22 23 23
REMARK SMILES IDX 24 24
REMARK H PARENT
REMARK Flexibility Score: inf
ROOT
ATOM      1  C   UNL     1       6.764  -4.129   4.347  1.00  0.00     0.000 C 
ENDROOT
BRANCH   1   2
ATOM      2  C   UNL     1       6.410  -5.418   5.109  1.00  0.00     0.000 C 
BRANCH   2   3
ATOM      3  C   UNL     1       5.998  -5.158   6.570  1.00  0.00     0.000 C 
BRANCH   3   4
ATOM      4  C   UNL     1       4.568  -5.592   6.939  1.00  0.00    -0.000 C 
BRANCH   4   5
ATOM      5  C   UNL     1       3.786  -6.164   5.746  1.00  0.00    -0.000 C 
BRANCH   5   6
ATOM      6  C   UNL     1       2.355  -5.614   5.711  1.00  0.00    -0.000 C 
BRANCH   6   7
ATOM      7  C   UNL     1       1.383  -6.646   5.121  1.00  0.00    -0.000 C 
BRANCH   7   8
ATOM      8  C   UNL     1       1.879  -8.095   5.274  1.00  0.00    -0.000 C 
BRANCH   8   9
ATOM      9  C   UNL     1       1.997  -8.885   3.957  1.00  0.00    -0.000 C 
BRANCH   9  10
ATOM     10  C   UNL     1       3.139  -9.912   3.978  1.00  0.00    -0.000 C 
BRANCH  10  11
ATOM     11  C   UNL     1       4.224  -9.547   2.957  1.00  0.00    -0.003 C 
ATOM     12  C   UNL     1       5.312  -8.685   3.594  1.00  0.00     0.004 C 
ENDBRANCH  10  11
ENDBRANCH   9  10
ENDBRANCH   8   9
ENDBRANCH   7   8
ENDBRANCH   6   7
ENDBRANCH   5   6
ENDBRANCH   4   5
ENDBRANCH   3   4
ENDBRANCH   2   3
ENDBRANCH   1   2
BRANCH   1  13
ATOM     13  C   UNL     1       6.215  -2.860   5.025  1.00  0.00     0.000 C 
BRANCH  13  14
ATOM     14  C   UNL     1       4.976  -2.233   4.357  1.00  0.00     0.000 C 
BRANCH  14  15
ATOM     15  C   UNL     1       3.742  -2.215   5.274  1.00  0.00     0.000 C 
BRANCH  15  16
ATOM     16  C   UNL     1       4.076  -1.804   6.719  1.00  0.00     0.000 C 
BRANCH  16  17
ATOM     17  C   UNL     1       3.041  -0.882   7.390  1.00  0.00     0.000 C 
BRANCH  17  18
ATOM     18  C   UNL     1       3.551   0.557   7.578  1.00  0.00     0.000 C 
BRANCH  18  19
ATOM     19  C   UNL     1       4.509   0.982   6.447  1.00  0.00     0.000 C 
BRANCH  19  20
ATOM     20  C   UNL     1       5.075   2.405   6.610  1.00  0.00     0.006 C 
BRANCH  20  21
ATOM     21  C   UNL     1       4.998   3.264   5.333  1.00  0.00     0.053 C 
BRANCH  21  22
ATOM     22  C   UNL     1       3.616   3.777   5.054  1.00  0.00     0.041 C 
ATOM     23  O   UNL     1       2.832   3.126   4.313  1.00  0.00    -0.550 OA
ATOM     24  O   UNL     1       3.218   5.010   5.554  1.00  0.00    -0.550 OA
ENDBRANCH  21  22
ENDBRANCH  20  21
ENDBRANCH  19  20
ENDBRANCH  18  19
ENDBRANCH  17  18
ENDBRANCH  16  17
ENDBRANCH  15  16
ENDBRANCH  14  15
ENDBRANCH  13  14
ENDBRANCH   1  13
TORSDOF 20
ENDMDL
MODEL 7
REMARK VINA RESULT:    -3.564      3.367      6.308
REMARK INTER + INTRA:         -10.789
REMARK INTER:                  -7.121
REMARK INTRA:                  -3.668
REMARK UNBOUND:                -3.059
REMARK SMILES CCCCCCCCCCCCCCCCCCCCCC(=O)[O-]
REMARK SMILES IDX 12 1 11 2 10 3 9 4 8 5 7 6 6 7 5 8 4 9 3 10 2 11 1 12 13 13
REMARK SMILES IDX 14 14 15 15 16 16 17 17 18 18 19 19 20 20 21 21 22 22 23 23
REMARK SMILES IDX 24 24
REMARK H PARENT
REMARK Flexibility Score: inf
ROOT
ATOM      1  C   UNL     1       6.466  -7.129   3.993  1.00  0.00     0.000 C 
ENDROOT
BRANCH   1   2
ATOM      2  C   UNL     1       5.632  -8.371   3.633  1.00  0.00     0.000 C 
BRANCH   2   3
ATOM      3  C   UNL     1       5.502  -9.366   4.801  1.00  0.00     0.000 C 
BRANCH   3   4
ATOM      4  C   UNL     1       6.027  -8.861   6.158  1.00  0.00    -0.000 C 
BRANCH   4   5
ATOM      5  C   UNL     1       4.906  -8.411   7.108  1.00  0.00    -0.000 C 
BRANCH   5   6
ATOM      6  C   UNL     1       5.008  -6.911   7.408  1.00  0.00    -0.000 C 
BRANCH   6   7
ATOM      7  C   UNL     1       3.654  -6.215   7.205  1.00  0.00    -0.000 C 
BRANCH   7   8
ATOM      8  C   UNL     1       3.197  -6.207   5.736  1.00  0.00    -0.000 C 
BRANCH   8   9
ATOM      9  C   UNL     1       1.680  -6.045   5.527  1.00  0.00    -0.000 C 
BRANCH   9  10
ATOM     10  C   UNL     1       1.038  -7.255   4.831  1.00  0.00    -0.000 C 
BRANCH  10  11
ATOM     11  C   UNL     1       2.110  -8.232   4.333  1.00  0.00    -0.003 C 
ATOM     12  C   UNL     1       1.505  -9.594   4.004  1.00  0.00     0.004 C 
ENDBRANCH  10  11
ENDBRANCH   9  10
ENDBRANCH   8   9
ENDBRANCH   7   8
ENDBRANCH   6   7
ENDBRANCH   5   6
ENDBRANCH   4   5
ENDBRANCH   3   4
ENDBRANCH   2   3
ENDBRANCH   1   2
BRANCH   1  13
ATOM     13  C   UNL     1       6.904  -6.320   2.758  1.00  0.00     0.000 C 
BRANCH  13  14
ATOM     14  C   UNL     1       8.272  -5.620   2.873  1.00  0.00     0.000 C 
BRANCH  14  15
ATOM     15  C   UNL     1       9.012  -5.959   4.178  1.00  0.00     0.000 C 
BRANCH  15  16
ATOM     16  C   UNL     1       9.763  -4.754   4.771  1.00  0.00     0.000 C 
BRANCH  16  17
ATOM     17  C   UNL     1       9.303  -4.326   6.177  1.00  0.00     0.000 C 
BRANCH  17  18
ATOM     18  C   UNL     1       7.925  -4.893   6.557  1.00  0.00     0.000 C 
BRANCH  18  19
ATOM     19  C   UNL     1       6.834  -3.803   6.564  1.00  0.00     0.000 C 
BRANCH  19  20
ATOM     20  C   UNL     1       6.004  -3.741   5.268  1.00  0.00     0.006 C 
BRANCH  20  21
ATOM     21  C   UNL     1       4.735  -2.875   5.372  1.00  0.00     0.053 C 
BRANCH  21  22
ATOM     22  C   UNL     1       4.978  -1.435   5.027  1.00  0.00     0.041 C 
ATOM     23  O   UNL     1       5.999  -1.101   4.369  1.00  0.00    -0.550 OA
ATOM     24  O   UNL     1       4.115  -0.453   5.494  1.00  0.00    -0.550 OA
ENDBRANCH  21  22
ENDBRANCH  20  21
ENDBRANCH  19  20
ENDBRANCH  18  19
ENDBRANCH  17  18
ENDBRANCH  16  17
ENDBRANCH  15  16
ENDBRANCH  14  15
ENDBRANCH  13  14
ENDBRANCH   1  13
TORSDOF 20
ENDMDL
MODEL 8
REMARK VINA RESULT:    -3.555      3.885      6.823
REMARK INTER + INTRA:         -10.771
REMARK INTER:                  -7.644
REMARK INTRA:                  -3.127
REMARK UNBOUND:                -3.059
REMARK SMILES CCCCCCCCCCCCCCCCCCCCCC(=O)[O-]
REMARK SMILES IDX 12 1 11 2 10 3 9 4 8 5 7 6 6 7 5 8 4 9 3 10 2 11 1 12 13 13
REMARK SMILES IDX 14 14 15 15 16 16 17 17 18 18 19 19 20 20 21 21 22 22 23 23
REMARK SMILES IDX 24 24
REMARK H PARENT
REMARK Flexibility Score: inf
ROOT
ATOM      1  C   UNL     1      -1.167  -4.027   6.599  1.00  0.00     0.000 C 
ENDROOT
BRANCH   1   2
ATOM      2  C   UNL     1      -1.684  -5.420   6.997  1.00  0.00     0.000 C 
BRANCH   2   3
ATOM      3  C   UNL     1      -0.964  -6.561   6.255  1.00  0.00     0.000 C 
BRANCH   3   4
ATOM      4  C   UNL     1      -0.035  -7.429   7.123  1.00  0.00    -0.000 C 
BRANCH   4   5
ATOM      5  C   UNL     1       1.011  -8.199   6.303  1.00  0.00    -0.000 C 
BRANCH   5   6
ATOM      6  C   UNL     1       0.898  -7.863   4.811  1.00  0.00    -0.000 C 
BRANCH   6   7
ATOM      7  C   UNL     1       1.131  -9.110   3.946  1.00  0.00    -0.000 C 
BRANCH   7   8
ATOM      8  C   UNL     1       2.478  -9.797   4.232  1.00  0.00    -0.000 C 
BRANCH   8   9
ATOM      9  C   UNL     1       3.605  -9.459   3.239  1.00  0.00    -0.000 C 
BRANCH   9  10
ATOM     10  C   UNL     1       4.854  -8.883   3.924  1.00  0.00    -0.000 C 
BRANCH  10  11
ATOM     11  C   UNL     1       4.513  -7.606   4.701  1.00  0.00    -0.003 C 
ATOM     12  C   UNL     1       4.861  -7.750   6.180  1.00  0.00     0.004 C 
ENDBRANCH  10  11
ENDBRANCH   9  10
ENDBRANCH   8   9
ENDBRANCH   7   8
ENDBRANCH   6   7
ENDBRANCH   5   6
ENDBRANCH   4   5
ENDBRANCH   3   4
ENDBRANCH   2   3
ENDBRANCH   1   2
BRANCH   1  13
ATOM     13  C   UNL     1       0.287  -3.776   7.039  1.00  0.00     0.000 C 
BRANCH  13  14
ATOM     14  C   UNL     1       1.316  -3.665   5.897  1.00  0.00     0.000 C 
BRANCH  14  15
ATOM     15  C   UNL     1       2.406  -4.748   5.962  1.00  0.00     0.000 C 
BRANCH  15  16
ATOM     16  C   UNL     1       3.427  -4.505   7.087  1.00  0.00     0.000 C 
BRANCH  16  17
ATOM     17  C   UNL     1       4.828  -4.074   6.614  1.00  0.00     0.000 C 
BRANCH  17  18
ATOM     18  C   UNL     1       4.865  -3.674   5.129  1.00  0.00     0.000 C 
BRANCH  18  19
ATOM     19  C   UNL     1       6.285  -3.782   4.537  1.00  0.00     0.000 C 
BRANCH  19  20
ATOM     20  C   UNL     1       7.136  -4.906   5.157  1.00  0.00     0.006 C 
BRANCH  20  21
ATOM     21  C   UNL     1       7.636  -5.950   4.142  1.00  0.00     0.053 C 
BRANCH  21  22
ATOM     22  C   UNL     1       8.177  -5.335   2.884  1.00  0.00     0.041 C 
ATOM     23  O   UNL     1       7.926  -5.851   1.763  1.00  0.00    -0.550 OA
ATOM     24  O   UNL     1       9.017  -4.232   2.957  1.00  0.00    -0.550 OA
ENDBRANCH  21  22
ENDBRANCH  20  21
ENDBRANCH  19  20
ENDBRANCH  18  19
ENDBRANCH  17  18
ENDBRANCH  16  17
ENDBRANCH  15  16
ENDBRANCH  14  15
ENDBRANCH  13  14
ENDBRANCH   1  13
TORSDOF 20
ENDMDL
MODEL 9
REMARK VINA RESULT:    -3.544      1.497      3.168
REMARK INTER + INTRA:         -10.747
REMARK INTER:                  -8.084
REMARK INTRA:                  -2.663
REMARK UNBOUND:                -3.059
REMARK SMILES CCCCCCCCCCCCCCCCCCCCCC(=O)[O-]
REMARK SMILES IDX 12 1 11 2 10 3 9 4 8 5 7 6 6 7 5 8 4 9 3 10 2 11 1 12 13 13
REMARK SMILES IDX 14 14 15 15 16 16 17 17 18 18 19 19 20 20 21 21 22 22 23 23
REMARK SMILES IDX 24 24
REMARK H PARENT
REMARK Flexibility Score: inf
ROOT
ATOM      1  C   UNL     1       3.794  -9.805   3.230  1.00  0.00     0.000 C 
ENDROOT
BRANCH   1   2
ATOM      2  C   UNL     1       5.093  -8.982   3.184  1.00  0.00     0.000 C 
BRANCH   2   3
ATOM      3  C   UNL     1       5.506  -8.434   4.562  1.00  0.00     0.000 C 
BRANCH   3   4
ATOM      4  C   UNL     1       5.874  -6.939   4.593  1.00  0.00    -0.000 C 
BRANCH   4   5
ATOM      5  C   UNL     1       7.186  -6.657   5.343  1.00  0.00    -0.000 C 
BRANCH   5   6
ATOM      6  C   UNL     1       6.928  -5.847   6.618  1.00  0.00    -0.000 C 
BRANCH   6   7
ATOM      7  C   UNL     1       5.462  -5.966   7.060  1.00  0.00    -0.000 C 
BRANCH   7   8
ATOM      8  C   UNL     1       4.978  -4.753   7.873  1.00  0.00    -0.000 C 
BRANCH   8   9
ATOM      9  C   UNL     1       5.370  -3.382   7.292  1.00  0.00    -0.000 C 
BRANCH   9  10
ATOM     10  C   UNL     1       4.173  -2.615   6.709  1.00  0.00    -0.000 C 
BRANCH  10  11
ATOM     11  C   UNL     1       4.193  -2.651   5.176  1.00  0.00    -0.003 C 
ATOM     12  C   UNL     1       5.606  -2.882   4.648  1.00  0.00     0.004 C 
ENDBRANCH  10  11
ENDBRANCH   9  10
ENDBRANCH   8   9
ENDBRANCH   7   8
ENDBRANCH   6   7
ENDBRANCH   5   6
ENDBRANCH   4   5
ENDBRANCH   3   4
ENDBRANCH   2   3
ENDBRANCH   1   2
BRANCH   1  13
ATOM     13  C   UNL     1       2.876  -9.415   4.404  1.00  0.00     0.000 C 
BRANCH  13  14
ATOM     14  C   UNL     1       1.475  -8.911   4.011  1.00  0.00     0.000 C 
BRANCH  14  15
ATOM     15  C   UNL     1       1.079  -7.611   4.731  1.00  0.00     0.000 C 
BRANCH  15  16
ATOM     16  C   UNL     1       2.289  -6.726   5.079  1.00  0.00     0.000 C 
BRANCH  16  17
ATOM     17  C   UNL     1       1.965  -5.480   5.922  1.00  0.00     0.000 C 
BRANCH  17  18
ATOM     18  C   UNL     1       0.460  -5.308   6.188  1.00  0.00     0.000 C 
BRANCH  18  19
ATOM     19  C   UNL     1       0.037  -3.825   6.176  1.00  0.00     0.000 C 
BRANCH  19  20
ATOM     20  C   UNL     1      -1.132  -3.501   7.125  1.00  0.00     0.006 C 
BRANCH  20  21
ATOM     21  C   UNL     1      -2.321  -2.799   6.444  1.00  0.00     0.053 C 
BRANCH  21  22
ATOM     22  C   UNL     1      -3.386  -3.754   5.990  1.00  0.00     0.041 C 
ATOM     23  O   UNL     1      -4.203  -3.419   5.092  1.00  0.00    -0.550 OA
ATOM     24  O   UNL     1      -3.521  -4.989   6.610  1.00  0.00    -0.550 OA
ENDBRANCH  21  22
ENDBRANCH  20  21
ENDBRANCH  19  20
ENDBRANCH  18  19
ENDBRANCH  17  18
ENDBRANCH  16  17
ENDBRANCH  15  16
ENDBRANCH  14  15
ENDBRANCH  13  14
ENDBRANCH   1  13
TORSDOF 20
ENDMDL
