MODEL 1
REMARK VINA RESULT:    -6.592      0.000      0.000
REMARK INTER + INTRA:          -8.030
REMARK INTER:                  -7.941
REMARK INTRA:                  -0.089
REMARK UNBOUND:                -0.089
REMARK SMILES Oc1cc(O)c2cc(O)c(-c3ccc(O)c(O)c3)[o+]c2c1
REMARK SMILES IDX 10 1 19 2 20 3 21 4 2 5 3 6 4 7 6 8 7 9 8 10 11 11 12 12
REMARK SMILES IDX 13 13 14 14 18 15 16 16 15 17 17 19 9 21 1 23 5 25
REMARK H PARENT 15 18 17 20 9 22 1 24 5 26
REMARK Flexibility Score: inf
ROOT
ATOM      1  C   UNL     1      27.444  -2.271  35.508  1.00  0.00     0.402 A 
ATOM      2  O   UNL     1      26.711  -1.672  34.574  1.00  0.00    -0.202 OA
ATOM      3  C   UNL     1      25.758  -0.788  34.849  1.00  0.00     0.368 A 
ATOM      4  C   UNL     1      25.043  -0.209  33.798  1.00  0.00     0.162 A 
ATOM      5  C   UNL     1      24.039   0.725  34.057  1.00  0.00     0.128 A 
ATOM      6  C   UNL     1      23.747   1.085  35.378  1.00  0.00     0.093 A 
ATOM      7  C   UNL     1      24.449   0.519  36.450  1.00  0.00     0.136 A 
ATOM      8  C   UNL     1      25.469  -0.434  36.189  1.00  0.00     0.125 A 
ATOM      9  C   UNL     1      26.215  -1.062  37.200  1.00  0.00     0.078 A 
ATOM     10  C   UNL     1      27.202  -1.994  36.866  1.00  0.00     0.223 A 
ENDROOT
BRANCH   1  11
ATOM     11  C   UNL     1      28.484  -3.232  35.073  1.00  0.00     0.087 A 
ATOM     12  C   UNL     1      28.163  -4.354  34.288  1.00  0.00     0.022 A 
ATOM     13  C   UNL     1      29.158  -5.259  33.910  1.00  0.00     0.051 A 
ATOM     14  C   UNL     1      30.483  -5.067  34.321  1.00  0.00     0.157 A 
ATOM     15  C   UNL     1      29.810  -3.056  35.500  1.00  0.00     0.068 A 
ATOM     16  C   UNL     1      30.809  -3.960  35.122  1.00  0.00     0.158 A 
BRANCH  14  17
ATOM     17  O   UNL     1      31.473  -5.971  33.939  1.00  0.00    -0.504 OA
ATOM     18  H   UNL     1      31.355  -6.970  34.060  1.00  0.00     0.293 HD
ENDBRANCH  14  17
BRANCH  16  19
ATOM     19  O   UNL     1      32.117  -3.744  35.553  1.00  0.00    -0.504 OA
ATOM     20  H   UNL     1      32.678  -2.975  35.206  1.00  0.00     0.293 HD
ENDBRANCH  16  19
ENDBRANCH   1  11
BRANCH  10  21
ATOM     21  O   UNL     1      27.908  -2.655  37.871  1.00  0.00    -0.500 OA
ATOM     22  H   UNL     1      27.802  -2.407  38.849  1.00  0.00     0.294 HD
ENDBRANCH  10  21
BRANCH   5  23
ATOM     23  O   UNL     1      23.338   1.291  32.996  1.00  0.00    -0.507 OA
ATOM     24  H   UNL     1      23.575   1.084  32.033  1.00  0.00     0.293 HD
ENDBRANCH   5  23
BRANCH   7  25
ATOM     25  O   UNL     1      24.100   0.933  37.738  1.00  0.00    -0.507 OA
ATOM     26  H   UNL     1      24.631   0.718  38.569  1.00  0.00     0.293 HD
ENDBRANCH   7  25
TORSDOF 6
ENDMDL
MODEL 2
REMARK VINA RESULT:    -5.823      1.998      3.239
REMARK INTER + INTRA:          -7.103
REMARK INTER:                  -6.800
REMARK INTRA:                  -0.303
REMARK UNBOUND:                -0.089
REMARK SMILES Oc1cc(O)c2cc(O)c(-c3ccc(O)c(O)c3)[o+]c2c1
REMARK SMILES IDX 10 1 19 2 20 3 21 4 2 5 3 6 4 7 6 8 7 9 8 10 11 11 12 12
REMARK SMILES IDX 13 13 14 14 18 15 16 16 15 17 17 19 9 21 1 23 5 25
REMARK H PARENT 15 18 17 20 9 22 1 24 5 26
REMARK Flexibility Score: inf
ROOT
ATOM      1  C   UNL     1      25.341  -1.100  34.769  1.00  0.00     0.402 A 
ATOM      2  O   UNL     1      25.371  -0.284  33.719  1.00  0.00    -0.202 OA
ATOM      3  C   UNL     1      24.358   0.506  33.379  1.00  0.00     0.368 A 
ATOM      4  C   UNL     1      24.486   1.333  32.260  1.00  0.00     0.162 A 
ATOM      5  C   UNL     1      23.440   2.176  31.882  1.00  0.00     0.128 A 
ATOM      6  C   UNL     1      22.256   2.194  32.629  1.00  0.00     0.093 A 
ATOM      7  C   UNL     1      22.103   1.376  33.755  1.00  0.00     0.136 A 
ATOM      8  C   UNL     1      23.165   0.515  34.140  1.00  0.00     0.125 A 
ATOM      9  C   UNL     1      23.095  -0.348  35.245  1.00  0.00     0.078 A 
ATOM     10  C   UNL     1      24.181  -1.171  35.562  1.00  0.00     0.223 A 
ENDROOT
BRANCH   1  11
ATOM     11  C   UNL     1      26.539  -1.926  35.049  1.00  0.00     0.087 A 
ATOM     12  C   UNL     1      27.398  -1.629  36.122  1.00  0.00     0.022 A 
ATOM     13  C   UNL     1      28.535  -2.408  36.352  1.00  0.00     0.051 A 
ATOM     14  C   UNL     1      28.838  -3.484  35.509  1.00  0.00     0.157 A 
ATOM     15  C   UNL     1      26.858  -2.993  34.195  1.00  0.00     0.068 A 
ATOM     16  C   UNL     1      27.996  -3.776  34.423  1.00  0.00     0.158 A 
BRANCH  14  17
ATOM     17  O   UNL     1      29.972  -4.260  35.743  1.00  0.00    -0.504 OA
ATOM     18  H   UNL     1      30.403  -4.308  36.659  1.00  0.00     0.293 HD
ENDBRANCH  14  17
BRANCH  16  19
ATOM     19  O   UNL     1      28.273  -4.836  33.561  1.00  0.00    -0.504 OA
ATOM     20  H   UNL     1      28.329  -4.713  32.557  1.00  0.00     0.293 HD
ENDBRANCH  16  19
ENDBRANCH   1  11
BRANCH  10  21
ATOM     21  O   UNL     1      24.094  -2.065  36.629  1.00  0.00    -0.500 OA
ATOM     22  H   UNL     1      23.287  -2.085  37.243  1.00  0.00     0.294 HD
ENDBRANCH  10  21
BRANCH   5  23
ATOM     23  O   UNL     1      23.586   2.991  30.764  1.00  0.00    -0.507 OA
ATOM     24  H   UNL     1      23.770   3.984  30.852  1.00  0.00     0.293 HD
ENDBRANCH   5  23
BRANCH   7  25
ATOM     25  O   UNL     1      20.893   1.455  34.448  1.00  0.00    -0.507 OA
ATOM     26  H   UNL     1      20.284   0.669  34.626  1.00  0.00     0.293 HD
ENDBRANCH   7  25
TORSDOF 6
ENDMDL
MODEL 3
REMARK VINA RESULT:    -5.796      1.570      6.957
REMARK INTER + INTRA:          -7.070
REMARK INTER:                  -6.734
REMARK INTRA:                  -0.337
REMARK UNBOUND:                -0.089
REMARK SMILES Oc1cc(O)c2cc(O)c(-c3ccc(O)c(O)c3)[o+]c2c1
REMARK SMILES IDX 10 1 19 2 20 3 21 4 2 5 3 6 4 7 6 8 7 9 8 10 11 11 12 12
REMARK SMILES IDX 13 13 14 14 18 15 16 16 15 17 17 19 9 21 1 23 5 25
REMARK H PARENT 15 18 17 20 9 22 1 24 5 26
REMARK Flexibility Score: inf
ROOT
ATOM      1  C   UNL     1      26.844  -1.976  35.053  1.00  0.00     0.402 A 
ATOM      2  O   UNL     1      27.060  -3.215  34.619  1.00  0.00    -0.202 OA
ATOM      3  C   UNL     1      28.235  -3.828  34.717  1.00  0.00     0.368 A 
ATOM      4  C   UNL     1      28.363  -5.134  34.236  1.00  0.00     0.162 A 
ATOM      5  C   UNL     1      29.584  -5.803  34.328  1.00  0.00     0.128 A 
ATOM      6  C   UNL     1      30.687  -5.163  34.906  1.00  0.00     0.093 A 
ATOM      7  C   UNL     1      30.584  -3.856  35.396  1.00  0.00     0.136 A 
ATOM      8  C   UNL     1      29.344  -3.171  35.301  1.00  0.00     0.125 A 
ATOM      9  C   UNL     1      29.152  -1.856  35.753  1.00  0.00     0.078 A 
ATOM     10  C   UNL     1      27.902  -1.245  35.623  1.00  0.00     0.223 A 
ENDROOT
BRANCH   1  11
ATOM     11  C   UNL     1      25.486  -1.406  34.896  1.00  0.00     0.087 A 
ATOM     12  C   UNL     1      25.082  -0.795  33.695  1.00  0.00     0.022 A 
ATOM     13  C   UNL     1      23.803  -0.243  33.579  1.00  0.00     0.051 A 
ATOM     14  C   UNL     1      22.915  -0.281  34.662  1.00  0.00     0.157 A 
ATOM     15  C   UNL     1      24.599  -1.422  35.984  1.00  0.00     0.068 A 
ATOM     16  C   UNL     1      23.318  -0.871  35.871  1.00  0.00     0.158 A 
BRANCH  14  17
ATOM     17  O   UNL     1      21.640   0.269  34.541  1.00  0.00    -0.504 OA
ATOM     18  H   UNL     1      21.463   1.077  33.956  1.00  0.00     0.293 HD
ENDBRANCH  14  17
BRANCH  16  19
ATOM     19  O   UNL     1      22.460  -0.919  36.970  1.00  0.00    -0.504 OA
ATOM     20  H   UNL     1      21.842  -0.151  37.203  1.00  0.00     0.293 HD
ENDBRANCH  16  19
ENDBRANCH   1  11
BRANCH  10  21
ATOM     21  O   UNL     1      27.724   0.079  36.026  1.00  0.00    -0.500 OA
ATOM     22  H   UNL     1      27.041   0.335  36.730  1.00  0.00     0.294 HD
ENDBRANCH  10  21
BRANCH   5  23
ATOM     23  O   UNL     1      29.692  -7.103  33.842  1.00  0.00    -0.507 OA
ATOM     24  H   UNL     1      30.210  -7.312  32.996  1.00  0.00     0.293 HD
ENDBRANCH   5  23
BRANCH   7  25
ATOM     25  O   UNL     1      31.729  -3.289  35.962  1.00  0.00    -0.507 OA
ATOM     26  H   UNL     1      32.665  -3.649  35.840  1.00  0.00     0.293 HD
ENDBRANCH   7  25
TORSDOF 6
ENDMDL
MODEL 4
REMARK VINA RESULT:    -5.659      3.999      6.672
REMARK INTER + INTRA:          -6.906
REMARK INTER:                  -6.588
REMARK INTRA:                  -0.319
REMARK UNBOUND:                -0.089
REMARK SMILES Oc1cc(O)c2cc(O)c(-c3ccc(O)c(O)c3)[o+]c2c1
REMARK SMILES IDX 10 1 19 2 20 3 21 4 2 5 3 6 4 7 6 8 7 9 8 10 11 11 12 12
REMARK SMILES IDX 13 13 14 14 18 15 16 16 15 17 17 19 9 21 1 23 5 25
REMARK H PARENT 15 18 17 20 9 22 1 24 5 26
REMARK Flexibility Score: inf
ROOT
ATOM      1  C   UNL     1      22.463   1.255  34.766  1.00  0.00     0.402 A 
ATOM      2  O   UNL     1      22.533   1.734  36.005  1.00  0.00    -0.202 OA
ATOM      3  C   UNL     1      21.677   2.626  36.493  1.00  0.00     0.368 A 
ATOM      4  C   UNL     1      21.830   3.066  37.810  1.00  0.00     0.162 A 
ATOM      5  C   UNL     1      20.944   3.999  38.350  1.00  0.00     0.128 A 
ATOM      6  C   UNL     1      19.894   4.496  37.567  1.00  0.00     0.093 A 
ATOM      7  C   UNL     1      19.719   4.070  36.245  1.00  0.00     0.136 A 
ATOM      8  C   UNL     1      20.621   3.123  35.693  1.00  0.00     0.125 A 
ATOM      9  C   UNL     1      20.530   2.649  34.374  1.00  0.00     0.078 A 
ATOM     10  C   UNL     1      21.458   1.718  33.898  1.00  0.00     0.223 A 
ENDROOT
BRANCH   1  11
ATOM     11  C   UNL     1      23.472   0.257  34.343  1.00  0.00     0.087 A 
ATOM     12  C   UNL     1      24.587   0.625  33.570  1.00  0.00     0.022 A 
ATOM     13  C   UNL     1      25.514  -0.339  33.163  1.00  0.00     0.051 A 
ATOM     14  C   UNL     1      25.333  -1.684  33.508  1.00  0.00     0.157 A 
ATOM     15  C   UNL     1      23.285  -1.096  34.669  1.00  0.00     0.068 A 
ATOM     16  C   UNL     1      24.210  -2.064  34.263  1.00  0.00     0.158 A 
BRANCH  14  17
ATOM     17  O   UNL     1      26.260  -2.643  33.102  1.00  0.00    -0.504 OA
ATOM     18  H   UNL     1      26.347  -2.920  32.132  1.00  0.00     0.293 HD
ENDBRANCH  14  17
BRANCH  16  19
ATOM     19  O   UNL     1      23.998  -3.396  34.618  1.00  0.00    -0.504 OA
ATOM     20  H   UNL     1      23.554  -4.056  33.991  1.00  0.00     0.293 HD
ENDBRANCH  16  19
ENDBRANCH   1  11
BRANCH  10  21
ATOM     21  O   UNL     1      21.398   1.285  32.573  1.00  0.00    -0.500 OA
ATOM     22  H   UNL     1      21.788   0.395  32.285  1.00  0.00     0.294 HD
ENDBRANCH  10  21
BRANCH   5  23
ATOM     23  O   UNL     1      21.114   4.427  39.664  1.00  0.00    -0.507 OA
ATOM     24  H   UNL     1      21.376   3.783  40.401  1.00  0.00     0.293 HD
ENDBRANCH   5  23
BRANCH   7  25
ATOM     25  O   UNL     1      18.646   4.611  35.533  1.00  0.00    -0.507 OA
ATOM     26  H   UNL     1      18.077   5.380  35.854  1.00  0.00     0.293 HD
ENDBRANCH   7  25
TORSDOF 6
ENDMDL
MODEL 5
REMARK VINA RESULT:    -5.571      2.343      4.434
REMARK INTER + INTRA:          -6.800
REMARK INTER:                  -6.471
REMARK INTRA:                  -0.329
REMARK UNBOUND:                -0.089
REMARK SMILES Oc1cc(O)c2cc(O)c(-c3ccc(O)c(O)c3)[o+]c2c1
REMARK SMILES IDX 10 1 19 2 20 3 21 4 2 5 3 6 4 7 6 8 7 9 8 10 11 11 12 12
REMARK SMILES IDX 13 13 14 14 18 15 16 16 15 17 17 19 9 21 1 23 5 25
REMARK H PARENT 15 18 17 20 9 22 1 24 5 26
REMARK Flexibility Score: inf
ROOT
ATOM      1  C   UNL     1      24.262  -0.233  34.596  1.00  0.00     0.402 A 
ATOM      2  O   UNL     1      24.367   0.606  33.569  1.00  0.00    -0.202 OA
ATOM      3  C   UNL     1      23.353   1.335  33.115  1.00  0.00     0.368 A 
ATOM      4  C   UNL     1      23.563   2.192  32.032  1.00  0.00     0.162 A 
ATOM      5  C   UNL     1      22.517   2.972  31.536  1.00  0.00     0.128 A 
ATOM      6  C   UNL     1      21.251   2.896  32.129  1.00  0.00     0.093 A 
ATOM      7  C   UNL     1      21.015   2.045  33.215  1.00  0.00     0.136 A 
ATOM      8  C   UNL     1      22.076   1.249  33.720  1.00  0.00     0.125 A 
ATOM      9  C   UNL     1      21.929   0.359  34.796  1.00  0.00     0.078 A 
ATOM     10  C   UNL     1      23.020  -0.397  35.235  1.00  0.00     0.223 A 
ENDROOT
BRANCH   1  11
ATOM     11  C   UNL     1      25.469  -0.983  35.014  1.00  0.00     0.087 A 
ATOM     12  C   UNL     1      26.215  -0.601  36.142  1.00  0.00     0.022 A 
ATOM     13  C   UNL     1      27.364  -1.310  36.503  1.00  0.00     0.051 A 
ATOM     14  C   UNL     1      27.792  -2.401  35.736  1.00  0.00     0.157 A 
ATOM     15  C   UNL     1      25.914  -2.065  34.236  1.00  0.00     0.068 A 
ATOM     16  C   UNL     1      27.064  -2.778  34.595  1.00  0.00     0.158 A 
BRANCH  14  17
ATOM     17  O   UNL     1      28.937  -3.108  36.101  1.00  0.00    -0.504 OA
ATOM     18  H   UNL     1      28.995  -4.114  35.999  1.00  0.00     0.293 HD
ENDBRANCH  14  17
BRANCH  16  19
ATOM     19  O   UNL     1      27.467  -3.855  33.807  1.00  0.00    -0.504 OA
ATOM     20  H   UNL     1      28.157  -4.526  34.124  1.00  0.00     0.293 HD
ENDBRANCH  16  19
ENDBRANCH   1  11
BRANCH  10  21
ATOM     21  O   UNL     1      22.862  -1.317  36.272  1.00  0.00    -0.500 OA
ATOM     22  H   UNL     1      21.953  -1.698  36.512  1.00  0.00     0.294 HD
ENDBRANCH  10  21
BRANCH   5  23
ATOM     23  O   UNL     1      22.746   3.819  30.456  1.00  0.00    -0.507 OA
ATOM     24  H   UNL     1      23.457   4.541  30.489  1.00  0.00     0.293 HD
ENDBRANCH   5  23
BRANCH   7  25
ATOM     25  O   UNL     1      19.725   2.030  33.752  1.00  0.00    -0.507 OA
ATOM     26  H   UNL     1      18.997   2.686  33.508  1.00  0.00     0.293 HD
ENDBRANCH   7  25
TORSDOF 6
ENDMDL
MODEL 6
REMARK VINA RESULT:    -5.537      4.660      8.212
REMARK INTER + INTRA:          -6.759
REMARK INTER:                  -6.446
REMARK INTRA:                  -0.313
REMARK UNBOUND:                -0.089
REMARK SMILES Oc1cc(O)c2cc(O)c(-c3ccc(O)c(O)c3)[o+]c2c1
REMARK SMILES IDX 10 1 19 2 20 3 21 4 2 5 3 6 4 7 6 8 7 9 8 10 11 11 12 12
REMARK SMILES IDX 13 13 14 14 18 15 16 16 15 17 17 19 9 21 1 23 5 25
REMARK H PARENT 15 18 17 20 9 22 1 24 5 26
REMARK Flexibility Score: inf
ROOT
ATOM      1  C   UNL     1      23.884   2.426  38.277  1.00  0.00     0.402 A 
ATOM      2  O   UNL     1      24.307   1.228  37.882  1.00  0.00    -0.202 OA
ATOM      3  C   UNL     1      23.803   0.586  36.833  1.00  0.00     0.368 A 
ATOM      4  C   UNL     1      24.316  -0.669  36.494  1.00  0.00     0.162 A 
ATOM      5  C   UNL     1      23.809  -1.365  35.396  1.00  0.00     0.128 A 
ATOM      6  C   UNL     1      22.782  -0.802  34.629  1.00  0.00     0.093 A 
ATOM      7  C   UNL     1      22.251   0.454  34.948  1.00  0.00     0.136 A 
ATOM      8  C   UNL     1      22.763   1.163  36.066  1.00  0.00     0.125 A 
ATOM      9  C   UNL     1      22.284   2.420  36.468  1.00  0.00     0.078 A 
ATOM     10  C   UNL     1      22.835   3.057  37.584  1.00  0.00     0.223 A 
ENDROOT
BRANCH   1  11
ATOM     11  C   UNL     1      24.533   3.044  39.457  1.00  0.00     0.087 A 
ATOM     12  C   UNL     1      25.794   3.658  39.363  1.00  0.00     0.022 A 
ATOM     13  C   UNL     1      26.396   4.213  40.495  1.00  0.00     0.051 A 
ATOM     14  C   UNL     1      25.756   4.150  41.739  1.00  0.00     0.157 A 
ATOM     15  C   UNL     1      23.905   2.965  40.711  1.00  0.00     0.068 A 
ATOM     16  C   UNL     1      24.504   3.520  41.847  1.00  0.00     0.158 A 
BRANCH  14  17
ATOM     17  O   UNL     1      26.358   4.707  42.866  1.00  0.00    -0.504 OA
ATOM     18  H   UNL     1      27.202   5.263  42.797  1.00  0.00     0.293 HD
ENDBRANCH  14  17
BRANCH  16  19
ATOM     19  O   UNL     1      23.844   3.435  43.072  1.00  0.00    -0.504 OA
ATOM     20  H   UNL     1      22.908   3.797  43.205  1.00  0.00     0.293 HD
ENDBRANCH  16  19
ENDBRANCH   1  11
BRANCH  10  21
ATOM     21  O   UNL     1      22.326   4.283  38.013  1.00  0.00    -0.500 OA
ATOM     22  H   UNL     1      21.329   4.466  38.039  1.00  0.00     0.294 HD
ENDBRANCH  10  21
BRANCH   5  23
ATOM     23  O   UNL     1      24.332  -2.614  35.074  1.00  0.00    -0.507 OA
ATOM     24  H   UNL     1      24.491  -2.891  34.112  1.00  0.00     0.293 HD
ENDBRANCH   5  23
BRANCH   7  25
ATOM     25  O   UNL     1      21.230   0.947  34.131  1.00  0.00    -0.507 OA
ATOM     26  H   UNL     1      20.977   0.556  33.236  1.00  0.00     0.293 HD
ENDBRANCH   7  25
TORSDOF 6
ENDMDL
MODEL 7
REMARK VINA RESULT:    -5.482      4.936      8.243
REMARK INTER + INTRA:          -6.693
REMARK INTER:                  -6.349
REMARK INTRA:                  -0.344
REMARK UNBOUND:                -0.089
REMARK SMILES Oc1cc(O)c2cc(O)c(-c3ccc(O)c(O)c3)[o+]c2c1
REMARK SMILES IDX 10 1 19 2 20 3 21 4 2 5 3 6 4 7 6 8 7 9 8 10 11 11 12 12
REMARK SMILES IDX 13 13 14 14 18 15 16 16 15 17 17 19 9 21 1 23 5 25
REMARK H PARENT 15 18 17 20 9 22 1 24 5 26
REMARK Flexibility Score: inf
ROOT
ATOM      1  C   UNL     1      22.933   2.506  38.342  1.00  0.00     0.402 A 
ATOM      2  O   UNL     1      23.260   2.251  39.606  1.00  0.00    -0.202 OA
ATOM      3  C   UNL     1      22.922   3.041  40.621  1.00  0.00     0.368 A 
ATOM      4  C   UNL     1      23.308   2.686  41.916  1.00  0.00     0.162 A 
ATOM      5  C   UNL     1      22.965   3.495  43.000  1.00  0.00     0.128 A 
ATOM      6  C   UNL     1      22.229   4.667  42.790  1.00  0.00     0.093 A 
ATOM      7  C   UNL     1      21.830   5.044  41.502  1.00  0.00     0.136 A 
ATOM      8  C   UNL     1      22.180   4.225  40.396  1.00  0.00     0.125 A 
ATOM      9  C   UNL     1      21.834   4.530  39.070  1.00  0.00     0.078 A 
ATOM     10  C   UNL     1      22.218   3.676  38.031  1.00  0.00     0.223 A 
ENDROOT
BRANCH   1  11
ATOM     11  C   UNL     1      23.360   1.542  37.301  1.00  0.00     0.087 A 
ATOM     12  C   UNL     1      24.562   1.716  36.591  1.00  0.00     0.022 A 
ATOM     13  C   UNL     1      24.932   0.807  35.597  1.00  0.00     0.051 A 
ATOM     14  C   UNL     1      24.103  -0.279  35.287  1.00  0.00     0.157 A 
ATOM     15  C   UNL     1      22.523   0.464  36.972  1.00  0.00     0.068 A 
ATOM     16  C   UNL     1      22.891  -0.449  35.977  1.00  0.00     0.158 A 
BRANCH  14  17
ATOM     17  O   UNL     1      24.477  -1.186  34.296  1.00  0.00    -0.504 OA
ATOM     18  H   UNL     1      24.855  -0.876  33.408  1.00  0.00     0.293 HD
ENDBRANCH  14  17
BRANCH  16  19
ATOM     19  O   UNL     1      22.041  -1.515  35.688  1.00  0.00    -0.504 OA
ATOM     20  H   UNL     1      21.092  -1.558  36.040  1.00  0.00     0.293 HD
ENDBRANCH  16  19
ENDBRANCH   1  11
BRANCH  10  21
ATOM     21  O   UNL     1      21.918   4.005  36.708  1.00  0.00    -0.500 OA
ATOM     22  H   UNL     1      21.958   3.316  35.966  1.00  0.00     0.294 HD
ENDBRANCH  10  21
BRANCH   5  23
ATOM     23  O   UNL     1      23.360   3.125  44.283  1.00  0.00    -0.507 OA
ATOM     24  H   UNL     1      22.988   3.586  45.106  1.00  0.00     0.293 HD
ENDBRANCH   5  23
BRANCH   7  25
ATOM     25  O   UNL     1      21.095   6.225  41.376  1.00  0.00    -0.507 OA
ATOM     26  H   UNL     1      20.599   6.673  42.133  1.00  0.00     0.293 HD
ENDBRANCH   7  25
TORSDOF 6
ENDMDL
MODEL 8
REMARK VINA RESULT:    -5.478      3.786      7.791
REMARK INTER + INTRA:          -6.688
REMARK INTER:                  -6.343
REMARK INTRA:                  -0.345
REMARK UNBOUND:                -0.089
REMARK SMILES Oc1cc(O)c2cc(O)c(-c3ccc(O)c(O)c3)[o+]c2c1
REMARK SMILES IDX 10 1 19 2 20 3 21 4 2 5 3 6 4 7 6 8 7 9 8 10 11 11 12 12
REMARK SMILES IDX 13 13 14 14 18 15 16 16 15 17 17 19 9 21 1 23 5 25
REMARK H PARENT 15 18 17 20 9 22 1 24 5 26
REMARK Flexibility Score: inf
ROOT
ATOM      1  C   UNL     1      25.419   1.856  38.131  1.00  0.00     0.402 A 
ATOM      2  O   UNL     1      24.316   1.283  37.656  1.00  0.00    -0.202 OA
ATOM      3  C   UNL     1      24.330   0.315  36.746  1.00  0.00     0.368 A 
ATOM      4  C   UNL     1      23.119  -0.228  36.312  1.00  0.00     0.162 A 
ATOM      5  C   UNL     1      23.104  -1.248  35.359  1.00  0.00     0.128 A 
ATOM      6  C   UNL     1      24.310  -1.731  34.837  1.00  0.00     0.093 A 
ATOM      7  C   UNL     1      25.537  -1.204  35.256  1.00  0.00     0.136 A 
ATOM      8  C   UNL     1      25.555  -0.164  36.223  1.00  0.00     0.125 A 
ATOM      9  C   UNL     1      26.737   0.433  36.692  1.00  0.00     0.078 A 
ATOM     10  C   UNL     1      26.676   1.456  37.643  1.00  0.00     0.223 A 
ENDROOT
BRANCH   1  11
ATOM     11  C   UNL     1      25.272   2.920  39.152  1.00  0.00     0.087 A 
ATOM     12  C   UNL     1      25.080   4.264  38.787  1.00  0.00     0.022 A 
ATOM     13  C   UNL     1      24.967   5.253  39.767  1.00  0.00     0.051 A 
ATOM     14  C   UNL     1      25.058   4.917  41.124  1.00  0.00     0.157 A 
ATOM     15  C   UNL     1      25.383   2.592  40.512  1.00  0.00     0.068 A 
ATOM     16  C   UNL     1      25.270   3.579  41.498  1.00  0.00     0.158 A 
BRANCH  14  17
ATOM     17  O   UNL     1      24.943   5.906  42.100  1.00  0.00    -0.504 OA
ATOM     18  H   UNL     1      24.040   6.205  42.449  1.00  0.00     0.293 HD
ENDBRANCH  14  17
BRANCH  16  19
ATOM     19  O   UNL     1      25.372   3.213  42.839  1.00  0.00    -0.504 OA
ATOM     20  H   UNL     1      26.217   2.807  43.223  1.00  0.00     0.293 HD
ENDBRANCH  16  19
ENDBRANCH   1  11
BRANCH  10  21
ATOM     21  O   UNL     1      27.846   2.083  38.072  1.00  0.00    -0.500 OA
ATOM     22  H   UNL     1      28.740   1.905  37.628  1.00  0.00     0.294 HD
ENDBRANCH  10  21
BRANCH   5  23
ATOM     23  O   UNL     1      21.886  -1.776  34.938  1.00  0.00    -0.507 OA
ATOM     24  H   UNL     1      21.055  -1.200  34.868  1.00  0.00     0.293 HD
ENDBRANCH   5  23
BRANCH   7  25
ATOM     25  O   UNL     1      26.695  -1.742  34.689  1.00  0.00    -0.507 OA
ATOM     26  H   UNL     1      27.186  -1.341  33.903  1.00  0.00     0.293 HD
ENDBRANCH   7  25
TORSDOF 6
ENDMDL
MODEL 9
REMARK VINA RESULT:    -5.300      4.171      7.014
REMARK INTER + INTRA:          -6.474
REMARK INTER:                  -6.136
REMARK INTRA:                  -0.338
REMARK UNBOUND:                -0.089
REMARK SMILES Oc1cc(O)c2cc(O)c(-c3ccc(O)c(O)c3)[o+]c2c1
REMARK SMILES IDX 10 1 19 2 20 3 21 4 2 5 3 6 4 7 6 8 7 9 8 10 11 11 12 12
REMARK SMILES IDX 13 13 14 14 18 15 16 16 15 17 17 19 9 21 1 23 5 25
REMARK H PARENT 15 18 17 20 9 22 1 24 5 26
REMARK Flexibility Score: inf
ROOT
ATOM      1  C   UNL     1      23.915   1.913  37.625  1.00  0.00     0.402 A 
ATOM      2  O   UNL     1      24.734   2.197  38.634  1.00  0.00    -0.202 OA
ATOM      3  C   UNL     1      24.375   2.932  39.681  1.00  0.00     0.368 A 
ATOM      4  C   UNL     1      25.306   3.173  40.694  1.00  0.00     0.162 A 
ATOM      5  C   UNL     1      24.956   3.939  41.807  1.00  0.00     0.128 A 
ATOM      6  C   UNL     1      23.664   4.469  41.909  1.00  0.00     0.093 A 
ATOM      7  C   UNL     1      22.713   4.242  40.907  1.00  0.00     0.136 A 
ATOM      8  C   UNL     1      23.067   3.465  39.773  1.00  0.00     0.125 A 
ATOM      9  C   UNL     1      22.183   3.197  38.715  1.00  0.00     0.078 A 
ATOM     10  C   UNL     1      22.605   2.426  37.627  1.00  0.00     0.223 A 
ENDROOT
BRANCH   1  11
ATOM     11  C   UNL     1      24.431   1.074  36.519  1.00  0.00     0.087 A 
ATOM     12  C   UNL     1      25.148   1.634  35.447  1.00  0.00     0.022 A 
ATOM     13  C   UNL     1      25.605   0.826  34.403  1.00  0.00     0.051 A 
ATOM     14  C   UNL     1      25.340  -0.550  34.406  1.00  0.00     0.157 A 
ATOM     15  C   UNL     1      24.151  -0.302  36.506  1.00  0.00     0.068 A 
ATOM     16  C   UNL     1      24.607  -1.115  35.462  1.00  0.00     0.158 A 
BRANCH  14  17
ATOM     17  O   UNL     1      25.800  -1.354  33.363  1.00  0.00    -0.504 OA
ATOM     18  H   UNL     1      26.680  -1.851  33.425  1.00  0.00     0.293 HD
ENDBRANCH  14  17
BRANCH  16  19
ATOM     19  O   UNL     1      24.321  -2.480  35.492  1.00  0.00    -0.504 OA
ATOM     20  H   UNL     1      25.044  -3.183  35.395  1.00  0.00     0.293 HD
ENDBRANCH  16  19
ENDBRANCH   1  11
BRANCH  10  21
ATOM     21  O   UNL     1      21.744   2.201  36.553  1.00  0.00    -0.500 OA
ATOM     22  H   UNL     1      21.685   2.847  35.773  1.00  0.00     0.294 HD
ENDBRANCH  10  21
BRANCH   5  23
ATOM     23  O   UNL     1      25.898   4.168  42.806  1.00  0.00    -0.507 OA
ATOM     24  H   UNL     1      26.891   4.195  42.603  1.00  0.00     0.293 HD
ENDBRANCH   5  23
BRANCH   7  25
ATOM     25  O   UNL     1      21.445   4.801  41.085  1.00  0.00    -0.507 OA
ATOM     26  H   UNL     1      20.578   4.337  40.855  1.00  0.00     0.293 HD
ENDBRANCH   7  25
TORSDOF 6
ENDMDL
