MODEL 1
REMARK VINA RESULT:    -4.033      0.000      0.000
REMARK INTER + INTRA:          -5.058
REMARK INTER:                  -4.740
REMARK INTRA:                  -0.318
REMARK UNBOUND:                -0.318
REMARK SMILES O=c1cc(-c2ccc(O)c(O)c2)oc2cc(O)cc(O)c12
REMARK SMILES IDX 4 1 3 2 2 3 1 4 21 5 19 6 18 7 16 8 15 9 14 10 13 11 5 12
REMARK SMILES IDX 6 13 7 14 8 15 12 16 10 17 9 18 11 20 20 22 17 24
REMARK H PARENT 9 19 11 21 20 23 17 25
REMARK Flexibility Score: inf
ROOT
ATOM      1  C   UNL     1       8.963  12.032  22.344  1.00  0.00     0.138 A 
ATOM      2  C   UNL     1       9.901  13.040  22.062  1.00  0.00     0.100 A 
ATOM      3  C   UNL     1       9.463  14.352  21.876  1.00  0.00     0.197 A 
ATOM      4  O   UNL     1      10.312  15.250  21.624  1.00  0.00    -0.289 OA
ATOM      5  C   UNL     1       8.088  14.648  21.977  1.00  0.00     0.107 A 
ATOM      6  C   UNL     1       7.562  15.950  21.802  1.00  0.00     0.134 A 
ATOM      7  C   UNL     1       6.181  16.162  21.924  1.00  0.00     0.093 A 
ATOM      8  C   UNL     1       5.320  15.103  22.218  1.00  0.00     0.123 A 
ATOM      9  C   UNL     1       5.834  13.814  22.392  1.00  0.00     0.094 A 
ATOM     10  C   UNL     1       7.208  13.581  22.273  1.00  0.00     0.146 A 
ATOM     11  O   UNL     1       7.673  12.347  22.442  1.00  0.00    -0.456 OA
ENDROOT
BRANCH   1  12
ATOM     12  C   UNL     1       9.371  10.619  22.552  1.00  0.00     0.021 A 
ATOM     13  C   UNL     1      10.723  10.230  22.537  1.00  0.00     0.016 A 
ATOM     14  C   UNL     1      11.076   8.890  22.726  1.00  0.00     0.051 A 
ATOM     15  C   UNL     1      10.092   7.919  22.926  1.00  0.00     0.157 A 
ATOM     16  C   UNL     1       8.383   9.635  22.740  1.00  0.00     0.062 A 
ATOM     17  C   UNL     1       8.737   8.291  22.931  1.00  0.00     0.158 A 
BRANCH  15  18
ATOM     18  O   UNL     1      10.476   6.593  23.113  1.00  0.00    -0.504 OA
ATOM     19  H   UNL     1      11.241   6.176  22.596  1.00  0.00     0.293 HD
ENDBRANCH  15  18
BRANCH  17  20
ATOM     20  O   UNL     1       7.750   7.327  23.125  1.00  0.00    -0.504 OA
ATOM     21  H   UNL     1       7.876   6.369  22.822  1.00  0.00     0.293 HD
ENDBRANCH  17  20
ENDBRANCH   1  12
BRANCH   6  22
ATOM     22  O   UNL     1       8.397  17.028  21.508  1.00  0.00    -0.507 OA
ATOM     23  H   UNL     1       8.753  17.640  22.233  1.00  0.00     0.293 HD
ENDBRANCH   6  22
BRANCH   8  24
ATOM     24  O   UNL     1       3.952  15.342  22.334  1.00  0.00    -0.508 OA
ATOM     25  H   UNL     1       3.537  16.206  22.007  1.00  0.00     0.293 HD
ENDBRANCH   8  24
TORSDOF 5
ENDMDL
MODEL 2
REMARK VINA RESULT:    -3.512     13.446     18.577
REMARK INTER + INTRA:          -4.447
REMARK INTER:                  -4.183
REMARK INTRA:                  -0.263
REMARK UNBOUND:                -0.318
REMARK SMILES O=c1cc(-c2ccc(O)c(O)c2)oc2cc(O)cc(O)c12
REMARK SMILES IDX 4 1 3 2 2 3 1 4 21 5 19 6 18 7 16 8 15 9 14 10 13 11 5 12
REMARK SMILES IDX 6 13 7 14 8 15 12 16 10 17 9 18 11 20 20 22 17 24
REMARK H PARENT 9 19 11 21 20 23 17 25
REMARK Flexibility Score: inf
ROOT
ATOM      1  C   UNL     1      -7.748  19.466  21.775  1.00  0.00     0.138 A 
ATOM      2  C   UNL     1      -8.671  18.503  21.334  1.00  0.00     0.100 A 
ATOM      3  C   UNL     1      -8.287  17.163  21.268  1.00  0.00     0.197 A 
ATOM      4  O   UNL     1      -9.123  16.306  20.872  1.00  0.00    -0.289 OA
ATOM      5  C   UNL     1      -6.980  16.794  21.646  1.00  0.00     0.107 A 
ATOM      6  C   UNL     1      -6.509  15.460  21.607  1.00  0.00     0.134 A 
ATOM      7  C   UNL     1      -5.196  15.175  22.006  1.00  0.00     0.093 A 
ATOM      8  C   UNL     1      -4.346  16.194  22.442  1.00  0.00     0.123 A 
ATOM      9  C   UNL     1      -4.805  17.514  22.482  1.00  0.00     0.094 A 
ATOM     10  C   UNL     1      -6.111  17.820  22.088  1.00  0.00     0.146 A 
ATOM     11  O   UNL     1      -6.524  19.082  22.134  1.00  0.00    -0.456 OA
ENDROOT
BRANCH   1  12
ATOM     12  C   UNL     1      -8.101  20.905  21.867  1.00  0.00     0.021 A 
ATOM     13  C   UNL     1      -8.553  21.479  23.070  1.00  0.00     0.016 A 
ATOM     14  C   UNL     1      -8.888  22.836  23.125  1.00  0.00     0.051 A 
ATOM     15  C   UNL     1      -8.784  23.638  21.986  1.00  0.00     0.157 A 
ATOM     16  C   UNL     1      -8.011  21.714  20.721  1.00  0.00     0.062 A 
ATOM     17  C   UNL     1      -8.346  23.076  20.775  1.00  0.00     0.158 A 
BRANCH  15  18
ATOM     18  O   UNL     1      -9.124  24.987  22.073  1.00  0.00    -0.504 OA
ATOM     19  H   UNL     1     -10.017  25.294  22.438  1.00  0.00     0.293 HD
ENDBRANCH  15  18
BRANCH  17  20
ATOM     20  O   UNL     1      -8.245  23.868  19.634  1.00  0.00    -0.504 OA
ATOM     21  H   UNL     1      -8.698  24.773  19.573  1.00  0.00     0.293 HD
ENDBRANCH  17  20
ENDBRANCH   1  12
BRANCH   6  22
ATOM     22  O   UNL     1      -7.335  14.420  21.176  1.00  0.00    -0.507 OA
ATOM     23  H   UNL     1      -8.159  14.593  20.612  1.00  0.00     0.293 HD
ENDBRANCH   6  22
BRANCH   8  24
ATOM     24  O   UNL     1      -3.046  15.883  22.833  1.00  0.00    -0.508 OA
ATOM     25  H   UNL     1      -2.700  16.117  23.757  1.00  0.00     0.293 HD
ENDBRANCH   8  24
TORSDOF 5
ENDMDL
MODEL 3
REMARK VINA RESULT:    -3.341     14.121     17.939
REMARK INTER + INTRA:          -4.245
REMARK INTER:                  -3.952
REMARK INTRA:                  -0.293
REMARK UNBOUND:                -0.318
REMARK SMILES O=c1cc(-c2ccc(O)c(O)c2)oc2cc(O)cc(O)c12
REMARK SMILES IDX 4 1 3 2 2 3 1 4 21 5 19 6 18 7 16 8 15 9 14 10 13 11 5 12
REMARK SMILES IDX 6 13 7 14 8 15 12 16 10 17 9 18 11 20 20 22 17 24
REMARK H PARENT 9 19 11 21 20 23 17 25
REMARK Flexibility Score: inf
ROOT
ATOM      1  C   UNL     1      -6.655  19.613  22.710  1.00  0.00     0.138 A 
ATOM      2  C   UNL     1      -5.303  19.348  22.985  1.00  0.00     0.100 A 
ATOM      3  C   UNL     1      -4.818  18.045  22.857  1.00  0.00     0.197 A 
ATOM      4  O   UNL     1      -3.603  17.818  23.105  1.00  0.00    -0.289 OA
ATOM      5  C   UNL     1      -5.691  17.015  22.453  1.00  0.00     0.107 A 
ATOM      6  C   UNL     1      -5.282  15.669  22.301  1.00  0.00     0.134 A 
ATOM      7  C   UNL     1      -6.212  14.703  21.889  1.00  0.00     0.093 A 
ATOM      8  C   UNL     1      -7.538  15.056  21.626  1.00  0.00     0.123 A 
ATOM      9  C   UNL     1      -7.948  16.384  21.775  1.00  0.00     0.094 A 
ATOM     10  C   UNL     1      -7.037  17.362  22.185  1.00  0.00     0.146 A 
ATOM     11  O   UNL     1      -7.450  18.618  22.320  1.00  0.00    -0.456 OA
ENDROOT
BRANCH   1  12
ATOM     12  C   UNL     1      -7.225  20.979  22.826  1.00  0.00     0.021 A 
ATOM     13  C   UNL     1      -8.615  21.202  22.826  1.00  0.00     0.016 A 
ATOM     14  C   UNL     1      -9.124  22.500  22.927  1.00  0.00     0.051 A 
ATOM     15  C   UNL     1      -8.260  23.594  23.024  1.00  0.00     0.157 A 
ATOM     16  C   UNL     1      -6.361  22.085  22.910  1.00  0.00     0.062 A 
ATOM     17  C   UNL     1      -6.871  23.388  23.013  1.00  0.00     0.158 A 
BRANCH  15  18
ATOM     18  O   UNL     1      -8.798  24.876  23.125  1.00  0.00    -0.504 OA
ATOM     19  H   UNL     1      -8.214  25.701  23.197  1.00  0.00     0.293 HD
ENDBRANCH  15  18
BRANCH  17  20
ATOM     20  O   UNL     1      -6.003  24.475  23.103  1.00  0.00    -0.504 OA
ATOM     21  H   UNL     1      -4.997  24.353  23.093  1.00  0.00     0.293 HD
ENDBRANCH  17  20
ENDBRANCH   1  12
BRANCH   6  22
ATOM     22  O   UNL     1      -3.965  15.286  22.557  1.00  0.00    -0.507 OA
ATOM     23  H   UNL     1      -3.692  14.311  22.601  1.00  0.00     0.293 HD
ENDBRANCH   6  22
BRANCH   8  24
ATOM     24  O   UNL     1      -8.440  14.076  21.218  1.00  0.00    -0.508 OA
ATOM     25  H   UNL     1      -9.333  14.318  20.805  1.00  0.00     0.293 HD
ENDBRANCH   8  24
TORSDOF 5
ENDMDL
MODEL 4
REMARK VINA RESULT:    -3.314     10.099     13.975
REMARK INTER + INTRA:          -4.213
REMARK INTER:                  -3.911
REMARK INTRA:                  -0.301
REMARK UNBOUND:                -0.318
REMARK SMILES O=c1cc(-c2ccc(O)c(O)c2)oc2cc(O)cc(O)c12
REMARK SMILES IDX 4 1 3 2 2 3 1 4 21 5 19 6 18 7 16 8 15 9 14 10 13 11 5 12
REMARK SMILES IDX 6 13 7 14 8 15 12 16 10 17 9 18 11 20 20 22 17 24
REMARK H PARENT 9 19 11 21 20 23 17 25
REMARK Flexibility Score: inf
ROOT
ATOM      1  C   UNL     1      -3.831  16.951  22.344  1.00  0.00     0.138 A 
ATOM      2  C   UNL     1      -4.286  18.228  22.714  1.00  0.00     0.100 A 
ATOM      3  C   UNL     1      -5.658  18.472  22.791  1.00  0.00     0.197 A 
ATOM      4  O   UNL     1      -6.057  19.621  23.125  1.00  0.00    -0.289 OA
ATOM      5  C   UNL     1      -6.567  17.435  22.498  1.00  0.00     0.107 A 
ATOM      6  C   UNL     1      -7.972  17.599  22.549  1.00  0.00     0.134 A 
ATOM      7  C   UNL     1      -8.809  16.514  22.248  1.00  0.00     0.093 A 
ATOM      8  C   UNL     1      -8.271  15.274  21.898  1.00  0.00     0.123 A 
ATOM      9  C   UNL     1      -6.883  15.106  21.846  1.00  0.00     0.094 A 
ATOM     10  C   UNL     1      -6.031  16.174  22.141  1.00  0.00     0.146 A 
ATOM     11  O   UNL     1      -4.716  15.991  22.084  1.00  0.00    -0.456 OA
ENDROOT
BRANCH   1  12
ATOM     12  C   UNL     1      -2.384  16.633  22.248  1.00  0.00     0.021 A 
ATOM     13  C   UNL     1      -1.442  17.203  23.125  1.00  0.00     0.016 A 
ATOM     14  C   UNL     1      -0.084  16.892  23.004  1.00  0.00     0.051 A 
ATOM     15  C   UNL     1       0.357  16.018  22.008  1.00  0.00     0.157 A 
ATOM     16  C   UNL     1      -1.932  15.764  21.239  1.00  0.00     0.062 A 
ATOM     17  C   UNL     1      -0.570  15.451  21.118  1.00  0.00     0.158 A 
BRANCH  15  18
ATOM     18  O   UNL     1       1.717  15.727  21.914  1.00  0.00    -0.504 OA
ATOM     19  H   UNL     1       2.066  14.961  21.350  1.00  0.00     0.293 HD
ENDBRANCH  15  18
BRANCH  17  20
ATOM     20  O   UNL     1      -0.137  14.582  20.118  1.00  0.00    -0.504 OA
ATOM     21  H   UNL     1       0.006  13.595  20.298  1.00  0.00     0.293 HD
ENDBRANCH  17  20
ENDBRANCH   1  12
BRANCH   6  22
ATOM     22  O   UNL     1      -8.539  18.826  22.895  1.00  0.00    -0.507 OA
ATOM     23  H   UNL     1      -8.902  19.462  22.194  1.00  0.00     0.293 HD
ENDBRANCH   6  22
BRANCH   8  24
ATOM     24  O   UNL     1      -9.125  14.213  21.605  1.00  0.00    -0.508 OA
ATOM     25  H   UNL     1      -9.785  14.262  20.838  1.00  0.00     0.293 HD
ENDBRANCH   8  24
TORSDOF 5
ENDMDL
MODEL 5
REMARK VINA RESULT:    -2.473      2.793      7.356
REMARK INTER + INTRA:          -3.224
REMARK INTER:                  -2.964
REMARK INTRA:                  -0.260
REMARK UNBOUND:                -0.318
REMARK SMILES O=c1cc(-c2ccc(O)c(O)c2)oc2cc(O)cc(O)c12
REMARK SMILES IDX 4 1 3 2 2 3 1 4 21 5 19 6 18 7 16 8 15 9 14 10 13 11 5 12
REMARK SMILES IDX 6 13 7 14 8 15 12 16 10 17 9 18 11 20 20 22 17 24
REMARK H PARENT 9 19 11 21 20 23 17 25
REMARK Flexibility Score: inf
ROOT
ATOM      1  C   UNL     1      10.212  12.831  20.838  1.00  0.00     0.138 A 
ATOM      2  C   UNL     1      10.593  12.198  22.033  1.00  0.00     0.100 A 
ATOM      3  C   UNL     1      10.782  10.815  22.048  1.00  0.00     0.197 A 
ATOM      4  O   UNL     1      11.125  10.257  23.125  1.00  0.00    -0.289 OA
ATOM      5  C   UNL     1      10.589  10.074  20.864  1.00  0.00     0.107 A 
ATOM      6  C   UNL     1      10.757   8.670  20.794  1.00  0.00     0.134 A 
ATOM      7  C   UNL     1      10.552   8.007  19.575  1.00  0.00     0.093 A 
ATOM      8  C   UNL     1      10.183   8.717  18.430  1.00  0.00     0.123 A 
ATOM      9  C   UNL     1      10.015  10.103  18.494  1.00  0.00     0.094 A 
ATOM     10  C   UNL     1      10.214  10.784  19.699  1.00  0.00     0.146 A 
ATOM     11  O   UNL     1      10.048  12.102  19.735  1.00  0.00    -0.456 OA
ENDROOT
BRANCH   1  12
ATOM     12  C   UNL     1       9.999  14.298  20.761  1.00  0.00     0.021 A 
ATOM     13  C   UNL     1      10.949  15.154  20.173  1.00  0.00     0.016 A 
ATOM     14  C   UNL     1      10.726  16.533  20.124  1.00  0.00     0.051 A 
ATOM     15  C   UNL     1       9.561  17.082  20.665  1.00  0.00     0.157 A 
ATOM     16  C   UNL     1       8.834  14.858  21.316  1.00  0.00     0.062 A 
ATOM     17  C   UNL     1       8.609  16.242  21.266  1.00  0.00     0.158 A 
BRANCH  15  18
ATOM     18  O   UNL     1       9.367  18.460  20.599  1.00  0.00    -0.504 OA
ATOM     19  H   UNL     1       9.967  19.112  21.091  1.00  0.00     0.293 HD
ENDBRANCH  15  18
BRANCH  17  20
ATOM     20  O   UNL     1       7.447  16.783  21.812  1.00  0.00    -0.504 OA
ATOM     21  H   UNL     1       7.468  17.619  22.385  1.00  0.00     0.293 HD
ENDBRANCH  17  20
ENDBRANCH   1  12
BRANCH   6  22
ATOM     22  O   UNL     1      11.125   7.934  21.921  1.00  0.00    -0.507 OA
ATOM     23  H   UNL     1      11.579   8.368  22.716  1.00  0.00     0.293 HD
ENDBRANCH   6  22
BRANCH   8  24
ATOM     24  O   UNL     1       9.985   8.033  17.233  1.00  0.00    -0.508 OA
ATOM     25  H   UNL     1       9.063   7.733  16.940  1.00  0.00     0.293 HD
ENDBRANCH   8  24
TORSDOF 5
ENDMDL
MODEL 6
REMARK VINA RESULT:    -2.229      1.806      7.107
REMARK INTER + INTRA:          -2.938
REMARK INTER:                  -2.656
REMARK INTRA:                  -0.282
REMARK UNBOUND:                -0.318
REMARK SMILES O=c1cc(-c2ccc(O)c(O)c2)oc2cc(O)cc(O)c12
REMARK SMILES IDX 4 1 3 2 2 3 1 4 21 5 19 6 18 7 16 8 15 9 14 10 13 11 5 12
REMARK SMILES IDX 6 13 7 14 8 15 12 16 10 17 9 18 11 20 20 22 17 24
REMARK H PARENT 9 19 11 21 20 23 17 25
REMARK Flexibility Score: inf
ROOT
ATOM      1  C   UNL     1       6.458  14.052  22.632  1.00  0.00     0.138 A 
ATOM      2  C   UNL     1       7.727  14.653  22.674  1.00  0.00     0.100 A 
ATOM      3  C   UNL     1       8.863  13.851  22.805  1.00  0.00     0.197 A 
ATOM      4  O   UNL     1       9.998  14.400  22.840  1.00  0.00    -0.289 OA
ATOM      5  C   UNL     1       8.720  12.451  22.892  1.00  0.00     0.107 A 
ATOM      6  C   UNL     1       9.817  11.568  23.028  1.00  0.00     0.134 A 
ATOM      7  C   UNL     1       9.591  10.186  23.102  1.00  0.00     0.093 A 
ATOM      8  C   UNL     1       8.294   9.672  23.042  1.00  0.00     0.123 A 
ATOM      9  C   UNL     1       7.206  10.540  22.908  1.00  0.00     0.094 A 
ATOM     10  C   UNL     1       7.409  11.921  22.833  1.00  0.00     0.146 A 
ATOM     11  O   UNL     1       6.360  12.726  22.706  1.00  0.00    -0.456 OA
ENDROOT
BRANCH   1  12
ATOM     12  C   UNL     1       5.216  14.853  22.492  1.00  0.00     0.021 A 
ATOM     13  C   UNL     1       4.015  14.471  23.118  1.00  0.00     0.016 A 
ATOM     14  C   UNL     1       2.858  15.240  22.961  1.00  0.00     0.051 A 
ATOM     15  C   UNL     1       2.876  16.394  22.174  1.00  0.00     0.157 A 
ATOM     16  C   UNL     1       5.225  16.008  21.690  1.00  0.00     0.062 A 
ATOM     17  C   UNL     1       4.064  16.781  21.532  1.00  0.00     0.158 A 
BRANCH  15  18
ATOM     18  O   UNL     1       1.707  17.140  22.037  1.00  0.00    -0.504 OA
ATOM     19  H   UNL     1       1.109  17.058  21.223  1.00  0.00     0.293 HD
ENDBRANCH  15  18
BRANCH  17  20
ATOM     20  O   UNL     1       4.089  17.928  20.741  1.00  0.00    -0.504 OA
ATOM     21  H   UNL     1       3.357  18.627  20.796  1.00  0.00     0.293 HD
ENDBRANCH  17  20
ENDBRANCH   1  12
BRANCH   6  22
ATOM     22  O   UNL     1      11.125  12.052  23.091  1.00  0.00    -0.507 OA
ATOM     23  H   UNL     1      11.789  11.708  23.775  1.00  0.00     0.293 HD
ENDBRANCH   6  22
BRANCH   8  24
ATOM     24  O   UNL     1       8.098   8.295  23.117  1.00  0.00    -0.508 OA
ATOM     25  H   UNL     1       8.414   7.674  22.382  1.00  0.00     0.293 HD
ENDBRANCH   8  24
TORSDOF 5
ENDMDL
