MODEL 1
REMARK VINA RESULT:    -5.501      0.000      0.000
REMARK INTER + INTRA:          -6.861
REMARK INTER:                  -6.626
REMARK INTRA:                  -0.235
REMARK UNBOUND:                -0.235
REMARK SMILES O=c1c(O)c(-c2ccc(O)c(O)c2)oc2cc(O)cc(O)c12
REMARK SMILES IDX 5 1 3 2 2 3 1 4 22 5 20 6 19 7 17 8 16 9 15 10 14 11 6 12
REMARK SMILES IDX 7 13 8 14 9 15 13 16 11 17 10 18 12 20 4 22 21 24 18 26
REMARK H PARENT 10 19 12 21 4 23 21 25 18 27
REMARK Flexibility Score: inf
ROOT
ATOM      1  C   UNL     1      -5.613   0.517   2.393  1.00  0.00     0.180 A 
ATOM      2  C   UNL     1      -4.928  -0.112   3.445  1.00  0.00     0.208 A 
ATOM      3  C   UNL     1      -4.569  -1.463   3.314  1.00  0.00     0.238 A 
ATOM      4  O   UNL     1      -4.004  -2.036   4.281  1.00  0.00    -0.285 OA
ATOM      5  C   UNL     1      -4.887  -2.163   2.124  1.00  0.00     0.111 A 
ATOM      6  C   UNL     1      -4.537  -3.523   1.867  1.00  0.00     0.134 A 
ATOM      7  C   UNL     1      -5.016  -4.152   0.711  1.00  0.00     0.093 A 
ATOM      8  C   UNL     1      -5.776  -3.453  -0.227  1.00  0.00     0.123 A 
ATOM      9  C   UNL     1      -6.074  -2.107  -0.013  1.00  0.00     0.094 A 
ATOM     10  C   UNL     1      -5.641  -1.462   1.148  1.00  0.00     0.146 A 
ATOM     11  O   UNL     1      -5.954  -0.184   1.317  1.00  0.00    -0.452 OA
ENDROOT
BRANCH   1  12
ATOM     12  C   UNL     1      -6.002   1.945   2.448  1.00  0.00     0.025 A 
ATOM     13  C   UNL     1      -7.362   2.290   2.490  1.00  0.00     0.016 A 
ATOM     14  C   UNL     1      -7.753   3.631   2.522  1.00  0.00     0.051 A 
ATOM     15  C   UNL     1      -6.790   4.648   2.496  1.00  0.00     0.157 A 
ATOM     16  C   UNL     1      -5.039   2.969   2.401  1.00  0.00     0.062 A 
ATOM     17  C   UNL     1      -5.426   4.314   2.431  1.00  0.00     0.158 A 
BRANCH  15  18
ATOM     18  O   UNL     1      -7.181   5.985   2.529  1.00  0.00    -0.504 OA
ATOM     19  H   UNL     1      -8.145   6.252   2.695  1.00  0.00     0.293 HD
ENDBRANCH  15  18
BRANCH  17  20
ATOM     20  O   UNL     1      -4.444   5.303   2.388  1.00  0.00    -0.504 OA
ATOM     21  H   UNL     1      -4.500   6.090   1.754  1.00  0.00     0.293 HD
ENDBRANCH  17  20
ENDBRANCH   1  12
BRANCH   2  22
ATOM     22  O   UNL     1      -4.643   0.591   4.619  1.00  0.00    -0.502 OA
ATOM     23  H   UNL     1      -4.032   1.399   4.636  1.00  0.00     0.293 HD
ENDBRANCH   2  22
BRANCH   6  24
ATOM     24  O   UNL     1      -3.705  -4.284   2.692  1.00  0.00    -0.507 OA
ATOM     25  H   UNL     1      -3.810  -4.372   3.691  1.00  0.00     0.293 HD
ENDBRANCH   6  24
BRANCH   8  26
ATOM     26  O   UNL     1      -6.224  -4.107  -1.373  1.00  0.00    -0.508 OA
ATOM     27  H   UNL     1      -5.577  -4.464  -2.066  1.00  0.00     0.293 HD
ENDBRANCH   8  26
TORSDOF 6
ENDMDL
MODEL 2
REMARK VINA RESULT:    -5.436     10.278     12.936
REMARK INTER + INTRA:          -6.783
REMARK INTER:                  -6.566
REMARK INTRA:                  -0.217
REMARK UNBOUND:                -0.235
REMARK SMILES O=c1c(O)c(-c2ccc(O)c(O)c2)oc2cc(O)cc(O)c12
REMARK SMILES IDX 5 1 3 2 2 3 1 4 22 5 20 6 19 7 17 8 16 9 15 10 14 11 6 12
REMARK SMILES IDX 7 13 8 14 9 15 13 16 11 17 10 18 12 20 4 22 21 24 18 26
REMARK H PARENT 10 19 12 21 4 23 21 25 18 27
REMARK Flexibility Score: inf
ROOT
ATOM      1  C   UNL     1       5.573  -0.309   2.388  1.00  0.00     0.180 A 
ATOM      2  C   UNL     1       4.882   0.314   3.441  1.00  0.00     0.208 A 
ATOM      3  C   UNL     1       4.505   1.660   3.305  1.00  0.00     0.238 A 
ATOM      4  O   UNL     1       3.935   2.228   4.272  1.00  0.00    -0.285 OA
ATOM      5  C   UNL     1       4.810   2.360   2.113  1.00  0.00     0.111 A 
ATOM      6  C   UNL     1       4.441   3.714   1.851  1.00  0.00     0.134 A 
ATOM      7  C   UNL     1       4.908   4.345   0.692  1.00  0.00     0.093 A 
ATOM      8  C   UNL     1       5.675   3.654  -0.245  1.00  0.00     0.123 A 
ATOM      9  C   UNL     1       5.992   2.313  -0.028  1.00  0.00     0.094 A 
ATOM     10  C   UNL     1       5.570   1.666   1.137  1.00  0.00     0.146 A 
ATOM     11  O   UNL     1       5.902   0.393   1.309  1.00  0.00    -0.452 OA
ENDROOT
BRANCH   1  12
ATOM     12  C   UNL     1       5.981  -1.732   2.447  1.00  0.00     0.025 A 
ATOM     13  C   UNL     1       7.346  -2.059   2.447  1.00  0.00     0.016 A 
ATOM     14  C   UNL     1       7.754  -3.395   2.481  1.00  0.00     0.051 A 
ATOM     15  C   UNL     1       6.803  -4.424   2.500  1.00  0.00     0.157 A 
ATOM     16  C   UNL     1       5.030  -2.767   2.446  1.00  0.00     0.062 A 
ATOM     17  C   UNL     1       5.435  -4.107   2.478  1.00  0.00     0.158 A 
BRANCH  15  18
ATOM     18  O   UNL     1       7.212  -5.756   2.536  1.00  0.00    -0.504 OA
ATOM     19  H   UNL     1       6.649  -6.495   2.131  1.00  0.00     0.293 HD
ENDBRANCH  15  18
BRANCH  17  20
ATOM     20  O   UNL     1       4.463  -5.108   2.481  1.00  0.00    -0.504 OA
ATOM     21  H   UNL     1       3.824  -5.234   3.256  1.00  0.00     0.293 HD
ENDBRANCH  17  20
ENDBRANCH   1  12
BRANCH   2  22
ATOM     22  O   UNL     1       4.611  -0.388   4.618  1.00  0.00    -0.502 OA
ATOM     23  H   UNL     1       3.809  -1.000   4.714  1.00  0.00     0.293 HD
ENDBRANCH   2  22
BRANCH   6  24
ATOM     24  O   UNL     1       3.601   4.467   2.676  1.00  0.00    -0.507 OA
ATOM     25  H   UNL     1       3.024   5.233   2.365  1.00  0.00     0.293 HD
ENDBRANCH   6  24
BRANCH   8  26
ATOM     26  O   UNL     1       6.111   4.310  -1.395  1.00  0.00    -0.508 OA
ATOM     27  H   UNL     1       5.465   4.581  -2.127  1.00  0.00     0.293 HD
ENDBRANCH   8  26
TORSDOF 6
ENDMDL
MODEL 3
REMARK VINA RESULT:    -5.358      3.159      6.655
REMARK INTER + INTRA:          -6.689
REMARK INTER:                  -6.366
REMARK INTRA:                  -0.323
REMARK UNBOUND:                -0.235
REMARK SMILES O=c1c(O)c(-c2ccc(O)c(O)c2)oc2cc(O)cc(O)c12
REMARK SMILES IDX 5 1 3 2 2 3 1 4 22 5 20 6 19 7 17 8 16 9 15 10 14 11 6 12
REMARK SMILES IDX 7 13 8 14 9 15 13 16 11 17 10 18 12 20 4 22 21 24 18 26
REMARK H PARENT 10 19 12 21 4 23 21 25 18 27
REMARK Flexibility Score: inf
ROOT
ATOM      1  C   UNL     1      -5.451  -0.546   3.724  1.00  0.00     0.180 A 
ATOM      2  C   UNL     1      -5.390   0.854   3.830  1.00  0.00     0.208 A 
ATOM      3  C   UNL     1      -5.937   1.476   4.965  1.00  0.00     0.238 A 
ATOM      4  O   UNL     1      -5.928   2.732   5.029  1.00  0.00    -0.285 OA
ATOM      5  C   UNL     1      -6.523   0.688   5.985  1.00  0.00     0.111 A 
ATOM      6  C   UNL     1      -7.072   1.209   7.196  1.00  0.00     0.134 A 
ATOM      7  C   UNL     1      -7.743   0.350   8.076  1.00  0.00     0.093 A 
ATOM      8  C   UNL     1      -7.829  -1.018   7.820  1.00  0.00     0.123 A 
ATOM      9  C   UNL     1      -7.244  -1.546   6.669  1.00  0.00     0.094 A 
ATOM     10  C   UNL     1      -6.599  -0.710   5.755  1.00  0.00     0.146 A 
ATOM     11  O   UNL     1      -6.066  -1.251   4.667  1.00  0.00    -0.452 OA
ENDROOT
BRANCH   1  12
ATOM     12  C   UNL     1      -4.874  -1.274   2.571  1.00  0.00     0.025 A 
ATOM     13  C   UNL     1      -5.664  -1.501   1.432  1.00  0.00     0.016 A 
ATOM     14  C   UNL     1      -5.148  -2.203   0.341  1.00  0.00     0.051 A 
ATOM     15  C   UNL     1      -3.839  -2.704   0.378  1.00  0.00     0.157 A 
ATOM     16  C   UNL     1      -3.569  -1.795   2.612  1.00  0.00     0.062 A 
ATOM     17  C   UNL     1      -3.049  -2.501   1.522  1.00  0.00     0.158 A 
BRANCH  15  18
ATOM     18  O   UNL     1      -3.325  -3.403  -0.713  1.00  0.00    -0.504 OA
ATOM     19  H   UNL     1      -2.530  -3.056  -1.239  1.00  0.00     0.293 HD
ENDBRANCH  15  18
BRANCH  17  20
ATOM     20  O   UNL     1      -1.748  -2.999   1.596  1.00  0.00    -0.504 OA
ATOM     21  H   UNL     1      -1.455  -3.819   1.078  1.00  0.00     0.293 HD
ENDBRANCH  17  20
ENDBRANCH   1  12
BRANCH   2  22
ATOM     22  O   UNL     1      -4.827   1.614   2.802  1.00  0.00    -0.502 OA
ATOM     23  H   UNL     1      -5.177   1.587   1.852  1.00  0.00     0.293 HD
ENDBRANCH   2  22
BRANCH   6  24
ATOM     24  O   UNL     1      -6.960   2.545   7.592  1.00  0.00    -0.507 OA
ATOM     25  H   UNL     1      -7.739   3.151   7.799  1.00  0.00     0.293 HD
ENDBRANCH   6  24
BRANCH   8  26
ATOM     26  O   UNL     1      -8.491  -1.845   8.725  1.00  0.00    -0.508 OA
ATOM     27  H   UNL     1      -8.850  -2.752   8.450  1.00  0.00     0.293 HD
ENDBRANCH   8  26
TORSDOF 6
ENDMDL
MODEL 4
REMARK VINA RESULT:    -5.337      1.498      6.762
REMARK INTER + INTRA:          -6.663
REMARK INTER:                  -6.515
REMARK INTRA:                  -0.148
REMARK UNBOUND:                -0.235
REMARK SMILES O=c1c(O)c(-c2ccc(O)c(O)c2)oc2cc(O)cc(O)c12
REMARK SMILES IDX 5 1 3 2 2 3 1 4 22 5 20 6 19 7 17 8 16 9 15 10 14 11 6 12
REMARK SMILES IDX 7 13 8 14 9 15 13 16 11 17 10 18 12 20 4 22 21 24 18 26
REMARK H PARENT 10 19 12 21 4 23 21 25 18 27
REMARK Flexibility Score: inf
ROOT
ATOM      1  C   UNL     1      -5.711  -0.156   2.313  1.00  0.00     0.180 A 
ATOM      2  C   UNL     1      -5.598  -0.087   3.711  1.00  0.00     0.208 A 
ATOM      3  C   UNL     1      -5.918   1.116   4.362  1.00  0.00     0.238 A 
ATOM      4  O   UNL     1      -5.763   1.189   5.609  1.00  0.00    -0.285 OA
ATOM      5  C   UNL     1      -6.361   2.229   3.607  1.00  0.00     0.111 A 
ATOM      6  C   UNL     1      -6.749   3.484   4.166  1.00  0.00     0.134 A 
ATOM      7  C   UNL     1      -7.046   4.556   3.315  1.00  0.00     0.093 A 
ATOM      8  C   UNL     1      -7.032   4.401   1.929  1.00  0.00     0.123 A 
ATOM      9  C   UNL     1      -6.711   3.162   1.374  1.00  0.00     0.094 A 
ATOM     10  C   UNL     1      -6.375   2.084   2.196  1.00  0.00     0.146 A 
ATOM     11  O   UNL     1      -6.067   0.925   1.627  1.00  0.00    -0.452 OA
ENDROOT
BRANCH   1  12
ATOM     12  C   UNL     1      -5.417  -1.396   1.559  1.00  0.00     0.025 A 
ATOM     13  C   UNL     1      -4.104  -1.894   1.534  1.00  0.00     0.016 A 
ATOM     14  C   UNL     1      -3.799  -3.050   0.812  1.00  0.00     0.051 A 
ATOM     15  C   UNL     1      -4.799  -3.718   0.092  1.00  0.00     0.157 A 
ATOM     16  C   UNL     1      -6.413  -2.057   0.819  1.00  0.00     0.062 A 
ATOM     17  C   UNL     1      -6.111  -3.215   0.093  1.00  0.00     0.158 A 
BRANCH  15  18
ATOM     18  O   UNL     1      -4.493  -4.873  -0.625  1.00  0.00    -0.504 OA
ATOM     19  H   UNL     1      -3.564  -5.037  -0.998  1.00  0.00     0.293 HD
ENDBRANCH  15  18
BRANCH  17  20
ATOM     20  O   UNL     1      -7.125  -3.848  -0.625  1.00  0.00    -0.504 OA
ATOM     21  H   UNL     1      -7.850  -3.328  -1.104  1.00  0.00     0.293 HD
ENDBRANCH  17  20
ENDBRANCH   1  12
BRANCH   2  22
ATOM     22  O   UNL     1      -5.138  -1.190   4.435  1.00  0.00    -0.502 OA
ATOM     23  H   UNL     1      -5.144  -2.129   4.058  1.00  0.00     0.293 HD
ENDBRANCH   2  22
BRANCH   6  24
ATOM     24  O   UNL     1      -6.886   3.719   5.537  1.00  0.00    -0.507 OA
ATOM     25  H   UNL     1      -6.532   4.530   6.020  1.00  0.00     0.293 HD
ENDBRANCH   6  24
BRANCH   8  26
ATOM     26  O   UNL     1      -7.348   5.485   1.113  1.00  0.00    -0.508 OA
ATOM     27  H   UNL     1      -6.645   5.944   0.545  1.00  0.00     0.293 HD
ENDBRANCH   8  26
TORSDOF 6
ENDMDL
MODEL 5
REMARK VINA RESULT:    -5.307     10.754     12.329
REMARK INTER + INTRA:          -6.628
REMARK INTER:                  -6.297
REMARK INTRA:                  -0.331
REMARK UNBOUND:                -0.235
REMARK SMILES O=c1c(O)c(-c2ccc(O)c(O)c2)oc2cc(O)cc(O)c12
REMARK SMILES IDX 5 1 3 2 2 3 1 4 22 5 20 6 19 7 17 8 16 9 15 10 14 11 6 12
REMARK SMILES IDX 7 13 8 14 9 15 13 16 11 17 10 18 12 20 4 22 21 24 18 26
REMARK H PARENT 10 19 12 21 4 23 21 25 18 27
REMARK Flexibility Score: inf
ROOT
ATOM      1  C   UNL     1       5.513   0.662   3.617  1.00  0.00     0.180 A 
ATOM      2  C   UNL     1       5.415  -0.737   3.708  1.00  0.00     0.208 A 
ATOM      3  C   UNL     1       5.903  -1.381   4.857  1.00  0.00     0.238 A 
ATOM      4  O   UNL     1       5.862  -2.637   4.910  1.00  0.00    -0.285 OA
ATOM      5  C   UNL     1       6.469  -0.615   5.906  1.00  0.00     0.111 A 
ATOM      6  C   UNL     1       6.958  -1.159   7.132  1.00  0.00     0.134 A 
ATOM      7  C   UNL     1       7.615  -0.324   8.044  1.00  0.00     0.093 A 
ATOM      8  C   UNL     1       7.743   1.044   7.804  1.00  0.00     0.123 A 
ATOM      9  C   UNL     1       7.216   1.595   6.636  1.00  0.00     0.094 A 
ATOM     10  C   UNL     1       6.586   0.782   5.691  1.00  0.00     0.146 A 
ATOM     11  O   UNL     1       6.108   1.345   4.589  1.00  0.00    -0.452 OA
ENDROOT
BRANCH   1  12
ATOM     12  C   UNL     1       4.998   1.412   2.449  1.00  0.00     0.025 A 
ATOM     13  C   UNL     1       5.857   1.694   1.375  1.00  0.00     0.016 A 
ATOM     14  C   UNL     1       5.399   2.419   0.272  1.00  0.00     0.051 A 
ATOM     15  C   UNL     1       4.079   2.887   0.234  1.00  0.00     0.157 A 
ATOM     16  C   UNL     1       3.680   1.901   2.416  1.00  0.00     0.062 A 
ATOM     17  C   UNL     1       3.218   2.630   1.314  1.00  0.00     0.158 A 
BRANCH  15  18
ATOM     18  O   UNL     1       3.623   3.608  -0.868  1.00  0.00    -0.504 OA
ATOM     19  H   UNL     1       2.749   4.123  -0.841  1.00  0.00     0.293 HD
ENDBRANCH  15  18
BRANCH  17  20
ATOM     20  O   UNL     1       1.902   3.094   1.312  1.00  0.00    -0.504 OA
ATOM     21  H   UNL     1       1.529   3.654   2.070  1.00  0.00     0.293 HD
ENDBRANCH  17  20
ENDBRANCH   1  12
BRANCH   2  22
ATOM     22  O   UNL     1       4.873  -1.475   2.652  1.00  0.00    -0.502 OA
ATOM     23  H   UNL     1       5.372  -2.237   2.209  1.00  0.00     0.293 HD
ENDBRANCH   2  22
BRANCH   6  24
ATOM     24  O   UNL     1       6.800  -2.495   7.511  1.00  0.00    -0.507 OA
ATOM     25  H   UNL     1       7.366  -3.260   7.176  1.00  0.00     0.293 HD
ENDBRANCH   6  24
BRANCH   8  26
ATOM     26  O   UNL     1       8.390   1.848   8.741  1.00  0.00    -0.508 OA
ATOM     27  H   UNL     1       8.661   2.800   8.525  1.00  0.00     0.293 HD
ENDBRANCH   8  26
TORSDOF 6
ENDMDL
MODEL 6
REMARK VINA RESULT:    -5.301     10.168     11.215
REMARK INTER + INTRA:          -6.621
REMARK INTER:                  -6.304
REMARK INTRA:                  -0.317
REMARK UNBOUND:                -0.235
REMARK SMILES O=c1c(O)c(-c2ccc(O)c(O)c2)oc2cc(O)cc(O)c12
REMARK SMILES IDX 5 1 3 2 2 3 1 4 22 5 20 6 19 7 17 8 16 9 15 10 14 11 6 12
REMARK SMILES IDX 7 13 8 14 9 15 13 16 11 17 10 18 12 20 4 22 21 24 18 26
REMARK H PARENT 10 19 12 21 4 23 21 25 18 27
REMARK Flexibility Score: inf
ROOT
ATOM      1  C   UNL     1       5.321   0.190   3.007  1.00  0.00     0.180 A 
ATOM      2  C   UNL     1       6.022   0.350   4.214  1.00  0.00     0.208 A 
ATOM      3  C   UNL     1       6.273  -0.780   5.010  1.00  0.00     0.238 A 
ATOM      4  O   UNL     1       6.853  -0.623   6.116  1.00  0.00    -0.285 OA
ATOM      5  C   UNL     1       5.834  -2.056   4.580  1.00  0.00     0.111 A 
ATOM      6  C   UNL     1       6.069  -3.274   5.288  1.00  0.00     0.134 A 
ATOM      7  C   UNL     1       5.477  -4.459   4.836  1.00  0.00     0.093 A 
ATOM      8  C   UNL     1       4.714  -4.484   3.669  1.00  0.00     0.123 A 
ATOM      9  C   UNL     1       4.528  -3.311   2.938  1.00  0.00     0.094 A 
ATOM     10  C   UNL     1       5.076  -2.105   3.383  1.00  0.00     0.146 A 
ATOM     11  O   UNL     1       4.866  -1.010   2.663  1.00  0.00    -0.452 OA
ENDROOT
BRANCH   1  12
ATOM     12  C   UNL     1       5.041   1.329   2.102  1.00  0.00     0.025 A 
ATOM     13  C   UNL     1       3.763   1.909   2.098  1.00  0.00     0.016 A 
ATOM     14  C   UNL     1       3.469   2.971   1.239  1.00  0.00     0.051 A 
ATOM     15  C   UNL     1       4.445   3.458   0.359  1.00  0.00     0.157 A 
ATOM     16  C   UNL     1       6.011   1.807   1.204  1.00  0.00     0.062 A 
ATOM     17  C   UNL     1       5.721   2.869   0.340  1.00  0.00     0.158 A 
BRANCH  15  18
ATOM     18  O   UNL     1       4.151   4.518  -0.496  1.00  0.00    -0.504 OA
ATOM     19  H   UNL     1       4.871   5.158  -0.816  1.00  0.00     0.293 HD
ENDBRANCH  15  18
BRANCH  17  20
ATOM     20  O   UNL     1       6.709   3.321  -0.534  1.00  0.00    -0.504 OA
ATOM     21  H   UNL     1       7.051   2.753  -1.299  1.00  0.00     0.293 HD
ENDBRANCH  17  20
ENDBRANCH   1  12
BRANCH   2  22
ATOM     22  O   UNL     1       6.426   1.621   4.630  1.00  0.00    -0.502 OA
ATOM     23  H   UNL     1       6.368   2.434   4.029  1.00  0.00     0.293 HD
ENDBRANCH   2  22
BRANCH   6  24
ATOM     24  O   UNL     1       6.892  -3.376   6.413  1.00  0.00    -0.507 OA
ATOM     25  H   UNL     1       7.129  -2.610   7.025  1.00  0.00     0.293 HD
ENDBRANCH   6  24
BRANCH   8  26
ATOM     26  O   UNL     1       4.152  -5.685   3.240  1.00  0.00    -0.508 OA
ATOM     27  H   UNL     1       4.043  -5.898   2.256  1.00  0.00     0.293 HD
ENDBRANCH   8  26
TORSDOF 6
ENDMDL
MODEL 7
REMARK VINA RESULT:    -5.296      1.951      2.080
REMARK INTER + INTRA:          -6.614
REMARK INTER:                  -6.348
REMARK INTRA:                  -0.266
REMARK UNBOUND:                -0.235
REMARK SMILES O=c1c(O)c(-c2ccc(O)c(O)c2)oc2cc(O)cc(O)c12
REMARK SMILES IDX 5 1 3 2 2 3 1 4 22 5 20 6 19 7 17 8 16 9 15 10 14 11 6 12
REMARK SMILES IDX 7 13 8 14 9 15 13 16 11 17 10 18 12 20 4 22 21 24 18 26
REMARK H PARENT 10 19 12 21 4 23 21 25 18 27
REMARK Flexibility Score: inf
ROOT
ATOM      1  C   UNL     1      -4.937   0.518   3.152  1.00  0.00     0.180 A 
ATOM      2  C   UNL     1      -3.580   0.179   3.280  1.00  0.00     0.208 A 
ATOM      3  C   UNL     1      -3.074  -0.899   2.534  1.00  0.00     0.238 A 
ATOM      4  O   UNL     1      -1.871  -1.233   2.694  1.00  0.00    -0.285 OA
ATOM      5  C   UNL     1      -3.929  -1.612   1.660  1.00  0.00     0.111 A 
ATOM      6  C   UNL     1      -3.514  -2.695   0.827  1.00  0.00     0.134 A 
ATOM      7  C   UNL     1      -4.472  -3.412   0.098  1.00  0.00     0.093 A 
ATOM      8  C   UNL     1      -5.817  -3.045   0.122  1.00  0.00     0.123 A 
ATOM      9  C   UNL     1      -6.224  -1.951   0.886  1.00  0.00     0.094 A 
ATOM     10  C   UNL     1      -5.297  -1.239   1.652  1.00  0.00     0.146 A 
ATOM     11  O   UNL     1      -5.727  -0.211   2.373  1.00  0.00    -0.452 OA
ENDROOT
BRANCH   1  12
ATOM     12  C   UNL     1      -5.536   1.657   3.886  1.00  0.00     0.025 A 
ATOM     13  C   UNL     1      -5.853   1.512   5.246  1.00  0.00     0.016 A 
ATOM     14  C   UNL     1      -6.437   2.565   5.953  1.00  0.00     0.051 A 
ATOM     15  C   UNL     1      -6.729   3.774   5.307  1.00  0.00     0.157 A 
ATOM     16  C   UNL     1      -5.849   2.864   3.236  1.00  0.00     0.062 A 
ATOM     17  C   UNL     1      -6.437   3.921   3.940  1.00  0.00     0.158 A 
BRANCH  15  18
ATOM     18  O   UNL     1      -7.311   4.825   6.014  1.00  0.00    -0.504 OA
ATOM     19  H   UNL     1      -8.043   5.397   5.608  1.00  0.00     0.293 HD
ENDBRANCH  15  18
BRANCH  17  20
ATOM     20  O   UNL     1      -6.729   5.105   3.264  1.00  0.00    -0.504 OA
ATOM     21  H   UNL     1      -6.871   5.132   2.262  1.00  0.00     0.293 HD
ENDBRANCH  17  20
ENDBRANCH   1  12
BRANCH   2  22
ATOM     22  O   UNL     1      -2.759   0.882   4.166  1.00  0.00    -0.502 OA
ATOM     23  H   UNL     1      -2.756   1.893   4.219  1.00  0.00     0.293 HD
ENDBRANCH   2  22
BRANCH   6  24
ATOM     24  O   UNL     1      -2.182  -3.085   0.659  1.00  0.00    -0.507 OA
ATOM     25  H   UNL     1      -1.798  -3.967   0.961  1.00  0.00     0.293 HD
ENDBRANCH   6  24
BRANCH   8  26
ATOM     26  O   UNL     1      -6.740  -3.771  -0.627  1.00  0.00    -0.508 OA
ATOM     27  H   UNL     1      -7.255  -3.348  -1.391  1.00  0.00     0.293 HD
ENDBRANCH   8  26
TORSDOF 6
ENDMDL
MODEL 8
REMARK VINA RESULT:    -5.285      9.942     12.427
REMARK INTER + INTRA:          -6.601
REMARK INTER:                  -6.336
REMARK INTRA:                  -0.266
REMARK UNBOUND:                -0.235
REMARK SMILES O=c1c(O)c(-c2ccc(O)c(O)c2)oc2cc(O)cc(O)c12
REMARK SMILES IDX 5 1 3 2 2 3 1 4 22 5 20 6 19 7 17 8 16 9 15 10 14 11 6 12
REMARK SMILES IDX 7 13 8 14 9 15 13 16 11 17 10 18 12 20 4 22 21 24 18 26
REMARK H PARENT 10 19 12 21 4 23 21 25 18 27
REMARK Flexibility Score: inf
ROOT
ATOM      1  C   UNL     1       4.901  -0.191   3.130  1.00  0.00     0.180 A 
ATOM      2  C   UNL     1       3.542   0.146   3.250  1.00  0.00     0.208 A 
ATOM      3  C   UNL     1       3.031   1.200   2.474  1.00  0.00     0.238 A 
ATOM      4  O   UNL     1       1.827   1.533   2.625  1.00  0.00    -0.285 OA
ATOM      5  C   UNL     1       3.882   1.892   1.579  1.00  0.00     0.111 A 
ATOM      6  C   UNL     1       3.461   2.949   0.716  1.00  0.00     0.134 A 
ATOM      7  C   UNL     1       4.415   3.649  -0.033  1.00  0.00     0.093 A 
ATOM      8  C   UNL     1       5.762   3.289  -0.001  1.00  0.00     0.123 A 
ATOM      9  C   UNL     1       6.174   2.219   0.794  1.00  0.00     0.094 A 
ATOM     10  C   UNL     1       5.252   1.525   1.580  1.00  0.00     0.146 A 
ATOM     11  O   UNL     1       5.688   0.520   2.329  1.00  0.00    -0.452 OA
ENDROOT
BRANCH   1  12
ATOM     12  C   UNL     1       5.506  -1.305   3.895  1.00  0.00     0.025 A 
ATOM     13  C   UNL     1       5.823  -1.121   5.250  1.00  0.00     0.016 A 
ATOM     14  C   UNL     1       6.414  -2.151   5.986  1.00  0.00     0.051 A 
ATOM     15  C   UNL     1       6.711  -3.376   5.374  1.00  0.00     0.157 A 
ATOM     16  C   UNL     1       5.824  -2.528   3.280  1.00  0.00     0.062 A 
ATOM     17  C   UNL     1       6.418  -3.562   4.013  1.00  0.00     0.158 A 
BRANCH  15  18
ATOM     18  O   UNL     1       7.298  -4.403   6.110  1.00  0.00    -0.504 OA
ATOM     19  H   UNL     1       7.166  -5.377   5.861  1.00  0.00     0.293 HD
ENDBRANCH  15  18
BRANCH  17  20
ATOM     20  O   UNL     1       6.714  -4.764   3.370  1.00  0.00    -0.504 OA
ATOM     21  H   UNL     1       6.658  -4.865   2.364  1.00  0.00     0.293 HD
ENDBRANCH  17  20
ENDBRANCH   1  12
BRANCH   2  22
ATOM     22  O   UNL     1       2.725  -0.535   4.156  1.00  0.00    -0.502 OA
ATOM     23  H   UNL     1       2.434  -1.494   4.011  1.00  0.00     0.293 HD
ENDBRANCH   2  22
BRANCH   6  24
ATOM     24  O   UNL     1       2.128   3.328   0.538  1.00  0.00    -0.507 OA
ATOM     25  H   UNL     1       1.332   2.736   0.723  1.00  0.00     0.293 HD
ENDBRANCH   6  24
BRANCH   8  26
ATOM     26  O   UNL     1       6.682   3.998  -0.771  1.00  0.00    -0.508 OA
ATOM     27  H   UNL     1       6.908   3.719  -1.718  1.00  0.00     0.293 HD
ENDBRANCH   8  26
TORSDOF 6
ENDMDL
MODEL 9
REMARK VINA RESULT:    -5.274      4.501      7.081
REMARK INTER + INTRA:          -6.587
REMARK INTER:                  -6.336
REMARK INTRA:                  -0.251
REMARK UNBOUND:                -0.235
REMARK SMILES O=c1c(O)c(-c2ccc(O)c(O)c2)oc2cc(O)cc(O)c12
REMARK SMILES IDX 5 1 3 2 2 3 1 4 22 5 20 6 19 7 17 8 16 9 15 10 14 11 6 12
REMARK SMILES IDX 7 13 8 14 9 15 13 16 11 17 10 18 12 20 4 22 21 24 18 26
REMARK H PARENT 10 19 12 21 4 23 21 25 18 27
REMARK Flexibility Score: inf
ROOT
ATOM      1  C   UNL     1      -1.642  -1.968   1.992  1.00  0.00     0.180 A 
ATOM      2  C   UNL     1      -0.910  -2.975   2.643  1.00  0.00     0.208 A 
ATOM      3  C   UNL     1       0.346  -2.660   3.186  1.00  0.00     0.238 A 
ATOM      4  O   UNL     1       1.021  -3.578   3.720  1.00  0.00    -0.285 OA
ATOM      5  C   UNL     1       0.846  -1.339   3.085  1.00  0.00     0.111 A 
ATOM      6  C   UNL     1       2.089  -0.900   3.634  1.00  0.00     0.134 A 
ATOM      7  C   UNL     1       2.543   0.397   3.361  1.00  0.00     0.093 A 
ATOM      8  C   UNL     1       1.773   1.288   2.616  1.00  0.00     0.123 A 
ATOM      9  C   UNL     1       0.530   0.887   2.125  1.00  0.00     0.094 A 
ATOM     10  C   UNL     1       0.066  -0.411   2.350  1.00  0.00     0.146 A 
ATOM     11  O   UNL     1      -1.118  -0.755   1.856  1.00  0.00    -0.452 OA
ENDROOT
BRANCH   1  12
ATOM     12  C   UNL     1      -2.984  -2.217   1.417  1.00  0.00     0.025 A 
ATOM     13  C   UNL     1      -3.098  -2.921   0.208  1.00  0.00     0.016 A 
ATOM     14  C   UNL     1      -4.351  -3.150  -0.364  1.00  0.00     0.051 A 
ATOM     15  C   UNL     1      -5.510  -2.663   0.256  1.00  0.00     0.157 A 
ATOM     16  C   UNL     1      -4.147  -1.713   2.025  1.00  0.00     0.062 A 
ATOM     17  C   UNL     1      -5.405  -1.937   1.454  1.00  0.00     0.158 A 
BRANCH  15  18
ATOM     18  O   UNL     1      -6.760  -2.894  -0.315  1.00  0.00    -0.504 OA
ATOM     19  H   UNL     1      -6.868  -3.057  -1.310  1.00  0.00     0.293 HD
ENDBRANCH  15  18
BRANCH  17  20
ATOM     20  O   UNL     1      -6.538  -1.427   2.089  1.00  0.00    -0.504 OA
ATOM     21  H   UNL     1      -7.229  -2.028   2.521  1.00  0.00     0.293 HD
ENDBRANCH  17  20
ENDBRANCH   1  12
BRANCH   2  22
ATOM     22  O   UNL     1      -1.412  -4.277   2.712  1.00  0.00    -0.502 OA
ATOM     23  H   UNL     1      -0.853  -5.060   3.027  1.00  0.00     0.293 HD
ENDBRANCH   2  22
BRANCH   6  24
ATOM     24  O   UNL     1       2.892  -1.680   4.470  1.00  0.00    -0.507 OA
ATOM     25  H   UNL     1       3.243  -1.387   5.369  1.00  0.00     0.293 HD
ENDBRANCH   6  24
BRANCH   8  26
ATOM     26  O   UNL     1       2.250   2.575   2.377  1.00  0.00    -0.508 OA
ATOM     27  H   UNL     1       3.235   2.756   2.224  1.00  0.00     0.293 HD
ENDBRANCH   8  26
TORSDOF 6
ENDMDL
