MODEL 1
REMARK VINA RESULT:    -4.856      0.000      0.000
REMARK INTER + INTRA:          -6.244
REMARK INTER:                  -5.850
REMARK INTRA:                  -0.394
REMARK UNBOUND:                -0.394
REMARK SMILES O=c1c(O)c(-c2ccc(O)cc2O)oc2cc(O)cc(O)c12
REMARK SMILES IDX 5 1 3 2 2 3 1 4 22 5 20 6 19 7 17 8 16 9 15 10 14 11 6 12
REMARK SMILES IDX 8 13 7 14 9 15 11 16 12 17 10 18 13 20 4 22 21 24 18 26
REMARK H PARENT 10 19 13 21 4 23 21 25 18 27
REMARK Flexibility Score: inf
ROOT
ATOM      1  C   UNL     1      -5.968  -5.979  -1.394  1.00  0.00     0.184 A 
ATOM      2  C   UNL     1      -5.022  -4.966  -1.603  1.00  0.00     0.208 A 
ATOM      3  C   UNL     1      -5.451  -3.723  -2.094  1.00  0.00     0.238 A 
ATOM      4  O   UNL     1      -4.607  -2.799  -2.222  1.00  0.00    -0.285 OA
ATOM      5  C   UNL     1      -6.821  -3.522  -2.397  1.00  0.00     0.111 A 
ATOM      6  C   UNL     1      -7.363  -2.317  -2.937  1.00  0.00     0.134 A 
ATOM      7  C   UNL     1      -8.750  -2.188  -3.081  1.00  0.00     0.093 A 
ATOM      8  C   UNL     1      -9.608  -3.241  -2.767  1.00  0.00     0.123 A 
ATOM      9  C   UNL     1      -9.085  -4.444  -2.293  1.00  0.00     0.094 A 
ATOM     10  C   UNL     1      -7.708  -4.591  -2.103  1.00  0.00     0.146 A 
ATOM     11  O   UNL     1      -7.252  -5.747  -1.637  1.00  0.00    -0.451 OA
ENDROOT
BRANCH   1  12
ATOM     12  C   UNL     1      -5.570  -7.315  -0.900  1.00  0.00     0.063 A 
ATOM     13  C   UNL     1      -5.212  -8.820   0.980  1.00  0.00     0.047 A 
ATOM     14  C   UNL     1      -5.633  -7.587   0.479  1.00  0.00     0.020 A 
ATOM     15  C   UNL     1      -4.714  -9.799   0.111  1.00  0.00     0.119 A 
ATOM     16  C   UNL     1      -4.646  -9.538  -1.261  1.00  0.00     0.093 A 
ATOM     17  C   UNL     1      -5.076  -8.309  -1.776  1.00  0.00     0.130 A 
BRANCH  15  18
ATOM     18  O   UNL     1      -4.286 -11.030   0.600  1.00  0.00    -0.508 OA
ATOM     19  H   UNL     1      -3.560 -11.561   0.135  1.00  0.00     0.293 HD
ENDBRANCH  15  18
BRANCH  17  20
ATOM     20  O   UNL     1      -5.019  -8.118  -3.159  1.00  0.00    -0.507 OA
ATOM     21  H   UNL     1      -5.366  -7.285  -3.616  1.00  0.00     0.293 HD
ENDBRANCH  17  20
ENDBRANCH   1  12
BRANCH   2  22
ATOM     22  O   UNL     1      -3.676  -5.195  -1.300  1.00  0.00    -0.502 OA
ATOM     23  H   UNL     1      -3.365  -5.458  -0.372  1.00  0.00     0.293 HD
ENDBRANCH   2  22
BRANCH   6  24
ATOM     24  O   UNL     1      -6.588  -1.236  -3.368  1.00  0.00    -0.507 OA
ATOM     25  H   UNL     1      -6.927  -0.474  -3.936  1.00  0.00     0.293 HD
ENDBRANCH   6  24
BRANCH   8  26
ATOM     26  O   UNL     1     -10.982  -3.082  -2.938  1.00  0.00    -0.508 OA
ATOM     27  H   UNL     1     -11.643  -3.759  -2.575  1.00  0.00     0.293 HD
ENDBRANCH   8  26
TORSDOF 6
ENDMDL
MODEL 2
REMARK VINA RESULT:    -4.661     11.160     12.981
REMARK INTER + INTRA:          -6.009
REMARK INTER:                  -5.596
REMARK INTRA:                  -0.413
REMARK UNBOUND:                -0.394
REMARK SMILES O=c1c(O)c(-c2ccc(O)cc2O)oc2cc(O)cc(O)c12
REMARK SMILES IDX 5 1 3 2 2 3 1 4 22 5 20 6 19 7 17 8 16 9 15 10 14 11 6 12
REMARK SMILES IDX 8 13 7 14 9 15 11 16 12 17 10 18 13 20 4 22 21 24 18 26
REMARK H PARENT 10 19 13 21 4 23 21 25 18 27
REMARK Flexibility Score: inf
ROOT
ATOM      1  C   UNL     1      -9.840   5.416  -4.688  1.00  0.00     0.184 A 
ATOM      2  C   UNL     1     -10.215   6.700  -4.270  1.00  0.00     0.208 A 
ATOM      3  C   UNL     1      -9.234   7.561  -3.750  1.00  0.00     0.238 A 
ATOM      4  O   UNL     1      -9.565   8.733  -3.433  1.00  0.00    -0.285 OA
ATOM      5  C   UNL     1      -7.896   7.111  -3.630  1.00  0.00     0.111 A 
ATOM      6  C   UNL     1      -6.828   7.883  -3.082  1.00  0.00     0.134 A 
ATOM      7  C   UNL     1      -5.521   7.382  -3.127  1.00  0.00     0.093 A 
ATOM      8  C   UNL     1      -5.252   6.114  -3.639  1.00  0.00     0.123 A 
ATOM      9  C   UNL     1      -6.296   5.328  -4.125  1.00  0.00     0.094 A 
ATOM     10  C   UNL     1      -7.607   5.814  -4.128  1.00  0.00     0.146 A 
ATOM     11  O   UNL     1      -8.570   5.038  -4.613  1.00  0.00    -0.451 OA
ENDROOT
BRANCH   1  12
ATOM     12  C   UNL     1     -10.833   4.459  -5.222  1.00  0.00     0.063 A 
ATOM     13  C   UNL     1     -12.311   2.562  -4.844  1.00  0.00     0.047 A 
ATOM     14  C   UNL     1     -11.412   3.513  -4.357  1.00  0.00     0.020 A 
ATOM     15  C   UNL     1     -12.639   2.537  -6.205  1.00  0.00     0.119 A 
ATOM     16  C   UNL     1     -12.066   3.471  -7.073  1.00  0.00     0.093 A 
ATOM     17  C   UNL     1     -11.172   4.437  -6.595  1.00  0.00     0.130 A 
BRANCH  15  18
ATOM     18  O   UNL     1     -13.529   1.589  -6.703  1.00  0.00    -0.508 OA
ATOM     19  H   UNL     1     -13.876   1.636  -7.653  1.00  0.00     0.293 HD
ENDBRANCH  15  18
BRANCH  17  20
ATOM     20  O   UNL     1     -10.661   5.368  -7.501  1.00  0.00    -0.507 OA
ATOM     21  H   UNL     1      -9.777   5.246  -7.978  1.00  0.00     0.293 HD
ENDBRANCH  17  20
ENDBRANCH   1  12
BRANCH   2  22
ATOM     22  O   UNL     1     -11.544   7.115  -4.395  1.00  0.00    -0.502 OA
ATOM     23  H   UNL     1     -11.810   7.929  -4.937  1.00  0.00     0.293 HD
ENDBRANCH   2  22
BRANCH   6  24
ATOM     24  O   UNL     1      -6.999   9.125  -2.463  1.00  0.00    -0.507 OA
ATOM     25  H   UNL     1      -6.988   9.279  -1.466  1.00  0.00     0.293 HD
ENDBRANCH   6  24
BRANCH   8  26
ATOM     26  O   UNL     1      -3.941   5.643  -3.653  1.00  0.00    -0.508 OA
ATOM     27  H   UNL     1      -3.514   5.241  -2.826  1.00  0.00     0.293 HD
ENDBRANCH   8  26
TORSDOF 6
ENDMDL
MODEL 3
REMARK VINA RESULT:    -4.557     10.397     12.970
REMARK INTER + INTRA:          -5.884
REMARK INTER:                  -5.526
REMARK INTRA:                  -0.358
REMARK UNBOUND:                -0.394
REMARK SMILES O=c1c(O)c(-c2ccc(O)cc2O)oc2cc(O)cc(O)c12
REMARK SMILES IDX 5 1 3 2 2 3 1 4 22 5 20 6 19 7 17 8 16 9 15 10 14 11 6 12
REMARK SMILES IDX 8 13 7 14 9 15 11 16 12 17 10 18 13 20 4 22 21 24 18 26
REMARK H PARENT 10 19 13 21 4 23 21 25 18 27
REMARK Flexibility Score: inf
ROOT
ATOM      1  C   UNL     1      -8.024   5.855  -4.334  1.00  0.00     0.184 A 
ATOM      2  C   UNL     1      -7.568   7.058  -3.775  1.00  0.00     0.208 A 
ATOM      3  C   UNL     1      -6.210   7.183  -3.442  1.00  0.00     0.238 A 
ATOM      4  O   UNL     1      -5.795   8.284  -2.998  1.00  0.00    -0.285 OA
ATOM      5  C   UNL     1      -5.333   6.089  -3.647  1.00  0.00     0.111 A 
ATOM      6  C   UNL     1      -3.945   6.089  -3.310  1.00  0.00     0.134 A 
ATOM      7  C   UNL     1      -3.148   4.996  -3.670  1.00  0.00     0.093 A 
ATOM      8  C   UNL     1      -3.697   3.878  -4.296  1.00  0.00     0.123 A 
ATOM      9  C   UNL     1      -5.063   3.843  -4.578  1.00  0.00     0.094 A 
ATOM     10  C   UNL     1      -5.878   4.933  -4.264  1.00  0.00     0.146 A 
ATOM     11  O   UNL     1      -7.171   4.865  -4.563  1.00  0.00    -0.451 OA
ENDROOT
BRANCH   1  12
ATOM     12  C   UNL     1      -9.448   5.659  -4.683  1.00  0.00     0.063 A 
ATOM     13  C   UNL     1     -11.760   5.437  -3.956  1.00  0.00     0.047 A 
ATOM     14  C   UNL     1     -10.416   5.674  -3.663  1.00  0.00     0.020 A 
ATOM     15  C   UNL     1     -12.156   5.173  -5.273  1.00  0.00     0.119 A 
ATOM     16  C   UNL     1     -11.202   5.153  -6.293  1.00  0.00     0.093 A 
ATOM     17  C   UNL     1      -9.852   5.401  -6.014  1.00  0.00     0.130 A 
BRANCH  15  18
ATOM     18  O   UNL     1     -13.493   4.929  -5.575  1.00  0.00    -0.508 OA
ATOM     19  H   UNL     1     -13.960   5.407  -6.337  1.00  0.00     0.293 HD
ENDBRANCH  15  18
BRANCH  17  20
ATOM     20  O   UNL     1      -8.949   5.406  -7.078  1.00  0.00    -0.507 OA
ATOM     21  H   UNL     1      -8.075   5.915  -7.059  1.00  0.00     0.293 HD
ENDBRANCH  17  20
ENDBRANCH   1  12
BRANCH   2  22
ATOM     22  O   UNL     1      -8.458   8.118  -3.579  1.00  0.00    -0.502 OA
ATOM     23  H   UNL     1      -8.240   9.068  -3.857  1.00  0.00     0.293 HD
ENDBRANCH   2  22
BRANCH   6  24
ATOM     24  O   UNL     1      -3.313   7.116  -2.604  1.00  0.00    -0.507 OA
ATOM     25  H   UNL     1      -2.786   6.992  -1.752  1.00  0.00     0.293 HD
ENDBRANCH   6  24
BRANCH   8  26
ATOM     26  O   UNL     1      -2.875   2.802  -4.626  1.00  0.00    -0.508 OA
ATOM     27  H   UNL     1      -2.779   2.484  -5.584  1.00  0.00     0.293 HD
ENDBRANCH   8  26
TORSDOF 6
ENDMDL
MODEL 4
REMARK VINA RESULT:    -4.533      5.759     10.193
REMARK INTER + INTRA:          -5.855
REMARK INTER:                  -5.455
REMARK INTRA:                  -0.400
REMARK UNBOUND:                -0.394
REMARK SMILES O=c1c(O)c(-c2ccc(O)cc2O)oc2cc(O)cc(O)c12
REMARK SMILES IDX 5 1 3 2 2 3 1 4 22 5 20 6 19 7 17 8 16 9 15 10 14 11 6 12
REMARK SMILES IDX 8 13 7 14 9 15 11 16 12 17 10 18 13 20 4 22 21 24 18 26
REMARK H PARENT 10 19 13 21 4 23 21 25 18 27
REMARK Flexibility Score: inf
ROOT
ATOM      1  C   UNL     1      -5.491   2.828  -3.353  1.00  0.00     0.184 A 
ATOM      2  C   UNL     1      -4.319   2.343  -3.952  1.00  0.00     0.208 A 
ATOM      3  C   UNL     1      -4.164   0.958  -4.123  1.00  0.00     0.238 A 
ATOM      4  O   UNL     1      -3.139   0.533  -4.715  1.00  0.00    -0.285 OA
ATOM      5  C   UNL     1      -5.174   0.076  -3.665  1.00  0.00     0.111 A 
ATOM      6  C   UNL     1      -5.107  -1.348  -3.750  1.00  0.00     0.134 A 
ATOM      7  C   UNL     1      -6.218  -2.114  -3.378  1.00  0.00     0.093 A 
ATOM      8  C   UNL     1      -7.367  -1.516  -2.864  1.00  0.00     0.123 A 
ATOM      9  C   UNL     1      -7.423  -0.130  -2.722  1.00  0.00     0.094 A 
ATOM     10  C   UNL     1      -6.345   0.666  -3.119  1.00  0.00     0.146 A 
ATOM     11  O   UNL     1      -6.443   1.983  -2.980  1.00  0.00    -0.451 OA
ENDROOT
BRANCH   1  12
ATOM     12  C   UNL     1      -5.698   4.275  -3.126  1.00  0.00     0.063 A 
ATOM     13  C   UNL     1      -6.456   6.428  -3.970  1.00  0.00     0.047 A 
ATOM     14  C   UNL     1      -6.298   5.051  -4.134  1.00  0.00     0.020 A 
ATOM     15  C   UNL     1      -6.010   7.053  -2.799  1.00  0.00     0.119 A 
ATOM     16  C   UNL     1      -5.410   6.290  -1.793  1.00  0.00     0.093 A 
ATOM     17  C   UNL     1      -5.256   4.907  -1.941  1.00  0.00     0.130 A 
BRANCH  15  18
ATOM     18  O   UNL     1      -6.157   8.426  -2.627  1.00  0.00    -0.508 OA
ATOM     19  H   UNL     1      -6.505   8.818  -1.761  1.00  0.00     0.293 HD
ENDBRANCH  15  18
BRANCH  17  20
ATOM     20  O   UNL     1      -4.683   4.191  -0.887  1.00  0.00    -0.507 OA
ATOM     21  H   UNL     1      -3.995   4.586  -0.260  1.00  0.00     0.293 HD
ENDBRANCH  17  20
ENDBRANCH   1  12
BRANCH   2  22
ATOM     22  O   UNL     1      -3.337   3.237  -4.389  1.00  0.00    -0.502 OA
ATOM     23  H   UNL     1      -3.213   3.470  -5.367  1.00  0.00     0.293 HD
ENDBRANCH   2  22
BRANCH   6  24
ATOM     24  O   UNL     1      -3.973  -2.052  -4.165  1.00  0.00    -0.507 OA
ATOM     25  H   UNL     1      -3.852  -3.050  -4.081  1.00  0.00     0.293 HD
ENDBRANCH   6  24
BRANCH   8  26
ATOM     26  O   UNL     1      -8.447  -2.313  -2.489  1.00  0.00    -0.508 OA
ATOM     27  H   UNL     1      -8.353  -3.316  -2.378  1.00  0.00     0.293 HD
ENDBRANCH   8  26
TORSDOF 6
ENDMDL
MODEL 5
REMARK VINA RESULT:    -4.457     10.923     12.865
REMARK INTER + INTRA:          -5.763
REMARK INTER:                  -5.369
REMARK INTRA:                  -0.394
REMARK UNBOUND:                -0.394
REMARK SMILES O=c1c(O)c(-c2ccc(O)cc2O)oc2cc(O)cc(O)c12
REMARK SMILES IDX 5 1 3 2 2 3 1 4 22 5 20 6 19 7 17 8 16 9 15 10 14 11 6 12
REMARK SMILES IDX 8 13 7 14 9 15 11 16 12 17 10 18 13 20 4 22 21 24 18 26
REMARK H PARENT 10 19 13 21 4 23 21 25 18 27
REMARK Flexibility Score: inf
ROOT
ATOM      1  C   UNL     1      -8.700   6.199  -4.269  1.00  0.00     0.184 A 
ATOM      2  C   UNL     1      -9.610   7.083  -3.671  1.00  0.00     0.208 A 
ATOM      3  C   UNL     1     -10.934   7.116  -4.138  1.00  0.00     0.238 A 
ATOM      4  O   UNL     1     -11.760   7.867  -3.558  1.00  0.00    -0.285 OA
ATOM      5  C   UNL     1     -11.321   6.283  -5.216  1.00  0.00     0.111 A 
ATOM      6  C   UNL     1     -12.625   6.261  -5.797  1.00  0.00     0.134 A 
ATOM      7  C   UNL     1     -12.928   5.310  -6.778  1.00  0.00     0.093 A 
ATOM      8  C   UNL     1     -11.959   4.423  -7.245  1.00  0.00     0.123 A 
ATOM      9  C   UNL     1     -10.665   4.473  -6.726  1.00  0.00     0.094 A 
ATOM     10  C   UNL     1     -10.342   5.387  -5.720  1.00  0.00     0.146 A 
ATOM     11  O   UNL     1      -9.102   5.393  -5.243  1.00  0.00    -0.451 OA
ENDROOT
BRANCH   1  12
ATOM     12  C   UNL     1      -7.288   6.137  -3.835  1.00  0.00     0.063 A 
ATOM     13  C   UNL     1      -5.077   7.155  -3.784  1.00  0.00     0.047 A 
ATOM     14  C   UNL     1      -6.428   7.209  -4.133  1.00  0.00     0.020 A 
ATOM     15  C   UNL     1      -4.563   6.023  -3.139  1.00  0.00     0.119 A 
ATOM     16  C   UNL     1      -5.409   4.952  -2.840  1.00  0.00     0.093 A 
ATOM     17  C   UNL     1      -6.768   5.000  -3.175  1.00  0.00     0.130 A 
BRANCH  15  18
ATOM     18  O   UNL     1      -3.217   5.955  -2.792  1.00  0.00    -0.508 OA
ATOM     19  H   UNL     1      -2.521   5.600  -3.436  1.00  0.00     0.293 HD
ENDBRANCH  15  18
BRANCH  17  20
ATOM     20  O   UNL     1      -7.573   3.915  -2.819  1.00  0.00    -0.507 OA
ATOM     21  H   UNL     1      -7.653   3.575  -1.869  1.00  0.00     0.293 HD
ENDBRANCH  17  20
ENDBRANCH   1  12
BRANCH   2  22
ATOM     22  O   UNL     1      -9.199   7.898  -2.612  1.00  0.00    -0.502 OA
ATOM     23  H   UNL     1      -8.757   8.797  -2.759  1.00  0.00     0.293 HD
ENDBRANCH   2  22
BRANCH   6  24
ATOM     24  O   UNL     1     -13.641   7.163  -5.467  1.00  0.00    -0.507 OA
ATOM     25  H   UNL     1     -13.493   8.119  -5.182  1.00  0.00     0.293 HD
ENDBRANCH   6  24
BRANCH   8  26
ATOM     26  O   UNL     1     -12.293   3.499  -8.234  1.00  0.00    -0.508 OA
ATOM     27  H   UNL     1     -12.969   3.718  -8.956  1.00  0.00     0.293 HD
ENDBRANCH   8  26
TORSDOF 6
ENDMDL
MODEL 6
REMARK VINA RESULT:    -4.392      3.524      7.941
REMARK INTER + INTRA:          -5.685
REMARK INTER:                  -5.401
REMARK INTRA:                  -0.284
REMARK UNBOUND:                -0.394
REMARK SMILES O=c1c(O)c(-c2ccc(O)cc2O)oc2cc(O)cc(O)c12
REMARK SMILES IDX 5 1 3 2 2 3 1 4 22 5 20 6 19 7 17 8 16 9 15 10 14 11 6 12
REMARK SMILES IDX 8 13 7 14 9 15 11 16 12 17 10 18 13 20 4 22 21 24 18 26
REMARK H PARENT 10 19 13 21 4 23 21 25 18 27
REMARK Flexibility Score: inf
ROOT
ATOM      1  C   UNL     1      -5.917  -0.189  -3.096  1.00  0.00     0.184 A 
ATOM      2  C   UNL     1      -4.941  -1.173  -2.880  1.00  0.00     0.208 A 
ATOM      3  C   UNL     1      -5.349  -2.491  -2.620  1.00  0.00     0.238 A 
ATOM      4  O   UNL     1      -4.469  -3.381  -2.488  1.00  0.00    -0.285 OA
ATOM      5  C   UNL     1      -6.730  -2.799  -2.551  1.00  0.00     0.111 A 
ATOM      6  C   UNL     1      -7.259  -4.092  -2.255  1.00  0.00     0.134 A 
ATOM      7  C   UNL     1      -8.639  -4.308  -2.335  1.00  0.00     0.093 A 
ATOM      8  C   UNL     1      -9.516  -3.266  -2.636  1.00  0.00     0.123 A 
ATOM      9  C   UNL     1      -9.015  -1.986  -2.870  1.00  0.00     0.094 A 
ATOM     10  C   UNL     1      -7.639  -1.746  -2.834  1.00  0.00     0.146 A 
ATOM     11  O   UNL     1      -7.203  -0.515  -3.076  1.00  0.00    -0.451 OA
ENDROOT
BRANCH   1  12
ATOM     12  C   UNL     1      -5.547   1.220  -3.351  1.00  0.00     0.063 A 
ATOM     13  C   UNL     1      -4.329   2.843  -4.695  1.00  0.00     0.047 A 
ATOM     14  C   UNL     1      -4.739   1.530  -4.460  1.00  0.00     0.020 A 
ATOM     15  C   UNL     1      -4.713   3.867  -3.820  1.00  0.00     0.119 A 
ATOM     16  C   UNL     1      -5.513   3.568  -2.713  1.00  0.00     0.093 A 
ATOM     17  C   UNL     1      -5.940   2.257  -2.474  1.00  0.00     0.130 A 
BRANCH  15  18
ATOM     18  O   UNL     1      -4.304   5.179  -4.041  1.00  0.00    -0.508 OA
ATOM     19  H   UNL     1      -4.973   5.922  -4.202  1.00  0.00     0.293 HD
ENDBRANCH  15  18
BRANCH  17  20
ATOM     20  O   UNL     1      -6.769   2.024  -1.374  1.00  0.00    -0.507 OA
ATOM     21  H   UNL     1      -6.539   1.369  -0.638  1.00  0.00     0.293 HD
ENDBRANCH  17  20
ENDBRANCH   1  12
BRANCH   2  22
ATOM     22  O   UNL     1      -3.585  -0.839  -2.949  1.00  0.00    -0.502 OA
ATOM     23  H   UNL     1      -3.153  -0.498  -3.799  1.00  0.00     0.293 HD
ENDBRANCH   2  22
BRANCH   6  24
ATOM     24  O   UNL     1      -6.479  -5.182  -1.856  1.00  0.00    -0.507 OA
ATOM     25  H   UNL     1      -5.476  -5.239  -1.952  1.00  0.00     0.293 HD
ENDBRANCH   6  24
BRANCH   8  26
ATOM     26  O   UNL     1     -10.886  -3.515  -2.691  1.00  0.00    -0.508 OA
ATOM     27  H   UNL     1     -11.354  -3.707  -3.569  1.00  0.00     0.293 HD
ENDBRANCH   8  26
TORSDOF 6
ENDMDL
MODEL 7
REMARK VINA RESULT:    -4.277      6.468     10.932
REMARK INTER + INTRA:          -5.546
REMARK INTER:                  -5.134
REMARK INTRA:                  -0.412
REMARK UNBOUND:                -0.394
REMARK SMILES O=c1c(O)c(-c2ccc(O)cc2O)oc2cc(O)cc(O)c12
REMARK SMILES IDX 5 1 3 2 2 3 1 4 22 5 20 6 19 7 17 8 16 9 15 10 14 11 6 12
REMARK SMILES IDX 8 13 7 14 9 15 11 16 12 17 10 18 13 20 4 22 21 24 18 26
REMARK H PARENT 10 19 13 21 4 23 21 25 18 27
REMARK Flexibility Score: inf
ROOT
ATOM      1  C   UNL     1      -5.986   3.901  -2.926  1.00  0.00     0.184 A 
ATOM      2  C   UNL     1      -4.787   3.770  -3.640  1.00  0.00     0.208 A 
ATOM      3  C   UNL     1      -4.352   2.488  -4.013  1.00  0.00     0.238 A 
ATOM      4  O   UNL     1      -3.308   2.381  -4.705  1.00  0.00    -0.285 OA
ATOM      5  C   UNL     1      -5.112   1.352  -3.638  1.00  0.00     0.111 A 
ATOM      6  C   UNL     1      -4.748   0.002  -3.926  1.00  0.00     0.134 A 
ATOM      7  C   UNL     1      -5.637  -1.034  -3.616  1.00  0.00     0.093 A 
ATOM      8  C   UNL     1      -6.845  -0.778  -2.970  1.00  0.00     0.123 A 
ATOM      9  C   UNL     1      -7.186   0.532  -2.631  1.00  0.00     0.094 A 
ATOM     10  C   UNL     1      -6.337   1.592  -2.961  1.00  0.00     0.146 A 
ATOM     11  O   UNL     1      -6.705   2.825  -2.633  1.00  0.00    -0.451 OA
ENDROOT
BRANCH   1  12
ATOM     12  C   UNL     1      -6.481   5.224  -2.488  1.00  0.00     0.063 A 
ATOM     13  C   UNL     1      -6.690   6.892  -0.727  1.00  0.00     0.047 A 
ATOM     14  C   UNL     1      -6.190   5.672  -1.187  1.00  0.00     0.020 A 
ATOM     15  C   UNL     1      -7.496   7.680  -1.559  1.00  0.00     0.119 A 
ATOM     16  C   UNL     1      -7.792   7.242  -2.852  1.00  0.00     0.093 A 
ATOM     17  C   UNL     1      -7.288   6.026  -3.329  1.00  0.00     0.130 A 
BRANCH  15  18
ATOM     18  O   UNL     1      -8.004   8.895  -1.109  1.00  0.00    -0.508 OA
ATOM     19  H   UNL     1      -8.665   8.942  -0.342  1.00  0.00     0.293 HD
ENDBRANCH  15  18
BRANCH  17  20
ATOM     20  O   UNL     1      -7.586   5.657  -4.642  1.00  0.00    -0.507 OA
ATOM     21  H   UNL     1      -7.253   4.801  -5.064  1.00  0.00     0.293 HD
ENDBRANCH  17  20
ENDBRANCH   1  12
BRANCH   2  22
ATOM     22  O   UNL     1      -4.055   4.908  -3.992  1.00  0.00    -0.502 OA
ATOM     23  H   UNL     1      -3.314   5.278  -3.408  1.00  0.00     0.293 HD
ENDBRANCH   2  22
BRANCH   6  24
ATOM     24  O   UNL     1      -3.524  -0.374  -4.489  1.00  0.00    -0.507 OA
ATOM     25  H   UNL     1      -2.622  -0.053  -4.171  1.00  0.00     0.293 HD
ENDBRANCH   6  24
BRANCH   8  26
ATOM     26  O   UNL     1      -7.698  -1.836  -2.662  1.00  0.00    -0.508 OA
ATOM     27  H   UNL     1      -8.197  -2.342  -3.385  1.00  0.00     0.293 HD
ENDBRANCH   8  26
TORSDOF 6
ENDMDL
MODEL 8
REMARK VINA RESULT:    -4.220      7.887     11.028
REMARK INTER + INTRA:          -5.478
REMARK INTER:                  -5.133
REMARK INTRA:                  -0.345
REMARK UNBOUND:                -0.394
REMARK SMILES O=c1c(O)c(-c2ccc(O)cc2O)oc2cc(O)cc(O)c12
REMARK SMILES IDX 5 1 3 2 2 3 1 4 22 5 20 6 19 7 17 8 16 9 15 10 14 11 6 12
REMARK SMILES IDX 8 13 7 14 9 15 11 16 12 17 10 18 13 20 4 22 21 24 18 26
REMARK H PARENT 10 19 13 21 4 23 21 25 18 27
REMARK Flexibility Score: inf
ROOT
ATOM      1  C   UNL     1      -6.402   4.512  -2.435  1.00  0.00     0.184 A 
ATOM      2  C   UNL     1      -6.178   4.853  -1.093  1.00  0.00     0.208 A 
ATOM      3  C   UNL     1      -6.716   6.051  -0.595  1.00  0.00     0.238 A 
ATOM      4  O   UNL     1      -6.564   6.321   0.624  1.00  0.00    -0.285 OA
ATOM      5  C   UNL     1      -7.445   6.905  -1.458  1.00  0.00     0.111 A 
ATOM      6  C   UNL     1      -8.002   8.163  -1.074  1.00  0.00     0.134 A 
ATOM      7  C   UNL     1      -8.809   8.865  -1.976  1.00  0.00     0.093 A 
ATOM      8  C   UNL     1      -9.027   8.391  -3.269  1.00  0.00     0.123 A 
ATOM      9  C   UNL     1      -8.441   7.192  -3.675  1.00  0.00     0.094 A 
ATOM     10  C   UNL     1      -7.661   6.449  -2.785  1.00  0.00     0.146 A 
ATOM     11  O   UNL     1      -7.132   5.306  -3.207  1.00  0.00    -0.451 OA
ENDROOT
BRANCH   1  12
ATOM     12  C   UNL     1      -5.841   3.274  -3.019  1.00  0.00     0.063 A 
ATOM     13  C   UNL     1      -5.763   0.842  -3.065  1.00  0.00     0.047 A 
ATOM     14  C   UNL     1      -6.312   2.027  -2.572  1.00  0.00     0.020 A 
ATOM     15  C   UNL     1      -4.728   0.886  -4.008  1.00  0.00     0.119 A 
ATOM     16  C   UNL     1      -4.251   2.121  -4.456  1.00  0.00     0.093 A 
ATOM     17  C   UNL     1      -4.802   3.316  -3.977  1.00  0.00     0.130 A 
BRANCH  15  18
ATOM     18  O   UNL     1      -4.169  -0.289  -4.502  1.00  0.00    -0.508 OA
ATOM     19  H   UNL     1      -4.736  -0.996  -4.955  1.00  0.00     0.293 HD
ENDBRANCH  15  18
BRANCH  17  20
ATOM     20  O   UNL     1      -4.311   4.519  -4.489  1.00  0.00    -0.507 OA
ATOM     21  H   UNL     1      -3.472   4.965  -4.142  1.00  0.00     0.293 HD
ENDBRANCH  17  20
ENDBRANCH   1  12
BRANCH   2  22
ATOM     22  O   UNL     1      -5.450   3.992  -0.266  1.00  0.00    -0.502 OA
ATOM     23  H   UNL     1      -4.945   4.321   0.549  1.00  0.00     0.293 HD
ENDBRANCH   2  22
BRANCH   6  24
ATOM     24  O   UNL     1      -7.772   8.772   0.163  1.00  0.00    -0.507 OA
ATOM     25  H   UNL     1      -7.052   9.455   0.345  1.00  0.00     0.293 HD
ENDBRANCH   6  24
BRANCH   8  26
ATOM     26  O   UNL     1      -9.824   9.125  -4.145  1.00  0.00    -0.508 OA
ATOM     27  H   UNL     1      -9.531   9.311  -5.098  1.00  0.00     0.293 HD
ENDBRANCH   8  26
TORSDOF 6
ENDMDL
MODEL 9
REMARK VINA RESULT:    -3.557      6.178      8.969
REMARK INTER + INTRA:          -4.680
REMARK INTER:                  -4.394
REMARK INTRA:                  -0.285
REMARK UNBOUND:                -0.394
REMARK SMILES O=c1c(O)c(-c2ccc(O)cc2O)oc2cc(O)cc(O)c12
REMARK SMILES IDX 5 1 3 2 2 3 1 4 22 5 20 6 19 7 17 8 16 9 15 10 14 11 6 12
REMARK SMILES IDX 8 13 7 14 9 15 11 16 12 17 10 18 13 20 4 22 21 24 18 26
REMARK H PARENT 10 19 13 21 4 23 21 25 18 27
REMARK Flexibility Score: inf
ROOT
ATOM      1  C   UNL     1      -5.543   2.251  -2.925  1.00  0.00     0.184 A 
ATOM      2  C   UNL     1      -4.369   2.522  -2.209  1.00  0.00     0.208 A 
ATOM      3  C   UNL     1      -3.895   3.842  -2.151  1.00  0.00     0.238 A 
ATOM      4  O   UNL     1      -2.875   4.089  -1.457  1.00  0.00    -0.285 OA
ATOM      5  C   UNL     1      -4.590   4.869  -2.837  1.00  0.00     0.111 A 
ATOM      6  C   UNL     1      -4.180   6.236  -2.882  1.00  0.00     0.134 A 
ATOM      7  C   UNL     1      -5.011   7.186  -3.487  1.00  0.00     0.093 A 
ATOM      8  C   UNL     1      -6.202   6.812  -4.106  1.00  0.00     0.123 A 
ATOM      9  C   UNL     1      -6.584   5.471  -4.120  1.00  0.00     0.094 A 
ATOM     10  C   UNL     1      -5.795   4.503  -3.492  1.00  0.00     0.146 A 
ATOM     11  O   UNL     1      -6.202   3.239  -3.516  1.00  0.00    -0.451 OA
ENDROOT
BRANCH   1  12
ATOM     12  C   UNL     1      -6.076   0.876  -3.039  1.00  0.00     0.063 A 
ATOM     13  C   UNL     1      -7.784  -0.753  -2.443  1.00  0.00     0.047 A 
ATOM     14  C   UNL     1      -7.285   0.551  -2.399  1.00  0.00     0.020 A 
ATOM     15  C   UNL     1      -7.078  -1.753  -3.122  1.00  0.00     0.119 A 
ATOM     16  C   UNL     1      -5.874  -1.440  -3.760  1.00  0.00     0.093 A 
ATOM     17  C   UNL     1      -5.369  -0.135  -3.732  1.00  0.00     0.130 A 
BRANCH  15  18
ATOM     18  O   UNL     1      -7.563  -3.057  -3.168  1.00  0.00    -0.508 OA
ATOM     19  H   UNL     1      -8.148  -3.431  -2.431  1.00  0.00     0.293 HD
ENDBRANCH  15  18
BRANCH  17  20
ATOM     20  O   UNL     1      -4.182   0.128  -4.418  1.00  0.00    -0.507 OA
ATOM     21  H   UNL     1      -3.991   1.010  -4.875  1.00  0.00     0.293 HD
ENDBRANCH  17  20
ENDBRANCH   1  12
BRANCH   2  22
ATOM     22  O   UNL     1      -3.701   1.488  -1.546  1.00  0.00    -0.502 OA
ATOM     23  H   UNL     1      -4.092   0.557  -1.459  1.00  0.00     0.293 HD
ENDBRANCH   2  22
BRANCH   6  24
ATOM     24  O   UNL     1      -2.965   6.703  -2.373  1.00  0.00    -0.507 OA
ATOM     25  H   UNL     1      -2.185   7.010  -2.934  1.00  0.00     0.293 HD
ENDBRANCH   6  24
BRANCH   8  26
ATOM     26  O   UNL     1      -6.996   7.783  -4.713  1.00  0.00    -0.508 OA
ATOM     27  H   UNL     1      -6.705   8.753  -4.757  1.00  0.00     0.293 HD
ENDBRANCH   8  26
TORSDOF 6
ENDMDL
