MODEL 1
REMARK VINA RESULT:    -3.952      0.000      0.000
REMARK INTER + INTRA:         -10.398
REMARK INTER:                  -7.418
REMARK INTRA:                  -2.980
REMARK UNBOUND:                -2.980
REMARK SMILES CCCCCCCCC=CCCCCCCCC(=O)[O-]
REMARK SMILES IDX 10 1 9 2 11 3 12 4 13 5 14 6 15 7 16 8 17 9 18 10 19 11
REMARK SMILES IDX 20 12 8 13 7 14 6 15 5 16 4 17 3 18 2 19 1 20
REMARK H PARENT
REMARK Flexibility Score: inf
ROOT
ATOM      1  C   UNL     1      27.399  18.664  57.314  1.00  0.00    -0.031 C 
ATOM      2  C   UNL     1      27.752  19.890  56.880  1.00  0.00    -0.031 C 
ENDROOT
BRANCH   1   3
ATOM      3  C   UNL     1      28.346  17.644  57.902  1.00  0.00     0.027 C 
BRANCH   3   4
ATOM      4  C   UNL     1      28.284  16.320  57.132  1.00  0.00     0.004 C 
BRANCH   4   5
ATOM      5  C   UNL     1      29.671  15.876  56.637  1.00  0.00     0.000 C 
BRANCH   5   6
ATOM      6  C   UNL     1      30.624  17.069  56.414  1.00  0.00     0.000 C 
BRANCH   6   7
ATOM      7  C   UNL     1      31.008  17.291  54.939  1.00  0.00     0.000 C 
BRANCH   7   8
ATOM      8  C   UNL     1      31.386  18.739  54.580  1.00  0.00     0.006 C 
BRANCH   8   9
ATOM      9  C   UNL     1      32.895  18.928  54.371  1.00  0.00     0.053 C 
BRANCH   9  10
ATOM     10  C   UNL     1      33.600  19.024  55.687  1.00  0.00     0.041 C 
ATOM     11  O   UNL     1      34.407  18.123  56.040  1.00  0.00    -0.550 OA
ATOM     12  O   UNL     1      33.378  20.114  56.521  1.00  0.00    -0.550 OA
ENDBRANCH   9  10
ENDBRANCH   8   9
ENDBRANCH   7   8
ENDBRANCH   6   7
ENDBRANCH   5   6
ENDBRANCH   4   5
ENDBRANCH   3   4
ENDBRANCH   1   3
BRANCH   2  13
ATOM     13  C   UNL     1      29.152  20.450  56.916  1.00  0.00     0.027 C 
BRANCH  13  14
ATOM     14  C   UNL     1      29.384  21.556  55.867  1.00  0.00     0.004 C 
BRANCH  14  15
ATOM     15  C   UNL     1      28.178  21.810  54.945  1.00  0.00     0.000 C 
BRANCH  15  16
ATOM     16  C   UNL     1      28.338  21.164  53.557  1.00  0.00     0.000 C 
BRANCH  16  17
ATOM     17  C   UNL     1      27.348  20.009  53.329  1.00  0.00    -0.000 C 
BRANCH  17  18
ATOM     18  C   UNL     1      28.046  18.644  53.232  1.00  0.00    -0.000 C 
BRANCH  18  19
ATOM     19  C   UNL     1      27.162  17.529  53.805  1.00  0.00    -0.003 C 
ATOM     20  C   UNL     1      25.742  18.027  54.060  1.00  0.00     0.004 C 
ENDBRANCH  18  19
ENDBRANCH  17  18
ENDBRANCH  16  17
ENDBRANCH  15  16
ENDBRANCH  14  15
ENDBRANCH  13  14
ENDBRANCH   2  13
TORSDOF 15
ENDMDL
MODEL 2
REMARK VINA RESULT:    -3.881      1.943      3.438
REMARK INTER + INTRA:         -10.264
REMARK INTER:                  -7.140
REMARK INTRA:                  -3.124
REMARK UNBOUND:                -2.980
REMARK SMILES CCCCCCCCC=CCCCCCCCC(=O)[O-]
REMARK SMILES IDX 10 1 9 2 11 3 12 4 13 5 14 6 15 7 16 8 17 9 18 10 19 11
REMARK SMILES IDX 20 12 8 13 7 14 6 15 5 16 4 17 3 18 2 19 1 20
REMARK H PARENT
REMARK Flexibility Score: inf
ROOT
ATOM      1  C   UNL     1      29.263  16.987  57.515  1.00  0.00    -0.031 C 
ATOM      2  C   UNL     1      28.236  17.805  57.817  1.00  0.00    -0.031 C 
ENDROOT
BRANCH   1   3
ATOM      3  C   UNL     1      29.139  15.657  56.809  1.00  0.00     0.027 C 
BRANCH   3   4
ATOM      4  C   UNL     1      30.378  15.362  55.956  1.00  0.00     0.004 C 
BRANCH   4   5
ATOM      5  C   UNL     1      31.334  16.566  55.893  1.00  0.00     0.000 C 
BRANCH   5   6
ATOM      6  C   UNL     1      31.660  16.980  54.443  1.00  0.00     0.000 C 
BRANCH   6   7
ATOM      7  C   UNL     1      31.600  18.500  54.202  1.00  0.00     0.000 C 
BRANCH   7   8
ATOM      8  C   UNL     1      31.186  19.333  55.427  1.00  0.00     0.006 C 
BRANCH   8   9
ATOM      9  C   UNL     1      29.924  20.173  55.179  1.00  0.00     0.053 C 
BRANCH   9  10
ATOM     10  C   UNL     1      29.615  21.021  56.372  1.00  0.00     0.041 C 
ATOM     11  O   UNL     1      28.434  21.098  56.805  1.00  0.00    -0.550 OA
ATOM     12  O   UNL     1      30.631  21.718  57.015  1.00  0.00    -0.550 OA
ENDBRANCH   9  10
ENDBRANCH   8   9
ENDBRANCH   7   8
ENDBRANCH   6   7
ENDBRANCH   5   6
ENDBRANCH   4   5
ENDBRANCH   3   4
ENDBRANCH   1   3
BRANCH   2  13
ATOM     13  C   UNL     1      26.788  17.530  57.491  1.00  0.00     0.027 C 
BRANCH  13  14
ATOM     14  C   UNL     1      26.183  18.566  56.523  1.00  0.00     0.004 C 
BRANCH  14  15
ATOM     15  C   UNL     1      25.639  17.961  55.217  1.00  0.00     0.000 C 
BRANCH  15  16
ATOM     16  C   UNL     1      26.004  16.476  55.045  1.00  0.00     0.000 C 
BRANCH  16  17
ATOM     17  C   UNL     1      26.979  16.242  53.879  1.00  0.00    -0.000 C 
BRANCH  17  18
ATOM     18  C   UNL     1      28.044  17.344  53.770  1.00  0.00    -0.000 C 
BRANCH  18  19
ATOM     19  C   UNL     1      28.270  17.751  52.309  1.00  0.00    -0.003 C 
ATOM     20  C   UNL     1      27.350  18.901  51.908  1.00  0.00     0.004 C 
ENDBRANCH  18  19
ENDBRANCH  17  18
ENDBRANCH  16  17
ENDBRANCH  15  16
ENDBRANCH  14  15
ENDBRANCH  13  14
ENDBRANCH   2  13
TORSDOF 15
ENDMDL
MODEL 3
REMARK VINA RESULT:    -3.864      1.387      1.839
REMARK INTER + INTRA:         -10.232
REMARK INTER:                  -6.955
REMARK INTRA:                  -3.277
REMARK UNBOUND:                -2.980
REMARK SMILES CCCCCCCCC=CCCCCCCCC(=O)[O-]
REMARK SMILES IDX 10 1 9 2 11 3 12 4 13 5 14 6 15 7 16 8 17 9 18 10 19 11
REMARK SMILES IDX 20 12 8 13 7 14 6 15 5 16 4 17 3 18 2 19 1 20
REMARK H PARENT
REMARK Flexibility Score: inf
ROOT
ATOM      1  C   UNL     1      26.578  18.501  56.923  1.00  0.00    -0.031 C 
ATOM      2  C   UNL     1      27.082  19.642  56.416  1.00  0.00    -0.031 C 
ENDROOT
BRANCH   1   3
ATOM      3  C   UNL     1      27.210  17.685  58.027  1.00  0.00     0.027 C 
BRANCH   3   4
ATOM      4  C   UNL     1      27.846  16.403  57.476  1.00  0.00     0.004 C 
BRANCH   4   5
ATOM      5  C   UNL     1      29.348  16.578  57.198  1.00  0.00     0.000 C 
BRANCH   5   6
ATOM      6  C   UNL     1      29.957  15.358  56.477  1.00  0.00     0.000 C 
BRANCH   6   7
ATOM      7  C   UNL     1      31.411  15.570  56.015  1.00  0.00     0.000 C 
BRANCH   7   8
ATOM      8  C   UNL     1      32.021  16.930  56.401  1.00  0.00     0.006 C 
BRANCH   8   9
ATOM      9  C   UNL     1      33.227  17.311  55.532  1.00  0.00     0.053 C 
BRANCH   9  10
ATOM     10  C   UNL     1      33.202  18.771  55.208  1.00  0.00     0.041 C 
ATOM     11  O   UNL     1      33.129  19.624  56.133  1.00  0.00    -0.550 OA
ATOM     12  O   UNL     1      33.272  19.194  53.886  1.00  0.00    -0.550 OA
ENDBRANCH   9  10
ENDBRANCH   8   9
ENDBRANCH   7   8
ENDBRANCH   6   7
ENDBRANCH   5   6
ENDBRANCH   4   5
ENDBRANCH   3   4
ENDBRANCH   1   3
BRANCH   2  13
ATOM     13  C   UNL     1      28.361  20.301  56.873  1.00  0.00     0.027 C 
BRANCH  13  14
ATOM     14  C   UNL     1      29.576  19.919  56.006  1.00  0.00     0.004 C 
BRANCH  14  15
ATOM     15  C   UNL     1      29.247  19.722  54.515  1.00  0.00     0.000 C 
BRANCH  15  16
ATOM     16  C   UNL     1      29.723  18.363  53.971  1.00  0.00     0.000 C 
BRANCH  16  17
ATOM     17  C   UNL     1      28.660  17.677  53.096  1.00  0.00    -0.000 C 
BRANCH  17  18
ATOM     18  C   UNL     1      27.757  16.730  53.900  1.00  0.00    -0.000 C 
BRANCH  18  19
ATOM     19  C   UNL     1      26.286  16.893  53.496  1.00  0.00    -0.003 C 
ATOM     20  C   UNL     1      25.970  18.343  53.139  1.00  0.00     0.004 C 
ENDBRANCH  18  19
ENDBRANCH  17  18
ENDBRANCH  16  17
ENDBRANCH  15  16
ENDBRANCH  14  15
ENDBRANCH  13  14
ENDBRANCH   2  13
TORSDOF 15
ENDMDL
MODEL 4
REMARK VINA RESULT:    -3.864      3.002      5.846
REMARK INTER + INTRA:         -10.232
REMARK INTER:                  -7.538
REMARK INTRA:                  -2.693
REMARK UNBOUND:                -2.980
REMARK SMILES CCCCCCCCC=CCCCCCCCC(=O)[O-]
REMARK SMILES IDX 10 1 9 2 11 3 12 4 13 5 14 6 15 7 16 8 17 9 18 10 19 11
REMARK SMILES IDX 20 12 8 13 7 14 6 15 5 16 4 17 3 18 2 19 1 20
REMARK H PARENT
REMARK Flexibility Score: inf
ROOT
ATOM      1  C   UNL     1      27.665  19.914  56.777  1.00  0.00    -0.031 C 
ATOM      2  C   UNL     1      27.342  18.649  57.109  1.00  0.00    -0.031 C 
ENDROOT
BRANCH   1   3
ATOM      3  C   UNL     1      28.993  20.577  57.061  1.00  0.00     0.027 C 
BRANCH   3   4
ATOM      4  C   UNL     1      29.412  21.498  55.909  1.00  0.00     0.004 C 
BRANCH   4   5
ATOM      5  C   UNL     1      28.243  21.796  54.956  1.00  0.00     0.000 C 
BRANCH   5   6
ATOM      6  C   UNL     1      28.399  21.085  53.596  1.00  0.00     0.000 C 
BRANCH   6   7
ATOM      7  C   UNL     1      27.133  20.339  53.134  1.00  0.00     0.000 C 
BRANCH   7   8
ATOM      8  C   UNL     1      27.372  18.899  52.648  1.00  0.00     0.006 C 
BRANCH   8   9
ATOM      9  C   UNL     1      26.981  17.844  53.693  1.00  0.00     0.053 C 
BRANCH   9  10
ATOM     10  C   UNL     1      25.494  17.706  53.771  1.00  0.00     0.041 C 
ATOM     11  O   UNL     1      24.933  17.503  54.881  1.00  0.00    -0.550 OA
ATOM     12  O   UNL     1      24.722  17.814  52.619  1.00  0.00    -0.550 OA
ENDBRANCH   9  10
ENDBRANCH   8   9
ENDBRANCH   7   8
ENDBRANCH   6   7
ENDBRANCH   5   6
ENDBRANCH   4   5
ENDBRANCH   3   4
ENDBRANCH   1   3
BRANCH   2  13
ATOM     13  C   UNL     1      28.260  17.679  57.812  1.00  0.00     0.027 C 
BRANCH  13  14
ATOM     14  C   UNL     1      28.077  16.225  57.334  1.00  0.00     0.004 C 
BRANCH  14  15
ATOM     15  C   UNL     1      29.360  15.580  56.781  1.00  0.00     0.000 C 
BRANCH  15  16
ATOM     16  C   UNL     1      30.476  16.603  56.507  1.00  0.00     0.000 C 
BRANCH  16  17
ATOM     17  C   UNL     1      30.755  16.779  55.005  1.00  0.00    -0.000 C 
BRANCH  17  18
ATOM     18  C   UNL     1      30.552  18.226  54.532  1.00  0.00    -0.000 C 
BRANCH  18  19
ATOM     19  C   UNL     1      31.749  19.106  54.914  1.00  0.00    -0.003 C 
ATOM     20  C   UNL     1      32.940  18.846  53.995  1.00  0.00     0.004 C 
ENDBRANCH  18  19
ENDBRANCH  17  18
ENDBRANCH  16  17
ENDBRANCH  15  16
ENDBRANCH  14  15
ENDBRANCH  13  14
ENDBRANCH   2  13
TORSDOF 15
ENDMDL
MODEL 5
REMARK VINA RESULT:    -3.862      3.169      4.840
REMARK INTER + INTRA:         -10.229
REMARK INTER:                  -7.280
REMARK INTRA:                  -2.949
REMARK UNBOUND:                -2.980
REMARK SMILES CCCCCCCCC=CCCCCCCCC(=O)[O-]
REMARK SMILES IDX 10 1 9 2 11 3 12 4 13 5 14 6 15 7 16 8 17 9 18 10 19 11
REMARK SMILES IDX 20 12 8 13 7 14 6 15 5 16 4 17 3 18 2 19 1 20
REMARK H PARENT
REMARK Flexibility Score: inf
ROOT
ATOM      1  C   UNL     1      27.272  18.587  57.299  1.00  0.00    -0.031 C 
ATOM      2  C   UNL     1      27.511  19.794  56.750  1.00  0.00    -0.031 C 
ENDROOT
BRANCH   1   3
ATOM      3  C   UNL     1      28.247  17.811  58.154  1.00  0.00     0.027 C 
BRANCH   3   4
ATOM      4  C   UNL     1      29.221  17.002  57.290  1.00  0.00     0.004 C 
BRANCH   4   5
ATOM      5  C   UNL     1      28.670  15.606  56.952  1.00  0.00     0.000 C 
BRANCH   5   6
ATOM      6  C   UNL     1      28.224  15.493  55.480  1.00  0.00     0.000 C 
BRANCH   6   7
ATOM      7  C   UNL     1      28.888  16.523  54.547  1.00  0.00     0.000 C 
BRANCH   7   8
ATOM      8  C   UNL     1      28.047  16.923  53.322  1.00  0.00     0.006 C 
BRANCH   8   9
ATOM      9  C   UNL     1      27.041  18.041  53.628  1.00  0.00     0.053 C 
BRANCH   9  10
ATOM     10  C   UNL     1      25.653  17.489  53.715  1.00  0.00     0.041 C 
ATOM     11  O   UNL     1      25.036  17.161  52.667  1.00  0.00    -0.550 OA
ATOM     12  O   UNL     1      25.043  17.325  54.953  1.00  0.00    -0.550 OA
ENDBRANCH   9  10
ENDBRANCH   8   9
ENDBRANCH   7   8
ENDBRANCH   6   7
ENDBRANCH   5   6
ENDBRANCH   4   5
ENDBRANCH   3   4
ENDBRANCH   1   3
BRANCH   2  13
ATOM     13  C   UNL     1      28.793  20.575  56.905  1.00  0.00     0.027 C 
BRANCH  13  14
ATOM     14  C   UNL     1      29.243  21.256  55.597  1.00  0.00     0.004 C 
BRANCH  14  15
ATOM     15  C   UNL     1      29.827  20.288  54.554  1.00  0.00     0.000 C 
BRANCH  15  16
ATOM     16  C   UNL     1      30.916  19.367  55.133  1.00  0.00     0.000 C 
BRANCH  16  17
ATOM     17  C   UNL     1      32.005  19.025  54.103  1.00  0.00    -0.000 C 
BRANCH  17  18
ATOM     18  C   UNL     1      32.565  17.606  54.286  1.00  0.00    -0.000 C 
BRANCH  18  19
ATOM     19  C   UNL     1      32.695  17.249  55.772  1.00  0.00    -0.003 C 
ATOM     20  C   UNL     1      32.331  15.788  56.022  1.00  0.00     0.004 C 
ENDBRANCH  18  19
ENDBRANCH  17  18
ENDBRANCH  16  17
ENDBRANCH  15  16
ENDBRANCH  14  15
ENDBRANCH  13  14
ENDBRANCH   2  13
TORSDOF 15
ENDMDL
MODEL 6
REMARK VINA RESULT:    -3.804      3.609      5.582
REMARK INTER + INTRA:         -10.121
REMARK INTER:                  -7.182
REMARK INTRA:                  -2.939
REMARK UNBOUND:                -2.980
REMARK SMILES CCCCCCCCC=CCCCCCCCC(=O)[O-]
REMARK SMILES IDX 10 1 9 2 11 3 12 4 13 5 14 6 15 7 16 8 17 9 18 10 19 11
REMARK SMILES IDX 20 12 8 13 7 14 6 15 5 16 4 17 3 18 2 19 1 20
REMARK H PARENT
REMARK Flexibility Score: inf
ROOT
ATOM      1  C   UNL     1      31.083  19.559  55.880  1.00  0.00    -0.031 C 
ATOM      2  C   UNL     1      30.321  20.625  56.191  1.00  0.00    -0.031 C 
ENDROOT
BRANCH   1   3
ATOM      3  C   UNL     1      31.209  18.952  54.502  1.00  0.00     0.027 C 
BRANCH   3   4
ATOM      4  C   UNL     1      30.189  17.826  54.295  1.00  0.00     0.004 C 
BRANCH   4   5
ATOM      5  C   UNL     1      29.083  18.225  53.302  1.00  0.00     0.000 C 
BRANCH   5   6
ATOM      6  C   UNL     1      27.758  17.483  53.571  1.00  0.00     0.000 C 
BRANCH   6   7
ATOM      7  C   UNL     1      26.624  17.863  52.601  1.00  0.00     0.000 C 
BRANCH   7   8
ATOM      8  C   UNL     1      25.934  19.204  52.906  1.00  0.00     0.006 C 
BRANCH   8   9
ATOM      9  C   UNL     1      26.491  20.365  52.070  1.00  0.00     0.053 C 
BRANCH   9  10
ATOM     10  C   UNL     1      25.406  20.995  51.255  1.00  0.00     0.041 C 
ATOM     11  O   UNL     1      25.200  20.613  50.073  1.00  0.00    -0.550 OA
ATOM     12  O   UNL     1      24.611  21.995  51.805  1.00  0.00    -0.550 OA
ENDBRANCH   9  10
ENDBRANCH   8   9
ENDBRANCH   7   8
ENDBRANCH   6   7
ENDBRANCH   5   6
ENDBRANCH   4   5
ENDBRANCH   3   4
ENDBRANCH   1   3
BRANCH   2  13
ATOM     13  C   UNL     1      29.471  21.397  55.211  1.00  0.00     0.027 C 
BRANCH  13  14
ATOM     14  C   UNL     1      27.963  21.130  55.384  1.00  0.00     0.004 C 
BRANCH  14  15
ATOM     15  C   UNL     1      27.598  20.415  56.697  1.00  0.00     0.000 C 
BRANCH  15  16
ATOM     16  C   UNL     1      26.745  19.153  56.475  1.00  0.00     0.000 C 
BRANCH  16  17
ATOM     17  C   UNL     1      26.954  18.102  57.578  1.00  0.00    -0.000 C 
BRANCH  17  18
ATOM     18  C   UNL     1      28.439  17.808  57.840  1.00  0.00    -0.000 C 
BRANCH  18  19
ATOM     19  C   UNL     1      28.853  16.464  57.228  1.00  0.00    -0.003 C 
ATOM     20  C   UNL     1      27.636  15.583  56.957  1.00  0.00     0.004 C 
ENDBRANCH  18  19
ENDBRANCH  17  18
ENDBRANCH  16  17
ENDBRANCH  15  16
ENDBRANCH  14  15
ENDBRANCH  13  14
ENDBRANCH   2  13
TORSDOF 15
ENDMDL
MODEL 7
REMARK VINA RESULT:    -3.768      3.412      5.239
REMARK INTER + INTRA:         -10.053
REMARK INTER:                  -7.158
REMARK INTRA:                  -2.895
REMARK UNBOUND:                -2.980
REMARK SMILES CCCCCCCCC=CCCCCCCCC(=O)[O-]
REMARK SMILES IDX 10 1 9 2 11 3 12 4 13 5 14 6 15 7 16 8 17 9 18 10 19 11
REMARK SMILES IDX 20 12 8 13 7 14 6 15 5 16 4 17 3 18 2 19 1 20
REMARK H PARENT
REMARK Flexibility Score: inf
ROOT
ATOM      1  C   UNL     1      27.543  18.257  57.471  1.00  0.00    -0.031 C 
ATOM      2  C   UNL     1      28.487  19.217  57.416  1.00  0.00    -0.031 C 
ENDROOT
BRANCH   1   3
ATOM      3  C   UNL     1      26.168  18.352  56.851  1.00  0.00     0.027 C 
BRANCH   3   4
ATOM      4  C   UNL     1      25.857  17.117  55.996  1.00  0.00     0.004 C 
BRANCH   4   5
ATOM      5  C   UNL     1      25.607  17.484  54.524  1.00  0.00     0.000 C 
BRANCH   5   6
ATOM      6  C   UNL     1      26.842  17.221  53.637  1.00  0.00     0.000 C 
BRANCH   6   7
ATOM      7  C   UNL     1      27.548  18.503  53.158  1.00  0.00     0.000 C 
BRANCH   7   8
ATOM      8  C   UNL     1      26.834  19.814  53.532  1.00  0.00     0.006 C 
BRANCH   8   9
ATOM      9  C   UNL     1      26.895  20.867  52.417  1.00  0.00     0.053 C 
BRANCH   9  10
ATOM     10  C   UNL     1      25.670  20.797  51.561  1.00  0.00     0.041 C 
ATOM     11  O   UNL     1      25.607  19.972  50.611  1.00  0.00    -0.550 OA
ATOM     12  O   UNL     1      24.590  21.634  51.818  1.00  0.00    -0.550 OA
ENDBRANCH   9  10
ENDBRANCH   8   9
ENDBRANCH   7   8
ENDBRANCH   6   7
ENDBRANCH   5   6
ENDBRANCH   4   5
ENDBRANCH   3   4
ENDBRANCH   1   3
BRANCH   2  13
ATOM     13  C   UNL     1      28.329  20.545  56.716  1.00  0.00     0.027 C 
BRANCH  13  14
ATOM     14  C   UNL     1      29.482  20.850  55.739  1.00  0.00     0.004 C 
BRANCH  14  15
ATOM     15  C   UNL     1      30.692  19.910  55.883  1.00  0.00     0.000 C 
BRANCH  15  16
ATOM     16  C   UNL     1      31.184  19.355  54.534  1.00  0.00     0.000 C 
BRANCH  16  17
ATOM     17  C   UNL     1      31.467  17.844  54.589  1.00  0.00    -0.000 C 
BRANCH  17  18
ATOM     18  C   UNL     1      30.273  17.039  55.124  1.00  0.00    -0.000 C 
BRANCH  18  19
ATOM     19  C   UNL     1      30.637  16.304  56.419  1.00  0.00    -0.003 C 
ATOM     20  C   UNL     1      29.640  15.188  56.719  1.00  0.00     0.004 C 
ENDBRANCH  18  19
ENDBRANCH  17  18
ENDBRANCH  16  17
ENDBRANCH  15  16
ENDBRANCH  14  15
ENDBRANCH  13  14
ENDBRANCH   2  13
TORSDOF 15
ENDMDL
MODEL 8
REMARK VINA RESULT:    -3.766      1.863      4.029
REMARK INTER + INTRA:         -10.049
REMARK INTER:                  -7.030
REMARK INTRA:                  -3.020
REMARK UNBOUND:                -2.980
REMARK SMILES CCCCCCCCC=CCCCCCCCC(=O)[O-]
REMARK SMILES IDX 10 1 9 2 11 3 12 4 13 5 14 6 15 7 16 8 17 9 18 10 19 11
REMARK SMILES IDX 20 12 8 13 7 14 6 15 5 16 4 17 3 18 2 19 1 20
REMARK H PARENT
REMARK Flexibility Score: inf
ROOT
ATOM      1  C   UNL     1      30.972  16.913  56.090  1.00  0.00    -0.031 C 
ATOM      2  C   UNL     1      31.024  17.922  55.199  1.00  0.00    -0.031 C 
ENDROOT
BRANCH   1   3
ATOM      3  C   UNL     1      30.343  15.562  55.839  1.00  0.00     0.027 C 
BRANCH   3   4
ATOM      4  C   UNL     1      29.257  15.252  56.876  1.00  0.00     0.004 C 
BRANCH   4   5
ATOM      5  C   UNL     1      27.946  15.999  56.577  1.00  0.00     0.000 C 
BRANCH   5   6
ATOM      6  C   UNL     1      27.492  16.882  57.758  1.00  0.00     0.000 C 
BRANCH   6   7
ATOM      7  C   UNL     1      27.091  18.311  57.348  1.00  0.00     0.000 C 
BRANCH   7   8
ATOM      8  C   UNL     1      28.263  19.299  57.215  1.00  0.00     0.006 C 
BRANCH   8   9
ATOM      9  C   UNL     1      27.911  20.532  56.370  1.00  0.00     0.053 C 
BRANCH   9  10
ATOM     10  C   UNL     1      29.146  21.301  56.023  1.00  0.00     0.041 C 
ATOM     11  O   UNL     1      30.178  21.198  56.738  1.00  0.00    -0.550 OA
ATOM     12  O   UNL     1      29.165  22.124  54.903  1.00  0.00    -0.550 OA
ENDBRANCH   9  10
ENDBRANCH   8   9
ENDBRANCH   7   8
ENDBRANCH   6   7
ENDBRANCH   5   6
ENDBRANCH   4   5
ENDBRANCH   3   4
ENDBRANCH   1   3
BRANCH   2  13
ATOM     13  C   UNL     1      30.470  17.867  53.797  1.00  0.00     0.027 C 
BRANCH  13  14
ATOM     14  C   UNL     1      28.999  18.321  53.715  1.00  0.00     0.004 C 
BRANCH  14  15
ATOM     15  C   UNL     1      28.065  17.304  53.036  1.00  0.00     0.000 C 
BRANCH  15  16
ATOM     16  C   UNL     1      26.653  17.286  53.648  1.00  0.00     0.000 C 
BRANCH  16  17
ATOM     17  C   UNL     1      25.958  18.655  53.561  1.00  0.00    -0.000 C 
BRANCH  17  18
ATOM     18  C   UNL     1      25.400  18.946  52.159  1.00  0.00    -0.000 C 
BRANCH  18  19
ATOM     19  C   UNL     1      26.125  20.130  51.510  1.00  0.00    -0.003 C 
ATOM     20  C   UNL     1      26.804  21.004  52.561  1.00  0.00     0.004 C 
ENDBRANCH  18  19
ENDBRANCH  17  18
ENDBRANCH  16  17
ENDBRANCH  15  16
ENDBRANCH  14  15
ENDBRANCH  13  14
ENDBRANCH   2  13
TORSDOF 15
ENDMDL
MODEL 9
REMARK VINA RESULT:    -3.744      2.907      4.794
REMARK INTER + INTRA:         -10.007
REMARK INTER:                  -7.097
REMARK INTRA:                  -2.910
REMARK UNBOUND:                -2.980
REMARK SMILES CCCCCCCCC=CCCCCCCCC(=O)[O-]
REMARK SMILES IDX 10 1 9 2 11 3 12 4 13 5 14 6 15 7 16 8 17 9 18 10 19 11
REMARK SMILES IDX 20 12 8 13 7 14 6 15 5 16 4 17 3 18 2 19 1 20
REMARK H PARENT
REMARK Flexibility Score: inf
ROOT
ATOM      1  C   UNL     1      28.678  17.310  57.919  1.00  0.00    -0.031 C 
ATOM      2  C   UNL     1      28.184  18.563  57.867  1.00  0.00    -0.031 C 
ENDROOT
BRANCH   1   3
ATOM      3  C   UNL     1      28.605  16.298  56.799  1.00  0.00     0.027 C 
BRANCH   3   4
ATOM      4  C   UNL     1      30.005  15.880  56.336  1.00  0.00     0.004 C 
BRANCH   4   5
ATOM      5  C   UNL     1      30.095  15.767  54.804  1.00  0.00     0.000 C 
BRANCH   5   6
ATOM      6  C   UNL     1      28.768  16.139  54.110  1.00  0.00     0.000 C 
BRANCH   6   7
ATOM      7  C   UNL     1      28.880  17.344  53.158  1.00  0.00     0.000 C 
BRANCH   7   8
ATOM      8  C   UNL     1      27.648  18.265  53.132  1.00  0.00     0.006 C 
BRANCH   8   9
ATOM      9  C   UNL     1      27.406  18.899  51.755  1.00  0.00     0.053 C 
BRANCH   9  10
ATOM     10  C   UNL     1      26.670  20.194  51.894  1.00  0.00     0.041 C 
ATOM     11  O   UNL     1      25.648  20.420  51.193  1.00  0.00    -0.550 OA
ATOM     12  O   UNL     1      27.103  21.148  52.808  1.00  0.00    -0.550 OA
ENDBRANCH   9  10
ENDBRANCH   8   9
ENDBRANCH   7   8
ENDBRANCH   6   7
ENDBRANCH   5   6
ENDBRANCH   4   5
ENDBRANCH   3   4
ENDBRANCH   1   3
BRANCH   2  13
ATOM     13  C   UNL     1      27.483  19.166  56.675  1.00  0.00     0.027 C 
BRANCH  13  14
ATOM     14  C   UNL     1      27.844  20.648  56.453  1.00  0.00     0.004 C 
BRANCH  14  15
ATOM     15  C   UNL     1      29.352  20.909  56.289  1.00  0.00     0.000 C 
BRANCH  15  16
ATOM     16  C   UNL     1      29.944  20.237  55.037  1.00  0.00     0.000 C 
BRANCH  16  17
ATOM     17  C   UNL     1      31.159  19.353  55.365  1.00  0.00    -0.000 C 
BRANCH  17  18
ATOM     18  C   UNL     1      32.043  19.087  54.137  1.00  0.00    -0.000 C 
BRANCH  18  19
ATOM     19  C   UNL     1      33.013  17.927  54.395  1.00  0.00    -0.003 C 
ATOM     20  C   UNL     1      33.252  17.729  55.889  1.00  0.00     0.004 C 
ENDBRANCH  18  19
ENDBRANCH  17  18
ENDBRANCH  16  17
ENDBRANCH  15  16
ENDBRANCH  14  15
ENDBRANCH  13  14
ENDBRANCH   2  13
TORSDOF 15
ENDMDL
