MODEL 1
REMARK VINA RESULT:    -5.297      0.000      0.000
REMARK INTER + INTRA:          -8.934
REMARK INTER:                  -8.394
REMARK INTRA:                  -0.541
REMARK UNBOUND:                -0.541
REMARK SMILES CCCCCCCCCCCC(=O)[O-]
REMARK SMILES IDX 7 1 8 2 9 3 10 4 11 5 12 6 13 7 14 8 6 9 5 10 4 11 3 12 2 13
REMARK SMILES IDX 1 14
REMARK H PARENT
REMARK Flexibility Score: inf
ROOT
ATOM      1  C   UNL     1      -2.771  26.867  56.269  1.00  0.00     0.000 C 
ENDROOT
BRANCH   1   2
ATOM      2  C   UNL     1      -1.575  27.830  56.328  1.00  0.00     0.000 C 
BRANCH   2   3
ATOM      3  C   UNL     1      -2.004  29.307  56.299  1.00  0.00     0.000 C 
BRANCH   3   4
ATOM      4  C   UNL     1      -2.526  29.803  57.661  1.00  0.00     0.006 C 
BRANCH   4   5
ATOM      5  C   UNL     1      -4.016  30.181  57.671  1.00  0.00     0.053 C 
BRANCH   5   6
ATOM      6  C   UNL     1      -4.504  30.510  59.048  1.00  0.00     0.041 C 
ATOM      7  O   UNL     1      -3.984  31.456  59.697  1.00  0.00    -0.550 OA
ATOM      8  O   UNL     1      -5.557  29.792  59.603  1.00  0.00    -0.550 OA
ENDBRANCH   5   6
ENDBRANCH   4   5
ENDBRANCH   3   4
ENDBRANCH   2   3
ENDBRANCH   1   2
BRANCH   1   9
ATOM      9  C   UNL     1      -3.848  27.319  55.266  1.00  0.00     0.000 C 
BRANCH   9  10
ATOM     10  C   UNL     1      -3.741  26.593  53.914  1.00  0.00    -0.000 C 
BRANCH  10  11
ATOM     11  C   UNL     1      -2.349  25.979  53.684  1.00  0.00    -0.000 C 
BRANCH  11  12
ATOM     12  C   UNL     1      -1.746  26.378  52.326  1.00  0.00    -0.000 C 
BRANCH  12  13
ATOM     13  C   UNL     1      -2.804  26.487  51.218  1.00  0.00    -0.003 C 
ATOM     14  C   UNL     1      -2.227  27.155  49.973  1.00  0.00     0.004 C 
ENDBRANCH  12  13
ENDBRANCH  11  12
ENDBRANCH  10  11
ENDBRANCH   9  10
ENDBRANCH   1   9
TORSDOF 10
ENDMDL
MODEL 2
REMARK VINA RESULT:    -5.233      1.266      2.006
REMARK INTER + INTRA:          -8.833
REMARK INTER:                  -8.383
REMARK INTRA:                  -0.451
REMARK UNBOUND:                -0.541
REMARK SMILES CCCCCCCCCCCC(=O)[O-]
REMARK SMILES IDX 7 1 8 2 9 3 10 4 11 5 12 6 13 7 14 8 6 9 5 10 4 11 3 12 2 13
REMARK SMILES IDX 1 14
REMARK H PARENT
REMARK Flexibility Score: inf
ROOT
ATOM      1  C   UNL     1      -2.431  27.162  54.871  1.00  0.00     0.000 C 
ENDROOT
BRANCH   1   2
ATOM      2  C   UNL     1      -3.529  27.035  55.938  1.00  0.00     0.000 C 
BRANCH   2   3
ATOM      3  C   UNL     1      -4.679  28.034  55.724  1.00  0.00     0.000 C 
BRANCH   3   4
ATOM      4  C   UNL     1      -4.970  28.885  56.974  1.00  0.00     0.006 C 
BRANCH   4   5
ATOM      5  C   UNL     1      -3.836  29.847  57.366  1.00  0.00     0.053 C 
BRANCH   5   6
ATOM      6  C   UNL     1      -4.246  30.783  58.461  1.00  0.00     0.041 C 
ATOM      7  O   UNL     1      -4.000  32.014  58.368  1.00  0.00    -0.550 OA
ATOM      8  O   UNL     1      -4.928  30.299  59.571  1.00  0.00    -0.550 OA
ENDBRANCH   5   6
ENDBRANCH   4   5
ENDBRANCH   3   4
ENDBRANCH   2   3
ENDBRANCH   1   2
BRANCH   1   9
ATOM      9  C   UNL     1      -2.002  25.800  54.295  1.00  0.00     0.000 C 
BRANCH   9  10
ATOM     10  C   UNL     1      -0.500  25.740  53.972  1.00  0.00    -0.000 C 
BRANCH  10  11
ATOM     11  C   UNL     1      -0.224  25.267  52.535  1.00  0.00    -0.000 C 
BRANCH  11  12
ATOM     12  C   UNL     1      -1.351  25.649  51.561  1.00  0.00    -0.000 C 
BRANCH  12  13
ATOM     13  C   UNL     1      -0.907  26.688  50.521  1.00  0.00    -0.003 C 
ATOM     14  C   UNL     1      -2.112  27.367  49.875  1.00  0.00     0.004 C 
ENDBRANCH  12  13
ENDBRANCH  11  12
ENDBRANCH  10  11
ENDBRANCH   9  10
ENDBRANCH   1   9
TORSDOF 10
ENDMDL
MODEL 3
REMARK VINA RESULT:    -5.064      2.476      3.751
REMARK INTER + INTRA:          -8.565
REMARK INTER:                  -8.208
REMARK INTRA:                  -0.357
REMARK UNBOUND:                -0.541
REMARK SMILES CCCCCCCCCCCC(=O)[O-]
REMARK SMILES IDX 7 1 8 2 9 3 10 4 11 5 12 6 13 7 14 8 6 9 5 10 4 11 3 12 2 13
REMARK SMILES IDX 1 14
REMARK H PARENT
REMARK Flexibility Score: inf
ROOT
ATOM      1  C   UNL     1      -4.222  29.760  57.151  1.00  0.00     0.000 C 
ENDROOT
BRANCH   1   2
ATOM      2  C   UNL     1      -3.332  30.411  58.222  1.00  0.00     0.000 C 
BRANCH   2   3
ATOM      3  C   UNL     1      -4.127  31.315  59.180  1.00  0.00     0.000 C 
BRANCH   3   4
ATOM      4  C   UNL     1      -3.218  32.189  60.065  1.00  0.00     0.006 C 
BRANCH   4   5
ATOM      5  C   UNL     1      -3.661  32.282  61.534  1.00  0.00     0.053 C 
BRANCH   5   6
ATOM      6  C   UNL     1      -2.873  33.303  62.297  1.00  0.00     0.041 C 
ATOM      7  O   UNL     1      -2.200  34.172  61.682  1.00  0.00    -0.550 OA
ATOM      8  O   UNL     1      -2.908  33.314  63.686  1.00  0.00    -0.550 OA
ENDBRANCH   5   6
ENDBRANCH   4   5
ENDBRANCH   3   4
ENDBRANCH   2   3
ENDBRANCH   1   2
BRANCH   1   9
ATOM      9  C   UNL     1      -3.432  28.843  56.200  1.00  0.00     0.000 C 
BRANCH   9  10
ATOM     10  C   UNL     1      -4.295  27.714  55.613  1.00  0.00    -0.000 C 
BRANCH  10  11
ATOM     11  C   UNL     1      -3.482  26.441  55.321  1.00  0.00    -0.000 C 
BRANCH  11  12
ATOM     12  C   UNL     1      -3.048  26.343  53.849  1.00  0.00    -0.000 C 
BRANCH  12  13
ATOM     13  C   UNL     1      -1.523  26.282  53.684  1.00  0.00    -0.003 C 
ATOM     14  C   UNL     1      -0.841  25.946  55.008  1.00  0.00     0.004 C 
ENDBRANCH  12  13
ENDBRANCH  11  12
ENDBRANCH  10  11
ENDBRANCH   9  10
ENDBRANCH   1   9
TORSDOF 10
ENDMDL
MODEL 4
REMARK VINA RESULT:    -5.061      2.179      2.969
REMARK INTER + INTRA:          -8.560
REMARK INTER:                  -8.190
REMARK INTRA:                  -0.370
REMARK UNBOUND:                -0.541
REMARK SMILES CCCCCCCCCCCC(=O)[O-]
REMARK SMILES IDX 7 1 8 2 9 3 10 4 11 5 12 6 13 7 14 8 6 9 5 10 4 11 3 12 2 13
REMARK SMILES IDX 1 14
REMARK H PARENT
REMARK Flexibility Score: inf
ROOT
ATOM      1  C   UNL     1      -3.972  26.994  54.883  1.00  0.00     0.000 C 
ENDROOT
BRANCH   1   2
ATOM      2  C   UNL     1      -4.104  28.052  55.991  1.00  0.00     0.000 C 
BRANCH   2   3
ATOM      3  C   UNL     1      -2.849  28.932  56.119  1.00  0.00     0.000 C 
BRANCH   3   4
ATOM      4  C   UNL     1      -2.760  29.649  57.480  1.00  0.00     0.006 C 
BRANCH   4   5
ATOM      5  C   UNL     1      -4.116  30.077  58.062  1.00  0.00     0.053 C 
BRANCH   5   6
ATOM      6  C   UNL     1      -4.080  31.473  58.604  1.00  0.00     0.041 C 
ATOM      7  O   UNL     1      -4.320  32.452  57.850  1.00  0.00    -0.550 OA
ATOM      8  O   UNL     1      -3.813  31.690  59.950  1.00  0.00    -0.550 OA
ENDBRANCH   5   6
ENDBRANCH   4   5
ENDBRANCH   3   4
ENDBRANCH   2   3
ENDBRANCH   1   2
BRANCH   1   9
ATOM      9  C   UNL     1      -2.767  26.061  55.094  1.00  0.00     0.000 C 
BRANCH   9  10
ATOM     10  C   UNL     1      -1.675  26.252  54.028  1.00  0.00    -0.000 C 
BRANCH  10  11
ATOM     11  C   UNL     1      -0.350  25.570  54.411  1.00  0.00    -0.000 C 
BRANCH  11  12
ATOM     12  C   UNL     1       0.326  24.881  53.214  1.00  0.00    -0.000 C 
BRANCH  12  13
ATOM     13  C   UNL     1       1.730  24.357  53.549  1.00  0.00    -0.003 C 
ATOM     14  C   UNL     1       1.669  22.931  54.090  1.00  0.00     0.004 C 
ENDBRANCH  12  13
ENDBRANCH  11  12
ENDBRANCH  10  11
ENDBRANCH   9  10
ENDBRANCH   1   9
TORSDOF 10
ENDMDL
MODEL 5
REMARK VINA RESULT:    -5.056      3.891      7.388
REMARK INTER + INTRA:          -8.552
REMARK INTER:                  -8.089
REMARK INTRA:                  -0.464
REMARK UNBOUND:                -0.541
REMARK SMILES CCCCCCCCCCCC(=O)[O-]
REMARK SMILES IDX 7 1 8 2 9 3 10 4 11 5 12 6 13 7 14 8 6 9 5 10 4 11 3 12 2 13
REMARK SMILES IDX 1 14
REMARK H PARENT
REMARK Flexibility Score: inf
ROOT
ATOM      1  C   UNL     1      -2.233  28.568  56.595  1.00  0.00     0.000 C 
ENDROOT
BRANCH   1   2
ATOM      2  C   UNL     1      -1.923  27.237  55.890  1.00  0.00     0.000 C 
BRANCH   2   3
ATOM      3  C   UNL     1      -3.195  26.467  55.497  1.00  0.00     0.000 C 
BRANCH   3   4
ATOM      4  C   UNL     1      -3.490  26.536  53.987  1.00  0.00     0.006 C 
BRANCH   4   5
ATOM      5  C   UNL     1      -2.258  26.337  53.089  1.00  0.00     0.053 C 
BRANCH   5   6
ATOM      6  C   UNL     1      -2.625  26.256  51.639  1.00  0.00     0.041 C 
ATOM      7  O   UNL     1      -3.835  26.262  51.290  1.00  0.00    -0.550 OA
ATOM      8  O   UNL     1      -1.630  26.208  50.671  1.00  0.00    -0.550 OA
ENDBRANCH   5   6
ENDBRANCH   4   5
ENDBRANCH   3   4
ENDBRANCH   2   3
ENDBRANCH   1   2
BRANCH   1   9
ATOM      9  C   UNL     1      -3.723  28.948  56.515  1.00  0.00     0.000 C 
BRANCH   9  10
ATOM     10  C   UNL     1      -4.071  30.164  57.389  1.00  0.00    -0.000 C 
BRANCH  10  11
ATOM     11  C   UNL     1      -4.866  29.777  58.648  1.00  0.00    -0.000 C 
BRANCH  11  12
ATOM     12  C   UNL     1      -4.711  30.803  59.783  1.00  0.00    -0.000 C 
BRANCH  12  13
ATOM     13  C   UNL     1      -3.548  31.777  59.544  1.00  0.00    -0.003 C 
ATOM     14  C   UNL     1      -3.175  32.510  60.830  1.00  0.00     0.004 C 
ENDBRANCH  12  13
ENDBRANCH  11  12
ENDBRANCH  10  11
ENDBRANCH   9  10
ENDBRANCH   1   9
TORSDOF 10
ENDMDL
MODEL 6
REMARK VINA RESULT:    -5.046      3.499      7.446
REMARK INTER + INTRA:          -8.536
REMARK INTER:                  -8.060
REMARK INTRA:                  -0.477
REMARK UNBOUND:                -0.541
REMARK SMILES CCCCCCCCCCCC(=O)[O-]
REMARK SMILES IDX 7 1 8 2 9 3 10 4 11 5 12 6 13 7 14 8 6 9 5 10 4 11 3 12 2 13
REMARK SMILES IDX 1 14
REMARK H PARENT
REMARK Flexibility Score: inf
ROOT
ATOM      1  C   UNL     1      -3.222  29.025  56.233  1.00  0.00     0.000 C 
ENDROOT
BRANCH   1   2
ATOM      2  C   UNL     1      -4.607  28.360  56.182  1.00  0.00     0.000 C 
BRANCH   2   3
ATOM      3  C   UNL     1      -4.625  27.103  55.295  1.00  0.00     0.000 C 
BRANCH   3   4
ATOM      4  C   UNL     1      -3.337  26.940  54.466  1.00  0.00     0.006 C 
BRANCH   4   5
ATOM      5  C   UNL     1      -2.469  25.737  54.871  1.00  0.00     0.053 C 
BRANCH   5   6
ATOM      6  C   UNL     1      -1.015  26.090  54.941  1.00  0.00     0.041 C 
ATOM      7  O   UNL     1      -0.571  26.759  55.912  1.00  0.00    -0.550 OA
ATOM      8  O   UNL     1      -0.144  25.654  53.950  1.00  0.00    -0.550 OA
ENDBRANCH   5   6
ENDBRANCH   4   5
ENDBRANCH   3   4
ENDBRANCH   2   3
ENDBRANCH   1   2
BRANCH   1   9
ATOM      9  C   UNL     1      -2.960  29.747  57.568  1.00  0.00     0.000 C 
BRANCH   9  10
ATOM     10  C   UNL     1      -4.234  30.363  58.169  1.00  0.00    -0.000 C 
BRANCH  10  11
ATOM     11  C   UNL     1      -3.969  31.717  58.850  1.00  0.00    -0.000 C 
BRANCH  11  12
ATOM     12  C   UNL     1      -3.886  31.601  60.381  1.00  0.00    -0.000 C 
BRANCH  12  13
ATOM     13  C   UNL     1      -2.941  32.639  61.003  1.00  0.00    -0.003 C 
ATOM     14  C   UNL     1      -3.012  32.602  62.527  1.00  0.00     0.004 C 
ENDBRANCH  12  13
ENDBRANCH  11  12
ENDBRANCH  10  11
ENDBRANCH   9  10
ENDBRANCH   1   9
TORSDOF 10
ENDMDL
MODEL 7
REMARK VINA RESULT:    -4.966      3.310      7.421
REMARK INTER + INTRA:          -8.409
REMARK INTER:                  -7.927
REMARK INTRA:                  -0.482
REMARK UNBOUND:                -0.541
REMARK SMILES CCCCCCCCCCCC(=O)[O-]
REMARK SMILES IDX 7 1 8 2 9 3 10 4 11 5 12 6 13 7 14 8 6 9 5 10 4 11 3 12 2 13
REMARK SMILES IDX 1 14
REMARK H PARENT
REMARK Flexibility Score: inf
ROOT
ATOM      1  C   UNL     1      -3.124  29.337  56.516  1.00  0.00     0.000 C 
ENDROOT
BRANCH   1   2
ATOM      2  C   UNL     1      -1.690  29.268  57.064  1.00  0.00     0.000 C 
BRANCH   2   3
ATOM      3  C   UNL     1      -1.001  27.929  56.747  1.00  0.00     0.000 C 
BRANCH   3   4
ATOM      4  C   UNL     1      -1.979  26.869  56.206  1.00  0.00     0.006 C 
BRANCH   4   5
ATOM      5  C   UNL     1      -1.746  26.481  54.736  1.00  0.00     0.053 C 
BRANCH   5   6
ATOM      6  C   UNL     1      -3.019  26.476  53.947  1.00  0.00     0.041 C 
ATOM      7  O   UNL     1      -2.997  26.248  52.709  1.00  0.00    -0.550 OA
ATOM      8  O   UNL     1      -4.234  26.692  54.586  1.00  0.00    -0.550 OA
ENDBRANCH   5   6
ENDBRANCH   4   5
ENDBRANCH   3   4
ENDBRANCH   2   3
ENDBRANCH   1   2
BRANCH   1   9
ATOM      9  C   UNL     1      -4.150  29.746  57.588  1.00  0.00     0.000 C 
BRANCH   9  10
ATOM     10  C   UNL     1      -3.927  31.176  58.107  1.00  0.00    -0.000 C 
BRANCH  10  11
ATOM     11  C   UNL     1      -4.159  31.297  59.623  1.00  0.00    -0.000 C 
BRANCH  11  12
ATOM     12  C   UNL     1      -3.218  32.318  60.284  1.00  0.00    -0.000 C 
BRANCH  12  13
ATOM     13  C   UNL     1      -3.422  32.413  61.803  1.00  0.00    -0.003 C 
ATOM     14  C   UNL     1      -3.125  33.822  62.309  1.00  0.00     0.004 C 
ENDBRANCH  12  13
ENDBRANCH  11  12
ENDBRANCH  10  11
ENDBRANCH   9  10
ENDBRANCH   1   9
TORSDOF 10
ENDMDL
MODEL 8
REMARK VINA RESULT:    -4.793      3.795      8.203
REMARK INTER + INTRA:          -8.135
REMARK INTER:                  -7.691
REMARK INTRA:                  -0.444
REMARK UNBOUND:                -0.541
REMARK SMILES CCCCCCCCCCCC(=O)[O-]
REMARK SMILES IDX 7 1 8 2 9 3 10 4 11 5 12 6 13 7 14 8 6 9 5 10 4 11 3 12 2 13
REMARK SMILES IDX 1 14
REMARK H PARENT
REMARK Flexibility Score: inf
ROOT
ATOM      1  C   UNL     1      -4.163  31.125  58.207  1.00  0.00     0.000 C 
ENDROOT
BRANCH   1   2
ATOM      2  C   UNL     1      -3.609  29.966  57.363  1.00  0.00     0.000 C 
BRANCH   2   3
ATOM      3  C   UNL     1      -4.705  28.979  56.925  1.00  0.00     0.000 C 
BRANCH   3   4
ATOM      4  C   UNL     1      -4.296  28.142  55.698  1.00  0.00     0.006 C 
BRANCH   4   5
ATOM      5  C   UNL     1      -3.208  27.093  55.978  1.00  0.00     0.053 C 
BRANCH   5   6
ATOM      6  C   UNL     1      -2.644  26.517  54.716  1.00  0.00     0.041 C 
ATOM      7  O   UNL     1      -3.326  26.521  53.657  1.00  0.00    -0.550 OA
ATOM      8  O   UNL     1      -1.353  26.004  54.701  1.00  0.00    -0.550 OA
ENDBRANCH   5   6
ENDBRANCH   4   5
ENDBRANCH   3   4
ENDBRANCH   2   3
ENDBRANCH   1   2
BRANCH   1   9
ATOM      9  C   UNL     1      -4.589  30.681  59.618  1.00  0.00     0.000 C 
BRANCH   9  10
ATOM     10  C   UNL     1      -4.094  31.638  60.715  1.00  0.00    -0.000 C 
BRANCH  10  11
ATOM     11  C   UNL     1      -2.893  32.486  60.260  1.00  0.00    -0.000 C 
BRANCH  11  12
ATOM     12  C   UNL     1      -2.141  33.124  61.439  1.00  0.00    -0.000 C 
BRANCH  12  13
ATOM     13  C   UNL     1      -2.612  32.592  62.800  1.00  0.00    -0.003 C 
ATOM     14  C   UNL     1      -2.941  33.737  63.753  1.00  0.00     0.004 C 
ENDBRANCH  12  13
ENDBRANCH  11  12
ENDBRANCH  10  11
ENDBRANCH   9  10
ENDBRANCH   1   9
TORSDOF 10
ENDMDL
MODEL 9
REMARK VINA RESULT:    -4.792      2.552      3.962
REMARK INTER + INTRA:          -8.134
REMARK INTER:                  -7.636
REMARK INTRA:                  -0.498
REMARK UNBOUND:                -0.541
REMARK SMILES CCCCCCCCCCCC(=O)[O-]
REMARK SMILES IDX 7 1 8 2 9 3 10 4 11 5 12 6 13 7 14 8 6 9 5 10 4 11 3 12 2 13
REMARK SMILES IDX 1 14
REMARK H PARENT
REMARK Flexibility Score: inf
ROOT
ATOM      1  C   UNL     1      -1.745  26.966  55.459  1.00  0.00     0.000 C 
ENDROOT
BRANCH   1   2
ATOM      2  C   UNL     1      -3.216  26.703  55.820  1.00  0.00     0.000 C 
BRANCH   2   3
ATOM      3  C   UNL     1      -4.142  27.858  55.402  1.00  0.00     0.000 C 
BRANCH   3   4
ATOM      4  C   UNL     1      -4.653  28.677  56.603  1.00  0.00     0.006 C 
BRANCH   4   5
ATOM      5  C   UNL     1      -3.680  29.762  57.092  1.00  0.00     0.053 C 
BRANCH   5   6
ATOM      6  C   UNL     1      -4.282  30.614  58.167  1.00  0.00     0.041 C 
ATOM      7  O   UNL     1      -4.891  30.082  59.132  1.00  0.00    -0.550 OA
ATOM      8  O   UNL     1      -4.142  31.996  58.120  1.00  0.00    -0.550 OA
ENDBRANCH   5   6
ENDBRANCH   4   5
ENDBRANCH   3   4
ENDBRANCH   2   3
ENDBRANCH   1   2
BRANCH   1   9
ATOM      9  C   UNL     1      -1.264  26.112  54.271  1.00  0.00     0.000 C 
BRANCH   9  10
ATOM     10  C   UNL     1      -0.200  25.079  54.677  1.00  0.00    -0.000 C 
BRANCH  10  11
ATOM     11  C   UNL     1       1.134  25.285  53.940  1.00  0.00    -0.000 C 
BRANCH  11  12
ATOM     12  C   UNL     1       2.309  25.528  54.902  1.00  0.00    -0.000 C 
BRANCH  12  13
ATOM     13  C   UNL     1       1.954  26.502  56.035  1.00  0.00    -0.003 C 
ATOM     14  C   UNL     1       3.031  26.501  57.116  1.00  0.00     0.004 C 
ENDBRANCH  12  13
ENDBRANCH  11  12
ENDBRANCH  10  11
ENDBRANCH   9  10
ENDBRANCH   1   9
TORSDOF 10
ENDMDL
