MODEL 1
REMARK VINA RESULT:    -6.788      0.000      0.000
REMARK INTER + INTRA:          -8.272
REMARK INTER:                  -7.979
REMARK INTRA:                  -0.294
REMARK UNBOUND:                -0.294
REMARK SMILES O=c1c(O)c(-c2ccc(O)cc2)oc2cc(O)cc(O)c12
REMARK SMILES IDX 5 1 3 2 2 3 1 4 21 5 19 6 18 7 16 8 15 9 14 10 13 11 6 12
REMARK SMILES IDX 7 13 8 14 9 15 12 16 11 17 10 18 4 20 20 22 17 24
REMARK H PARENT 10 19 4 21 20 23 17 25
REMARK Flexibility Score: inf
ROOT
ATOM      1  C   UNL     1      21.366   5.345  31.749  1.00  0.00     0.180 A 
ATOM      2  C   UNL     1      20.042   5.785  31.920  1.00  0.00     0.208 A 
ATOM      3  C   UNL     1      19.528   6.753  31.043  1.00  0.00     0.238 A 
ATOM      4  O   UNL     1      18.325   7.104  31.167  1.00  0.00    -0.285 OA
ATOM      5  C   UNL     1      20.348   7.281  30.017  1.00  0.00     0.111 A 
ATOM      6  C   UNL     1      19.943   8.294  29.097  1.00  0.00     0.134 A 
ATOM      7  C   UNL     1      20.792   8.647  28.041  1.00  0.00     0.093 A 
ATOM      8  C   UNL     1      22.055   8.072  27.910  1.00  0.00     0.123 A 
ATOM      9  C   UNL     1      22.485   7.123  28.838  1.00  0.00     0.094 A 
ATOM     10  C   UNL     1      21.647   6.724  29.881  1.00  0.00     0.146 A 
ATOM     11  O   UNL     1      22.089   5.810  30.736  1.00  0.00    -0.452 OA
ENDROOT
BRANCH   1  12
ATOM     12  C   UNL     1      21.987   4.345  32.648  1.00  0.00     0.021 A 
ATOM     13  C   UNL     1      22.717   4.737  33.786  1.00  0.00     0.016 A 
ATOM     14  C   UNL     1      23.316   3.777  34.607  1.00  0.00     0.047 A 
ATOM     15  C   UNL     1      23.205   2.418  34.296  1.00  0.00     0.115 A 
ATOM     16  C   UNL     1      21.899   2.980  32.331  1.00  0.00     0.016 A 
ATOM     17  C   UNL     1      22.497   2.022  33.155  1.00  0.00     0.047 A 
BRANCH  15  18
ATOM     18  O   UNL     1      23.806   1.472  35.125  1.00  0.00    -0.508 OA
ATOM     19  H   UNL     1      23.590   1.422  36.114  1.00  0.00     0.293 HD
ENDBRANCH  15  18
ENDBRANCH   1  12
BRANCH   2  20
ATOM     20  O   UNL     1      19.243   5.235  32.926  1.00  0.00    -0.502 OA
ATOM     21  H   UNL     1      18.485   4.592  32.729  1.00  0.00     0.293 HD
ENDBRANCH   2  20
BRANCH   6  22
ATOM     22  O   UNL     1      18.739   8.999  29.192  1.00  0.00    -0.507 OA
ATOM     23  H   UNL     1      18.379   9.620  28.483  1.00  0.00     0.293 HD
ENDBRANCH   6  22
BRANCH   8  24
ATOM     24  O   UNL     1      22.880   8.459  26.855  1.00  0.00    -0.508 OA
ATOM     25  H   UNL     1      22.650   9.250  26.264  1.00  0.00     0.293 HD
ENDBRANCH   8  24
TORSDOF 5
ENDMDL
MODEL 2
REMARK VINA RESULT:    -6.559     10.444     12.733
REMARK INTER + INTRA:          -8.003
REMARK INTER:                  -7.776
REMARK INTRA:                  -0.228
REMARK UNBOUND:                -0.294
REMARK SMILES O=c1c(O)c(-c2ccc(O)cc2)oc2cc(O)cc(O)c12
REMARK SMILES IDX 5 1 3 2 2 3 1 4 21 5 19 6 18 7 16 8 15 9 14 10 13 11 6 12
REMARK SMILES IDX 7 13 8 14 9 15 12 16 11 17 10 18 4 20 20 22 17 24
REMARK H PARENT 10 19 4 21 20 23 17 25
REMARK Flexibility Score: inf
ROOT
ATOM      1  C   UNL     1      27.150   1.451  23.137  1.00  0.00     0.180 A 
ATOM      2  C   UNL     1      26.569   1.124  21.900  1.00  0.00     0.208 A 
ATOM      3  C   UNL     1      27.056   0.013  21.192  1.00  0.00     0.238 A 
ATOM      4  O   UNL     1      26.497  -0.306  20.110  1.00  0.00    -0.285 OA
ATOM      5  C   UNL     1      28.125  -0.747  21.723  1.00  0.00     0.111 A 
ATOM      6  C   UNL     1      28.723  -1.868  21.073  1.00  0.00     0.134 A 
ATOM      7  C   UNL     1      29.688  -2.625  21.749  1.00  0.00     0.093 A 
ATOM      8  C   UNL     1      30.122  -2.264  23.023  1.00  0.00     0.123 A 
ATOM      9  C   UNL     1      29.587  -1.135  23.645  1.00  0.00     0.094 A 
ATOM     10  C   UNL     1      28.598  -0.381  23.010  1.00  0.00     0.146 A 
ATOM     11  O   UNL     1      28.107   0.679  23.640  1.00  0.00    -0.452 OA
ENDROOT
BRANCH   1  12
ATOM     12  C   UNL     1      26.708   2.621  23.931  1.00  0.00     0.021 A 
ATOM     13  C   UNL     1      25.500   2.604  24.652  1.00  0.00     0.016 A 
ATOM     14  C   UNL     1      25.092   3.729  25.374  1.00  0.00     0.047 A 
ATOM     15  C   UNL     1      25.875   4.887  25.375  1.00  0.00     0.115 A 
ATOM     16  C   UNL     1      27.478   3.796  23.919  1.00  0.00     0.016 A 
ATOM     17  C   UNL     1      27.068   4.919  24.643  1.00  0.00     0.047 A 
BRANCH  15  18
ATOM     18  O   UNL     1      25.455   6.000  26.101  1.00  0.00    -0.508 OA
ATOM     19  H   UNL     1      25.948   6.306  26.932  1.00  0.00     0.293 HD
ENDBRANCH  15  18
ENDBRANCH   1  12
BRANCH   2  20
ATOM     20  O   UNL     1      25.500   1.875  21.404  1.00  0.00    -0.502 OA
ATOM     21  H   UNL     1      24.723   2.166  21.985  1.00  0.00     0.293 HD
ENDBRANCH   2  20
BRANCH   6  22
ATOM     22  O   UNL     1      28.428  -2.260  19.763  1.00  0.00    -0.507 OA
ATOM     23  H   UNL     1      27.795  -1.774  19.147  1.00  0.00     0.293 HD
ENDBRANCH   6  22
BRANCH   8  24
ATOM     24  O   UNL     1      31.096  -3.032  23.661  1.00  0.00    -0.508 OA
ATOM     25  H   UNL     1      31.638  -2.664  24.433  1.00  0.00     0.293 HD
ENDBRANCH   8  24
TORSDOF 5
ENDMDL
MODEL 3
REMARK VINA RESULT:    -6.144      9.098     11.134
REMARK INTER + INTRA:          -7.516
REMARK INTER:                  -7.220
REMARK INTRA:                  -0.295
REMARK UNBOUND:                -0.294
REMARK SMILES O=c1c(O)c(-c2ccc(O)cc2)oc2cc(O)cc(O)c12
REMARK SMILES IDX 5 1 3 2 2 3 1 4 21 5 19 6 18 7 16 8 15 9 14 10 13 11 6 12
REMARK SMILES IDX 7 13 8 14 9 15 12 16 11 17 10 18 4 20 20 22 17 24
REMARK H PARENT 10 19 4 21 20 23 17 25
REMARK Flexibility Score: inf
ROOT
ATOM      1  C   UNL     1      27.390   1.634  23.379  1.00  0.00     0.180 A 
ATOM      2  C   UNL     1      27.926   2.927  23.253  1.00  0.00     0.208 A 
ATOM      3  C   UNL     1      27.320   3.987  23.947  1.00  0.00     0.238 A 
ATOM      4  O   UNL     1      27.836   5.132  23.872  1.00  0.00    -0.285 OA
ATOM      5  C   UNL     1      26.177   3.743  24.745  1.00  0.00     0.111 A 
ATOM      6  C   UNL     1      25.459   4.748  25.460  1.00  0.00     0.134 A 
ATOM      7  C   UNL     1      24.421   4.374  26.322  1.00  0.00     0.093 A 
ATOM      8  C   UNL     1      24.033   3.040  26.446  1.00  0.00     0.123 A 
ATOM      9  C   UNL     1      24.690   2.056  25.707  1.00  0.00     0.094 A 
ATOM     10  C   UNL     1      25.752   2.394  24.865  1.00  0.00     0.146 A 
ATOM     11  O   UNL     1      26.357   1.426  24.188  1.00  0.00    -0.452 OA
ENDROOT
BRANCH   1  12
ATOM     12  C   UNL     1      27.958   0.471  22.659  1.00  0.00     0.021 A 
ATOM     13  C   UNL     1      27.575   0.168  21.339  1.00  0.00     0.016 A 
ATOM     14  C   UNL     1      28.107  -0.949  20.689  1.00  0.00     0.047 A 
ATOM     15  C   UNL     1      29.014  -1.783  21.349  1.00  0.00     0.115 A 
ATOM     16  C   UNL     1      28.853  -0.384  23.323  1.00  0.00     0.016 A 
ATOM     17  C   UNL     1      29.384  -1.499  22.669  1.00  0.00     0.047 A 
BRANCH  15  18
ATOM     18  O   UNL     1      29.536  -2.892  20.687  1.00  0.00    -0.508 OA
ATOM     19  H   UNL     1      29.662  -2.897  19.681  1.00  0.00     0.293 HD
ENDBRANCH  15  18
ENDBRANCH   1  12
BRANCH   2  20
ATOM     20  O   UNL     1      29.068   3.143  22.477  1.00  0.00    -0.502 OA
ATOM     21  H   UNL     1      30.006   3.045  22.848  1.00  0.00     0.293 HD
ENDBRANCH   2  20
BRANCH   6  22
ATOM     22  O   UNL     1      25.704   6.119  25.338  1.00  0.00    -0.507 OA
ATOM     23  H   UNL     1      26.620   6.535  25.260  1.00  0.00     0.293 HD
ENDBRANCH   6  22
BRANCH   8  24
ATOM     24  O   UNL     1      22.985   2.706  27.302  1.00  0.00    -0.508 OA
ATOM     25  H   UNL     1      23.031   1.890  27.902  1.00  0.00     0.293 HD
ENDBRANCH   8  24
TORSDOF 5
ENDMDL
MODEL 4
REMARK VINA RESULT:    -6.077      8.575     10.782
REMARK INTER + INTRA:          -7.437
REMARK INTER:                  -7.155
REMARK INTRA:                  -0.282
REMARK UNBOUND:                -0.294
REMARK SMILES O=c1c(O)c(-c2ccc(O)cc2)oc2cc(O)cc(O)c12
REMARK SMILES IDX 5 1 3 2 2 3 1 4 21 5 19 6 18 7 16 8 15 9 14 10 13 11 6 12
REMARK SMILES IDX 7 13 8 14 9 15 12 16 11 17 10 18 4 20 20 22 17 24
REMARK H PARENT 10 19 4 21 20 23 17 25
REMARK Flexibility Score: inf
ROOT
ATOM      1  C   UNL     1      27.498   3.140  23.683  1.00  0.00     0.180 A 
ATOM      2  C   UNL     1      26.294   3.499  24.314  1.00  0.00     0.208 A 
ATOM      3  C   UNL     1      26.291   4.579  25.211  1.00  0.00     0.238 A 
ATOM      4  O   UNL     1      25.200   4.929  25.732  1.00  0.00    -0.285 OA
ATOM      5  C   UNL     1      27.493   5.278  25.476  1.00  0.00     0.111 A 
ATOM      6  C   UNL     1      27.614   6.362  26.396  1.00  0.00     0.134 A 
ATOM      7  C   UNL     1      28.823   7.064  26.482  1.00  0.00     0.093 A 
ATOM      8  C   UNL     1      29.933   6.680  25.731  1.00  0.00     0.123 A 
ATOM      9  C   UNL     1      29.843   5.584  24.872  1.00  0.00     0.094 A 
ATOM     10  C   UNL     1      28.641   4.887  24.738  1.00  0.00     0.146 A 
ATOM     11  O   UNL     1      28.595   3.857  23.902  1.00  0.00    -0.452 OA
ENDROOT
BRANCH   1  12
ATOM     12  C   UNL     1      27.586   1.998  22.744  1.00  0.00     0.021 A 
ATOM     13  C   UNL     1      27.712   0.676  23.210  1.00  0.00     0.016 A 
ATOM     14  C   UNL     1      27.819  -0.384  22.305  1.00  0.00     0.047 A 
ATOM     15  C   UNL     1      27.815  -0.139  20.929  1.00  0.00     0.115 A 
ATOM     16  C   UNL     1      27.605   2.238  21.361  1.00  0.00     0.016 A 
ATOM     17  C   UNL     1      27.710   1.176  20.458  1.00  0.00     0.047 A 
BRANCH  15  18
ATOM     18  O   UNL     1      27.920  -1.206  20.040  1.00  0.00    -0.508 OA
ATOM     19  H   UNL     1      28.091  -1.057  19.052  1.00  0.00     0.293 HD
ENDBRANCH  15  18
ENDBRANCH   1  12
BRANCH   2  20
ATOM     20  O   UNL     1      25.114   2.810  24.022  1.00  0.00    -0.502 OA
ATOM     21  H   UNL     1      24.565   2.343  24.734  1.00  0.00     0.293 HD
ENDBRANCH   2  20
BRANCH   6  22
ATOM     22  O   UNL     1      26.593   6.769  27.262  1.00  0.00    -0.507 OA
ATOM     23  H   UNL     1      26.722   6.994  28.236  1.00  0.00     0.293 HD
ENDBRANCH   6  22
BRANCH   8  24
ATOM     24  O   UNL     1      31.125   7.392  25.854  1.00  0.00    -0.508 OA
ATOM     25  H   UNL     1      31.344   7.917  26.692  1.00  0.00     0.293 HD
ENDBRANCH   8  24
TORSDOF 5
ENDMDL
MODEL 5
REMARK VINA RESULT:    -6.012      2.074      6.907
REMARK INTER + INTRA:          -7.360
REMARK INTER:                  -7.098
REMARK INTRA:                  -0.263
REMARK UNBOUND:                -0.294
REMARK SMILES O=c1c(O)c(-c2ccc(O)cc2)oc2cc(O)cc(O)c12
REMARK SMILES IDX 5 1 3 2 2 3 1 4 21 5 19 6 18 7 16 8 15 9 14 10 13 11 6 12
REMARK SMILES IDX 7 13 8 14 9 15 12 16 11 17 10 18 4 20 20 22 17 24
REMARK H PARENT 10 19 4 21 20 23 17 25
REMARK Flexibility Score: inf
ROOT
ATOM      1  C   UNL     1      21.751   7.283  30.760  1.00  0.00     0.180 A 
ATOM      2  C   UNL     1      22.585   8.027  31.613  1.00  0.00     0.208 A 
ATOM      3  C   UNL     1      23.186   7.385  32.707  1.00  0.00     0.238 A 
ATOM      4  O   UNL     1      23.974   8.044  33.436  1.00  0.00    -0.285 OA
ATOM      5  C   UNL     1      22.935   6.013  32.944  1.00  0.00     0.111 A 
ATOM      6  C   UNL     1      23.460   5.272  34.045  1.00  0.00     0.134 A 
ATOM      7  C   UNL     1      23.252   3.888  34.108  1.00  0.00     0.093 A 
ATOM      8  C   UNL     1      22.485   3.231  33.147  1.00  0.00     0.123 A 
ATOM      9  C   UNL     1      21.917   3.956  32.099  1.00  0.00     0.094 A 
ATOM     10  C   UNL     1      22.137   5.331  31.989  1.00  0.00     0.146 A 
ATOM     11  O   UNL     1      21.588   5.982  30.970  1.00  0.00    -0.452 OA
ENDROOT
BRANCH   1  12
ATOM     12  C   UNL     1      21.062   7.894  29.601  1.00  0.00     0.021 A 
ATOM     13  C   UNL     1      19.701   8.250  29.661  1.00  0.00     0.016 A 
ATOM     14  C   UNL     1      19.065   8.803  28.546  1.00  0.00     0.047 A 
ATOM     15  C   UNL     1      19.773   8.995  27.355  1.00  0.00     0.115 A 
ATOM     16  C   UNL     1      21.759   8.070  28.394  1.00  0.00     0.016 A 
ATOM     17  C   UNL     1      21.121   8.625  27.281  1.00  0.00     0.047 A 
BRANCH  15  18
ATOM     18  O   UNL     1      19.125   9.549  26.253  1.00  0.00    -0.508 OA
ATOM     19  H   UNL     1      18.557   8.982  25.634  1.00  0.00     0.293 HD
ENDBRANCH  15  18
ENDBRANCH   1  12
BRANCH   2  20
ATOM     20  O   UNL     1      22.837   9.376  31.348  1.00  0.00    -0.502 OA
ATOM     21  H   UNL     1      23.265   9.993  32.028  1.00  0.00     0.293 HD
ENDBRANCH   2  20
BRANCH   6  22
ATOM     22  O   UNL     1      24.163   5.846  35.109  1.00  0.00    -0.507 OA
ATOM     23  H   UNL     1      24.500   6.796  35.129  1.00  0.00     0.293 HD
ENDBRANCH   6  22
BRANCH   8  24
ATOM     24  O   UNL     1      22.285   1.855  33.250  1.00  0.00    -0.508 OA
ATOM     25  H   UNL     1      21.545   1.469  33.824  1.00  0.00     0.293 HD
ENDBRANCH   8  24
TORSDOF 5
ENDMDL
MODEL 6
REMARK VINA RESULT:    -5.945      2.519      7.325
REMARK INTER + INTRA:          -7.282
REMARK INTER:                  -7.088
REMARK INTRA:                  -0.194
REMARK UNBOUND:                -0.294
REMARK SMILES O=c1c(O)c(-c2ccc(O)cc2)oc2cc(O)cc(O)c12
REMARK SMILES IDX 5 1 3 2 2 3 1 4 21 5 19 6 18 7 16 8 15 9 14 10 13 11 6 12
REMARK SMILES IDX 7 13 8 14 9 15 12 16 11 17 10 18 4 20 20 22 17 24
REMARK H PARENT 10 19 4 21 20 23 17 25
REMARK Flexibility Score: inf
ROOT
ATOM      1  C   UNL     1      22.410   8.162  29.889  1.00  0.00     0.180 A 
ATOM      2  C   UNL     1      23.764   8.518  29.766  1.00  0.00     0.208 A 
ATOM      3  C   UNL     1      24.692   7.992  30.678  1.00  0.00     0.238 A 
ATOM      4  O   UNL     1      25.911   8.272  30.531  1.00  0.00    -0.285 OA
ATOM      5  C   UNL     1      24.254   7.128  31.711  1.00  0.00     0.111 A 
ATOM      6  C   UNL     1      25.101   6.569  32.713  1.00  0.00     0.134 A 
ATOM      7  C   UNL     1      24.582   5.624  33.607  1.00  0.00     0.093 A 
ATOM      8  C   UNL     1      23.235   5.268  33.576  1.00  0.00     0.123 A 
ATOM      9  C   UNL     1      22.384   5.853  32.638  1.00  0.00     0.094 A 
ATOM     10  C   UNL     1      22.880   6.772  31.710  1.00  0.00     0.146 A 
ATOM     11  O   UNL     1      22.040   7.297  30.827  1.00  0.00    -0.452 OA
ENDROOT
BRANCH   1  12
ATOM     12  C   UNL     1      21.369   8.695  28.981  1.00  0.00     0.021 A 
ATOM     13  C   UNL     1      20.405   9.616  29.432  1.00  0.00     0.016 A 
ATOM     14  C   UNL     1      19.417  10.088  28.564  1.00  0.00     0.047 A 
ATOM     15  C   UNL     1      19.369   9.637  27.241  1.00  0.00     0.115 A 
ATOM     16  C   UNL     1      21.301   8.231  27.657  1.00  0.00     0.016 A 
ATOM     17  C   UNL     1      20.312   8.705  26.790  1.00  0.00     0.047 A 
BRANCH  15  18
ATOM     18  O   UNL     1      18.378  10.117  26.387  1.00  0.00    -0.508 OA
ATOM     19  H   UNL     1      18.433  11.044  25.982  1.00  0.00     0.293 HD
ENDBRANCH  15  18
ENDBRANCH   1  12
BRANCH   2  20
ATOM     20  O   UNL     1      24.180   9.355  28.726  1.00  0.00    -0.502 OA
ATOM     21  H   UNL     1      23.726  10.238  28.523  1.00  0.00     0.293 HD
ENDBRANCH   2  20
BRANCH   6  22
ATOM     22  O   UNL     1      26.441   6.925  32.891  1.00  0.00    -0.507 OA
ATOM     23  H   UNL     1      26.804   7.862  32.801  1.00  0.00     0.293 HD
ENDBRANCH   6  22
BRANCH   8  24
ATOM     24  O   UNL     1      22.749   4.335  34.491  1.00  0.00    -0.508 OA
ATOM     25  H   UNL     1      22.473   3.404  34.203  1.00  0.00     0.293 HD
ENDBRANCH   8  24
TORSDOF 5
ENDMDL
MODEL 7
REMARK VINA RESULT:    -5.923      1.703      3.252
REMARK INTER + INTRA:          -7.255
REMARK INTER:                  -7.035
REMARK INTRA:                  -0.220
REMARK UNBOUND:                -0.294
REMARK SMILES O=c1c(O)c(-c2ccc(O)cc2)oc2cc(O)cc(O)c12
REMARK SMILES IDX 5 1 3 2 2 3 1 4 21 5 19 6 18 7 16 8 15 9 14 10 13 11 6 12
REMARK SMILES IDX 7 13 8 14 9 15 12 16 11 17 10 18 4 20 20 22 17 24
REMARK H PARENT 10 19 4 21 20 23 17 25
REMARK Flexibility Score: inf
ROOT
ATOM      1  C   UNL     1      22.411   6.716  30.976  1.00  0.00     0.180 A 
ATOM      2  C   UNL     1      23.565   7.348  30.482  1.00  0.00     0.208 A 
ATOM      3  C   UNL     1      23.435   8.301  29.460  1.00  0.00     0.238 A 
ATOM      4  O   UNL     1      24.467   8.902  29.059  1.00  0.00    -0.285 OA
ATOM      5  C   UNL     1      22.156   8.600  28.934  1.00  0.00     0.111 A 
ATOM      6  C   UNL     1      21.912   9.520  27.870  1.00  0.00     0.134 A 
ATOM      7  C   UNL     1      20.594   9.835  27.518  1.00  0.00     0.093 A 
ATOM      8  C   UNL     1      19.514   9.217  28.146  1.00  0.00     0.123 A 
ATOM      9  C   UNL     1      19.742   8.272  29.147  1.00  0.00     0.094 A 
ATOM     10  C   UNL     1      21.044   7.963  29.544  1.00  0.00     0.146 A 
ATOM     11  O   UNL     1      21.218   7.066  30.508  1.00  0.00    -0.452 OA
ENDROOT
BRANCH   1  12
ATOM     12  C   UNL     1      22.469   5.683  32.035  1.00  0.00     0.021 A 
ATOM     13  C   UNL     1      22.716   6.024  33.378  1.00  0.00     0.016 A 
ATOM     14  C   UNL     1      22.791   5.029  34.357  1.00  0.00     0.047 A 
ATOM     15  C   UNL     1      22.633   3.684  34.008  1.00  0.00     0.115 A 
ATOM     16  C   UNL     1      22.333   4.328  31.690  1.00  0.00     0.016 A 
ATOM     17  C   UNL     1      22.407   3.336  32.671  1.00  0.00     0.047 A 
BRANCH  15  18
ATOM     18  O   UNL     1      22.709   2.704  34.996  1.00  0.00    -0.508 OA
ATOM     19  H   UNL     1      22.542   1.727  34.786  1.00  0.00     0.293 HD
ENDBRANCH  15  18
ENDBRANCH   1  12
BRANCH   2  20
ATOM     20  O   UNL     1      24.817   7.053  31.031  1.00  0.00    -0.502 OA
ATOM     21  H   UNL     1      25.144   7.468  31.895  1.00  0.00     0.293 HD
ENDBRANCH   2  20
BRANCH   6  22
ATOM     22  O   UNL     1      22.921  10.125  27.114  1.00  0.00    -0.507 OA
ATOM     23  H   UNL     1      22.840  10.372  26.140  1.00  0.00     0.293 HD
ENDBRANCH   6  22
BRANCH   8  24
ATOM     24  O   UNL     1      18.215   9.544  27.760  1.00  0.00    -0.508 OA
ATOM     25  H   UNL     1      18.033  10.259  27.065  1.00  0.00     0.293 HD
ENDBRANCH   8  24
TORSDOF 5
ENDMDL
MODEL 8
REMARK VINA RESULT:    -5.722     11.414     13.564
REMARK INTER + INTRA:          -7.019
REMARK INTER:                  -6.723
REMARK INTRA:                  -0.296
REMARK UNBOUND:                -0.294
REMARK SMILES O=c1c(O)c(-c2ccc(O)cc2)oc2cc(O)cc(O)c12
REMARK SMILES IDX 5 1 3 2 2 3 1 4 21 5 19 6 18 7 16 8 15 9 14 10 13 11 6 12
REMARK SMILES IDX 7 13 8 14 9 15 12 16 11 17 10 18 4 20 20 22 17 24
REMARK H PARENT 10 19 4 21 20 23 17 25
REMARK Flexibility Score: inf
ROOT
ATOM      1  C   UNL     1      27.549   1.198  21.896  1.00  0.00     0.180 A 
ATOM      2  C   UNL     1      28.129  -0.043  22.209  1.00  0.00     0.208 A 
ATOM      3  C   UNL     1      28.258  -1.009  21.199  1.00  0.00     0.238 A 
ATOM      4  O   UNL     1      28.826  -2.099  21.473  1.00  0.00    -0.285 OA
ATOM      5  C   UNL     1      27.792  -0.729  19.892  1.00  0.00     0.111 A 
ATOM      6  C   UNL     1      27.836  -1.648  18.801  1.00  0.00     0.134 A 
ATOM      7  C   UNL     1      27.467  -1.218  17.521  1.00  0.00     0.093 A 
ATOM      8  C   UNL     1      26.995   0.075  17.303  1.00  0.00     0.123 A 
ATOM      9  C   UNL     1      26.892   0.964  18.374  1.00  0.00     0.094 A 
ATOM     10  C   UNL     1      27.286   0.576  19.656  1.00  0.00     0.146 A 
ATOM     11  O   UNL     1      27.182   1.456  20.645  1.00  0.00    -0.452 OA
ENDROOT
BRANCH   1  12
ATOM     12  C   UNL     1      27.356   2.258  22.912  1.00  0.00     0.021 A 
ATOM     13  C   UNL     1      26.216   2.282  23.737  1.00  0.00     0.016 A 
ATOM     14  C   UNL     1      26.043   3.306  24.673  1.00  0.00     0.047 A 
ATOM     15  C   UNL     1      26.996   4.323  24.788  1.00  0.00     0.115 A 
ATOM     16  C   UNL     1      28.297   3.294  23.019  1.00  0.00     0.016 A 
ATOM     17  C   UNL     1      28.122   4.317  23.956  1.00  0.00     0.047 A 
BRANCH  15  18
ATOM     18  O   UNL     1      26.810   5.336  25.726  1.00  0.00    -0.508 OA
ATOM     19  H   UNL     1      26.954   5.174  26.716  1.00  0.00     0.293 HD
ENDBRANCH  15  18
ENDBRANCH   1  12
BRANCH   2  20
ATOM     20  O   UNL     1      28.602  -0.292  23.501  1.00  0.00    -0.502 OA
ATOM     21  H   UNL     1      28.928  -1.205  23.795  1.00  0.00     0.293 HD
ENDBRANCH   2  20
BRANCH   6  22
ATOM     22  O   UNL     1      28.205  -2.991  18.926  1.00  0.00    -0.507 OA
ATOM     23  H   UNL     1      28.794  -3.488  18.277  1.00  0.00     0.293 HD
ENDBRANCH   6  22
BRANCH   8  24
ATOM     24  O   UNL     1      26.622   0.464  16.018  1.00  0.00    -0.508 OA
ATOM     25  H   UNL     1      25.737   0.179  15.614  1.00  0.00     0.293 HD
ENDBRANCH   8  24
TORSDOF 5
ENDMDL
MODEL 9
REMARK VINA RESULT:    -5.703     10.573     12.722
REMARK INTER + INTRA:          -6.996
REMARK INTER:                  -6.711
REMARK INTRA:                  -0.286
REMARK UNBOUND:                -0.294
REMARK SMILES O=c1c(O)c(-c2ccc(O)cc2)oc2cc(O)cc(O)c12
REMARK SMILES IDX 5 1 3 2 2 3 1 4 21 5 19 6 18 7 16 8 15 9 14 10 13 11 6 12
REMARK SMILES IDX 7 13 8 14 9 15 12 16 11 17 10 18 4 20 20 22 17 24
REMARK H PARENT 10 19 4 21 20 23 17 25
REMARK Flexibility Score: inf
ROOT
ATOM      1  C   UNL     1      28.210   1.021  22.059  1.00  0.00     0.180 A 
ATOM      2  C   UNL     1      29.174   2.043  22.030  1.00  0.00     0.208 A 
ATOM      3  C   UNL     1      28.953   3.210  22.778  1.00  0.00     0.238 A 
ATOM      4  O   UNL     1      29.844   4.099  22.791  1.00  0.00    -0.285 OA
ATOM      5  C   UNL     1      27.764   3.347  23.534  1.00  0.00     0.111 A 
ATOM      6  C   UNL     1      27.418   4.501  24.298  1.00  0.00     0.134 A 
ATOM      7  C   UNL     1      26.278   4.475  25.111  1.00  0.00     0.093 A 
ATOM      8  C   UNL     1      25.438   3.363  25.139  1.00  0.00     0.123 A 
ATOM      9  C   UNL     1      25.735   2.251  24.350  1.00  0.00     0.094 A 
ATOM     10  C   UNL     1      26.884   2.233  23.556  1.00  0.00     0.146 A 
ATOM     11  O   UNL     1      27.137   1.151  22.830  1.00  0.00    -0.452 OA
ENDROOT
BRANCH   1  12
ATOM     12  C   UNL     1      28.361  -0.228  21.277  1.00  0.00     0.021 A 
ATOM     13  C   UNL     1      29.075  -1.329  21.785  1.00  0.00     0.016 A 
ATOM     14  C   UNL     1      29.225  -2.488  21.019  1.00  0.00     0.047 A 
ATOM     15  C   UNL     1      28.677  -2.559  19.735  1.00  0.00     0.115 A 
ATOM     16  C   UNL     1      27.833  -0.299  19.977  1.00  0.00     0.016 A 
ATOM     17  C   UNL     1      27.983  -1.460  19.214  1.00  0.00     0.047 A 
BRANCH  15  18
ATOM     18  O   UNL     1      28.834  -3.723  18.984  1.00  0.00    -0.508 OA
ATOM     19  H   UNL     1      28.206  -4.510  19.092  1.00  0.00     0.293 HD
ENDBRANCH  15  18
ENDBRANCH   1  12
BRANCH   2  20
ATOM     20  O   UNL     1      30.351   1.879  21.294  1.00  0.00    -0.502 OA
ATOM     21  H   UNL     1      31.257   1.765  21.734  1.00  0.00     0.293 HD
ENDBRANCH   2  20
BRANCH   6  22
ATOM     22  O   UNL     1      28.138   5.700  24.271  1.00  0.00    -0.507 OA
ATOM     23  H   UNL     1      28.442   6.206  25.089  1.00  0.00     0.293 HD
ENDBRANCH   6  22
BRANCH   8  24
ATOM     24  O   UNL     1      24.304   3.378  25.948  1.00  0.00    -0.508 OA
ATOM     25  H   UNL     1      23.565   2.694  25.837  1.00  0.00     0.293 HD
ENDBRANCH   8  24
TORSDOF 5
ENDMDL
