MODEL 1
REMARK VINA RESULT:    -7.315      0.000      0.000
REMARK INTER + INTRA:          -8.199
REMARK INTER:                  -7.956
REMARK INTRA:                  -0.243
REMARK UNBOUND:                -0.243
REMARK SMILES C[C@H]1[C@H]2C3=CC[C@@H]4[C@]5(C)CC[C@@H](O)C(C)(C)[C@@H]5CC[C@]4(C)[C@@]3(C)CC[C@@]2(C(=O)[O-])CC[C@@H]1C
REMARK SMILES IDX 26 1 30 2 25 3 3 4 31 5 24 6 4 7 2 8 32 9 22 10 5 11 1 12
REMARK SMILES IDX 33 13 23 14 20 15 6 16 7 17 19 18 21 19 8 20 18 21 17 22
REMARK SMILES IDX 10 23 9 24 14 25 11 26 12 27 15 28 16 29 27 30 28 31 29 32
REMARK SMILES IDX 13 33
REMARK H PARENT 13 34
REMARK Flexibility Score: inf
ROOT
ATOM      1  C   UNL     1      25.230   6.539  57.060  1.00  0.00     0.017 C 
ATOM      2  C   UNL     1      25.309   5.112  57.663  1.00  0.00     0.014 C 
ATOM      3  C   UNL     1      26.706   7.078  56.929  1.00  0.00     0.014 C 
ATOM      4  C   UNL     1      24.383   7.485  57.993  1.00  0.00     0.030 C 
ATOM      5  C   UNL     1      23.934   4.536  58.000  1.00  0.00     0.004 C 
ATOM      6  C   UNL     1      26.825   8.624  56.930  1.00  0.00     0.013 C 
ATOM      7  C   UNL     1      25.335   8.284  58.897  1.00  0.00    -0.063 C 
ATOM      8  C   UNL     1      23.100   6.850  58.644  1.00  0.00    -0.003 C 
ATOM      9  C   UNL     1      23.249   5.366  59.095  1.00  0.00    -0.011 C 
ATOM     10  C   UNL     1      26.163   9.363  58.181  1.00  0.00    -0.006 C 
ATOM     11  C   UNL     1      25.804   7.685  59.998  1.00  0.00    -0.027 C 
ATOM     12  C   UNL     1      22.520   7.748  59.756  1.00  0.00     0.008 C 
ATOM     13  C   UNL     1      21.887   4.732  59.429  1.00  0.00     0.008 C 
ATOM     14  C   UNL     1      25.160  10.443  57.637  1.00  0.00     0.017 C 
ATOM     15  C   UNL     1      27.250  10.099  59.140  1.00  0.00    -0.020 C 
ATOM     16  C   UNL     1      26.967   8.158  60.789  1.00  0.00     0.032 C 
ATOM     17  C   UNL     1      27.996   9.047  60.056  1.00  0.00     0.006 C 
ATOM     18  C   UNL     1      26.569  11.118  60.114  1.00  0.00     0.008 C 
ATOM     19  C   UNL     1      28.240  10.886  58.207  1.00  0.00     0.012 C 
ATOM     20  C   UNL     1      29.044   9.652  61.118  1.00  0.00    -0.025 C 
ATOM     21  C   UNL     1      27.522  11.809  61.115  1.00  0.00     0.005 C 
ATOM     22  C   UNL     1      28.454  10.882  61.953  1.00  0.00     0.003 C 
ATOM     23  C   UNL     1      29.627   8.513  62.046  1.00  0.00     0.010 C 
ATOM     24  C   UNL     1      30.306  10.162  60.341  1.00  0.00     0.012 C 
ATOM     25  C   UNL     1      27.992  10.691  63.474  1.00  0.00    -0.006 C 
ATOM     26  C   UNL     1      28.939   8.318  63.398  1.00  0.00     0.033 C 
ATOM     27  C   UNL     1      28.878   9.628  64.186  1.00  0.00     0.120 C 
ATOM     28  C   UNL     1      28.185  12.042  64.238  1.00  0.00     0.014 C 
ATOM     29  C   UNL     1      26.488  10.320  63.671  1.00  0.00     0.014 C 
ENDROOT
BRANCH   1  30
ATOM     30  C   UNL     1      24.611   6.440  55.664  1.00  0.00     0.048 C 
ATOM     31  O   UNL     1      23.825   7.337  55.256  1.00  0.00    -0.550 OA
ATOM     32  O   UNL     1      24.962   5.419  54.788  1.00  0.00    -0.550 OA
ENDBRANCH   1  30
BRANCH  27  33
ATOM     33  O   UNL     1      30.183  10.122  64.379  1.00  0.00    -0.393 OA
ATOM     34  H   UNL     1      30.190  10.590  65.255  1.00  0.00     0.210 HD
ENDBRANCH  27  33
TORSDOF 2
ENDMDL
MODEL 2
REMARK VINA RESULT:    -7.288      4.847      7.336
REMARK INTER + INTRA:          -8.170
REMARK INTER:                  -7.993
REMARK INTRA:                  -0.177
REMARK UNBOUND:                -0.243
REMARK SMILES C[C@H]1[C@H]2C3=CC[C@@H]4[C@]5(C)CC[C@@H](O)C(C)(C)[C@@H]5CC[C@]4(C)[C@@]3(C)CC[C@@]2(C(=O)[O-])CC[C@@H]1C
REMARK SMILES IDX 26 1 30 2 25 3 3 4 31 5 24 6 4 7 2 8 32 9 22 10 5 11 1 12
REMARK SMILES IDX 33 13 23 14 20 15 6 16 7 17 19 18 21 19 8 20 18 21 17 22
REMARK SMILES IDX 10 23 9 24 14 25 11 26 12 27 15 28 16 29 27 30 28 31 29 32
REMARK SMILES IDX 13 33
REMARK H PARENT 13 34
REMARK Flexibility Score: inf
ROOT
ATOM      1  C   UNL     1      29.674  11.967  60.584  1.00  0.00     0.017 C 
ATOM      2  C   UNL     1      31.028  11.738  59.862  1.00  0.00     0.014 C 
ATOM      3  C   UNL     1      29.861  13.187  61.565  1.00  0.00     0.014 C 
ATOM      4  C   UNL     1      29.254  10.678  61.389  1.00  0.00     0.030 C 
ATOM      5  C   UNL     1      31.034  10.475  59.003  1.00  0.00     0.004 C 
ATOM      6  C   UNL     1      28.882  13.198  62.766  1.00  0.00     0.013 C 
ATOM      7  C   UNL     1      29.680  10.840  62.856  1.00  0.00    -0.063 C 
ATOM      8  C   UNL     1      29.532   9.299  60.684  1.00  0.00    -0.003 C 
ATOM      9  C   UNL     1      30.860   9.223  59.874  1.00  0.00    -0.011 C 
ATOM     10  C   UNL     1      28.874  11.875  63.659  1.00  0.00    -0.006 C 
ATOM     11  C   UNL     1      30.953  10.575  63.172  1.00  0.00    -0.027 C 
ATOM     12  C   UNL     1      29.367   8.117  61.660  1.00  0.00     0.008 C 
ATOM     13  C   UNL     1      30.909   7.974  58.975  1.00  0.00     0.008 C 
ATOM     14  C   UNL     1      27.395  11.353  63.748  1.00  0.00     0.017 C 
ATOM     15  C   UNL     1      29.433  12.113  65.167  1.00  0.00    -0.020 C 
ATOM     16  C   UNL     1      31.617  10.991  64.433  1.00  0.00     0.032 C 
ATOM     17  C   UNL     1      31.013  12.205  65.174  1.00  0.00     0.006 C 
ATOM     18  C   UNL     1      29.061  10.928  66.119  1.00  0.00     0.008 C 
ATOM     19  C   UNL     1      28.758  13.423  65.713  1.00  0.00     0.012 C 
ATOM     20  C   UNL     1      31.705  12.357  66.619  1.00  0.00    -0.025 C 
ATOM     21  C   UNL     1      29.619  11.038  67.555  1.00  0.00     0.005 C 
ATOM     22  C   UNL     1      31.147  11.316  67.698  1.00  0.00     0.003 C 
ATOM     23  C   UNL     1      33.280  12.316  66.497  1.00  0.00     0.010 C 
ATOM     24  C   UNL     1      31.426  13.802  67.158  1.00  0.00     0.012 C 
ATOM     25  C   UNL     1      32.009  10.037  68.123  1.00  0.00    -0.006 C 
ATOM     26  C   UNL     1      33.946  10.960  66.734  1.00  0.00     0.033 C 
ATOM     27  C   UNL     1      33.530  10.362  68.080  1.00  0.00     0.120 C 
ATOM     28  C   UNL     1      31.659   9.653  69.598  1.00  0.00     0.014 C 
ATOM     29  C   UNL     1      31.737   8.745  67.288  1.00  0.00     0.014 C 
ENDROOT
BRANCH   1  30
ATOM     30  C   UNL     1      28.622  12.329  59.534  1.00  0.00     0.048 C 
ATOM     31  O   UNL     1      27.402  12.102  59.756  1.00  0.00    -0.550 OA
ATOM     32  O   UNL     1      28.969  12.989  58.360  1.00  0.00    -0.550 OA
ENDBRANCH   1  30
BRANCH  27  33
ATOM     33  O   UNL     1      33.873  11.253  69.116  1.00  0.00    -0.393 OA
ATOM     34  H   UNL     1      34.494  11.924  68.729  1.00  0.00     0.210 HD
ENDBRANCH  27  33
TORSDOF 2
ENDMDL
MODEL 3
REMARK VINA RESULT:    -7.073      1.676      7.377
REMARK INTER + INTRA:          -7.936
REMARK INTER:                  -7.731
REMARK INTRA:                  -0.205
REMARK UNBOUND:                -0.243
REMARK SMILES C[C@H]1[C@H]2C3=CC[C@@H]4[C@]5(C)CC[C@@H](O)C(C)(C)[C@@H]5CC[C@]4(C)[C@@]3(C)CC[C@@]2(C(=O)[O-])CC[C@@H]1C
REMARK SMILES IDX 26 1 30 2 25 3 3 4 31 5 24 6 4 7 2 8 32 9 22 10 5 11 1 12
REMARK SMILES IDX 33 13 23 14 20 15 6 16 7 17 19 18 21 19 8 20 18 21 17 22
REMARK SMILES IDX 10 23 9 24 14 25 11 26 12 27 15 28 16 29 27 30 28 31 29 32
REMARK SMILES IDX 13 33
REMARK H PARENT 13 34
REMARK Flexibility Score: inf
ROOT
ATOM      1  C   UNL     1      28.540  11.940  61.464  1.00  0.00     0.017 C 
ATOM      2  C   UNL     1      27.533  12.272  62.596  1.00  0.00     0.014 C 
ATOM      3  C   UNL     1      27.803  12.179  60.090  1.00  0.00     0.014 C 
ATOM      4  C   UNL     1      29.018  10.442  61.574  1.00  0.00     0.030 C 
ATOM      5  C   UNL     1      28.067  11.922  63.984  1.00  0.00     0.004 C 
ATOM      6  C   UNL     1      28.382  11.366  58.904  1.00  0.00     0.013 C 
ATOM      7  C   UNL     1      28.179   9.575  60.623  1.00  0.00    -0.063 C 
ATOM      8  C   UNL     1      29.285   9.904  63.028  1.00  0.00    -0.003 C 
ATOM      9  C   UNL     1      28.289  10.408  64.115  1.00  0.00    -0.011 C 
ATOM     10  C   UNL     1      28.461   9.788  59.126  1.00  0.00    -0.006 C 
ATOM     11  C   UNL     1      26.971   9.178  61.038  1.00  0.00    -0.027 C 
ATOM     12  C   UNL     1      29.453   8.372  63.047  1.00  0.00     0.008 C 
ATOM     13  C   UNL     1      28.791  10.095  65.536  1.00  0.00     0.008 C 
ATOM     14  C   UNL     1      29.939   9.328  58.855  1.00  0.00     0.017 C 
ATOM     15  C   UNL     1      27.468   8.951  58.148  1.00  0.00    -0.020 C 
ATOM     16  C   UNL     1      25.907   8.640  60.156  1.00  0.00     0.032 C 
ATOM     17  C   UNL     1      25.974   9.029  58.662  1.00  0.00     0.006 C 
ATOM     18  C   UNL     1      27.838   7.430  58.109  1.00  0.00     0.008 C 
ATOM     19  C   UNL     1      27.633   9.541  56.700  1.00  0.00     0.012 C 
ATOM     20  C   UNL     1      24.895   8.171  57.829  1.00  0.00    -0.025 C 
ATOM     21  C   UNL     1      26.896   6.546  57.261  1.00  0.00     0.005 C 
ATOM     22  C   UNL     1      25.368   6.670  57.544  1.00  0.00     0.003 C 
ATOM     23  C   UNL     1      23.472   8.239  58.514  1.00  0.00     0.010 C 
ATOM     24  C   UNL     1      24.660   8.870  56.446  1.00  0.00     0.012 C 
ATOM     25  C   UNL     1      24.755   5.448  58.376  1.00  0.00    -0.006 C 
ATOM     26  C   UNL     1      23.112   7.085  59.451  1.00  0.00     0.033 C 
ATOM     27  C   UNL     1      23.273   5.732  58.755  1.00  0.00     0.120 C 
ATOM     28  C   UNL     1      24.767   4.165  57.482  1.00  0.00     0.014 C 
ATOM     29  C   UNL     1      25.547   5.056  59.664  1.00  0.00     0.014 C 
ENDROOT
BRANCH   1  30
ATOM     30  C   UNL     1      29.722  12.906  61.569  1.00  0.00     0.048 C 
ATOM     31  O   UNL     1      29.518  14.143  61.707  1.00  0.00    -0.550 OA
ATOM     32  O   UNL     1      31.033  12.444  61.604  1.00  0.00    -0.550 OA
ENDBRANCH   1  30
BRANCH  27  33
ATOM     33  O   UNL     1      22.455   5.692  57.609  1.00  0.00    -0.393 OA
ATOM     34  H   UNL     1      21.879   6.501  57.634  1.00  0.00     0.210 HD
ENDBRANCH  27  33
TORSDOF 2
ENDMDL
MODEL 4
REMARK VINA RESULT:    -7.023      1.395      2.215
REMARK INTER + INTRA:          -7.881
REMARK INTER:                  -7.704
REMARK INTRA:                  -0.178
REMARK UNBOUND:                -0.243
REMARK SMILES C[C@H]1[C@H]2C3=CC[C@@H]4[C@]5(C)CC[C@@H](O)C(C)(C)[C@@H]5CC[C@]4(C)[C@@]3(C)CC[C@@]2(C(=O)[O-])CC[C@@H]1C
REMARK SMILES IDX 26 1 30 2 25 3 3 4 31 5 24 6 4 7 2 8 32 9 22 10 5 11 1 12
REMARK SMILES IDX 33 13 23 14 20 15 6 16 7 17 19 18 21 19 8 20 18 21 17 22
REMARK SMILES IDX 10 23 9 24 14 25 11 26 12 27 15 28 16 29 27 30 28 31 29 32
REMARK SMILES IDX 13 33
REMARK H PARENT 13 34
REMARK Flexibility Score: inf
ROOT
ATOM      1  C   UNL     1      25.418   6.051  57.639  1.00  0.00     0.017 C 
ATOM      2  C   UNL     1      24.315   5.555  58.611  1.00  0.00     0.014 C 
ATOM      3  C   UNL     1      26.808   5.842  58.354  1.00  0.00     0.014 C 
ATOM      4  C   UNL     1      25.204   7.574  57.294  1.00  0.00     0.030 C 
ATOM      5  C   UNL     1      22.904   5.856  58.107  1.00  0.00     0.004 C 
ATOM      6  C   UNL     1      27.933   6.781  57.852  1.00  0.00     0.013 C 
ATOM      7  C   UNL     1      26.097   8.427  58.208  1.00  0.00    -0.063 C 
ATOM      8  C   UNL     1      23.715   8.033  57.073  1.00  0.00    -0.003 C 
ATOM      9  C   UNL     1      22.670   7.371  58.019  1.00  0.00    -0.011 C 
ATOM     10  C   UNL     1      27.604   8.342  57.912  1.00  0.00    -0.006 C 
ATOM     11  C   UNL     1      25.661   8.687  59.446  1.00  0.00    -0.027 C 
ATOM     12  C   UNL     1      23.592   9.569  57.041  1.00  0.00     0.008 C 
ATOM     13  C   UNL     1      21.228   7.629  57.544  1.00  0.00     0.008 C 
ATOM     14  C   UNL     1      27.837   8.947  56.481  1.00  0.00     0.017 C 
ATOM     15  C   UNL     1      28.527   9.153  58.976  1.00  0.00    -0.020 C 
ATOM     16  C   UNL     1      26.509   9.188  60.555  1.00  0.00     0.032 C 
ATOM     17  C   UNL     1      28.026   8.910  60.457  1.00  0.00     0.006 C 
ATOM     18  C   UNL     1      28.460  10.700  58.742  1.00  0.00     0.008 C 
ATOM     19  C   UNL     1      30.011   8.680  58.763  1.00  0.00     0.012 C 
ATOM     20  C   UNL     1      28.802   9.723  61.608  1.00  0.00    -0.025 C 
ATOM     21  C   UNL     1      29.251  11.553  59.759  1.00  0.00     0.005 C 
ATOM     22  C   UNL     1      28.983  11.276  61.270  1.00  0.00     0.003 C 
ATOM     23  C   UNL     1      28.130   9.484  63.019  1.00  0.00     0.010 C 
ATOM     24  C   UNL     1      30.231   9.103  61.783  1.00  0.00     0.012 C 
ATOM     25  C   UNL     1      28.072  12.380  61.987  1.00  0.00    -0.006 C 
ATOM     26  C   UNL     1      27.118  10.535  63.477  1.00  0.00     0.033 C 
ATOM     27  C   UNL     1      27.720  11.942  63.438  1.00  0.00     0.120 C 
ATOM     28  C   UNL     1      28.877  13.717  62.089  1.00  0.00     0.014 C 
ATOM     29  C   UNL     1      26.757  12.751  61.229  1.00  0.00     0.014 C 
ENDROOT
BRANCH   1  30
ATOM     30  C   UNL     1      25.373   5.187  56.377  1.00  0.00     0.048 C 
ATOM     31  O   UNL     1      25.498   3.936  56.461  1.00  0.00    -0.550 OA
ATOM     32  O   UNL     1      25.110   5.743  55.130  1.00  0.00    -0.550 OA
ENDBRANCH   1  30
BRANCH  27  33
ATOM     33  O   UNL     1      28.864  11.988  64.258  1.00  0.00    -0.393 OA
ATOM     34  H   UNL     1      29.646  11.798  63.677  1.00  0.00     0.210 HD
ENDBRANCH  27  33
TORSDOF 2
ENDMDL
MODEL 5
REMARK VINA RESULT:    -6.938      4.135      6.626
REMARK INTER + INTRA:          -7.789
REMARK INTER:                  -7.596
REMARK INTRA:                  -0.193
REMARK UNBOUND:                -0.243
REMARK SMILES C[C@H]1[C@H]2C3=CC[C@@H]4[C@]5(C)CC[C@@H](O)C(C)(C)[C@@H]5CC[C@]4(C)[C@@]3(C)CC[C@@]2(C(=O)[O-])CC[C@@H]1C
REMARK SMILES IDX 26 1 30 2 25 3 3 4 31 5 24 6 4 7 2 8 32 9 22 10 5 11 1 12
REMARK SMILES IDX 33 13 23 14 20 15 6 16 7 17 19 18 21 19 8 20 18 21 17 22
REMARK SMILES IDX 10 23 9 24 14 25 11 26 12 27 15 28 16 29 27 30 28 31 29 32
REMARK SMILES IDX 13 33
REMARK H PARENT 13 34
REMARK Flexibility Score: inf
ROOT
ATOM      1  C   UNL     1      30.466  11.377  60.267  1.00  0.00     0.017 C 
ATOM      2  C   UNL     1      31.679  10.467  59.938  1.00  0.00     0.014 C 
ATOM      3  C   UNL     1      30.906  12.351  61.426  1.00  0.00     0.014 C 
ATOM      4  C   UNL     1      29.233  10.506  60.722  1.00  0.00     0.030 C 
ATOM      5  C   UNL     1      31.335   9.360  58.943  1.00  0.00     0.004 C 
ATOM      6  C   UNL     1      29.736  12.893  62.285  1.00  0.00     0.013 C 
ATOM      7  C   UNL     1      29.188  10.463  62.257  1.00  0.00    -0.063 C 
ATOM      8  C   UNL     1      29.002   9.164  59.935  1.00  0.00    -0.003 C 
ATOM      9  C   UNL     1      30.298   8.397  59.538  1.00  0.00    -0.011 C 
ATOM     10  C   UNL     1      28.790  11.784  62.937  1.00  0.00    -0.006 C 
ATOM     11  C   UNL     1      29.985   9.589  62.883  1.00  0.00    -0.027 C 
ATOM     12  C   UNL     1      27.973   8.259  60.641  1.00  0.00     0.008 C 
ATOM     13  C   UNL     1      30.008   7.279  58.520  1.00  0.00     0.008 C 
ATOM     14  C   UNL     1      27.308  12.099  62.522  1.00  0.00     0.017 C 
ATOM     15  C   UNL     1      28.877  11.739  64.559  1.00  0.00    -0.020 C 
ATOM     16  C   UNL     1      30.323   9.636  64.327  1.00  0.00     0.032 C 
ATOM     17  C   UNL     1      30.197  11.005  65.032  1.00  0.00     0.006 C 
ATOM     18  C   UNL     1      27.686  10.937  65.183  1.00  0.00     0.008 C 
ATOM     19  C   UNL     1      28.803  13.223  65.073  1.00  0.00     0.012 C 
ATOM     20  C   UNL     1      30.370  10.815  66.621  1.00  0.00    -0.025 C 
ATOM     21  C   UNL     1      27.732  10.780  66.719  1.00  0.00     0.005 C 
ATOM     22  C   UNL     1      29.059  10.237  67.332  1.00  0.00     0.003 C 
ATOM     23  C   UNL     1      31.662   9.968  66.951  1.00  0.00     0.010 C 
ATOM     24  C   UNL     1      30.685  12.211  67.261  1.00  0.00     0.012 C 
ATOM     25  C   UNL     1      28.988   8.707  67.797  1.00  0.00    -0.006 C 
ATOM     26  C   UNL     1      31.455   8.469  67.170  1.00  0.00     0.033 C 
ATOM     27  C   UNL     1      30.392   8.203  68.239  1.00  0.00     0.120 C 
ATOM     28  C   UNL     1      28.043   8.595  69.038  1.00  0.00     0.014 C 
ATOM     29  C   UNL     1      28.397   7.718  66.742  1.00  0.00     0.014 C 
ENDROOT
BRANCH   1  30
ATOM     30  C   UNL     1      30.131  12.202  59.023  1.00  0.00     0.048 C 
ATOM     31  O   UNL     1      31.028  12.877  58.450  1.00  0.00    -0.550 OA
ATOM     32  O   UNL     1      28.865  12.162  58.449  1.00  0.00    -0.550 OA
ENDBRANCH   1  30
BRANCH  27  33
ATOM     33  O   UNL     1      30.778   8.816  69.448  1.00  0.00    -0.393 OA
ATOM     34  H   UNL     1      30.888   9.785  69.260  1.00  0.00     0.210 HD
ENDBRANCH  27  33
TORSDOF 2
ENDMDL
MODEL 6
REMARK VINA RESULT:    -6.749      4.252      8.147
REMARK INTER + INTRA:          -7.584
REMARK INTER:                  -7.342
REMARK INTRA:                  -0.242
REMARK UNBOUND:                -0.243
REMARK SMILES C[C@H]1[C@H]2C3=CC[C@@H]4[C@]5(C)CC[C@@H](O)C(C)(C)[C@@H]5CC[C@]4(C)[C@@]3(C)CC[C@@]2(C(=O)[O-])CC[C@@H]1C
REMARK SMILES IDX 26 1 30 2 25 3 3 4 31 5 24 6 4 7 2 8 32 9 22 10 5 11 1 12
REMARK SMILES IDX 33 13 23 14 20 15 6 16 7 17 19 18 21 19 8 20 18 21 17 22
REMARK SMILES IDX 10 23 9 24 14 25 11 26 12 27 15 28 16 29 27 30 28 31 29 32
REMARK SMILES IDX 13 33
REMARK H PARENT 13 34
REMARK Flexibility Score: inf
ROOT
ATOM      1  C   UNL     1      27.578   9.636  62.620  1.00  0.00     0.017 C 
ATOM      2  C   UNL     1      26.503  10.744  62.463  1.00  0.00     0.014 C 
ATOM      3  C   UNL     1      26.955   8.496  63.513  1.00  0.00     0.014 C 
ATOM      4  C   UNL     1      28.874  10.220  63.303  1.00  0.00     0.030 C 
ATOM      5  C   UNL     1      27.037  11.989  61.757  1.00  0.00     0.004 C 
ATOM      6  C   UNL     1      27.998   7.633  64.267  1.00  0.00     0.013 C 
ATOM      7  C   UNL     1      28.827   9.918  64.809  1.00  0.00    -0.063 C 
ATOM      8  C   UNL     1      29.310  11.661  62.848  1.00  0.00    -0.003 C 
ATOM      9  C   UNL     1      28.140  12.657  62.589  1.00  0.00    -0.011 C 
ATOM     10  C   UNL     1      29.024   8.440  65.185  1.00  0.00    -0.006 C 
ATOM     11  C   UNL     1      28.100  10.727  65.588  1.00  0.00    -0.027 C 
ATOM     12  C   UNL     1      30.391  12.249  63.776  1.00  0.00     0.008 C 
ATOM     13  C   UNL     1      28.623  13.925  61.861  1.00  0.00     0.008 C 
ATOM     14  C   UNL     1      30.482   8.036  64.762  1.00  0.00     0.017 C 
ATOM     15  C   UNL     1      28.840   8.138  66.772  1.00  0.00    -0.020 C 
ATOM     16  C   UNL     1      27.669  10.409  66.971  1.00  0.00     0.032 C 
ATOM     17  C   UNL     1      27.589   8.913  67.352  1.00  0.00     0.006 C 
ATOM     18  C   UNL     1      30.076   8.624  67.602  1.00  0.00     0.008 C 
ATOM     19  C   UNL     1      28.708   6.581  66.939  1.00  0.00     0.012 C 
ATOM     20  C   UNL     1      27.340   8.769  68.936  1.00  0.00    -0.025 C 
ATOM     21  C   UNL     1      29.952   8.444  69.132  1.00  0.00     0.005 C 
ATOM     22  C   UNL     1      28.662   9.004  69.805  1.00  0.00     0.003 C 
ATOM     23  C   UNL     1      26.138   9.682  69.403  1.00  0.00     0.010 C 
ATOM     24  C   UNL     1      26.824   7.319  69.232  1.00  0.00     0.012 C 
ATOM     25  C   UNL     1      28.882  10.372  70.605  1.00  0.00    -0.006 C 
ATOM     26  C   UNL     1      26.505  11.057  69.963  1.00  0.00     0.033 C 
ATOM     27  C   UNL     1      27.522  10.942  71.101  1.00  0.00     0.120 C 
ATOM     28  C   UNL     1      29.754  10.087  71.872  1.00  0.00     0.014 C 
ATOM     29  C   UNL     1      29.650  11.484  69.823  1.00  0.00     0.014 C 
ENDROOT
BRANCH   1  30
ATOM     30  C   UNL     1      27.893   9.069  61.234  1.00  0.00     0.048 C 
ATOM     31  O   UNL     1      29.070   8.724  60.944  1.00  0.00    -0.550 OA
ATOM     32  O   UNL     1      26.887   8.838  60.302  1.00  0.00    -0.550 OA
ENDBRANCH   1  30
BRANCH  27  33
ATOM     33  O   UNL     1      26.992  10.133  72.125  1.00  0.00    -0.393 OA
ATOM     34  H   UNL     1      26.176   9.699  71.760  1.00  0.00     0.210 HD
ENDBRANCH  27  33
TORSDOF 2
ENDMDL
MODEL 7
REMARK VINA RESULT:    -6.672      2.370      8.178
REMARK INTER + INTRA:          -7.500
REMARK INTER:                  -7.258
REMARK INTRA:                  -0.242
REMARK UNBOUND:                -0.243
REMARK SMILES C[C@H]1[C@H]2C3=CC[C@@H]4[C@]5(C)CC[C@@H](O)C(C)(C)[C@@H]5CC[C@]4(C)[C@@]3(C)CC[C@@]2(C(=O)[O-])CC[C@@H]1C
REMARK SMILES IDX 26 1 30 2 25 3 3 4 31 5 24 6 4 7 2 8 32 9 22 10 5 11 1 12
REMARK SMILES IDX 33 13 23 14 20 15 6 16 7 17 19 18 21 19 8 20 18 21 17 22
REMARK SMILES IDX 10 23 9 24 14 25 11 26 12 27 15 28 16 29 27 30 28 31 29 32
REMARK SMILES IDX 13 33
REMARK H PARENT 13 34
REMARK Flexibility Score: inf
ROOT
ATOM      1  C   UNL     1      29.722  11.950  64.886  1.00  0.00     0.017 C 
ATOM      2  C   UNL     1      28.356  12.016  65.620  1.00  0.00     0.014 C 
ATOM      3  C   UNL     1      29.590  12.797  63.562  1.00  0.00     0.014 C 
ATOM      4  C   UNL     1      30.091  10.455  64.545  1.00  0.00     0.030 C 
ATOM      5  C   UNL     1      28.295  11.097  66.838  1.00  0.00     0.004 C 
ATOM      6  C   UNL     1      30.574  12.384  62.438  1.00  0.00     0.013 C 
ATOM      7  C   UNL     1      29.679  10.154  63.096  1.00  0.00    -0.063 C 
ATOM      8  C   UNL     1      29.754   9.388  65.650  1.00  0.00    -0.003 C 
ATOM      9  C   UNL     1      28.420   9.626  66.418  1.00  0.00    -0.011 C 
ATOM     10  C   UNL     1      30.531  10.845  62.017  1.00  0.00    -0.006 C 
ATOM     11  C   UNL     1      28.398   9.850  62.859  1.00  0.00    -0.027 C 
ATOM     12  C   UNL     1      29.874   7.949  65.107  1.00  0.00     0.008 C 
ATOM     13  C   UNL     1      28.316   8.735  67.669  1.00  0.00     0.008 C 
ATOM     14  C   UNL     1      31.988  10.266  62.126  1.00  0.00     0.017 C 
ATOM     15  C   UNL     1      29.988  10.608  60.504  1.00  0.00    -0.020 C 
ATOM     16  C   UNL     1      27.757   9.863  61.521  1.00  0.00     0.032 C 
ATOM     17  C   UNL     1      28.414  10.752  60.440  1.00  0.00     0.006 C 
ATOM     18  C   UNL     1      30.316   9.166  59.989  1.00  0.00     0.008 C 
ATOM     19  C   UNL     1      30.720  11.646  59.578  1.00  0.00     0.012 C 
ATOM     20  C   UNL     1      27.735  10.458  59.010  1.00  0.00    -0.025 C 
ATOM     21  C   UNL     1      29.769   8.830  58.583  1.00  0.00     0.005 C 
ATOM     22  C   UNL     1      28.255   9.105  58.332  1.00  0.00     0.003 C 
ATOM     23  C   UNL     1      26.159  10.517  59.112  1.00  0.00     0.010 C 
ATOM     24  C   UNL     1      28.076  11.641  58.041  1.00  0.00     0.012 C 
ATOM     25  C   UNL     1      27.342   7.791  58.325  1.00  0.00    -0.006 C 
ATOM     26  C   UNL     1      25.439   9.183  59.310  1.00  0.00     0.033 C 
ATOM     27  C   UNL     1      25.836   8.170  58.234  1.00  0.00     0.120 C 
ATOM     28  C   UNL     1      27.683   6.941  57.057  1.00  0.00     0.014 C 
ATOM     29  C   UNL     1      27.557   6.826  59.534  1.00  0.00     0.014 C 
ENDROOT
BRANCH   1  30
ATOM     30  C   UNL     1      30.784  12.590  65.783  1.00  0.00     0.048 C 
ATOM     31  O   UNL     1      31.953  12.121  65.813  1.00  0.00    -0.550 OA
ATOM     32  O   UNL     1      30.515  13.744  66.511  1.00  0.00    -0.550 OA
ENDBRANCH   1  30
BRANCH  27  33
ATOM     33  O   UNL     1      25.534   8.693  56.962  1.00  0.00    -0.393 OA
ATOM     34  H   UNL     1      24.889   9.436  57.098  1.00  0.00     0.210 HD
ENDBRANCH  27  33
TORSDOF 2
ENDMDL
MODEL 8
REMARK VINA RESULT:    -6.644      4.120      7.990
REMARK INTER + INTRA:          -7.470
REMARK INTER:                  -7.226
REMARK INTRA:                  -0.244
REMARK UNBOUND:                -0.243
REMARK SMILES C[C@H]1[C@H]2C3=CC[C@@H]4[C@]5(C)CC[C@@H](O)C(C)(C)[C@@H]5CC[C@]4(C)[C@@]3(C)CC[C@@]2(C(=O)[O-])CC[C@@H]1C
REMARK SMILES IDX 26 1 30 2 25 3 3 4 31 5 24 6 4 7 2 8 32 9 22 10 5 11 1 12
REMARK SMILES IDX 33 13 23 14 20 15 6 16 7 17 19 18 21 19 8 20 18 21 17 22
REMARK SMILES IDX 10 23 9 24 14 25 11 26 12 27 15 28 16 29 27 30 28 31 29 32
REMARK SMILES IDX 13 33
REMARK H PARENT 13 34
REMARK Flexibility Score: inf
ROOT
ATOM      1  C   UNL     1      28.710   8.144  66.134  1.00  0.00     0.017 C 
ATOM      2  C   UNL     1      28.017   6.863  65.599  1.00  0.00     0.014 C 
ATOM      3  C   UNL     1      27.728   9.353  65.884  1.00  0.00     0.014 C 
ATOM      4  C   UNL     1      30.076   8.385  65.384  1.00  0.00     0.030 C 
ATOM      5  C   UNL     1      28.932   5.641  65.628  1.00  0.00     0.004 C 
ATOM      6  C   UNL     1      28.426  10.733  65.779  1.00  0.00     0.013 C 
ATOM      7  C   UNL     1      29.852   9.388  64.242  1.00  0.00    -0.063 C 
ATOM      8  C   UNL     1      30.940   7.105  65.088  1.00  0.00    -0.003 C 
ATOM      9  C   UNL     1      30.130   5.835  64.688  1.00  0.00    -0.011 C 
ATOM     10  C   UNL     1      29.586  10.836  64.687  1.00  0.00    -0.006 C 
ATOM     11  C   UNL     1      29.348   8.927  63.092  1.00  0.00    -0.027 C 
ATOM     12  C   UNL     1      32.088   7.406  64.104  1.00  0.00     0.008 C 
ATOM     13  C   UNL     1      31.005   4.569  64.718  1.00  0.00     0.008 C 
ATOM     14  C   UNL     1      30.885  11.356  65.401  1.00  0.00     0.017 C 
ATOM     15  C   UNL     1      29.227  11.842  63.462  1.00  0.00    -0.020 C 
ATOM     16  C   UNL     1      28.759   9.773  62.025  1.00  0.00     0.032 C 
ATOM     17  C   UNL     1      28.223  11.160  62.448  1.00  0.00     0.006 C 
ATOM     18  C   UNL     1      30.498  12.221  62.630  1.00  0.00     0.008 C 
ATOM     19  C   UNL     1      28.635  13.155  64.094  1.00  0.00     0.012 C 
ATOM     20  C   UNL     1      27.848  12.018  61.139  1.00  0.00    -0.025 C 
ATOM     21  C   UNL     1      30.235  13.116  61.399  1.00  0.00     0.005 C 
ATOM     22  C   UNL     1      29.126  12.644  60.409  1.00  0.00     0.003 C 
ATOM     23  C   UNL     1      26.939  11.179  60.155  1.00  0.00     0.010 C 
ATOM     24  C   UNL     1      26.914  13.202  61.567  1.00  0.00     0.012 C 
ATOM     25  C   UNL     1      29.687  12.006  59.052  1.00  0.00    -0.006 C 
ATOM     26  C   UNL     1      27.657  10.454  59.017  1.00  0.00     0.033 C 
ATOM     27  C   UNL     1      28.525  11.415  58.203  1.00  0.00     0.120 C 
ATOM     28  C   UNL     1      30.359  13.131  58.200  1.00  0.00     0.014 C 
ATOM     29  C   UNL     1      30.792  10.918  59.237  1.00  0.00     0.014 C 
ENDROOT
BRANCH   1  30
ATOM     30  C   UNL     1      28.928   7.983  67.640  1.00  0.00     0.048 C 
ATOM     31  O   UNL     1      29.984   8.414  68.176  1.00  0.00    -0.550 OA
ATOM     32  O   UNL     1      27.942   7.444  68.459  1.00  0.00    -0.550 OA
ENDBRANCH   1  30
BRANCH  27  33
ATOM     33  O   UNL     1      27.721  12.448  57.682  1.00  0.00    -0.393 OA
ATOM     34  H   UNL     1      28.230  13.295  57.788  1.00  0.00     0.210 HD
ENDBRANCH  27  33
TORSDOF 2
ENDMDL
MODEL 9
REMARK VINA RESULT:    -6.412      3.429      6.039
REMARK INTER + INTRA:          -7.217
REMARK INTER:                  -6.972
REMARK INTRA:                  -0.245
REMARK UNBOUND:                -0.243
REMARK SMILES C[C@H]1[C@H]2C3=CC[C@@H]4[C@]5(C)CC[C@@H](O)C(C)(C)[C@@H]5CC[C@]4(C)[C@@]3(C)CC[C@@]2(C(=O)[O-])CC[C@@H]1C
REMARK SMILES IDX 26 1 30 2 25 3 3 4 31 5 24 6 4 7 2 8 32 9 22 10 5 11 1 12
REMARK SMILES IDX 33 13 23 14 20 15 6 16 7 17 19 18 21 19 8 20 18 21 17 22
REMARK SMILES IDX 10 23 9 24 14 25 11 26 12 27 15 28 16 29 27 30 28 31 29 32
REMARK SMILES IDX 13 33
REMARK H PARENT 13 34
REMARK Flexibility Score: inf
ROOT
ATOM      1  C   UNL     1      30.691   6.244  57.870  1.00  0.00     0.017 C 
ATOM      2  C   UNL     1      31.652   6.965  56.889  1.00  0.00     0.014 C 
ATOM      3  C   UNL     1      29.274   6.919  57.727  1.00  0.00     0.014 C 
ATOM      4  C   UNL     1      31.214   6.379  59.352  1.00  0.00     0.030 C 
ATOM      5  C   UNL     1      33.104   6.519  57.048  1.00  0.00     0.004 C 
ATOM      6  C   UNL     1      28.370   6.782  58.978  1.00  0.00     0.013 C 
ATOM      7  C   UNL     1      30.491   7.550  60.034  1.00  0.00    -0.063 C 
ATOM      8  C   UNL     1      32.768   6.247  59.554  1.00  0.00    -0.003 C 
ATOM      9  C   UNL     1      33.640   6.894  58.437  1.00  0.00    -0.011 C 
ATOM     10  C   UNL     1      29.005   7.308  60.346  1.00  0.00    -0.006 C 
ATOM     11  C   UNL     1      30.945   8.787  59.804  1.00  0.00    -0.027 C 
ATOM     12  C   UNL     1      33.199   6.686  60.968  1.00  0.00     0.008 C 
ATOM     13  C   UNL     1      35.114   6.460  58.542  1.00  0.00     0.008 C 
ATOM     14  C   UNL     1      28.927   6.147  61.400  1.00  0.00     0.017 C 
ATOM     15  C   UNL     1      28.241   8.611  60.948  1.00  0.00    -0.020 C 
ATOM     16  C   UNL     1      30.192  10.033  60.091  1.00  0.00     0.032 C 
ATOM     17  C   UNL     1      28.653   9.920  60.161  1.00  0.00     0.006 C 
ATOM     18  C   UNL     1      28.622   8.865  62.446  1.00  0.00     0.008 C 
ATOM     19  C   UNL     1      26.697   8.326  60.867  1.00  0.00     0.012 C 
ATOM     20  C   UNL     1      28.032  11.299  60.711  1.00  0.00    -0.025 C 
ATOM     21  C   UNL     1      27.998  10.130  63.077  1.00  0.00     0.005 C 
ATOM     22  C   UNL     1      28.174  11.467  62.295  1.00  0.00     0.003 C 
ATOM     23  C   UNL     1      28.614  12.535  59.916  1.00  0.00     0.010 C 
ATOM     24  C   UNL     1      26.505  11.335  60.361  1.00  0.00     0.012 C 
ATOM     25  C   UNL     1      29.273  12.450  62.918  1.00  0.00    -0.006 C 
ATOM     26  C   UNL     1      29.806  13.252  60.550  1.00  0.00     0.033 C 
ATOM     27  C   UNL     1      29.500  13.677  61.989  1.00  0.00     0.120 C 
ATOM     28  C   UNL     1      28.750  12.997  64.287  1.00  0.00     0.014 C 
ATOM     29  C   UNL     1      30.650  11.789  63.241  1.00  0.00     0.014 C 
ENDROOT
BRANCH   1  30
ATOM     30  C   UNL     1      30.588   4.775  57.453  1.00  0.00     0.048 C 
ATOM     31  O   UNL     1      30.565   3.869  58.329  1.00  0.00    -0.550 OA
ATOM     32  O   UNL     1      30.430   4.412  56.120  1.00  0.00    -0.550 OA
ENDBRANCH   1  30
BRANCH  27  33
ATOM     33  O   UNL     1      28.372  14.520  62.000  1.00  0.00    -0.393 OA
ATOM     34  H   UNL     1      28.656  15.381  62.405  1.00  0.00     0.210 HD
ENDBRANCH  27  33
TORSDOF 2
ENDMDL
