MODEL 1
REMARK VINA RESULT:     2.235      0.000      0.000
REMARK INTER + INTRA:           4.273
REMARK INTER:                   2.953
REMARK INTRA:                   1.319
REMARK UNBOUND:                 1.319
REMARK SMILES CC[C@H](C=C[C@@H](C)[C@@H]1CC[C@@H]2[C@H]3CC=C4C[C@@H](O)CC[C@]4(C)[C@@H]3CC[C@]21C)C(C)C
REMARK SMILES IDX 6 1 7 2 5 3 4 4 3 5 2 6 1 7 28 8 29 9 30 10 8 11 9 12 26 13
REMARK SMILES IDX 10 14 11 15 25 16 27 17 12 18 24 19 23 20 13 21 21 22 14 23
REMARK SMILES IDX 15 24 20 25 22 26 16 27 19 28 17 29 18 30
REMARK H PARENT 18 31
REMARK Flexibility Score: inf
ROOT
ATOM      1  C   UNL     1     130.922 127.410 137.550  1.00  0.00     0.012 C 
ATOM      2  C   UNL     1     130.204 126.720 136.380  1.00  0.00     0.012 C 
ENDROOT
BRANCH   1   3
ATOM      3  C   UNL     1     132.100 128.181 136.995  1.00  0.00    -0.028 C 
ATOM      4  C   UNL     1     132.206 129.529 136.968  1.00  0.00    -0.027 C 
BRANCH   4   5
ATOM      5  C   UNL     1     131.182 130.514 137.525  1.00  0.00     0.014 C 
BRANCH   5   6
ATOM      6  C   UNL     1     130.589 129.870 138.802  1.00  0.00     0.004 C 
ATOM      7  C   UNL     1     130.594 130.790 140.021  1.00  0.00     0.004 C 
ENDBRANCH   5   6
BRANCH   5   8
ATOM      8  C   UNL     1     131.792 131.942 137.800  1.00  0.00    -0.011 C 
ATOM      9  C   UNL     1     131.595 132.872 136.585  1.00  0.00     0.008 C 
ATOM     10  C   UNL     1     133.295 131.933 138.157  1.00  0.00     0.008 C 
ENDBRANCH   5   8
ENDBRANCH   4   5
ENDBRANCH   1   3
BRANCH   1  11
ATOM     11  C   UNL     1     131.373 126.366 138.626  1.00  0.00     0.002 C 
ATOM     12  C   UNL     1     131.090 126.873 140.070  1.00  0.00     0.005 C 
ATOM     13  C   UNL     1     132.886 125.969 138.659  1.00  0.00    -0.026 C 
ATOM     14  C   UNL     1     132.250 126.405 140.958  1.00  0.00     0.005 C 
ATOM     15  C   UNL     1     132.992 125.408 140.085  1.00  0.00    -0.001 C 
ATOM     16  C   UNL     1     133.294 124.821 137.694  1.00  0.00     0.007 C 
ATOM     17  C   UNL     1     133.787 127.225 138.422  1.00  0.00     0.012 C 
ATOM     18  C   UNL     1     134.428 124.987 140.483  1.00  0.00     0.000 C 
ATOM     19  C   UNL     1     134.699 124.263 138.022  1.00  0.00     0.005 C 
ATOM     20  C   UNL     1     134.886 123.857 139.519  1.00  0.00     0.003 C 
ATOM     21  C   UNL     1     134.448 124.446 141.917  1.00  0.00     0.031 C 
ATOM     22  C   UNL     1     136.329 123.295 139.872  1.00  0.00    -0.008 C 
ATOM     23  C   UNL     1     135.814 123.952 142.277  1.00  0.00    -0.027 C 
ATOM     24  C   UNL     1     136.655 123.398 141.378  1.00  0.00    -0.065 C 
ATOM     25  C   UNL     1     137.449 124.070 139.100  1.00  0.00     0.014 C 
ATOM     26  C   UNL     1     136.361 121.795 139.472  1.00  0.00     0.016 C 
ATOM     27  C   UNL     1     138.053 123.030 141.831  1.00  0.00     0.063 C 
ATOM     28  C   UNL     1     138.882 123.709 139.534  1.00  0.00     0.033 C 
ATOM     29  C   UNL     1     139.075 123.873 141.052  1.00  0.00     0.118 C 
BRANCH  29  30
ATOM     30  O   UNL     1     140.385 123.535 141.427  1.00  0.00    -0.393 OA
ATOM     31  H   UNL     1     140.334 123.058 142.294  1.00  0.00     0.210 HD
ENDBRANCH  29  30
ENDBRANCH   1  11
TORSDOF 6
ENDMDL
MODEL 2
REMARK VINA RESULT:     5.107      2.720      8.301
REMARK INTER + INTRA:           8.069
REMARK INTER:                   6.593
REMARK INTRA:                   1.476
REMARK UNBOUND:                 1.319
REMARK SMILES CC[C@H](C=C[C@@H](C)[C@@H]1CC[C@@H]2[C@H]3CC=C4C[C@@H](O)CC[C@]4(C)[C@@H]3CC[C@]21C)C(C)C
REMARK SMILES IDX 6 1 7 2 5 3 4 4 3 5 2 6 1 7 28 8 29 9 30 10 8 11 9 12 26 13
REMARK SMILES IDX 10 14 11 15 25 16 27 17 12 18 24 19 23 20 13 21 21 22 14 23
REMARK SMILES IDX 15 24 20 25 22 26 16 27 19 28 17 29 18 30
REMARK H PARENT 18 31
REMARK Flexibility Score: inf
ROOT
ATOM      1  C   UNL     1     134.916 123.051 141.618  1.00  0.00     0.012 C 
ATOM      2  C   UNL     1     133.883 122.681 142.694  1.00  0.00     0.012 C 
ENDROOT
BRANCH   1   3
ATOM      3  C   UNL     1     135.773 124.179 142.150  1.00  0.00    -0.028 C 
ATOM      4  C   UNL     1     137.058 124.413 141.800  1.00  0.00    -0.027 C 
BRANCH   4   5
ATOM      5  C   UNL     1     137.863 123.612 140.781  1.00  0.00     0.014 C 
BRANCH   5   6
ATOM      6  C   UNL     1     138.051 124.522 139.541  1.00  0.00     0.004 C 
ATOM      7  C   UNL     1     138.265 123.759 138.237  1.00  0.00     0.004 C 
ENDBRANCH   5   6
BRANCH   5   8
ATOM      8  C   UNL     1     139.235 123.091 141.356  1.00  0.00    -0.011 C 
ATOM      9  C   UNL     1     140.100 124.260 141.871  1.00  0.00     0.008 C 
ATOM     10  C   UNL     1     140.080 122.280 140.349  1.00  0.00     0.008 C 
ENDBRANCH   5   8
ENDBRANCH   4   5
ENDBRANCH   1   3
BRANCH   1  11
ATOM     11  C   UNL     1     134.211 123.446 140.277  1.00  0.00     0.002 C 
ATOM     12  C   UNL     1     135.185 123.349 139.067  1.00  0.00     0.005 C 
ATOM     13  C   UNL     1     133.622 124.891 140.168  1.00  0.00    -0.026 C 
ATOM     14  C   UNL     1     134.853 124.506 138.116  1.00  0.00     0.005 C 
ATOM     15  C   UNL     1     133.532 125.038 138.642  1.00  0.00    -0.001 C 
ATOM     16  C   UNL     1     132.180 125.066 140.722  1.00  0.00     0.007 C 
ATOM     17  C   UNL     1     134.588 125.927 140.831  1.00  0.00     0.012 C 
ATOM     18  C   UNL     1     133.048 126.433 138.178  1.00  0.00     0.000 C 
ATOM     19  C   UNL     1     131.550 126.408 140.278  1.00  0.00     0.005 C 
ATOM     20  C   UNL     1     131.616 126.660 138.737  1.00  0.00     0.003 C 
ATOM     21  C   UNL     1     132.992 126.498 136.647  1.00  0.00     0.031 C 
ATOM     22  C   UNL     1     130.985 128.041 138.270  1.00  0.00    -0.008 C 
ATOM     23  C   UNL     1     132.438 127.812 136.193  1.00  0.00    -0.027 C 
ATOM     24  C   UNL     1     131.509 128.498 136.891  1.00  0.00    -0.065 C 
ATOM     25  C   UNL     1     131.299 129.187 139.290  1.00  0.00     0.014 C 
ATOM     26  C   UNL     1     129.448 127.844 138.162  1.00  0.00     0.016 C 
ATOM     27  C   UNL     1     131.098 129.867 136.392  1.00  0.00     0.063 C 
ATOM     28  C   UNL     1     130.883 130.591 138.811  1.00  0.00     0.033 C 
ATOM     29  C   UNL     1     131.487 130.925 137.436  1.00  0.00     0.118 C 
BRANCH  29  30
ATOM     30  O   UNL     1     131.093 132.205 137.016  1.00  0.00    -0.393 OA
ATOM     31  H   UNL     1     130.387 132.091 136.330  1.00  0.00     0.210 HD
ENDBRANCH  29  30
ENDBRANCH   1  11
TORSDOF 6
ENDMDL
