MODEL 1
REMARK VINA RESULT:    -8.174      0.000      0.000
REMARK INTER + INTRA:          -8.412
REMARK INTER:                  -8.412
REMARK INTRA:                   0.000
REMARK UNBOUND:                 0.000
REMARK SMILES CC1(C)CC[C@@]2(C)CC[C@]3(C)C(=CC[C@H]4[C@]5(C)CC[C@H](O)C(C)(C)[C@H]5CC[C@]43C)[C@@H]2C1
REMARK SMILES IDX 1 1 2 2 4 3 5 4 6 5 8 6 9 7 10 8 12 9 13 10 14 11 15 12
REMARK SMILES IDX 28 13 27 14 26 15 25 16 16 17 18 18 19 19 20 20 22 21 23 22
REMARK SMILES IDX 24 23 17 24 29 25 30 26 31 27 11 28 7 29 3 30 21 31
REMARK H PARENT 21 32
REMARK Flexibility Score: inf
ROOT
ATOM      1  C   UNL     1     187.588 197.434 193.487  1.00  0.00     0.011 C 
ATOM      2  C   UNL     1     187.463 197.830 191.992  1.00  0.00    -0.035 C 
ATOM      3  C   UNL     1     188.849 198.251 191.438  1.00  0.00     0.007 C 
ATOM      4  C   UNL     1     189.802 197.066 191.201  1.00  0.00     0.008 C 
ATOM      5  C   UNL     1     189.187 195.947 190.311  1.00  0.00    -0.026 C 
ATOM      6  C   UNL     1     190.199 194.742 190.224  1.00  0.00     0.008 C 
ATOM      7  C   UNL     1     189.652 193.404 190.771  1.00  0.00     0.012 C 
ATOM      8  C   UNL     1     188.258 193.020 190.154  1.00  0.00    -0.006 C 
ATOM      9  C   UNL     1     187.320 194.230 190.272  1.00  0.00    -0.064 C 
ATOM     10  C   UNL     1     186.024 194.071 189.925  1.00  0.00    -0.027 C 
ATOM     11  C   UNL     1     185.529 192.733 189.460  1.00  0.00     0.032 C 
ATOM     12  C   UNL     1     186.027 191.600 190.413  1.00  0.00     0.006 C 
ATOM     13  C   UNL     1     187.555 191.776 190.904  1.00  0.00    -0.020 C 
ATOM     14  C   UNL     1     188.412 190.486 190.703  1.00  0.00     0.008 C 
ATOM     15  C   UNL     1     187.734 189.141 191.031  1.00  0.00     0.005 C 
ATOM     16  C   UNL     1     186.179 189.127 191.035  1.00  0.00     0.003 C 
ATOM     17  C   UNL     1     185.564 190.139 189.995  1.00  0.00    -0.025 C 
ATOM     18  C   UNL     1     183.981 190.088 190.022  1.00  0.00     0.010 C 
ATOM     19  C   UNL     1     183.377 188.949 190.846  1.00  0.00     0.033 C 
ATOM     20  C   UNL     1     184.089 187.640 190.531  1.00  0.00     0.120 C 
ATOM     21  C   UNL     1     185.557 187.654 191.071  1.00  0.00    -0.006 C 
ATOM     22  C   UNL     1     185.577 187.158 192.545  1.00  0.00     0.014 C 
ATOM     23  C   UNL     1     186.366 186.613 190.249  1.00  0.00     0.014 C 
ATOM     24  C   UNL     1     186.018 189.775 188.553  1.00  0.00     0.012 C 
ATOM     25  C   UNL     1     187.520 192.037 192.450  1.00  0.00     0.012 C 
ATOM     26  C   UNL     1     187.846 195.491 190.959  1.00  0.00     0.022 C 
ATOM     27  C   UNL     1     186.852 196.659 191.159  1.00  0.00     0.015 C 
ATOM     28  C   UNL     1     188.509 192.719 188.634  1.00  0.00     0.017 C 
ATOM     29  C   UNL     1     188.966 196.504 188.877  1.00  0.00     0.012 C 
ATOM     30  C   UNL     1     186.508 199.036 191.905  1.00  0.00     0.011 C 
ENDROOT
BRANCH  20  31
ATOM     31  O   UNL     1     183.360 186.564 191.070  1.00  0.00    -0.393 OA
ATOM     32  H   UNL     1     183.983 186.038 191.635  1.00  0.00     0.210 HD
ENDBRANCH  20  31
TORSDOF 1
ENDMDL
MODEL 2
REMARK VINA RESULT:    -7.940      3.188      7.975
REMARK INTER + INTRA:          -8.173
REMARK INTER:                  -8.173
REMARK INTRA:                   0.000
REMARK UNBOUND:                 0.000
REMARK SMILES CC1(C)CC[C@@]2(C)CC[C@]3(C)C(=CC[C@H]4[C@]5(C)CC[C@H](O)C(C)(C)[C@H]5CC[C@]43C)[C@@H]2C1
REMARK SMILES IDX 1 1 2 2 4 3 5 4 6 5 8 6 9 7 10 8 12 9 13 10 14 11 15 12
REMARK SMILES IDX 28 13 27 14 26 15 25 16 16 17 18 18 19 19 20 20 22 21 23 22
REMARK SMILES IDX 24 23 17 24 29 25 30 26 31 27 11 28 7 29 3 30 21 31
REMARK H PARENT 21 32
REMARK Flexibility Score: inf
ROOT
ATOM      1  C   UNL     1     189.103 190.357 185.612  1.00  0.00     0.011 C 
ATOM      2  C   UNL     1     187.599 190.083 185.874  1.00  0.00    -0.035 C 
ATOM      3  C   UNL     1     187.420 188.688 186.527  1.00  0.00     0.007 C 
ATOM      4  C   UNL     1     187.840 188.644 188.007  1.00  0.00     0.008 C 
ATOM      5  C   UNL     1     187.151 189.735 188.877  1.00  0.00    -0.026 C 
ATOM      6  C   UNL     1     187.731 189.670 190.341  1.00  0.00     0.008 C 
ATOM      7  C   UNL     1     188.428 190.967 190.814  1.00  0.00     0.012 C 
ATOM      8  C   UNL     1     187.533 192.243 190.615  1.00  0.00    -0.006 C 
ATOM      9  C   UNL     1     187.003 192.250 189.173  1.00  0.00    -0.064 C 
ATOM     10  C   UNL     1     186.321 193.336 188.748  1.00  0.00    -0.027 C 
ATOM     11  C   UNL     1     186.117 194.504 189.667  1.00  0.00     0.032 C 
ATOM     12  C   UNL     1     187.456 194.889 190.374  1.00  0.00     0.006 C 
ATOM     13  C   UNL     1     188.337 193.623 190.851  1.00  0.00    -0.020 C 
ATOM     14  C   UNL     1     188.789 193.721 192.342  1.00  0.00     0.008 C 
ATOM     15  C   UNL     1     189.247 195.106 192.841  1.00  0.00     0.005 C 
ATOM     16  C   UNL     1     188.759 196.337 192.026  1.00  0.00     0.003 C 
ATOM     17  C   UNL     1     187.339 196.111 191.383  1.00  0.00    -0.025 C 
ATOM     18  C   UNL     1     186.874 197.389 190.570  1.00  0.00     0.010 C 
ATOM     19  C   UNL     1     187.747 198.631 190.750  1.00  0.00     0.033 C 
ATOM     20  C   UNL     1     188.056 198.846 192.227  1.00  0.00     0.120 C 
ATOM     21  C   UNL     1     189.007 197.731 192.771  1.00  0.00    -0.006 C 
ATOM     22  C   UNL     1     190.487 198.147 192.536  1.00  0.00     0.014 C 
ATOM     23  C   UNL     1     188.811 197.661 194.310  1.00  0.00     0.014 C 
ATOM     24  C   UNL     1     186.279 195.852 192.491  1.00  0.00     0.012 C 
ATOM     25  C   UNL     1     189.653 193.624 189.998  1.00  0.00     0.012 C 
ATOM     26  C   UNL     1     187.440 191.125 188.235  1.00  0.00     0.022 C 
ATOM     27  C   UNL     1     186.977 191.208 186.761  1.00  0.00     0.015 C 
ATOM     28  C   UNL     1     186.320 192.099 191.601  1.00  0.00     0.017 C 
ATOM     29  C   UNL     1     185.626 189.443 188.943  1.00  0.00     0.012 C 
ATOM     30  C   UNL     1     186.878 190.088 184.512  1.00  0.00     0.011 C 
ENDROOT
BRANCH  20  31
ATOM     31  O   UNL     1     188.612 200.125 192.413  1.00  0.00    -0.393 OA
ATOM     32  H   UNL     1     188.120 200.751 191.821  1.00  0.00     0.210 HD
ENDBRANCH  20  31
TORSDOF 1
ENDMDL
MODEL 3
REMARK VINA RESULT:    -7.816      4.547      8.093
REMARK INTER + INTRA:          -8.045
REMARK INTER:                  -8.045
REMARK INTRA:                   0.000
REMARK UNBOUND:                 0.000
REMARK SMILES CC1(C)CC[C@@]2(C)CC[C@]3(C)C(=CC[C@H]4[C@]5(C)CC[C@H](O)C(C)(C)[C@H]5CC[C@]43C)[C@@H]2C1
REMARK SMILES IDX 1 1 2 2 4 3 5 4 6 5 8 6 9 7 10 8 12 9 13 10 14 11 15 12
REMARK SMILES IDX 28 13 27 14 26 15 25 16 16 17 18 18 19 19 20 20 22 21 23 22
REMARK SMILES IDX 24 23 17 24 29 25 30 26 31 27 11 28 7 29 3 30 21 31
REMARK H PARENT 21 32
REMARK Flexibility Score: inf
ROOT
ATOM      1  C   UNL     1     184.621 186.458 190.998  1.00  0.00     0.011 C 
ATOM      2  C   UNL     1     183.635 187.377 190.230  1.00  0.00    -0.035 C 
ATOM      3  C   UNL     1     183.157 188.529 191.153  1.00  0.00     0.007 C 
ATOM      4  C   UNL     1     184.225 189.614 191.383  1.00  0.00     0.008 C 
ATOM      5  C   UNL     1     184.814 190.192 190.065  1.00  0.00    -0.026 C 
ATOM      6  C   UNL     1     185.967 191.207 190.415  1.00  0.00     0.008 C 
ATOM      7  C   UNL     1     187.353 190.826 189.846  1.00  0.00     0.012 C 
ATOM      8  C   UNL     1     187.314 190.524 188.304  1.00  0.00    -0.006 C 
ATOM      9  C   UNL     1     186.176 189.529 188.029  1.00  0.00    -0.064 C 
ATOM     10  C   UNL     1     186.054 189.027 186.781  1.00  0.00    -0.027 C 
ATOM     11  C   UNL     1     187.028 189.425 185.711  1.00  0.00     0.032 C 
ATOM     12  C   UNL     1     188.495 189.336 186.242  1.00  0.00     0.006 C 
ATOM     13  C   UNL     1     188.683 189.871 187.752  1.00  0.00    -0.020 C 
ATOM     14  C   UNL     1     189.851 190.897 187.894  1.00  0.00     0.008 C 
ATOM     15  C   UNL     1     191.141 190.598 187.104  1.00  0.00     0.005 C 
ATOM     16  C   UNL     1     191.006 189.639 185.889  1.00  0.00     0.003 C 
ATOM     17  C   UNL     1     189.602 189.752 185.181  1.00  0.00    -0.025 C 
ATOM     18  C   UNL     1     189.508 188.767 183.944  1.00  0.00     0.010 C 
ATOM     19  C   UNL     1     190.822 188.093 183.544  1.00  0.00     0.033 C 
ATOM     20  C   UNL     1     191.947 189.119 183.506  1.00  0.00     0.120 C 
ATOM     21  C   UNL     1     192.297 189.625 184.944  1.00  0.00    -0.006 C 
ATOM     22  C   UNL     1     193.355 188.683 185.587  1.00  0.00     0.014 C 
ATOM     23  C   UNL     1     192.979 191.012 184.797  1.00  0.00     0.014 C 
ATOM     24  C   UNL     1     189.382 191.195 184.646  1.00  0.00     0.012 C 
ATOM     25  C   UNL     1     189.079 188.638 188.637  1.00  0.00     0.012 C 
ATOM     26  C   UNL     1     185.367 189.007 189.216  1.00  0.00     0.022 C 
ATOM     27  C   UNL     1     184.295 187.930 188.928  1.00  0.00     0.015 C 
ATOM     28  C   UNL     1     186.985 191.882 187.589  1.00  0.00     0.017 C 
ATOM     29  C   UNL     1     183.698 190.964 189.306  1.00  0.00     0.012 C 
ATOM     30  C   UNL     1     182.415 186.525 189.831  1.00  0.00     0.011 C 
ENDROOT
BRANCH  20  31
ATOM     31  O   UNL     1     193.075 188.561 182.875  1.00  0.00    -0.393 OA
ATOM     32  H   UNL     1     193.502 187.944 183.524  1.00  0.00     0.210 HD
ENDBRANCH  20  31
TORSDOF 1
ENDMDL
MODEL 4
REMARK VINA RESULT:    -7.775      1.782      4.038
REMARK INTER + INTRA:          -8.002
REMARK INTER:                  -8.002
REMARK INTRA:                   0.000
REMARK UNBOUND:                 0.000
REMARK SMILES CC1(C)CC[C@@]2(C)CC[C@]3(C)C(=CC[C@H]4[C@]5(C)CC[C@H](O)C(C)(C)[C@H]5CC[C@]43C)[C@@H]2C1
REMARK SMILES IDX 1 1 2 2 4 3 5 4 6 5 8 6 9 7 10 8 12 9 13 10 14 11 15 12
REMARK SMILES IDX 28 13 27 14 26 15 25 16 16 17 18 18 19 19 20 20 22 21 23 22
REMARK SMILES IDX 24 23 17 24 29 25 30 26 31 27 11 28 7 29 3 30 21 31
REMARK H PARENT 21 32
REMARK Flexibility Score: inf
ROOT
ATOM      1  C   UNL     1     191.456 193.434 187.527  1.00  0.00     0.011 C 
ATOM      2  C   UNL     1     191.683 193.826 189.011  1.00  0.00    -0.035 C 
ATOM      3  C   UNL     1     191.288 195.309 189.234  1.00  0.00     0.007 C 
ATOM      4  C   UNL     1     189.767 195.544 189.248  1.00  0.00     0.008 C 
ATOM      5  C   UNL     1     189.010 194.632 190.255  1.00  0.00    -0.026 C 
ATOM      6  C   UNL     1     187.460 194.877 190.109  1.00  0.00     0.008 C 
ATOM      7  C   UNL     1     186.648 193.626 189.702  1.00  0.00     0.012 C 
ATOM      8  C   UNL     1     186.942 192.386 190.621  1.00  0.00    -0.006 C 
ATOM      9  C   UNL     1     188.463 192.198 190.720  1.00  0.00    -0.064 C 
ATOM     10  C   UNL     1     188.933 191.101 191.354  1.00  0.00    -0.027 C 
ATOM     11  C   UNL     1     187.977 190.093 191.919  1.00  0.00     0.032 C 
ATOM     12  C   UNL     1     186.866 189.742 190.878  1.00  0.00     0.006 C 
ATOM     13  C   UNL     1     186.312 191.013 190.052  1.00  0.00    -0.020 C 
ATOM     14  C   UNL     1     184.754 191.107 190.052  1.00  0.00     0.008 C 
ATOM     15  C   UNL     1     183.975 189.786 189.888  1.00  0.00     0.005 C 
ATOM     16  C   UNL     1     184.740 188.480 190.240  1.00  0.00     0.003 C 
ATOM     17  C   UNL     1     185.794 188.688 191.392  1.00  0.00    -0.025 C 
ATOM     18  C   UNL     1     186.544 187.333 191.728  1.00  0.00     0.010 C 
ATOM     19  C   UNL     1     185.964 186.083 191.063  1.00  0.00     0.033 C 
ATOM     20  C   UNL     1     184.447 186.069 191.207  1.00  0.00     0.120 C 
ATOM     21  C   UNL     1     183.790 187.197 190.347  1.00  0.00    -0.006 C 
ATOM     22  C   UNL     1     183.526 186.670 188.907  1.00  0.00     0.014 C 
ATOM     23  C   UNL     1     182.397 187.501 190.963  1.00  0.00     0.014 C 
ATOM     24  C   UNL     1     185.087 189.163 192.693  1.00  0.00     0.012 C 
ATOM     25  C   UNL     1     186.734 190.814 188.555  1.00  0.00     0.012 C 
ATOM     26  C   UNL     1     189.363 193.149 189.930  1.00  0.00     0.022 C 
ATOM     27  C   UNL     1     190.886 192.878 189.962  1.00  0.00     0.015 C 
ATOM     28  C   UNL     1     186.381 192.739 192.044  1.00  0.00     0.017 C 
ATOM     29  C   UNL     1     189.431 195.014 191.701  1.00  0.00     0.012 C 
ATOM     30  C   UNL     1     193.185 193.663 189.313  1.00  0.00     0.011 C 
ENDROOT
BRANCH  20  31
ATOM     31  O   UNL     1     183.950 184.802 190.850  1.00  0.00    -0.393 OA
ATOM     32  H   UNL     1     183.309 184.526 191.556  1.00  0.00     0.210 HD
ENDBRANCH  20  31
TORSDOF 1
ENDMDL
MODEL 5
REMARK VINA RESULT:    -7.763      2.677      5.613
REMARK INTER + INTRA:          -7.990
REMARK INTER:                  -7.990
REMARK INTRA:                   0.000
REMARK UNBOUND:                 0.000
REMARK SMILES CC1(C)CC[C@@]2(C)CC[C@]3(C)C(=CC[C@H]4[C@]5(C)CC[C@H](O)C(C)(C)[C@H]5CC[C@]43C)[C@@H]2C1
REMARK SMILES IDX 1 1 2 2 4 3 5 4 6 5 8 6 9 7 10 8 12 9 13 10 14 11 15 12
REMARK SMILES IDX 28 13 27 14 26 15 25 16 16 17 18 18 19 19 20 20 22 21 23 22
REMARK SMILES IDX 24 23 17 24 29 25 30 26 31 27 11 28 7 29 3 30 21 31
REMARK H PARENT 21 32
REMARK Flexibility Score: inf
ROOT
ATOM      1  C   UNL     1     188.339 193.527 190.068  1.00  0.00     0.011 C 
ATOM      2  C   UNL     1     186.799 193.579 190.246  1.00  0.00    -0.035 C 
ATOM      3  C   UNL     1     186.112 193.760 188.868  1.00  0.00     0.007 C 
ATOM      4  C   UNL     1     186.120 192.485 188.006  1.00  0.00     0.008 C 
ATOM      5  C   UNL     1     185.537 191.241 188.735  1.00  0.00    -0.026 C 
ATOM      6  C   UNL     1     185.694 189.977 187.808  1.00  0.00     0.008 C 
ATOM      7  C   UNL     1     186.556 188.843 188.408  1.00  0.00     0.012 C 
ATOM      8  C   UNL     1     186.097 188.431 189.853  1.00  0.00    -0.006 C 
ATOM      9  C   UNL     1     185.967 189.702 190.706  1.00  0.00    -0.064 C 
ATOM     10  C   UNL     1     185.714 189.563 192.026  1.00  0.00    -0.027 C 
ATOM     11  C   UNL     1     185.591 188.195 192.628  1.00  0.00     0.032 C 
ATOM     12  C   UNL     1     186.761 187.276 192.152  1.00  0.00     0.006 C 
ATOM     13  C   UNL     1     187.141 187.447 190.593  1.00  0.00    -0.020 C 
ATOM     14  C   UNL     1     187.212 186.086 189.830  1.00  0.00     0.008 C 
ATOM     15  C   UNL     1     187.869 184.905 190.573  1.00  0.00     0.005 C 
ATOM     16  C   UNL     1     187.932 185.006 192.123  1.00  0.00     0.003 C 
ATOM     17  C   UNL     1     186.710 185.795 192.728  1.00  0.00    -0.025 C 
ATOM     18  C   UNL     1     186.807 185.868 194.307  1.00  0.00     0.010 C 
ATOM     19  C   UNL     1     187.894 184.996 194.936  1.00  0.00     0.033 C 
ATOM     20  C   UNL     1     187.866 183.600 194.326  1.00  0.00     0.120 C 
ATOM     21  C   UNL     1     188.332 183.630 192.833  1.00  0.00    -0.006 C 
ATOM     22  C   UNL     1     189.880 183.484 192.767  1.00  0.00     0.014 C 
ATOM     23  C   UNL     1     187.744 182.372 192.136  1.00  0.00     0.014 C 
ATOM     24  C   UNL     1     185.376 185.079 192.375  1.00  0.00     0.012 C 
ATOM     25  C   UNL     1     188.584 188.056 190.529  1.00  0.00     0.012 C 
ATOM     26  C   UNL     1     186.323 191.044 190.067  1.00  0.00     0.022 C 
ATOM     27  C   UNL     1     186.283 192.297 190.973  1.00  0.00     0.015 C 
ATOM     28  C   UNL     1     184.680 187.773 189.703  1.00  0.00     0.017 C 
ATOM     29  C   UNL     1     184.022 191.470 188.997  1.00  0.00     0.012 C 
ATOM     30  C   UNL     1     186.470 194.800 191.127  1.00  0.00     0.011 C 
ENDROOT
BRANCH  20  31
ATOM     31  O   UNL     1     188.665 182.732 195.092  1.00  0.00    -0.393 OA
ATOM     32  H   UNL     1     188.408 181.804 194.852  1.00  0.00     0.210 HD
ENDBRANCH  20  31
TORSDOF 1
ENDMDL
MODEL 6
REMARK VINA RESULT:    -7.728      1.608      2.420
REMARK INTER + INTRA:          -7.954
REMARK INTER:                  -7.954
REMARK INTRA:                   0.000
REMARK UNBOUND:                 0.000
REMARK SMILES CC1(C)CC[C@@]2(C)CC[C@]3(C)C(=CC[C@H]4[C@]5(C)CC[C@H](O)C(C)(C)[C@H]5CC[C@]43C)[C@@H]2C1
REMARK SMILES IDX 1 1 2 2 4 3 5 4 6 5 8 6 9 7 10 8 12 9 13 10 14 11 15 12
REMARK SMILES IDX 28 13 27 14 26 15 25 16 16 17 18 18 19 19 20 20 22 21 23 22
REMARK SMILES IDX 24 23 17 24 29 25 30 26 31 27 11 28 7 29 3 30 21 31
REMARK H PARENT 21 32
REMARK Flexibility Score: inf
ROOT
ATOM      1  C   UNL     1     186.487 198.009 194.792  1.00  0.00     0.011 C 
ATOM      2  C   UNL     1     187.347 198.636 193.664  1.00  0.00    -0.035 C 
ATOM      3  C   UNL     1     188.812 198.804 194.145  1.00  0.00     0.007 C 
ATOM      4  C   UNL     1     189.593 197.479 194.210  1.00  0.00     0.008 C 
ATOM      5  C   UNL     1     189.555 196.674 192.879  1.00  0.00    -0.026 C 
ATOM      6  C   UNL     1     190.288 195.295 193.089  1.00  0.00     0.008 C 
ATOM      7  C   UNL     1     189.398 194.053 192.854  1.00  0.00     0.012 C 
ATOM      8  C   UNL     1     188.652 194.094 191.471  1.00  0.00    -0.006 C 
ATOM      9  C   UNL     1     187.958 195.456 191.329  1.00  0.00    -0.064 C 
ATOM     10  C   UNL     1     187.142 195.651 190.269  1.00  0.00    -0.027 C 
ATOM     11  C   UNL     1     186.916 194.546 189.281  1.00  0.00     0.032 C 
ATOM     12  C   UNL     1     186.614 193.201 190.018  1.00  0.00     0.006 C 
ATOM     13  C   UNL     1     187.523 192.948 191.327  1.00  0.00    -0.020 C 
ATOM     14  C   UNL     1     188.197 191.540 191.338  1.00  0.00     0.008 C 
ATOM     15  C   UNL     1     187.338 190.353 190.856  1.00  0.00     0.005 C 
ATOM     16  C   UNL     1     186.119 190.697 189.955  1.00  0.00     0.003 C 
ATOM     17  C   UNL     1     186.372 191.963 189.052  1.00  0.00    -0.025 C 
ATOM     18  C   UNL     1     185.112 192.274 188.144  1.00  0.00     0.010 C 
ATOM     19  C   UNL     1     184.026 191.196 188.142  1.00  0.00     0.033 C 
ATOM     20  C   UNL     1     184.655 189.819 187.976  1.00  0.00     0.120 C 
ATOM     21  C   UNL     1     185.473 189.417 189.246  1.00  0.00    -0.006 C 
ATOM     22  C   UNL     1     184.534 188.720 190.273  1.00  0.00     0.014 C 
ATOM     23  C   UNL     1     186.514 188.349 188.812  1.00  0.00     0.014 C 
ATOM     24  C   UNL     1     187.581 191.719 188.105  1.00  0.00     0.012 C 
ATOM     25  C   UNL     1     186.569 192.982 192.571  1.00  0.00     0.012 C 
ATOM     26  C   UNL     1     188.064 196.448 192.487  1.00  0.00     0.022 C 
ATOM     27  C   UNL     1     187.272 197.772 192.366  1.00  0.00     0.015 C 
ATOM     28  C   UNL     1     189.756 193.968 190.362  1.00  0.00     0.017 C 
ATOM     29  C   UNL     1     190.317 197.470 191.783  1.00  0.00     0.012 C 
ATOM     30  C   UNL     1     186.767 200.029 193.352  1.00  0.00     0.011 C 
ENDROOT
BRANCH  20  31
ATOM     31  O   UNL     1     183.652 188.872 187.695  1.00  0.00    -0.393 OA
ATOM     32  H   UNL     1     183.616 188.763 186.710  1.00  0.00     0.210 HD
ENDBRANCH  20  31
TORSDOF 1
ENDMDL
MODEL 7
REMARK VINA RESULT:    -7.707      3.863      6.930
REMARK INTER + INTRA:          -7.932
REMARK INTER:                  -7.932
REMARK INTRA:                   0.000
REMARK UNBOUND:                 0.000
REMARK SMILES CC1(C)CC[C@@]2(C)CC[C@]3(C)C(=CC[C@H]4[C@]5(C)CC[C@H](O)C(C)(C)[C@H]5CC[C@]43C)[C@@H]2C1
REMARK SMILES IDX 1 1 2 2 4 3 5 4 6 5 8 6 9 7 10 8 12 9 13 10 14 11 15 12
REMARK SMILES IDX 28 13 27 14 26 15 25 16 16 17 18 18 19 19 20 20 22 21 23 22
REMARK SMILES IDX 24 23 17 24 29 25 30 26 31 27 11 28 7 29 3 30 21 31
REMARK H PARENT 21 32
REMARK Flexibility Score: inf
ROOT
ATOM      1  C   UNL     1     184.740 190.001 186.257  1.00  0.00     0.011 C 
ATOM      2  C   UNL     1     186.056 190.683 186.715  1.00  0.00    -0.035 C 
ATOM      3  C   UNL     1     185.737 192.002 187.465  1.00  0.00     0.007 C 
ATOM      4  C   UNL     1     185.180 191.783 188.883  1.00  0.00     0.008 C 
ATOM      5  C   UNL     1     186.078 190.870 189.766  1.00  0.00    -0.026 C 
ATOM      6  C   UNL     1     185.365 190.625 191.149  1.00  0.00     0.008 C 
ATOM      7  C   UNL     1     185.053 189.143 191.457  1.00  0.00     0.012 C 
ATOM      8  C   UNL     1     186.309 188.212 191.295  1.00  0.00    -0.006 C 
ATOM      9  C   UNL     1     186.955 188.494 189.931  1.00  0.00    -0.064 C 
ATOM     10  C   UNL     1     187.973 187.702 189.528  1.00  0.00    -0.027 C 
ATOM     11  C   UNL     1     188.431 186.568 190.396  1.00  0.00     0.032 C 
ATOM     12  C   UNL     1     187.210 185.741 190.912  1.00  0.00     0.006 C 
ATOM     13  C   UNL     1     185.944 186.640 191.351  1.00  0.00    -0.020 C 
ATOM     14  C   UNL     1     185.399 186.276 192.767  1.00  0.00     0.008 C 
ATOM     15  C   UNL     1     185.337 184.777 193.126  1.00  0.00     0.005 C 
ATOM     16  C   UNL     1     186.253 183.827 192.306  1.00  0.00     0.003 C 
ATOM     17  C   UNL     1     187.594 184.521 191.854  1.00  0.00    -0.025 C 
ATOM     18  C   UNL     1     188.503 183.518 191.031  1.00  0.00     0.010 C 
ATOM     19  C   UNL     1     188.036 182.062 191.031  1.00  0.00     0.033 C 
ATOM     20  C   UNL     1     187.664 181.630 192.444  1.00  0.00     0.120 C 
ATOM     21  C   UNL     1     186.370 182.360 192.933  1.00  0.00    -0.006 C 
ATOM     22  C   UNL     1     185.116 181.548 192.496  1.00  0.00     0.014 C 
ATOM     23  C   UNL     1     186.382 182.342 194.485  1.00  0.00     0.014 C 
ATOM     24  C   UNL     1     188.410 184.978 193.096  1.00  0.00     0.012 C 
ATOM     25  C   UNL     1     184.781 186.328 190.346  1.00  0.00     0.012 C 
ATOM     26  C   UNL     1     186.291 189.522 189.013  1.00  0.00     0.022 C 
ATOM     27  C   UNL     1     186.899 189.715 187.604  1.00  0.00     0.015 C 
ATOM     28  C   UNL     1     187.317 188.617 192.428  1.00  0.00     0.017 C 
ATOM     29  C   UNL     1     187.429 191.592 190.033  1.00  0.00     0.012 C 
ATOM     30  C   UNL     1     186.874 191.017 185.453  1.00  0.00     0.011 C 
ENDROOT
BRANCH  20  31
ATOM     31  O   UNL     1     187.507 180.232 192.486  1.00  0.00    -0.393 OA
ATOM     32  H   UNL     1     188.414 179.835 192.546  1.00  0.00     0.210 HD
ENDBRANCH  20  31
TORSDOF 1
ENDMDL
MODEL 8
REMARK VINA RESULT:    -7.593      3.293      7.956
REMARK INTER + INTRA:          -7.815
REMARK INTER:                  -7.815
REMARK INTRA:                   0.000
REMARK UNBOUND:                 0.000
REMARK SMILES CC1(C)CC[C@@]2(C)CC[C@]3(C)C(=CC[C@H]4[C@]5(C)CC[C@H](O)C(C)(C)[C@H]5CC[C@]43C)[C@@H]2C1
REMARK SMILES IDX 1 1 2 2 4 3 5 4 6 5 8 6 9 7 10 8 12 9 13 10 14 11 15 12
REMARK SMILES IDX 28 13 27 14 26 15 25 16 16 17 18 18 19 19 20 20 22 21 23 22
REMARK SMILES IDX 24 23 17 24 29 25 30 26 31 27 11 28 7 29 3 30 21 31
REMARK H PARENT 21 32
REMARK Flexibility Score: inf
ROOT
ATOM      1  C   UNL     1     184.978 192.228 187.700  1.00  0.00     0.011 C 
ATOM      2  C   UNL     1     185.678 191.118 188.528  1.00  0.00    -0.035 C 
ATOM      3  C   UNL     1     187.024 190.730 187.862  1.00  0.00     0.007 C 
ATOM      4  C   UNL     1     188.131 191.782 188.056  1.00  0.00     0.008 C 
ATOM      5  C   UNL     1     188.362 192.170 189.545  1.00  0.00    -0.026 C 
ATOM      6  C   UNL     1     189.431 193.325 189.619  1.00  0.00     0.008 C 
ATOM      7  C   UNL     1     188.919 194.634 190.261  1.00  0.00     0.012 C 
ATOM      8  C   UNL     1     188.241 194.399 191.660  1.00  0.00    -0.006 C 
ATOM      9  C   UNL     1     187.211 193.269 191.521  1.00  0.00    -0.064 C 
ATOM     10  C   UNL     1     186.413 192.997 192.578  1.00  0.00    -0.027 C 
ATOM     11  C   UNL     1     186.530 193.805 193.836  1.00  0.00     0.032 C 
ATOM     12  C   UNL     1     186.575 195.332 193.508  1.00  0.00     0.006 C 
ATOM     13  C   UNL     1     187.470 195.703 192.217  1.00  0.00    -0.020 C 
ATOM     14  C   UNL     1     188.498 196.844 192.495  1.00  0.00     0.008 C 
ATOM     15  C   UNL     1     188.010 198.026 193.358  1.00  0.00     0.005 C 
ATOM     16  C   UNL     1     186.778 197.762 194.267  1.00  0.00     0.003 C 
ATOM     17  C   UNL     1     186.713 196.274 194.780  1.00  0.00    -0.025 C 
ATOM     18  C   UNL     1     185.450 196.048 195.710  1.00  0.00     0.010 C 
ATOM     19  C   UNL     1     184.697 197.318 196.108  1.00  0.00     0.033 C 
ATOM     20  C   UNL     1     185.679 198.393 196.554  1.00  0.00     0.120 C 
ATOM     21  C   UNL     1     186.528 198.915 195.348  1.00  0.00    -0.006 C 
ATOM     22  C   UNL     1     185.774 200.080 194.645  1.00  0.00     0.014 C 
ATOM     23  C   UNL     1     187.834 199.525 195.926  1.00  0.00     0.014 C 
ATOM     24  C   UNL     1     187.977 195.936 195.620  1.00  0.00     0.012 C 
ATOM     25  C   UNL     1     186.496 196.255 191.118  1.00  0.00     0.012 C 
ATOM     26  C   UNL     1     187.002 192.643 190.142  1.00  0.00     0.022 C 
ATOM     27  C   UNL     1     185.888 191.579 190.005  1.00  0.00     0.015 C 
ATOM     28  C   UNL     1     189.378 193.932 192.636  1.00  0.00     0.017 C 
ATOM     29  C   UNL     1     188.921 190.937 190.309  1.00  0.00     0.012 C 
ATOM     30  C   UNL     1     184.755 189.884 188.532  1.00  0.00     0.011 C 
ENDROOT
BRANCH  20  31
ATOM     31  O   UNL     1     184.980 199.444 197.177  1.00  0.00    -0.393 OA
ATOM     32  H   UNL     1     184.405 199.866 196.487  1.00  0.00     0.210 HD
ENDBRANCH  20  31
TORSDOF 1
ENDMDL
MODEL 9
REMARK VINA RESULT:    -7.562      4.641      6.643
REMARK INTER + INTRA:          -7.783
REMARK INTER:                  -7.783
REMARK INTRA:                   0.000
REMARK UNBOUND:                 0.000
REMARK SMILES CC1(C)CC[C@@]2(C)CC[C@]3(C)C(=CC[C@H]4[C@]5(C)CC[C@H](O)C(C)(C)[C@H]5CC[C@]43C)[C@@H]2C1
REMARK SMILES IDX 1 1 2 2 4 3 5 4 6 5 8 6 9 7 10 8 12 9 13 10 14 11 15 12
REMARK SMILES IDX 28 13 27 14 26 15 25 16 16 17 18 18 19 19 20 20 22 21 23 22
REMARK SMILES IDX 24 23 17 24 29 25 30 26 31 27 11 28 7 29 3 30 21 31
REMARK H PARENT 21 32
REMARK Flexibility Score: inf
ROOT
ATOM      1  C   UNL     1     188.716 195.321 189.250  1.00  0.00     0.011 C 
ATOM      2  C   UNL     1     188.036 194.474 190.357  1.00  0.00    -0.035 C 
ATOM      3  C   UNL     1     186.505 194.721 190.348  1.00  0.00     0.007 C 
ATOM      4  C   UNL     1     185.780 194.042 189.172  1.00  0.00     0.008 C 
ATOM      5  C   UNL     1     186.077 192.519 189.060  1.00  0.00    -0.026 C 
ATOM      6  C   UNL     1     185.377 191.949 187.768  1.00  0.00     0.008 C 
ATOM      7  C   UNL     1     186.345 191.331 186.734  1.00  0.00     0.012 C 
ATOM      8  C   UNL     1     187.313 190.268 187.368  1.00  0.00    -0.006 C 
ATOM      9  C   UNL     1     187.964 190.882 188.616  1.00  0.00    -0.064 C 
ATOM     10  C   UNL     1     188.939 190.184 189.239  1.00  0.00    -0.027 C 
ATOM     11  C   UNL     1     189.376 188.855 188.696  1.00  0.00     0.032 C 
ATOM     12  C   UNL     1     189.604 188.939 187.152  1.00  0.00     0.006 C 
ATOM     13  C   UNL     1     188.496 189.812 186.369  1.00  0.00    -0.020 C 
ATOM     14  C   UNL     1     187.889 189.066 185.139  1.00  0.00     0.008 C 
ATOM     15  C   UNL     1     188.865 188.251 184.267  1.00  0.00     0.005 C 
ATOM     16  C   UNL     1     190.205 187.828 184.932  1.00  0.00     0.003 C 
ATOM     17  C   UNL     1     190.057 187.572 186.480  1.00  0.00    -0.025 C 
ATOM     18  C   UNL     1     191.440 187.134 187.118  1.00  0.00     0.010 C 
ATOM     19  C   UNL     1     192.554 186.827 186.116  1.00  0.00     0.033 C 
ATOM     20  C   UNL     1     192.020 185.948 184.992  1.00  0.00     0.120 C 
ATOM     21  C   UNL     1     191.015 186.736 184.090  1.00  0.00    -0.006 C 
ATOM     22  C   UNL     1     191.793 187.476 182.964  1.00  0.00     0.014 C 
ATOM     23  C   UNL     1     190.108 185.693 183.381  1.00  0.00     0.014 C 
ATOM     24  C   UNL     1     189.038 186.427 186.744  1.00  0.00     0.012 C 
ATOM     25  C   UNL     1     189.222 191.077 185.793  1.00  0.00     0.012 C 
ATOM     26  C   UNL     1     187.621 192.328 188.976  1.00  0.00     0.022 C 
ATOM     27  C   UNL     1     188.366 192.959 190.176  1.00  0.00     0.015 C 
ATOM     28  C   UNL     1     186.420 189.053 187.807  1.00  0.00     0.017 C 
ATOM     29  C   UNL     1     185.480 191.793 190.299  1.00  0.00     0.012 C 
ATOM     30  C   UNL     1     188.603 194.934 191.714  1.00  0.00     0.011 C 
ENDROOT
BRANCH  20  31
ATOM     31  O   UNL     1     193.094 185.442 184.236  1.00  0.00    -0.393 OA
ATOM     32  H   UNL     1     193.928 185.818 184.620  1.00  0.00     0.210 HD
ENDBRANCH  20  31
TORSDOF 1
ENDMDL
