MODEL 1
REMARK VINA RESULT:    -3.321      0.000      0.000
REMARK INTER + INTRA:          -6.809
REMARK INTER:                  -6.039
REMARK INTRA:                  -0.770
REMARK UNBOUND:                -0.770
REMARK SMILES CCCCCCCCCCCCCCCC(=O)[O-]
REMARK SMILES IDX 9 1 10 2 11 3 12 4 13 5 14 6 15 7 16 8 17 9 18 10 8 11 7 12
REMARK SMILES IDX 6 13 5 14 4 15 3 16 2 17 1 18
REMARK H PARENT
REMARK Flexibility Score: inf
ROOT
ATOM      1  C   UNL     1      -5.961 -23.124  18.925  1.00  0.00     0.000 C 
ENDROOT
BRANCH   1   2
ATOM      2  C   UNL     1      -6.420 -23.012  20.387  1.00  0.00     0.000 C 
BRANCH   2   3
ATOM      3  C   UNL     1      -7.948 -23.079  20.536  1.00  0.00     0.000 C 
BRANCH   3   4
ATOM      4  C   UNL     1      -8.436 -22.560  21.898  1.00  0.00     0.000 C 
BRANCH   4   5
ATOM      5  C   UNL     1      -9.715 -21.725  21.738  1.00  0.00     0.000 C 
BRANCH   5   6
ATOM      6  C   UNL     1      -9.865 -20.656  22.833  1.00  0.00     0.006 C 
BRANCH   6   7
ATOM      7  C   UNL     1     -10.693 -19.450  22.370  1.00  0.00     0.053 C 
BRANCH   7   8
ATOM      8  C   UNL     1      -9.837 -18.224  22.305  1.00  0.00     0.041 C 
ATOM      9  O   UNL     1      -9.443 -17.669  23.365  1.00  0.00    -0.550 OA
ATOM     10  O   UNL     1      -9.517 -17.665  21.075  1.00  0.00    -0.550 OA
ENDBRANCH   7   8
ENDBRANCH   6   7
ENDBRANCH   5   6
ENDBRANCH   4   5
ENDBRANCH   3   4
ENDBRANCH   2   3
ENDBRANCH   1   2
BRANCH   1  11
ATOM     11  C   UNL     1      -6.761 -22.174  18.025  1.00  0.00     0.000 C 
BRANCH  11  12
ATOM     12  C   UNL     1      -7.802 -22.943  17.199  1.00  0.00    -0.000 C 
BRANCH  12  13
ATOM     13  C   UNL     1      -9.229 -22.786  17.748  1.00  0.00    -0.000 C 
BRANCH  13  14
ATOM     14  C   UNL     1      -9.653 -21.313  17.887  1.00  0.00    -0.000 C 
BRANCH  14  15
ATOM     15  C   UNL     1     -11.005 -21.028  17.198  1.00  0.00    -0.000 C 
BRANCH  15  16
ATOM     16  C   UNL     1     -10.957 -19.848  16.209  1.00  0.00    -0.000 C 
BRANCH  16  17
ATOM     17  C   UNL     1     -10.811 -20.254  14.733  1.00  0.00    -0.003 C 
ATOM     18  C   UNL     1      -9.353 -20.331  14.282  1.00  0.00     0.004 C 
ENDBRANCH  16  17
ENDBRANCH  15  16
ENDBRANCH  14  15
ENDBRANCH  13  14
ENDBRANCH  12  13
ENDBRANCH  11  12
ENDBRANCH   1  11
TORSDOF 14
ENDMDL
MODEL 2
REMARK VINA RESULT:    -2.565      1.511      2.574
REMARK INTER + INTRA:          -5.435
REMARK INTER:                  -4.671
REMARK INTRA:                  -0.764
REMARK UNBOUND:                -0.770
REMARK SMILES CCCCCCCCCCCCCCCC(=O)[O-]
REMARK SMILES IDX 9 1 10 2 11 3 12 4 13 5 14 6 15 7 16 8 17 9 18 10 8 11 7 12
REMARK SMILES IDX 6 13 5 14 4 15 3 16 2 17 1 18
REMARK H PARENT
REMARK Flexibility Score: inf
ROOT
ATOM      1  C   UNL     1      -8.799 -22.120  18.306  1.00  0.00     0.000 C 
ENDROOT
BRANCH   1   2
ATOM      2  C   UNL     1     -10.095 -22.651  18.937  1.00  0.00     0.000 C 
BRANCH   2   3
ATOM      3  C   UNL     1     -10.114 -22.501  20.467  1.00  0.00     0.000 C 
BRANCH   3   4
ATOM      4  C   UNL     1     -11.067 -21.394  20.943  1.00  0.00     0.000 C 
BRANCH   4   5
ATOM      5  C   UNL     1     -11.125 -20.246  19.925  1.00  0.00     0.000 C 
BRANCH   5   6
ATOM      6  C   UNL     1     -10.004 -19.214  20.130  1.00  0.00     0.006 C 
BRANCH   6   7
ATOM      7  C   UNL     1     -10.321 -18.213  21.249  1.00  0.00     0.053 C 
BRANCH   7   8
ATOM      8  C   UNL     1      -9.369 -18.386  22.390  1.00  0.00     0.041 C 
ATOM      9  O   UNL     1      -8.927 -17.379  23.004  1.00  0.00    -0.550 OA
ATOM     10  O   UNL     1      -8.930 -19.656  22.742  1.00  0.00    -0.550 OA
ENDBRANCH   7   8
ENDBRANCH   6   7
ENDBRANCH   5   6
ENDBRANCH   4   5
ENDBRANCH   3   4
ENDBRANCH   2   3
ENDBRANCH   1   2
BRANCH   1  11
ATOM     11  C   UNL     1      -7.573 -22.830  18.892  1.00  0.00     0.000 C 
BRANCH  11  12
ATOM     12  C   UNL     1      -6.310 -22.509  18.080  1.00  0.00    -0.000 C 
BRANCH  12  13
ATOM     13  C   UNL     1      -6.477 -22.803  16.581  1.00  0.00    -0.000 C 
BRANCH  13  14
ATOM     14  C   UNL     1      -6.820 -21.546  15.763  1.00  0.00    -0.000 C 
BRANCH  14  15
ATOM     15  C   UNL     1      -8.228 -21.624  15.135  1.00  0.00    -0.000 C 
BRANCH  15  16
ATOM     16  C   UNL     1      -8.712 -20.290  14.535  1.00  0.00    -0.000 C 
BRANCH  16  17
ATOM     17  C   UNL     1     -10.240 -20.116  14.507  1.00  0.00    -0.003 C 
ATOM     18  C   UNL     1     -10.860 -20.110  15.904  1.00  0.00     0.004 C 
ENDBRANCH  16  17
ENDBRANCH  15  16
ENDBRANCH  14  15
ENDBRANCH  13  14
ENDBRANCH  12  13
ENDBRANCH  11  12
ENDBRANCH   1  11
TORSDOF 14
ENDMDL
MODEL 3
REMARK VINA RESULT:    -1.908     11.993     14.536
REMARK INTER + INTRA:          -4.239
REMARK INTER:                  -3.656
REMARK INTRA:                  -0.583
REMARK UNBOUND:                -0.770
REMARK SMILES CCCCCCCCCCCCCCCC(=O)[O-]
REMARK SMILES IDX 9 1 10 2 11 3 12 4 13 5 14 6 15 7 16 8 17 9 18 10 8 11 7 12
REMARK SMILES IDX 6 13 5 14 4 15 3 16 2 17 1 18
REMARK H PARENT
REMARK Flexibility Score: inf
ROOT
ATOM      1  C   UNL     1       4.419 -22.305  15.348  1.00  0.00     0.000 C 
ENDROOT
BRANCH   1   2
ATOM      2  C   UNL     1       4.859 -21.965  16.780  1.00  0.00     0.000 C 
BRANCH   2   3
ATOM      3  C   UNL     1       6.162 -21.151  16.823  1.00  0.00     0.000 C 
BRANCH   3   4
ATOM      4  C   UNL     1       7.417 -22.037  16.806  1.00  0.00     0.000 C 
BRANCH   4   5
ATOM      5  C   UNL     1       8.065 -22.041  15.414  1.00  0.00     0.000 C 
BRANCH   5   6
ATOM      6  C   UNL     1       8.139 -20.638  14.790  1.00  0.00     0.006 C 
BRANCH   6   7
ATOM      7  C   UNL     1       8.847 -20.633  13.429  1.00  0.00     0.053 C 
BRANCH   7   8
ATOM      8  C   UNL     1       7.857 -20.431  12.326  1.00  0.00     0.041 C 
ATOM      9  O   UNL     1       7.967 -19.445  11.549  1.00  0.00    -0.550 OA
ATOM     10  O   UNL     1       6.784 -21.302  12.187  1.00  0.00    -0.550 OA
ENDBRANCH   7   8
ENDBRANCH   6   7
ENDBRANCH   5   6
ENDBRANCH   4   5
ENDBRANCH   3   4
ENDBRANCH   2   3
ENDBRANCH   1   2
BRANCH   1  11
ATOM     11  C   UNL     1       3.117 -23.114  15.352  1.00  0.00     0.000 C 
BRANCH  11  12
ATOM     12  C   UNL     1       1.903 -22.202  15.585  1.00  0.00    -0.000 C 
BRANCH  12  13
ATOM     13  C   UNL     1       0.567 -22.908  15.306  1.00  0.00    -0.000 C 
BRANCH  13  14
ATOM     14  C   UNL     1      -0.633 -22.182  15.940  1.00  0.00    -0.000 C 
BRANCH  14  15
ATOM     15  C   UNL     1      -1.910 -23.049  15.929  1.00  0.00    -0.000 C 
BRANCH  15  16
ATOM     16  C   UNL     1      -3.214 -22.227  15.901  1.00  0.00    -0.000 C 
BRANCH  16  17
ATOM     17  C   UNL     1      -4.434 -22.940  16.507  1.00  0.00    -0.003 C 
ATOM     18  C   UNL     1      -5.702 -22.087  16.458  1.00  0.00     0.004 C 
ENDBRANCH  16  17
ENDBRANCH  15  16
ENDBRANCH  14  15
ENDBRANCH  13  14
ENDBRANCH  12  13
ENDBRANCH  11  12
ENDBRANCH   1  11
TORSDOF 14
ENDMDL
MODEL 4
REMARK VINA RESULT:    -1.784      8.620     11.458
REMARK INTER + INTRA:          -4.014
REMARK INTER:                  -3.443
REMARK INTRA:                  -0.571
REMARK UNBOUND:                -0.770
REMARK SMILES CCCCCCCCCCCCCCCC(=O)[O-]
REMARK SMILES IDX 9 1 10 2 11 3 12 4 13 5 14 6 15 7 16 8 17 9 18 10 8 11 7 12
REMARK SMILES IDX 6 13 5 14 4 15 3 16 2 17 1 18
REMARK H PARENT
REMARK Flexibility Score: inf
ROOT
ATOM      1  C   UNL     1       0.824 -21.760  15.715  1.00  0.00     0.000 C 
ENDROOT
BRANCH   1   2
ATOM      2  C   UNL     1      -0.474 -21.982  16.507  1.00  0.00     0.000 C 
BRANCH   2   3
ATOM      3  C   UNL     1      -1.733 -21.687  15.676  1.00  0.00     0.000 C 
BRANCH   3   4
ATOM      4  C   UNL     1      -2.878 -22.672  15.962  1.00  0.00     0.000 C 
BRANCH   4   5
ATOM      5  C   UNL     1      -4.220 -21.934  16.066  1.00  0.00     0.000 C 
BRANCH   5   6
ATOM      6  C   UNL     1      -5.315 -22.787  16.728  1.00  0.00     0.006 C 
BRANCH   6   7
ATOM      7  C   UNL     1      -6.729 -22.345  16.329  1.00  0.00     0.053 C 
BRANCH   7   8
ATOM      8  C   UNL     1      -7.617 -22.288  17.532  1.00  0.00     0.041 C 
ATOM      9  O   UNL     1      -7.132 -22.439  18.684  1.00  0.00    -0.550 OA
ATOM     10  O   UNL     1      -8.987 -22.120  17.377  1.00  0.00    -0.550 OA
ENDBRANCH   7   8
ENDBRANCH   6   7
ENDBRANCH   5   6
ENDBRANCH   4   5
ENDBRANCH   3   4
ENDBRANCH   2   3
ENDBRANCH   1   2
BRANCH   1  11
ATOM     11  C   UNL     1       1.434 -23.096  15.276  1.00  0.00     0.000 C 
BRANCH  11  12
ATOM     12  C   UNL     1       2.961 -22.988  15.146  1.00  0.00    -0.000 C 
BRANCH  12  13
ATOM     13  C   UNL     1       3.443 -23.125  13.693  1.00  0.00    -0.000 C 
BRANCH  13  14
ATOM     14  C   UNL     1       4.788 -22.420  13.445  1.00  0.00    -0.000 C 
BRANCH  14  15
ATOM     15  C   UNL     1       5.879 -22.881  14.435  1.00  0.00    -0.000 C 
BRANCH  15  16
ATOM     16  C   UNL     1       6.886 -21.774  14.804  1.00  0.00    -0.000 C 
BRANCH  16  17
ATOM     17  C   UNL     1       7.354 -21.795  16.269  1.00  0.00    -0.003 C 
ATOM     18  C   UNL     1       6.211 -21.565  17.258  1.00  0.00     0.004 C 
ENDBRANCH  16  17
ENDBRANCH  15  16
ENDBRANCH  14  15
ENDBRANCH  13  14
ENDBRANCH  12  13
ENDBRANCH  11  12
ENDBRANCH   1  11
TORSDOF 14
ENDMDL
MODEL 5
REMARK VINA RESULT:    -1.706      5.513      7.696
REMARK INTER + INTRA:          -3.873
REMARK INTER:                  -2.996
REMARK INTRA:                  -0.877
REMARK UNBOUND:                -0.770
REMARK SMILES CCCCCCCCCCCCCCCC(=O)[O-]
REMARK SMILES IDX 9 1 10 2 11 3 12 4 13 5 14 6 15 7 16 8 17 9 18 10 8 11 7 12
REMARK SMILES IDX 6 13 5 14 4 15 3 16 2 17 1 18
REMARK H PARENT
REMARK Flexibility Score: inf
ROOT
ATOM      1  C   UNL     1      -7.580 -22.732  16.559  1.00  0.00     0.000 C 
ENDROOT
BRANCH   1   2
ATOM      2  C   UNL     1      -6.127 -23.118  16.244  1.00  0.00     0.000 C 
BRANCH   2   3
ATOM      3  C   UNL     1      -5.128 -22.003  16.594  1.00  0.00     0.000 C 
BRANCH   3   4
ATOM      4  C   UNL     1      -3.696 -22.526  16.785  1.00  0.00     0.000 C 
BRANCH   4   5
ATOM      5  C   UNL     1      -2.799 -22.108  15.611  1.00  0.00     0.000 C 
BRANCH   5   6
ATOM      6  C   UNL     1      -1.320 -21.982  16.011  1.00  0.00     0.006 C 
BRANCH   6   7
ATOM      7  C   UNL     1      -0.453 -23.107  15.431  1.00  0.00     0.053 C 
BRANCH   7   8
ATOM      8  C   UNL     1       0.953 -22.635  15.236  1.00  0.00     0.041 C 
ATOM      9  O   UNL     1       1.665 -23.125  14.320  1.00  0.00    -0.550 OA
ATOM     10  O   UNL     1       1.495 -21.691  16.099  1.00  0.00    -0.550 OA
ENDBRANCH   7   8
ENDBRANCH   6   7
ENDBRANCH   5   6
ENDBRANCH   4   5
ENDBRANCH   3   4
ENDBRANCH   2   3
ENDBRANCH   1   2
BRANCH   1  11
ATOM     11  C   UNL     1      -7.713 -22.226  18.000  1.00  0.00     0.000 C 
BRANCH  11  12
ATOM     12  C   UNL     1      -8.765 -23.036  18.773  1.00  0.00    -0.000 C 
BRANCH  12  13
ATOM     13  C   UNL     1      -9.933 -22.169  19.270  1.00  0.00    -0.000 C 
BRANCH  13  14
ATOM     14  C   UNL     1      -9.860 -20.721  18.754  1.00  0.00    -0.000 C 
BRANCH  14  15
ATOM     15  C   UNL     1     -11.096 -20.340  17.912  1.00  0.00    -0.000 C 
BRANCH  15  16
ATOM     16  C   UNL     1     -10.745 -19.676  16.566  1.00  0.00    -0.000 C 
BRANCH  16  17
ATOM     17  C   UNL     1     -10.968 -20.569  15.334  1.00  0.00    -0.003 C 
ATOM     18  C   UNL     1     -10.070 -20.188  14.157  1.00  0.00     0.004 C 
ENDBRANCH  16  17
ENDBRANCH  15  16
ENDBRANCH  14  15
ENDBRANCH  13  14
ENDBRANCH  12  13
ENDBRANCH  11  12
ENDBRANCH   1  11
TORSDOF 14
ENDMDL
MODEL 6
REMARK VINA RESULT:    -1.689     12.773     15.403
REMARK INTER + INTRA:          -3.841
REMARK INTER:                  -2.801
REMARK INTRA:                  -1.040
REMARK UNBOUND:                -0.770
REMARK SMILES CCCCCCCCCCCCCCCC(=O)[O-]
REMARK SMILES IDX 9 1 10 2 11 3 12 4 13 5 14 6 15 7 16 8 17 9 18 10 8 11 7 12
REMARK SMILES IDX 6 13 5 14 4 15 3 16 2 17 1 18
REMARK H PARENT
REMARK Flexibility Score: inf
ROOT
ATOM      1  C   UNL     1       4.748 -21.626  16.376  1.00  0.00     0.000 C 
ENDROOT
BRANCH   1   2
ATOM      2  C   UNL     1       5.773 -21.866  17.495  1.00  0.00     0.000 C 
BRANCH   2   3
ATOM      3  C   UNL     1       7.173 -21.339  17.140  1.00  0.00     0.000 C 
BRANCH   3   4
ATOM      4  C   UNL     1       8.106 -22.439  16.612  1.00  0.00     0.000 C 
BRANCH   4   5
ATOM      5  C   UNL     1       8.581 -22.117  15.188  1.00  0.00     0.000 C 
BRANCH   5   6
ATOM      6  C   UNL     1       8.021 -20.785  14.663  1.00  0.00     0.006 C 
BRANCH   6   7
ATOM      7  C   UNL     1       8.814 -20.241  13.468  1.00  0.00     0.053 C 
BRANCH   7   8
ATOM      8  C   UNL     1       8.075 -20.495  12.192  1.00  0.00     0.041 C 
ATOM      9  O   UNL     1       8.511 -20.032  11.105  1.00  0.00    -0.550 OA
ATOM     10  O   UNL     1       6.879 -21.200  12.210  1.00  0.00    -0.550 OA
ENDBRANCH   7   8
ENDBRANCH   6   7
ENDBRANCH   5   6
ENDBRANCH   4   5
ENDBRANCH   3   4
ENDBRANCH   2   3
ENDBRANCH   1   2
BRANCH   1  11
ATOM     11  C   UNL     1       4.342 -22.948  15.712  1.00  0.00     0.000 C 
BRANCH  11  12
ATOM     12  C   UNL     1       4.051 -22.747  14.218  1.00  0.00    -0.000 C 
BRANCH  12  13
ATOM     13  C   UNL     1       2.593 -23.067  13.849  1.00  0.00    -0.000 C 
BRANCH  13  14
ATOM     14  C   UNL     1       1.580 -22.245  14.666  1.00  0.00    -0.000 C 
BRANCH  14  15
ATOM     15  C   UNL     1       0.453 -23.124  15.250  1.00  0.00    -0.000 C 
BRANCH  15  16
ATOM     16  C   UNL     1      -0.649 -22.319  15.967  1.00  0.00    -0.000 C 
BRANCH  16  17
ATOM     17  C   UNL     1      -2.017 -23.019  16.027  1.00  0.00    -0.003 C 
ATOM     18  C   UNL     1      -3.177 -22.078  15.703  1.00  0.00     0.004 C 
ENDBRANCH  16  17
ENDBRANCH  15  16
ENDBRANCH  14  15
ENDBRANCH  13  14
ENDBRANCH  12  13
ENDBRANCH  11  12
ENDBRANCH   1  11
TORSDOF 14
ENDMDL
MODEL 7
REMARK VINA RESULT:    -1.687      5.294      7.597
REMARK INTER + INTRA:          -3.838
REMARK INTER:                  -3.322
REMARK INTRA:                  -0.516
REMARK UNBOUND:                -0.770
REMARK SMILES CCCCCCCCCCCCCCCC(=O)[O-]
REMARK SMILES IDX 9 1 10 2 11 3 12 4 13 5 14 6 15 7 16 8 17 9 18 10 8 11 7 12
REMARK SMILES IDX 6 13 5 14 4 15 3 16 2 17 1 18
REMARK H PARENT
REMARK Flexibility Score: inf
ROOT
ATOM      1  C   UNL     1      -4.533 -22.058  16.162  1.00  0.00     0.000 C 
ENDROOT
BRANCH   1   2
ATOM      2  C   UNL     1      -5.824 -22.038  16.996  1.00  0.00     0.000 C 
BRANCH   2   3
ATOM      3  C   UNL     1      -6.955 -22.859  16.357  1.00  0.00     0.000 C 
BRANCH   3   4
ATOM      4  C   UNL     1      -8.123 -23.113  17.323  1.00  0.00     0.000 C 
BRANCH   4   5
ATOM      5  C   UNL     1      -8.940 -21.832  17.542  1.00  0.00     0.000 C 
BRANCH   5   6
ATOM      6  C   UNL     1      -8.985 -21.403  19.017  1.00  0.00     0.006 C 
BRANCH   6   7
ATOM      7  C   UNL     1     -10.414 -21.151  19.515  1.00  0.00     0.053 C 
BRANCH   7   8
ATOM      8  C   UNL     1     -10.393 -20.346  20.776  1.00  0.00     0.041 C 
ATOM      9  O   UNL     1     -10.714 -19.128  20.756  1.00  0.00    -0.550 OA
ATOM     10  O   UNL     1      -9.972 -20.928  21.965  1.00  0.00    -0.550 OA
ENDBRANCH   7   8
ENDBRANCH   6   7
ENDBRANCH   5   6
ENDBRANCH   4   5
ENDBRANCH   3   4
ENDBRANCH   2   3
ENDBRANCH   1   2
BRANCH   1  11
ATOM     11  C   UNL     1      -3.562 -23.124  16.681  1.00  0.00     0.000 C 
BRANCH  11  12
ATOM     12  C   UNL     1      -2.229 -23.073  15.920  1.00  0.00    -0.000 C 
BRANCH  12  13
ATOM     13  C   UNL     1      -1.573 -21.684  15.965  1.00  0.00    -0.000 C 
BRANCH  13  14
ATOM     14  C   UNL     1      -0.060 -21.751  16.236  1.00  0.00    -0.000 C 
BRANCH  14  15
ATOM     15  C   UNL     1       0.607 -22.952  15.533  1.00  0.00    -0.000 C 
BRANCH  15  16
ATOM     16  C   UNL     1       2.112 -22.755  15.266  1.00  0.00    -0.000 C 
BRANCH  16  17
ATOM     17  C   UNL     1       2.555 -23.074  13.828  1.00  0.00    -0.003 C 
ATOM     18  C   UNL     1       4.075 -23.087  13.667  1.00  0.00     0.004 C 
ENDBRANCH  16  17
ENDBRANCH  15  16
ENDBRANCH  14  15
ENDBRANCH  13  14
ENDBRANCH  12  13
ENDBRANCH  11  12
ENDBRANCH   1  11
TORSDOF 14
ENDMDL
MODEL 8
REMARK VINA RESULT:    -1.683     15.045     18.130
REMARK INTER + INTRA:          -3.830
REMARK INTER:                  -2.709
REMARK INTRA:                  -1.121
REMARK UNBOUND:                -0.770
REMARK SMILES CCCCCCCCCCCCCCCC(=O)[O-]
REMARK SMILES IDX 9 1 10 2 11 3 12 4 13 5 14 6 15 7 16 8 17 9 18 10 8 11 7 12
REMARK SMILES IDX 6 13 5 14 4 15 3 16 2 17 1 18
REMARK H PARENT
REMARK Flexibility Score: inf
ROOT
ATOM      1  C   UNL     1       3.817 -22.378  15.621  1.00  0.00     0.000 C 
ENDROOT
BRANCH   1   2
ATOM      2  C   UNL     1       4.830 -22.675  14.505  1.00  0.00     0.000 C 
BRANCH   2   3
ATOM      3  C   UNL     1       4.172 -22.785  13.121  1.00  0.00     0.000 C 
BRANCH   3   4
ATOM      4  C   UNL     1       5.180 -23.106  12.007  1.00  0.00     0.000 C 
BRANCH   4   5
ATOM      5  C   UNL     1       6.522 -22.404  12.265  1.00  0.00     0.000 C 
BRANCH   5   6
ATOM      6  C   UNL     1       7.554 -22.672  11.157  1.00  0.00     0.006 C 
BRANCH   6   7
ATOM      7  C   UNL     1       7.474 -21.649  10.017  1.00  0.00     0.053 C 
BRANCH   7   8
ATOM      8  C   UNL     1       7.361 -22.346   8.697  1.00  0.00     0.041 C 
ATOM      9  O   UNL     1       6.269 -22.869   8.349  1.00  0.00    -0.550 OA
ATOM     10  O   UNL     1       8.474 -22.462   7.875  1.00  0.00    -0.550 OA
ENDBRANCH   7   8
ENDBRANCH   6   7
ENDBRANCH   5   6
ENDBRANCH   4   5
ENDBRANCH   3   4
ENDBRANCH   2   3
ENDBRANCH   1   2
BRANCH   1  11
ATOM     11  C   UNL     1       4.472 -21.587  16.760  1.00  0.00     0.000 C 
BRANCH  11  12
ATOM     12  C   UNL     1       5.926 -21.231  16.418  1.00  0.00    -0.000 C 
BRANCH  12  13
ATOM     13  C   UNL     1       6.921 -21.705  17.489  1.00  0.00    -0.000 C 
BRANCH  13  14
ATOM     14  C   UNL     1       7.959 -22.698  16.937  1.00  0.00    -0.000 C 
BRANCH  14  15
ATOM     15  C   UNL     1       7.949 -22.756  15.395  1.00  0.00    -0.000 C 
BRANCH  15  16
ATOM     16  C   UNL     1       8.932 -21.770  14.733  1.00  0.00    -0.000 C 
BRANCH  16  17
ATOM     17  C   UNL     1       8.400 -20.335  14.587  1.00  0.00    -0.003 C 
ATOM     18  C   UNL     1       8.709 -19.726  13.220  1.00  0.00     0.004 C 
ENDBRANCH  16  17
ENDBRANCH  15  16
ENDBRANCH  14  15
ENDBRANCH  13  14
ENDBRANCH  12  13
ENDBRANCH  11  12
ENDBRANCH   1  11
TORSDOF 14
ENDMDL
MODEL 9
REMARK VINA RESULT:    -1.552      3.770      5.898
REMARK INTER + INTRA:          -3.593
REMARK INTER:                  -2.957
REMARK INTRA:                  -0.636
REMARK UNBOUND:                -0.770
REMARK SMILES CCCCCCCCCCCCCCCC(=O)[O-]
REMARK SMILES IDX 9 1 10 2 11 3 12 4 13 5 14 6 15 7 16 8 17 9 18 10 8 11 7 12
REMARK SMILES IDX 6 13 5 14 4 15 3 16 2 17 1 18
REMARK H PARENT
REMARK Flexibility Score: inf
ROOT
ATOM      1  C   UNL     1      -6.556 -21.989  17.015  1.00  0.00     0.000 C 
ENDROOT
BRANCH   1   2
ATOM      2  C   UNL     1      -8.082 -22.140  17.103  1.00  0.00     0.000 C 
BRANCH   2   3
ATOM      3  C   UNL     1      -8.613 -21.972  18.536  1.00  0.00     0.000 C 
BRANCH   3   4
ATOM      4  C   UNL     1      -9.967 -22.665  18.753  1.00  0.00     0.000 C 
BRANCH   4   5
ATOM      5  C   UNL     1     -10.674 -22.107  19.997  1.00  0.00     0.000 C 
BRANCH   5   6
ATOM      6  C   UNL     1     -10.231 -20.674  20.337  1.00  0.00     0.006 C 
BRANCH   6   7
ATOM      7  C   UNL     1     -10.801 -20.182  21.673  1.00  0.00     0.053 C 
BRANCH   7   8
ATOM      8  C   UNL     1     -10.315 -18.799  21.971  1.00  0.00     0.041 C 
ATOM      9  O   UNL     1     -10.567 -18.264  23.083  1.00  0.00    -0.550 OA
ATOM     10  O   UNL     1      -9.627 -18.081  21.001  1.00  0.00    -0.550 OA
ENDBRANCH   7   8
ENDBRANCH   6   7
ENDBRANCH   5   6
ENDBRANCH   4   5
ENDBRANCH   3   4
ENDBRANCH   2   3
ENDBRANCH   1   2
BRANCH   1  11
ATOM     11  C   UNL     1      -5.860 -22.796  18.118  1.00  0.00     0.000 C 
BRANCH  11  12
ATOM     12  C   UNL     1      -4.411 -23.125  17.730  1.00  0.00    -0.000 C 
BRANCH  12  13
ATOM     13  C   UNL     1      -4.059 -22.665  16.306  1.00  0.00    -0.000 C 
BRANCH  13  14
ATOM     14  C   UNL     1      -2.602 -22.978  15.924  1.00  0.00    -0.000 C 
BRANCH  14  15
ATOM     15  C   UNL     1      -1.716 -21.714  15.918  1.00  0.00    -0.000 C 
BRANCH  15  16
ATOM     16  C   UNL     1      -0.239 -21.993  16.256  1.00  0.00    -0.000 C 
BRANCH  16  17
ATOM     17  C   UNL     1       0.510 -22.837  15.212  1.00  0.00    -0.003 C 
ATOM     18  C   UNL     1       1.979 -22.439  15.071  1.00  0.00     0.004 C 
ENDBRANCH  16  17
ENDBRANCH  15  16
ENDBRANCH  14  15
ENDBRANCH  13  14
ENDBRANCH  12  13
ENDBRANCH  11  12
ENDBRANCH   1  11
TORSDOF 14
ENDMDL
