MODEL 1
REMARK VINA RESULT:    -2.071      0.000      0.000
REMARK INTER + INTRA:          -2.711
REMARK INTER:                  -2.857
REMARK INTRA:                   0.146
REMARK UNBOUND:                 0.146
REMARK SMILES CC[C@@H](CC[C@@H](C)[C@H]1CC[C@H]2[C@@H]3CC=C4C[C@@H](O)CC[C@]4(C)[C@@H]3CC[C@]12C)C(C)C
REMARK SMILES IDX 5 1 4 2 3 3 2 4 1 5 28 6 29 7 30 8 6 9 7 10 8 11 9 12 26 13
REMARK SMILES IDX 10 14 11 15 25 16 27 17 12 18 24 19 23 20 13 21 21 22 14 23
REMARK SMILES IDX 15 24 20 25 22 26 16 27 19 28 17 29 18 30
REMARK H PARENT 18 31
REMARK Flexibility Score: inf
ROOT
ATOM      1  C   UNL     1       2.775  38.805  12.520  1.00  0.00     0.004 C 
ENDROOT
BRANCH   1   2
ATOM      2  C   UNL     1       1.492  38.501  13.331  1.00  0.00     0.004 C 
BRANCH   2   3
ATOM      3  C   UNL     1       0.320  37.906  12.491  1.00  0.00    -0.009 C 
BRANCH   3   4
ATOM      4  C   UNL     1      -1.047  38.551  12.866  1.00  0.00     0.000 C 
ATOM      5  C   UNL     1      -0.923  39.676  13.898  1.00  0.00     0.004 C 
ENDBRANCH   3   4
BRANCH   3   6
ATOM      6  C   UNL     1       0.313  36.332  12.540  1.00  0.00    -0.014 C 
ATOM      7  C   UNL     1      -1.099  35.720  12.501  1.00  0.00     0.007 C 
ATOM      8  C   UNL     1       1.132  35.734  11.379  1.00  0.00     0.007 C 
ENDBRANCH   3   6
ENDBRANCH   2   3
ENDBRANCH   1   2
BRANCH   1   9
ATOM      9  C   UNL     1       3.320  40.244  12.742  1.00  0.00    -0.011 C 
ATOM     10  C   UNL     1       4.782  40.324  12.262  1.00  0.00     0.008 C 
BRANCH   9  11
ATOM     11  C   UNL     1       2.414  41.288  11.998  1.00  0.00    -0.002 C 
ATOM     12  C   UNL     1       1.095  41.598  12.762  1.00  0.00     0.005 C 
ATOM     13  C   UNL     1       3.007  42.705  11.704  1.00  0.00    -0.026 C 
ATOM     14  C   UNL     1       0.733  43.061  12.471  1.00  0.00     0.005 C 
ATOM     15  C   UNL     1       1.716  43.468  11.389  1.00  0.00    -0.001 C 
ATOM     16  C   UNL     1       3.926  42.786  10.435  1.00  0.00     0.007 C 
ATOM     17  C   UNL     1       3.723  43.254  12.985  1.00  0.00     0.012 C 
ATOM     18  C   UNL     1       1.888  44.993  11.096  1.00  0.00     0.000 C 
ATOM     19  C   UNL     1       3.708  44.055   9.553  1.00  0.00     0.005 C 
ATOM     20  C   UNL     1       3.265  45.282  10.401  1.00  0.00     0.003 C 
ATOM     21  C   UNL     1       0.677  45.455  10.246  1.00  0.00     0.031 C 
ATOM     22  C   UNL     1       3.355  46.729   9.752  1.00  0.00    -0.008 C 
ATOM     23  C   UNL     1       0.866  46.713   9.466  1.00  0.00    -0.027 C 
ATOM     24  C   UNL     1       2.063  47.168   9.062  1.00  0.00    -0.065 C 
ATOM     25  C   UNL     1       4.528  46.819   8.727  1.00  0.00     0.014 C 
ATOM     26  C   UNL     1       3.617  47.740  10.906  1.00  0.00     0.016 C 
ATOM     27  C   UNL     1       2.085  48.401   8.169  1.00  0.00     0.063 C 
ATOM     28  C   UNL     1       4.593  48.157   7.977  1.00  0.00     0.033 C 
ATOM     29  C   UNL     1       3.287  48.399   7.215  1.00  0.00     0.118 C 
BRANCH  29  30
ATOM     30  O   UNL     1       3.366  49.632   6.548  1.00  0.00    -0.393 OA
ATOM     31  H   UNL     1       3.768  49.450   5.658  1.00  0.00     0.210 HD
ENDBRANCH  29  30
ENDBRANCH   9  11
ENDBRANCH   1   9
TORSDOF 7
ENDMDL
MODEL 2
REMARK VINA RESULT:    -1.390      0.559      1.514
REMARK INTER + INTRA:          -1.771
REMARK INTER:                  -2.626
REMARK INTRA:                   0.855
REMARK UNBOUND:                 0.146
REMARK SMILES CC[C@@H](CC[C@@H](C)[C@H]1CC[C@H]2[C@@H]3CC=C4C[C@@H](O)CC[C@]4(C)[C@@H]3CC[C@]12C)C(C)C
REMARK SMILES IDX 5 1 4 2 3 3 2 4 1 5 28 6 29 7 30 8 6 9 7 10 8 11 9 12 26 13
REMARK SMILES IDX 10 14 11 15 25 16 27 17 12 18 24 19 23 20 13 21 21 22 14 23
REMARK SMILES IDX 15 24 20 25 22 26 16 27 19 28 17 29 18 30
REMARK H PARENT 18 31
REMARK Flexibility Score: inf
ROOT
ATOM      1  C   UNL     1       3.001  38.750  12.464  1.00  0.00     0.004 C 
ENDROOT
BRANCH   1   2
ATOM      2  C   UNL     1       1.588  38.349  12.955  1.00  0.00     0.004 C 
BRANCH   2   3
ATOM      3  C   UNL     1       1.113  36.941  12.482  1.00  0.00    -0.009 C 
BRANCH   3   4
ATOM      4  C   UNL     1       1.939  36.430  11.264  1.00  0.00     0.000 C 
ATOM      5  C   UNL     1       3.403  36.135  11.607  1.00  0.00     0.004 C 
ENDBRANCH   3   4
BRANCH   3   6
ATOM      6  C   UNL     1      -0.444  36.902  12.252  1.00  0.00    -0.014 C 
ATOM      7  C   UNL     1      -1.125  35.659  12.853  1.00  0.00     0.007 C 
ATOM      8  C   UNL     1      -1.125  38.156  12.836  1.00  0.00     0.007 C 
ENDBRANCH   3   6
ENDBRANCH   2   3
ENDBRANCH   1   2
BRANCH   1   9
ATOM      9  C   UNL     1       3.396  40.206  12.842  1.00  0.00    -0.011 C 
ATOM     10  C   UNL     1       4.887  40.434  12.533  1.00  0.00     0.008 C 
BRANCH   9  11
ATOM     11  C   UNL     1       2.488  41.231  12.075  1.00  0.00    -0.002 C 
ATOM     12  C   UNL     1       1.150  41.526  12.814  1.00  0.00     0.005 C 
ATOM     13  C   UNL     1       3.064  42.655  11.782  1.00  0.00    -0.026 C 
ATOM     14  C   UNL     1       0.772  42.982  12.507  1.00  0.00     0.005 C 
ATOM     15  C   UNL     1       1.767  43.397  11.439  1.00  0.00    -0.001 C 
ATOM     16  C   UNL     1       4.004  42.742  10.528  1.00  0.00     0.007 C 
ATOM     17  C   UNL     1       3.749  43.223  13.072  1.00  0.00     0.012 C 
ATOM     18  C   UNL     1       1.922  44.922  11.138  1.00  0.00     0.000 C 
ATOM     19  C   UNL     1       3.782  44.001   9.634  1.00  0.00     0.005 C 
ATOM     20  C   UNL     1       3.306  45.227  10.465  1.00  0.00     0.003 C 
ATOM     21  C   UNL     1       0.719  45.359  10.264  1.00  0.00     0.031 C 
ATOM     22  C   UNL     1       3.386  46.671   9.808  1.00  0.00    -0.008 C 
ATOM     23  C   UNL     1       0.903  46.615   9.479  1.00  0.00    -0.027 C 
ATOM     24  C   UNL     1       2.100  47.085   9.093  1.00  0.00    -0.065 C 
ATOM     25  C   UNL     1       4.575  46.772   8.803  1.00  0.00     0.014 C 
ATOM     26  C   UNL     1       3.613  47.693  10.960  1.00  0.00     0.016 C 
ATOM     27  C   UNL     1       2.118  48.313   8.192  1.00  0.00     0.063 C 
ATOM     28  C   UNL     1       4.633  48.105   8.045  1.00  0.00     0.033 C 
ATOM     29  C   UNL     1       3.337  48.323   7.259  1.00  0.00     0.118 C 
BRANCH  29  30
ATOM     30  O   UNL     1       3.410  49.552   6.584  1.00  0.00    -0.393 OA
ATOM     31  H   UNL     1       4.342  49.877   6.683  1.00  0.00     0.210 HD
ENDBRANCH  29  30
ENDBRANCH   9  11
ENDBRANCH   1   9
TORSDOF 7
ENDMDL
MODEL 3
REMARK VINA RESULT:    -1.255      1.751      3.747
REMARK INTER + INTRA:          -1.586
REMARK INTER:                  -1.665
REMARK INTRA:                   0.079
REMARK UNBOUND:                 0.146
REMARK SMILES CC[C@@H](CC[C@@H](C)[C@H]1CC[C@H]2[C@@H]3CC=C4C[C@@H](O)CC[C@]4(C)[C@@H]3CC[C@]12C)C(C)C
REMARK SMILES IDX 5 1 4 2 3 3 2 4 1 5 28 6 29 7 30 8 6 9 7 10 8 11 9 12 26 13
REMARK SMILES IDX 10 14 11 15 25 16 27 17 12 18 24 19 23 20 13 21 21 22 14 23
REMARK SMILES IDX 15 24 20 25 22 26 16 27 19 28 17 29 18 30
REMARK H PARENT 18 31
REMARK Flexibility Score: inf
ROOT
ATOM      1  C   UNL     1       1.549  41.465  12.645  1.00  0.00     0.004 C 
ENDROOT
BRANCH   1   2
ATOM      2  C   UNL     1       0.580  41.821  13.798  1.00  0.00     0.004 C 
BRANCH   2   3
ATOM      3  C   UNL     1      -0.227  40.611  14.362  1.00  0.00    -0.009 C 
BRANCH   3   4
ATOM      4  C   UNL     1      -1.125  39.954  13.272  1.00  0.00     0.000 C 
ATOM      5  C   UNL     1      -0.776  38.487  13.004  1.00  0.00     0.004 C 
ENDBRANCH   3   4
BRANCH   3   6
ATOM      6  C   UNL     1      -1.005  40.996  15.676  1.00  0.00    -0.014 C 
ATOM      7  C   UNL     1      -1.111  39.842  16.690  1.00  0.00     0.007 C 
ATOM      8  C   UNL     1      -0.348  42.200  16.380  1.00  0.00     0.007 C 
ENDBRANCH   3   6
ENDBRANCH   2   3
ENDBRANCH   1   2
BRANCH   1   9
ATOM      9  C   UNL     1       3.036  41.790  12.965  1.00  0.00    -0.011 C 
ATOM     10  C   UNL     1       3.927  40.606  12.546  1.00  0.00     0.008 C 
BRANCH   9  11
ATOM     11  C   UNL     1       3.469  43.116  12.247  1.00  0.00    -0.002 C 
ATOM     12  C   UNL     1       4.836  42.990  11.514  1.00  0.00     0.005 C 
ATOM     13  C   UNL     1       2.522  43.708  11.152  1.00  0.00    -0.026 C 
ATOM     14  C   UNL     1       4.778  43.902  10.281  1.00  0.00     0.005 C 
ATOM     15  C   UNL     1       3.488  44.681  10.468  1.00  0.00    -0.001 C 
ATOM     16  C   UNL     1       1.318  44.549  11.705  1.00  0.00     0.007 C 
ATOM     17  C   UNL     1       2.049  42.565  10.189  1.00  0.00     0.012 C 
ATOM     18  C   UNL     1       2.913  45.447   9.234  1.00  0.00     0.000 C 
ATOM     19  C   UNL     1       1.019  45.858  10.910  1.00  0.00     0.005 C 
ATOM     20  C   UNL     1       1.378  45.717   9.403  1.00  0.00     0.003 C 
ATOM     21  C   UNL     1       3.737  46.747   9.054  1.00  0.00     0.031 C 
ATOM     22  C   UNL     1       0.807  46.790   8.380  1.00  0.00    -0.008 C 
ATOM     23  C   UNL     1       3.082  47.834   8.267  1.00  0.00    -0.027 C 
ATOM     24  C   UNL     1       1.752  47.969   8.146  1.00  0.00    -0.065 C 
ATOM     25  C   UNL     1      -0.576  47.340   8.848  1.00  0.00     0.014 C 
ATOM     26  C   UNL     1       0.627  46.076   7.009  1.00  0.00     0.016 C 
ATOM     27  C   UNL     1       1.232  49.198   7.412  1.00  0.00     0.063 C 
ATOM     28  C   UNL     1      -1.125  48.469   7.964  1.00  0.00     0.033 C 
ATOM     29  C   UNL     1      -0.141  49.643   7.936  1.00  0.00     0.118 C 
BRANCH  29  30
ATOM     30  O   UNL     1      -0.658  50.656   7.113  1.00  0.00    -0.393 OA
ATOM     31  H   UNL     1      -1.405  51.077   7.614  1.00  0.00     0.210 HD
ENDBRANCH  29  30
ENDBRANCH   9  11
ENDBRANCH   1   9
TORSDOF 7
ENDMDL
MODEL 4
REMARK VINA RESULT:    -1.107      3.310      9.243
REMARK INTER + INTRA:          -1.381
REMARK INTER:                  -1.431
REMARK INTRA:                   0.050
REMARK UNBOUND:                 0.146
REMARK SMILES CC[C@@H](CC[C@@H](C)[C@H]1CC[C@H]2[C@@H]3CC=C4C[C@@H](O)CC[C@]4(C)[C@@H]3CC[C@]12C)C(C)C
REMARK SMILES IDX 5 1 4 2 3 3 2 4 1 5 28 6 29 7 30 8 6 9 7 10 8 11 9 12 26 13
REMARK SMILES IDX 10 14 11 15 25 16 27 17 12 18 24 19 23 20 13 21 21 22 14 23
REMARK SMILES IDX 15 24 20 25 22 26 16 27 19 28 17 29 18 30
REMARK H PARENT 18 31
REMARK Flexibility Score: inf
ROOT
ATOM      1  C   UNL     1       3.598  47.977   8.161  1.00  0.00     0.004 C 
ENDROOT
BRANCH   1   2
ATOM      2  C   UNL     1       4.538  49.124   7.717  1.00  0.00     0.004 C 
BRANCH   2   3
ATOM      3  C   UNL     1       5.952  49.093   8.374  1.00  0.00    -0.009 C 
BRANCH   3   4
ATOM      4  C   UNL     1       6.079  47.949   9.423  1.00  0.00     0.000 C 
ATOM      5  C   UNL     1       7.488  47.352   9.501  1.00  0.00     0.004 C 
ENDBRANCH   3   4
BRANCH   3   6
ATOM      6  C   UNL     1       6.365  50.509   8.927  1.00  0.00    -0.014 C 
ATOM      7  C   UNL     1       6.799  50.491  10.404  1.00  0.00     0.007 C 
ATOM      8  C   UNL     1       7.509  51.121   8.094  1.00  0.00     0.007 C 
ENDBRANCH   3   6
ENDBRANCH   2   3
ENDBRANCH   1   2
BRANCH   1   9
ATOM      9  C   UNL     1       2.252  48.478   8.758  1.00  0.00    -0.011 C 
ATOM     10  C   UNL     1       1.245  48.733   7.621  1.00  0.00     0.008 C 
BRANCH   9  11
ATOM     11  C   UNL     1       1.696  47.438   9.794  1.00  0.00    -0.002 C 
ATOM     12  C   UNL     1       0.166  47.194   9.646  1.00  0.00     0.005 C 
ATOM     13  C   UNL     1       2.298  45.995   9.788  1.00  0.00    -0.026 C 
ATOM     14  C   UNL     1      -0.101  45.733  10.035  1.00  0.00     0.005 C 
ATOM     15  C   UNL     1       1.226  45.261  10.601  1.00  0.00    -0.001 C 
ATOM     16  C   UNL     1       3.658  45.844  10.556  1.00  0.00     0.007 C 
ATOM     17  C   UNL     1       2.391  45.467   8.316  1.00  0.00     0.012 C 
ATOM     18  C   UNL     1       1.441  43.723  10.769  1.00  0.00     0.000 C 
ATOM     19  C   UNL     1       3.775  44.553  11.426  1.00  0.00     0.005 C 
ATOM     20  C   UNL     1       2.968  43.369  10.819  1.00  0.00     0.003 C 
ATOM     21  C   UNL     1       0.676  43.270  12.038  1.00  0.00     0.031 C 
ATOM     22  C   UNL     1       3.261  41.899  11.346  1.00  0.00    -0.008 C 
ATOM     23  C   UNL     1       1.121  41.982  12.646  1.00  0.00    -0.027 C 
ATOM     24  C   UNL     1       2.358  41.477  12.505  1.00  0.00    -0.065 C 
ATOM     25  C   UNL     1       4.749  41.740  11.785  1.00  0.00     0.014 C 
ATOM     26  C   UNL     1       2.976  40.920  10.170  1.00  0.00     0.016 C 
ATOM     27  C   UNL     1       2.698  40.215  13.285  1.00  0.00     0.063 C 
ATOM     28  C   UNL     1       5.066  40.376  12.416  1.00  0.00     0.033 C 
ATOM     29  C   UNL     1       4.187  40.149  13.650  1.00  0.00     0.118 C 
BRANCH  29  30
ATOM     30  O   UNL     1       4.487  38.893  14.201  1.00  0.00    -0.393 OA
ATOM     31  H   UNL     1       3.638  38.532  14.569  1.00  0.00     0.210 HD
ENDBRANCH  29  30
ENDBRANCH   9  11
ENDBRANCH   1   9
TORSDOF 7
ENDMDL
MODEL 5
REMARK VINA RESULT:    -0.896      1.565      3.121
REMARK INTER + INTRA:          -1.090
REMARK INTER:                  -1.576
REMARK INTRA:                   0.486
REMARK UNBOUND:                 0.146
REMARK SMILES CC[C@@H](CC[C@@H](C)[C@H]1CC[C@H]2[C@@H]3CC=C4C[C@@H](O)CC[C@]4(C)[C@@H]3CC[C@]12C)C(C)C
REMARK SMILES IDX 5 1 4 2 3 3 2 4 1 5 28 6 29 7 30 8 6 9 7 10 8 11 9 12 26 13
REMARK SMILES IDX 10 14 11 15 25 16 27 17 12 18 24 19 23 20 13 21 21 22 14 23
REMARK SMILES IDX 15 24 20 25 22 26 16 27 19 28 17 29 18 30
REMARK H PARENT 18 31
REMARK Flexibility Score: inf
ROOT
ATOM      1  C   UNL     1       3.147  40.482  13.161  1.00  0.00     0.004 C 
ENDROOT
BRANCH   1   2
ATOM      2  C   UNL     1       3.286  39.091  12.494  1.00  0.00     0.004 C 
BRANCH   2   3
ATOM      3  C   UNL     1       1.940  38.325  12.307  1.00  0.00    -0.009 C 
BRANCH   3   4
ATOM      4  C   UNL     1       0.888  38.731  13.382  1.00  0.00     0.000 C 
ATOM      5  C   UNL     1      -0.556  38.458  12.949  1.00  0.00     0.004 C 
ENDBRANCH   3   4
BRANCH   3   6
ATOM      6  C   UNL     1       2.168  36.771  12.199  1.00  0.00    -0.014 C 
ATOM      7  C   UNL     1       0.992  36.018  11.552  1.00  0.00     0.007 C 
ATOM      8  C   UNL     1       3.447  36.450  11.400  1.00  0.00     0.007 C 
ENDBRANCH   3   6
ENDBRANCH   2   3
ENDBRANCH   1   2
BRANCH   1   9
ATOM      9  C   UNL     1       2.027  41.359  12.532  1.00  0.00    -0.011 C 
ATOM     10  C   UNL     1       0.910  41.591  13.566  1.00  0.00     0.008 C 
BRANCH   9  11
ATOM     11  C   UNL     1       2.625  42.716  12.018  1.00  0.00    -0.002 C 
ATOM     12  C   UNL     1       4.065  42.567  11.448  1.00  0.00     0.005 C 
ATOM     13  C   UNL     1       1.862  43.479  10.885  1.00  0.00    -0.026 C 
ATOM     14  C   UNL     1       4.219  43.599  10.322  1.00  0.00     0.005 C 
ATOM     15  C   UNL     1       2.963  44.444  10.433  1.00  0.00    -0.001 C 
ATOM     16  C   UNL     1       0.647  44.344  11.374  1.00  0.00     0.007 C 
ATOM     17  C   UNL     1       1.452  42.473   9.755  1.00  0.00     0.012 C 
ATOM     18  C   UNL     1       2.596  45.367   9.227  1.00  0.00     0.000 C 
ATOM     19  C   UNL     1       0.529  45.743  10.694  1.00  0.00     0.005 C 
ATOM     20  C   UNL     1       1.070  45.727   9.235  1.00  0.00     0.003 C 
ATOM     21  C   UNL     1       3.510  46.618   9.290  1.00  0.00     0.031 C 
ATOM     22  C   UNL     1       0.698  46.934   8.272  1.00  0.00    -0.008 C 
ATOM     23  C   UNL     1       3.025  47.820   8.550  1.00  0.00    -0.027 C 
ATOM     24  C   UNL     1       1.732  48.061   8.283  1.00  0.00    -0.065 C 
ATOM     25  C   UNL     1      -0.699  47.531   8.623  1.00  0.00     0.014 C 
ATOM     26  C   UNL     1       0.656  46.373   6.821  1.00  0.00     0.016 C 
ATOM     27  C   UNL     1       1.382  49.390   7.627  1.00  0.00     0.063 C 
ATOM     28  C   UNL     1      -1.064  48.778   7.805  1.00  0.00     0.033 C 
ATOM     29  C   UNL     1      -0.018  49.876   8.023  1.00  0.00     0.118 C 
BRANCH  29  30
ATOM     30  O   UNL     1      -0.367  51.000   7.257  1.00  0.00    -0.393 OA
ATOM     31  H   UNL     1      -1.333  51.165   7.415  1.00  0.00     0.210 HD
ENDBRANCH  29  30
ENDBRANCH   9  11
ENDBRANCH   1   9
TORSDOF 7
ENDMDL
MODEL 6
REMARK VINA RESULT:    -0.702      3.296      8.906
REMARK INTER + INTRA:          -0.822
REMARK INTER:                  -2.504
REMARK INTRA:                   1.682
REMARK UNBOUND:                 0.146
REMARK SMILES CC[C@@H](CC[C@@H](C)[C@H]1CC[C@H]2[C@@H]3CC=C4C[C@@H](O)CC[C@]4(C)[C@@H]3CC[C@]12C)C(C)C
REMARK SMILES IDX 5 1 4 2 3 3 2 4 1 5 28 6 29 7 30 8 6 9 7 10 8 11 9 12 26 13
REMARK SMILES IDX 10 14 11 15 25 16 27 17 12 18 24 19 23 20 13 21 21 22 14 23
REMARK SMILES IDX 15 24 20 25 22 26 16 27 19 28 17 29 18 30
REMARK H PARENT 18 31
REMARK Flexibility Score: inf
ROOT
ATOM      1  C   UNL     1       3.224  47.770   7.978  1.00  0.00     0.004 C 
ENDROOT
BRANCH   1   2
ATOM      2  C   UNL     1       4.348  48.790   7.670  1.00  0.00     0.004 C 
BRANCH   2   3
ATOM      3  C   UNL     1       5.462  48.875   8.758  1.00  0.00    -0.009 C 
BRANCH   3   4
ATOM      4  C   UNL     1       6.435  50.063   8.498  1.00  0.00     0.000 C 
ATOM      5  C   UNL     1       6.810  50.829   9.772  1.00  0.00     0.004 C 
ENDBRANCH   3   4
BRANCH   3   6
ATOM      6  C   UNL     1       6.189  47.492   8.952  1.00  0.00    -0.014 C 
ATOM      7  C   UNL     1       7.717  47.613   9.097  1.00  0.00     0.007 C 
ATOM      8  C   UNL     1       5.643  46.744  10.184  1.00  0.00     0.007 C 
ENDBRANCH   3   6
ENDBRANCH   2   3
ENDBRANCH   1   2
BRANCH   1   9
ATOM      9  C   UNL     1       2.048  48.375   8.795  1.00  0.00    -0.011 C 
ATOM     10  C   UNL     1       0.933  48.832   7.836  1.00  0.00     0.008 C 
BRANCH   9  11
ATOM     11  C   UNL     1       1.516  47.329   9.837  1.00  0.00    -0.002 C 
ATOM     12  C   UNL     1      -0.011  47.060   9.700  1.00  0.00     0.005 C 
ATOM     13  C   UNL     1       2.140  45.895   9.830  1.00  0.00    -0.026 C 
ATOM     14  C   UNL     1      -0.253  45.596  10.094  1.00  0.00     0.005 C 
ATOM     15  C   UNL     1       1.085  45.146  10.652  1.00  0.00    -0.001 C 
ATOM     16  C   UNL     1       3.507  45.766  10.589  1.00  0.00     0.007 C 
ATOM     17  C   UNL     1       2.232  45.366   8.358  1.00  0.00     0.012 C 
ATOM     18  C   UNL     1       1.325  43.611  10.821  1.00  0.00     0.000 C 
ATOM     19  C   UNL     1       3.650  44.480  11.461  1.00  0.00     0.005 C 
ATOM     20  C   UNL     1       2.858  43.282  10.862  1.00  0.00     0.003 C 
ATOM     21  C   UNL     1       0.576  43.150  12.097  1.00  0.00     0.031 C 
ATOM     22  C   UNL     1       3.177  41.818  11.389  1.00  0.00    -0.008 C 
ATOM     23  C   UNL     1       1.045  41.870  12.704  1.00  0.00    -0.027 C 
ATOM     24  C   UNL     1       2.289  41.385  12.555  1.00  0.00    -0.065 C 
ATOM     25  C   UNL     1       4.671  41.683  11.819  1.00  0.00     0.014 C 
ATOM     26  C   UNL     1       2.900  40.832  10.217  1.00  0.00     0.016 C 
ATOM     27  C   UNL     1       2.654  40.129  13.336  1.00  0.00     0.063 C 
ATOM     28  C   UNL     1       5.014  40.326  12.450  1.00  0.00     0.033 C 
ATOM     29  C   UNL     1       4.147  40.087  13.690  1.00  0.00     0.118 C 
BRANCH  29  30
ATOM     30  O   UNL     1       4.470  38.837  14.242  1.00  0.00    -0.393 OA
ATOM     31  H   UNL     1       3.610  38.390  14.461  1.00  0.00     0.210 HD
ENDBRANCH  29  30
ENDBRANCH   9  11
ENDBRANCH   1   9
TORSDOF 7
ENDMDL
