MODEL 1
REMARK VINA RESULT:    -3.934      0.000      0.000
REMARK INTER + INTRA:          -9.296
REMARK INTER:                  -7.154
REMARK INTRA:                  -2.143
REMARK UNBOUND:                -2.143
REMARK SMILES CCCCCCCCCCCCCCCC(=O)[O-]
REMARK SMILES IDX 9 1 10 2 11 3 12 4 13 5 14 6 15 7 16 8 17 9 18 10 8 11 7 12
REMARK SMILES IDX 6 13 5 14 4 15 3 16 2 17 1 18
REMARK H PARENT
REMARK Flexibility Score: inf
ROOT
ATOM      1  C   UNL     1       2.954   4.096   7.837  1.00  0.00     0.000 C 
ENDROOT
BRANCH   1   2
ATOM      2  C   UNL     1       1.567   4.615   7.414  1.00  0.00     0.000 C 
BRANCH   2   3
ATOM      3  C   UNL     1       1.256   4.485   5.911  1.00  0.00     0.000 C 
BRANCH   3   4
ATOM      4  C   UNL     1       0.029   5.285   5.423  1.00  0.00     0.000 C 
BRANCH   4   5
ATOM      5  C   UNL     1      -1.145   4.433   4.910  1.00  0.00     0.000 C 
BRANCH   5   6
ATOM      6  C   UNL     1      -1.026   2.952   5.305  1.00  0.00     0.006 C 
BRANCH   6   7
ATOM      7  C   UNL     1      -1.825   2.626   6.575  1.00  0.00     0.053 C 
BRANCH   7   8
ATOM      8  C   UNL     1      -3.298   2.803   6.366  1.00  0.00     0.041 C 
ATOM      9  O   UNL     1      -3.920   3.712   6.977  1.00  0.00    -0.550 OA
ATOM     10  O   UNL     1      -3.978   1.983   5.476  1.00  0.00    -0.550 OA
ENDBRANCH   7   8
ENDBRANCH   6   7
ENDBRANCH   5   6
ENDBRANCH   4   5
ENDBRANCH   3   4
ENDBRANCH   2   3
ENDBRANCH   1   2
BRANCH   1  11
ATOM     11  C   UNL     1       3.880   3.753   6.650  1.00  0.00     0.000 C 
BRANCH  11  12
ATOM     12  C   UNL     1       5.229   3.165   7.100  1.00  0.00    -0.000 C 
BRANCH  12  13
ATOM     13  C   UNL     1       5.051   2.021   8.121  1.00  0.00    -0.000 C 
BRANCH  13  14
ATOM     14  C   UNL     1       5.158   0.620   7.497  1.00  0.00    -0.000 C 
BRANCH  14  15
ATOM     15  C   UNL     1       3.828  -0.152   7.532  1.00  0.00    -0.000 C 
BRANCH  15  16
ATOM     16  C   UNL     1       2.939   0.160   6.310  1.00  0.00    -0.000 C 
BRANCH  16  17
ATOM     17  C   UNL     1       1.562   0.735   6.679  1.00  0.00    -0.003 C 
ATOM     18  C   UNL     1       1.319   0.786   8.186  1.00  0.00     0.004 C 
ENDBRANCH  16  17
ENDBRANCH  15  16
ENDBRANCH  14  15
ENDBRANCH  13  14
ENDBRANCH  12  13
ENDBRANCH  11  12
ENDBRANCH   1  11
TORSDOF 14
ENDMDL
MODEL 2
REMARK VINA RESULT:    -3.916      3.150      6.580
REMARK INTER + INTRA:          -9.264
REMARK INTER:                  -6.854
REMARK INTRA:                  -2.410
REMARK UNBOUND:                -2.143
REMARK SMILES CCCCCCCCCCCCCCCC(=O)[O-]
REMARK SMILES IDX 9 1 10 2 11 3 12 4 13 5 14 6 15 7 16 8 17 9 18 10 8 11 7 12
REMARK SMILES IDX 6 13 5 14 4 15 3 16 2 17 1 18
REMARK H PARENT
REMARK Flexibility Score: inf
ROOT
ATOM      1  C   UNL     1      -0.174   4.871   5.367  1.00  0.00     0.000 C 
ENDROOT
BRANCH   1   2
ATOM      2  C   UNL     1      -0.853   5.605   6.539  1.00  0.00     0.000 C 
BRANCH   2   3
ATOM      3  C   UNL     1      -0.207   5.367   7.917  1.00  0.00     0.000 C 
BRANCH   3   4
ATOM      4  C   UNL     1       0.877   4.270   7.952  1.00  0.00     0.000 C 
BRANCH   4   5
ATOM      5  C   UNL     1       0.419   2.918   8.527  1.00  0.00     0.000 C 
BRANCH   5   6
ATOM      6  C   UNL     1       1.220   1.729   7.969  1.00  0.00     0.006 C 
BRANCH   6   7
ATOM      7  C   UNL     1       2.183   2.153   6.852  1.00  0.00     0.053 C 
BRANCH   7   8
ATOM      8  C   UNL     1       3.116   1.044   6.471  1.00  0.00     0.041 C 
ATOM      9  O   UNL     1       2.660  -0.054   6.056  1.00  0.00    -0.550 OA
ATOM     10  O   UNL     1       4.490   1.233   6.549  1.00  0.00    -0.550 OA
ENDBRANCH   7   8
ENDBRANCH   6   7
ENDBRANCH   5   6
ENDBRANCH   4   5
ENDBRANCH   3   4
ENDBRANCH   2   3
ENDBRANCH   1   2
BRANCH   1  11
ATOM     11  C   UNL     1      -1.103   3.883   4.629  1.00  0.00     0.000 C 
BRANCH  11  12
ATOM     12  C   UNL     1      -1.320   2.575   5.411  1.00  0.00    -0.000 C 
BRANCH  12  13
ATOM     13  C   UNL     1      -2.796   2.381   5.818  1.00  0.00    -0.000 C 
BRANCH  13  14
ATOM     14  C   UNL     1      -3.082   2.754   7.283  1.00  0.00    -0.000 C 
BRANCH  14  15
ATOM     15  C   UNL     1      -4.067   3.928   7.418  1.00  0.00    -0.000 C 
BRANCH  15  16
ATOM     16  C   UNL     1      -4.761   4.263   6.082  1.00  0.00    -0.000 C 
BRANCH  16  17
ATOM     17  C   UNL     1      -4.471   5.686   5.575  1.00  0.00    -0.003 C 
ATOM     18  C   UNL     1      -5.392   6.739   6.186  1.00  0.00     0.004 C 
ENDBRANCH  16  17
ENDBRANCH  15  16
ENDBRANCH  14  15
ENDBRANCH  13  14
ENDBRANCH  12  13
ENDBRANCH  11  12
ENDBRANCH   1  11
TORSDOF 14
ENDMDL
MODEL 3
REMARK VINA RESULT:    -3.907      3.194      6.818
REMARK INTER + INTRA:          -9.248
REMARK INTER:                  -6.887
REMARK INTRA:                  -2.361
REMARK UNBOUND:                -2.143
REMARK SMILES CCCCCCCCCCCCCCCC(=O)[O-]
REMARK SMILES IDX 9 1 10 2 11 3 12 4 13 5 14 6 15 7 16 8 17 9 18 10 8 11 7 12
REMARK SMILES IDX 6 13 5 14 4 15 3 16 2 17 1 18
REMARK H PARENT
REMARK Flexibility Score: inf
ROOT
ATOM      1  C   UNL     1      -2.887   2.597   5.545  1.00  0.00     0.000 C 
ENDROOT
BRANCH   1   2
ATOM      2  C   UNL     1      -1.346   2.610   5.570  1.00  0.00     0.000 C 
BRANCH   2   3
ATOM      3  C   UNL     1      -0.701   3.946   5.154  1.00  0.00     0.000 C 
BRANCH   3   4
ATOM      4  C   UNL     1       0.515   4.378   5.999  1.00  0.00     0.000 C 
BRANCH   4   5
ATOM      5  C   UNL     1       0.736   3.568   7.288  1.00  0.00     0.000 C 
BRANCH   5   6
ATOM      6  C   UNL     1       1.975   2.658   7.218  1.00  0.00     0.006 C 
BRANCH   6   7
ATOM      7  C   UNL     1       1.598   1.179   7.059  1.00  0.00     0.053 C 
BRANCH   7   8
ATOM      8  C   UNL     1       2.653   0.413   6.321  1.00  0.00     0.041 C 
ATOM      9  O   UNL     1       3.830   0.857   6.254  1.00  0.00    -0.550 OA
ATOM     10  O   UNL     1       2.343  -0.806   5.731  1.00  0.00    -0.550 OA
ENDBRANCH   7   8
ENDBRANCH   6   7
ENDBRANCH   5   6
ENDBRANCH   4   5
ENDBRANCH   3   4
ENDBRANCH   2   3
ENDBRANCH   1   2
BRANCH   1  11
ATOM     11  C   UNL     1      -3.527   2.162   6.880  1.00  0.00     0.000 C 
BRANCH  11  12
ATOM     12  C   UNL     1      -2.653   2.508   8.099  1.00  0.00    -0.000 C 
BRANCH  12  13
ATOM     13  C   UNL     1      -3.131   3.793   8.809  1.00  0.00    -0.000 C 
BRANCH  13  14
ATOM     14  C   UNL     1      -2.487   5.075   8.256  1.00  0.00    -0.000 C 
BRANCH  14  15
ATOM     15  C   UNL     1      -3.519   6.062   7.683  1.00  0.00    -0.000 C 
BRANCH  15  16
ATOM     16  C   UNL     1      -3.525   6.070   6.141  1.00  0.00    -0.000 C 
BRANCH  16  17
ATOM     17  C   UNL     1      -4.860   5.615   5.528  1.00  0.00    -0.003 C 
ATOM     18  C   UNL     1      -5.849   5.091   6.566  1.00  0.00     0.004 C 
ENDBRANCH  16  17
ENDBRANCH  15  16
ENDBRANCH  14  15
ENDBRANCH  13  14
ENDBRANCH  12  13
ENDBRANCH  11  12
ENDBRANCH   1  11
TORSDOF 14
ENDMDL
MODEL 4
REMARK VINA RESULT:    -3.838      0.985      2.665
REMARK INTER + INTRA:          -9.122
REMARK INTER:                  -6.996
REMARK INTRA:                  -2.127
REMARK UNBOUND:                -2.143
REMARK SMILES CCCCCCCCCCCCCCCC(=O)[O-]
REMARK SMILES IDX 9 1 10 2 11 3 12 4 13 5 14 6 15 7 16 8 17 9 18 10 8 11 7 12
REMARK SMILES IDX 6 13 5 14 4 15 3 16 2 17 1 18
REMARK H PARENT
REMARK Flexibility Score: inf
ROOT
ATOM      1  C   UNL     1       2.105   2.685   8.455  1.00  0.00     0.000 C 
ENDROOT
BRANCH   1   2
ATOM      2  C   UNL     1       2.585   3.714   7.413  1.00  0.00     0.000 C 
BRANCH   2   3
ATOM      3  C   UNL     1       1.602   4.869   7.141  1.00  0.00     0.000 C 
BRANCH   3   4
ATOM      4  C   UNL     1       1.059   4.941   5.698  1.00  0.00     0.000 C 
BRANCH   4   5
ATOM      5  C   UNL     1      -0.473   5.011   5.579  1.00  0.00     0.000 C 
BRANCH   5   6
ATOM      6  C   UNL     1      -1.067   3.831   4.792  1.00  0.00     0.006 C 
BRANCH   6   7
ATOM      7  C   UNL     1      -1.631   2.744   5.717  1.00  0.00     0.053 C 
BRANCH   7   8
ATOM      8  C   UNL     1      -3.118   2.855   5.864  1.00  0.00     0.041 C 
ATOM      9  O   UNL     1      -3.853   1.853   5.660  1.00  0.00    -0.550 OA
ATOM     10  O   UNL     1      -3.690   4.060   6.254  1.00  0.00    -0.550 OA
ENDBRANCH   7   8
ENDBRANCH   6   7
ENDBRANCH   5   6
ENDBRANCH   4   5
ENDBRANCH   3   4
ENDBRANCH   2   3
ENDBRANCH   1   2
BRANCH   1  11
ATOM     11  C   UNL     1       1.214   1.571   7.865  1.00  0.00     0.000 C 
BRANCH  11  12
ATOM     12  C   UNL     1       1.635   1.165   6.441  1.00  0.00    -0.000 C 
BRANCH  12  13
ATOM     13  C   UNL     1       1.942  -0.344   6.335  1.00  0.00    -0.000 C 
BRANCH  13  14
ATOM     14  C   UNL     1       2.292  -0.994   7.683  1.00  0.00    -0.000 C 
BRANCH  14  15
ATOM     15  C   UNL     1       3.809  -1.125   7.907  1.00  0.00    -0.000 C 
BRANCH  15  16
ATOM     16  C   UNL     1       4.293  -0.303   9.119  1.00  0.00    -0.000 C 
BRANCH  16  17
ATOM     17  C   UNL     1       5.299   0.801   8.753  1.00  0.00    -0.003 C 
ATOM     18  C   UNL     1       5.329   1.112   7.258  1.00  0.00     0.004 C 
ENDBRANCH  16  17
ENDBRANCH  15  16
ENDBRANCH  14  15
ENDBRANCH  13  14
ENDBRANCH  12  13
ENDBRANCH  11  12
ENDBRANCH   1  11
TORSDOF 14
ENDMDL
MODEL 5
REMARK VINA RESULT:    -3.833      1.875      3.779
REMARK INTER + INTRA:          -9.113
REMARK INTER:                  -7.495
REMARK INTRA:                  -1.619
REMARK UNBOUND:                -2.143
REMARK SMILES CCCCCCCCCCCCCCCC(=O)[O-]
REMARK SMILES IDX 9 1 10 2 11 3 12 4 13 5 14 6 15 7 16 8 17 9 18 10 8 11 7 12
REMARK SMILES IDX 6 13 5 14 4 15 3 16 2 17 1 18
REMARK H PARENT
REMARK Flexibility Score: inf
ROOT
ATOM      1  C   UNL     1       3.327   1.291   7.351  1.00  0.00     0.000 C 
ENDROOT
BRANCH   1   2
ATOM      2  C   UNL     1       4.467   2.113   6.721  1.00  0.00     0.000 C 
BRANCH   2   3
ATOM      3  C   UNL     1       4.094   3.559   6.344  1.00  0.00     0.000 C 
BRANCH   3   4
ATOM      4  C   UNL     1       2.851   4.124   7.062  1.00  0.00     0.000 C 
BRANCH   4   5
ATOM      5  C   UNL     1       1.617   4.332   6.166  1.00  0.00     0.000 C 
BRANCH   5   6
ATOM      6  C   UNL     1       0.317   3.819   6.810  1.00  0.00     0.006 C 
BRANCH   6   7
ATOM      7  C   UNL     1      -0.219   2.563   6.111  1.00  0.00     0.053 C 
BRANCH   7   8
ATOM      8  C   UNL     1      -1.306   2.890   5.135  1.00  0.00     0.041 C 
ATOM      9  O   UNL     1      -2.475   2.457   5.318  1.00  0.00    -0.550 OA
ATOM     10  O   UNL     1      -1.036   3.697   4.037  1.00  0.00    -0.550 OA
ENDBRANCH   7   8
ENDBRANCH   6   7
ENDBRANCH   5   6
ENDBRANCH   4   5
ENDBRANCH   3   4
ENDBRANCH   2   3
ENDBRANCH   1   2
BRANCH   1  11
ATOM     11  C   UNL     1       2.637   0.324   6.366  1.00  0.00     0.000 C 
BRANCH  11  12
ATOM     12  C   UNL     1       2.484  -1.097   6.938  1.00  0.00    -0.000 C 
BRANCH  12  13
ATOM     13  C   UNL     1       2.486  -1.104   8.482  1.00  0.00    -0.000 C 
BRANCH  13  14
ATOM     14  C   UNL     1       3.607  -1.964   9.089  1.00  0.00    -0.000 C 
BRANCH  14  15
ATOM     15  C   UNL     1       4.915  -1.896   8.282  1.00  0.00    -0.000 C 
BRANCH  15  16
ATOM     16  C   UNL     1       5.916  -0.885   8.878  1.00  0.00    -0.000 C 
BRANCH  16  17
ATOM     17  C   UNL     1       7.014  -0.451   7.894  1.00  0.00    -0.003 C 
ATOM     18  C   UNL     1       7.844  -1.620   7.368  1.00  0.00     0.004 C 
ENDBRANCH  16  17
ENDBRANCH  15  16
ENDBRANCH  14  15
ENDBRANCH  13  14
ENDBRANCH  12  13
ENDBRANCH  11  12
ENDBRANCH   1  11
TORSDOF 14
ENDMDL
MODEL 6
REMARK VINA RESULT:    -3.826      1.035      2.785
REMARK INTER + INTRA:          -9.100
REMARK INTER:                  -6.762
REMARK INTRA:                  -2.338
REMARK UNBOUND:                -2.143
REMARK SMILES CCCCCCCCCCCCCCCC(=O)[O-]
REMARK SMILES IDX 9 1 10 2 11 3 12 4 13 5 14 6 15 7 16 8 17 9 18 10 8 11 7 12
REMARK SMILES IDX 6 13 5 14 4 15 3 16 2 17 1 18
REMARK H PARENT
REMARK Flexibility Score: inf
ROOT
ATOM      1  C   UNL     1       1.459   3.286   9.063  1.00  0.00     0.000 C 
ENDROOT
BRANCH   1   2
ATOM      2  C   UNL     1       0.658   4.425   8.403  1.00  0.00     0.000 C 
BRANCH   2   3
ATOM      3  C   UNL     1       1.406   5.188   7.294  1.00  0.00     0.000 C 
BRANCH   3   4
ATOM      4  C   UNL     1       1.212   4.630   5.869  1.00  0.00     0.000 C 
BRANCH   4   5
ATOM      5  C   UNL     1      -0.230   4.689   5.334  1.00  0.00     0.000 C 
BRANCH   5   6
ATOM      6  C   UNL     1      -0.807   3.300   5.017  1.00  0.00     0.006 C 
BRANCH   6   7
ATOM      7  C   UNL     1      -1.683   2.762   6.157  1.00  0.00     0.053 C 
BRANCH   7   8
ATOM      8  C   UNL     1      -3.142   2.947   5.873  1.00  0.00     0.041 C 
ATOM      9  O   UNL     1      -3.646   4.101   5.868  1.00  0.00    -0.550 OA
ATOM     10  O   UNL     1      -3.939   1.846   5.585  1.00  0.00    -0.550 OA
ENDBRANCH   7   8
ENDBRANCH   6   7
ENDBRANCH   5   6
ENDBRANCH   4   5
ENDBRANCH   3   4
ENDBRANCH   2   3
ENDBRANCH   1   2
BRANCH   1  11
ATOM     11  C   UNL     1       0.712   1.936   9.096  1.00  0.00     0.000 C 
BRANCH  11  12
ATOM     12  C   UNL     1       1.493   0.808   8.398  1.00  0.00    -0.000 C 
BRANCH  12  13
ATOM     13  C   UNL     1       1.633   1.053   6.880  1.00  0.00    -0.000 C 
BRANCH  13  14
ATOM     14  C   UNL     1       3.032   0.724   6.332  1.00  0.00    -0.000 C 
BRANCH  14  15
ATOM     15  C   UNL     1       4.150   1.503   7.045  1.00  0.00    -0.000 C 
BRANCH  15  16
ATOM     16  C   UNL     1       4.377   2.897   6.424  1.00  0.00    -0.000 C 
BRANCH  16  17
ATOM     17  C   UNL     1       5.472   3.715   7.128  1.00  0.00    -0.003 C 
ATOM     18  C   UNL     1       4.921   4.669   8.185  1.00  0.00     0.004 C 
ENDBRANCH  16  17
ENDBRANCH  15  16
ENDBRANCH  14  15
ENDBRANCH  13  14
ENDBRANCH  12  13
ENDBRANCH  11  12
ENDBRANCH   1  11
TORSDOF 14
ENDMDL
MODEL 7
REMARK VINA RESULT:    -3.823     13.566     15.131
REMARK INTER + INTRA:          -9.095
REMARK INTER:                  -6.903
REMARK INTRA:                  -2.192
REMARK UNBOUND:                -2.143
REMARK SMILES CCCCCCCCCCCCCCCC(=O)[O-]
REMARK SMILES IDX 9 1 10 2 11 3 12 4 13 5 14 6 15 7 16 8 17 9 18 10 8 11 7 12
REMARK SMILES IDX 6 13 5 14 4 15 3 16 2 17 1 18
REMARK H PARENT
REMARK Flexibility Score: inf
ROOT
ATOM      1  C   UNL     1      -4.651  -0.564  -7.580  1.00  0.00     0.000 C 
ENDROOT
BRANCH   1   2
ATOM      2  C   UNL     1      -5.789  -1.474  -7.081  1.00  0.00     0.000 C 
BRANCH   2   3
ATOM      3  C   UNL     1      -5.772  -2.906  -7.648  1.00  0.00     0.000 C 
BRANCH   3   4
ATOM      4  C   UNL     1      -5.918  -4.029  -6.600  1.00  0.00     0.000 C 
BRANCH   4   5
ATOM      5  C   UNL     1      -4.642  -4.346  -5.800  1.00  0.00     0.000 C 
BRANCH   5   6
ATOM      6  C   UNL     1      -4.835  -4.192  -4.281  1.00  0.00     0.006 C 
BRANCH   6   7
ATOM      7  C   UNL     1      -4.188  -5.342  -3.497  1.00  0.00     0.053 C 
BRANCH   7   8
ATOM      8  C   UNL     1      -4.818  -6.661  -3.822  1.00  0.00     0.041 C 
ATOM      9  O   UNL     1      -4.149  -7.557  -4.404  1.00  0.00    -0.550 OA
ATOM     10  O   UNL     1      -6.135  -6.912  -3.459  1.00  0.00    -0.550 OA
ENDBRANCH   7   8
ENDBRANCH   6   7
ENDBRANCH   5   6
ENDBRANCH   4   5
ENDBRANCH   3   4
ENDBRANCH   2   3
ENDBRANCH   1   2
BRANCH   1  11
ATOM     11  C   UNL     1      -3.813   0.064  -6.446  1.00  0.00     0.000 C 
BRANCH  11  12
ATOM     12  C   UNL     1      -3.039  -0.985  -5.628  1.00  0.00    -0.000 C 
BRANCH  12  13
ATOM     13  C   UNL     1      -1.973  -1.711  -6.476  1.00  0.00    -0.000 C 
BRANCH  13  14
ATOM     14  C   UNL     1      -0.784  -2.232  -5.652  1.00  0.00    -0.000 C 
BRANCH  14  15
ATOM     15  C   UNL     1      -1.191  -3.313  -4.636  1.00  0.00    -0.000 C 
BRANCH  15  16
ATOM     16  C   UNL     1      -0.382  -4.615  -4.814  1.00  0.00    -0.000 C 
BRANCH  16  17
ATOM     17  C   UNL     1      -1.180  -5.750  -5.475  1.00  0.00    -0.003 C 
ATOM     18  C   UNL     1      -1.332  -5.575  -6.985  1.00  0.00     0.004 C 
ENDBRANCH  16  17
ENDBRANCH  15  16
ENDBRANCH  14  15
ENDBRANCH  13  14
ENDBRANCH  12  13
ENDBRANCH  11  12
ENDBRANCH   1  11
TORSDOF 14
ENDMDL
MODEL 8
REMARK VINA RESULT:    -3.809      1.277      2.358
REMARK INTER + INTRA:          -9.069
REMARK INTER:                  -7.268
REMARK INTRA:                  -1.800
REMARK UNBOUND:                -2.143
REMARK SMILES CCCCCCCCCCCCCCCC(=O)[O-]
REMARK SMILES IDX 9 1 10 2 11 3 12 4 13 5 14 6 15 7 16 8 17 9 18 10 8 11 7 12
REMARK SMILES IDX 6 13 5 14 4 15 3 16 2 17 1 18
REMARK H PARENT
REMARK Flexibility Score: inf
ROOT
ATOM      1  C   UNL     1       0.212   3.034   7.524  1.00  0.00     0.000 C 
ENDROOT
BRANCH   1   2
ATOM      2  C   UNL     1       0.166   2.441   6.102  1.00  0.00     0.000 C 
BRANCH   2   3
ATOM      3  C   UNL     1      -0.851   3.107   5.155  1.00  0.00     0.000 C 
BRANCH   3   4
ATOM      4  C   UNL     1      -1.017   4.630   5.337  1.00  0.00     0.000 C 
BRANCH   4   5
ATOM      5  C   UNL     1      -2.461   5.107   5.567  1.00  0.00     0.000 C 
BRANCH   5   6
ATOM      6  C   UNL     1      -2.975   4.795   6.983  1.00  0.00     0.006 C 
BRANCH   6   7
ATOM      7  C   UNL     1      -4.210   3.885   6.963  1.00  0.00     0.053 C 
BRANCH   7   8
ATOM      8  C   UNL     1      -3.847   2.460   6.677  1.00  0.00     0.041 C 
ATOM      9  O   UNL     1      -4.025   1.979   5.526  1.00  0.00    -0.550 OA
ATOM     10  O   UNL     1      -3.286   1.671   7.673  1.00  0.00    -0.550 OA
ENDBRANCH   7   8
ENDBRANCH   6   7
ENDBRANCH   5   6
ENDBRANCH   4   5
ENDBRANCH   3   4
ENDBRANCH   2   3
ENDBRANCH   1   2
BRANCH   1  11
ATOM     11  C   UNL     1       1.420   3.962   7.773  1.00  0.00     0.000 C 
BRANCH  11  12
ATOM     12  C   UNL     1       2.399   3.993   6.586  1.00  0.00    -0.000 C 
BRANCH  12  13
ATOM     13  C   UNL     1       3.870   3.893   7.044  1.00  0.00    -0.000 C 
BRANCH  13  14
ATOM     14  C   UNL     1       4.510   2.525   6.756  1.00  0.00    -0.000 C 
BRANCH  14  15
ATOM     15  C   UNL     1       4.419   1.560   7.950  1.00  0.00    -0.000 C 
BRANCH  15  16
ATOM     16  C   UNL     1       3.248   0.566   7.808  1.00  0.00    -0.000 C 
BRANCH  16  17
ATOM     17  C   UNL     1       2.918   0.205   6.351  1.00  0.00    -0.003 C 
ATOM     18  C   UNL     1       2.166  -1.117   6.216  1.00  0.00     0.004 C 
ENDBRANCH  16  17
ENDBRANCH  15  16
ENDBRANCH  14  15
ENDBRANCH  13  14
ENDBRANCH  12  13
ENDBRANCH  11  12
ENDBRANCH   1  11
TORSDOF 14
ENDMDL
MODEL 9
REMARK VINA RESULT:    -3.710     13.195     15.273
REMARK INTER + INTRA:          -8.889
REMARK INTER:                  -6.684
REMARK INTRA:                  -2.205
REMARK UNBOUND:                -2.143
REMARK SMILES CCCCCCCCCCCCCCCC(=O)[O-]
REMARK SMILES IDX 9 1 10 2 11 3 12 4 13 5 14 6 15 7 16 8 17 9 18 10 8 11 7 12
REMARK SMILES IDX 6 13 5 14 4 15 3 16 2 17 1 18
REMARK H PARENT
REMARK Flexibility Score: inf
ROOT
ATOM      1  C   UNL     1      -0.379  -3.621  -7.332  1.00  0.00     0.000 C 
ENDROOT
BRANCH   1   2
ATOM      2  C   UNL     1       0.448  -3.384  -6.054  1.00  0.00     0.000 C 
BRANCH   2   3
ATOM      3  C   UNL     1       0.214  -4.411  -4.930  1.00  0.00     0.000 C 
BRANCH   3   4
ATOM      4  C   UNL     1      -0.823  -3.994  -3.866  1.00  0.00     0.000 C 
BRANCH   4   5
ATOM      5  C   UNL     1      -2.060  -4.904  -3.766  1.00  0.00     0.000 C 
BRANCH   5   6
ATOM      6  C   UNL     1      -3.111  -4.605  -4.848  1.00  0.00     0.006 C 
BRANCH   6   7
ATOM      7  C   UNL     1      -4.536  -4.577  -4.279  1.00  0.00     0.053 C 
BRANCH   7   8
ATOM      8  C   UNL     1      -5.132  -5.949  -4.203  1.00  0.00     0.041 C 
ATOM      9  O   UNL     1      -5.278  -6.516  -3.088  1.00  0.00    -0.550 OA
ATOM     10  O   UNL     1      -5.552  -6.590  -5.362  1.00  0.00    -0.550 OA
ENDBRANCH   7   8
ENDBRANCH   6   7
ENDBRANCH   5   6
ENDBRANCH   4   5
ENDBRANCH   3   4
ENDBRANCH   2   3
ENDBRANCH   1   2
BRANCH   1  11
ATOM     11  C   UNL     1      -1.582  -2.665  -7.481  1.00  0.00     0.000 C 
BRANCH  11  12
ATOM     12  C   UNL     1      -1.443  -1.397  -6.620  1.00  0.00    -0.000 C 
BRANCH  12  13
ATOM     13  C   UNL     1      -2.620  -1.233  -5.634  1.00  0.00    -0.000 C 
BRANCH  13  14
ATOM     14  C   UNL     1      -3.577  -0.090  -6.007  1.00  0.00    -0.000 C 
BRANCH  14  15
ATOM     15  C   UNL     1      -4.545  -0.469  -7.141  1.00  0.00    -0.000 C 
BRANCH  15  16
ATOM     16  C   UNL     1      -5.510  -1.601  -6.731  1.00  0.00    -0.000 C 
BRANCH  16  17
ATOM     17  C   UNL     1      -5.344  -2.884  -7.562  1.00  0.00    -0.003 C 
ATOM     18  C   UNL     1      -4.966  -2.611  -9.016  1.00  0.00     0.004 C 
ENDBRANCH  16  17
ENDBRANCH  15  16
ENDBRANCH  14  15
ENDBRANCH  13  14
ENDBRANCH  12  13
ENDBRANCH  11  12
ENDBRANCH   1  11
TORSDOF 14
ENDMDL
