MODEL 1
REMARK VINA RESULT:    -0.296      0.000      0.000
REMARK INTER + INTRA:          -0.610
REMARK INTER:                  -0.357
REMARK INTRA:                  -0.253
REMARK UNBOUND:                -0.253
REMARK SMILES Oc1cc(O)c2cc(O)c(-c3ccc(O)c(O)c3)[o+]c2c1.[Cl-]
REMARK SMILES IDX 10 1 19 2 20 3 21 4 2 5 3 6 4 7 6 8 7 9 8 10 11 11 12 12
REMARK SMILES IDX 13 13 14 14 18 15 16 16 15 17 17 19 9 21 1 23 5 25
REMARK H PARENT 15 18 17 20 9 22 1 24 5 26
REMARK Flexibility Score: inf
ROOT
ATOM      1  C   UNL     1      29.622  37.924  27.119  1.00  0.00     0.402 A 
ATOM      2  O   UNL     1      30.130  36.698  27.036  1.00  0.00    -0.202 OA
ATOM      3  C   UNL     1      29.467  35.665  26.529  1.00  0.00     0.368 A 
ATOM      4  C   UNL     1      30.085  34.412  26.488  1.00  0.00     0.162 A 
ATOM      5  C   UNL     1      29.410  33.310  25.964  1.00  0.00     0.128 A 
ATOM      6  C   UNL     1      28.107  33.458  25.477  1.00  0.00     0.093 A 
ATOM      7  C   UNL     1      27.464  34.701  25.508  1.00  0.00     0.136 A 
ATOM      8  C   UNL     1      28.148  35.827  26.037  1.00  0.00     0.125 A 
ATOM      9  C   UNL     1      27.589  37.113  26.095  1.00  0.00     0.078 A 
ATOM     10  C   UNL     1      28.327  38.174  26.628  1.00  0.00     0.223 A 
ENDROOT
BRANCH   1  11
ATOM     11  C   UNL     1      30.459  38.992  27.714  1.00  0.00     0.087 A 
ATOM     12  C   UNL     1      30.100  39.536  28.958  1.00  0.00     0.022 A 
ATOM     13  C   UNL     1      30.862  40.558  29.529  1.00  0.00     0.051 A 
ATOM     14  C   UNL     1      31.983  41.063  28.861  1.00  0.00     0.157 A 
ATOM     15  C   UNL     1      31.573  39.516  27.034  1.00  0.00     0.068 A 
ATOM     16  C   UNL     1      32.338  40.543  27.605  1.00  0.00     0.158 A 
BRANCH  14  17
ATOM     17  O   UNL     1      32.725  42.081  29.458  1.00  0.00    -0.504 OA
ATOM     18  H   UNL     1      32.466  43.057  29.370  1.00  0.00     0.293 HD
ENDBRANCH  14  17
BRANCH  16  19
ATOM     19  O   UNL     1      33.444  41.052  26.927  1.00  0.00    -0.504 OA
ATOM     20  H   UNL     1      34.010  40.469  26.321  1.00  0.00     0.293 HD
ENDBRANCH  16  19
ENDBRANCH   1  11
BRANCH  10  21
ATOM     21  O   UNL     1      27.791  39.463  26.639  1.00  0.00    -0.500 OA
ATOM     22  H   UNL     1      27.653  39.990  25.786  1.00  0.00     0.294 HD
ENDBRANCH  10  21
BRANCH   5  23
ATOM     23  O   UNL     1      30.043  32.069  25.932  1.00  0.00    -0.507 OA
ATOM     24  H   UNL     1      30.418  31.687  25.071  1.00  0.00     0.293 HD
ENDBRANCH   5  23
BRANCH   7  25
ATOM     25  O   UNL     1      26.161  34.765  25.005  1.00  0.00    -0.507 OA
ATOM     26  H   UNL     1      25.372  34.274  25.401  1.00  0.00     0.293 HD
ENDBRANCH   7  25
TORSDOF 6
ENDMDL
MODEL 2
REMARK VINA RESULT:     0.409      0.666      1.487
REMARK INTER + INTRA:           0.240
REMARK INTER:                   0.585
REMARK INTRA:                  -0.345
REMARK UNBOUND:                -0.253
REMARK SMILES Oc1cc(O)c2cc(O)c(-c3ccc(O)c(O)c3)[o+]c2c1.[Cl-]
REMARK SMILES IDX 10 1 19 2 20 3 21 4 2 5 3 6 4 7 6 8 7 9 8 10 11 11 12 12
REMARK SMILES IDX 13 13 14 14 18 15 16 16 15 17 17 19 9 21 1 23 5 25
REMARK H PARENT 15 18 17 20 9 22 1 24 5 26
REMARK Flexibility Score: inf
ROOT
ATOM      1  C   UNL     1      29.504  38.034  27.041  1.00  0.00     0.402 A 
ATOM      2  O   UNL     1      29.986  36.796  26.979  1.00  0.00    -0.202 OA
ATOM      3  C   UNL     1      29.324  35.781  26.434  1.00  0.00     0.368 A 
ATOM      4  C   UNL     1      29.913  34.514  26.420  1.00  0.00     0.162 A 
ATOM      5  C   UNL     1      29.239  33.429  25.857  1.00  0.00     0.128 A 
ATOM      6  C   UNL     1      27.966  33.610  25.306  1.00  0.00     0.093 A 
ATOM      7  C   UNL     1      27.353  34.869  25.309  1.00  0.00     0.136 A 
ATOM      8  C   UNL     1      28.036  35.976  25.877  1.00  0.00     0.125 A 
ATOM      9  C   UNL     1      27.506  37.276  25.913  1.00  0.00     0.078 A 
ATOM     10  C   UNL     1      28.242  38.317  26.486  1.00  0.00     0.223 A 
ENDROOT
BRANCH   1  11
ATOM     11  C   UNL     1      30.335  39.079  27.682  1.00  0.00     0.087 A 
ATOM     12  C   UNL     1      31.215  39.839  26.896  1.00  0.00     0.022 A 
ATOM     13  C   UNL     1      32.023  40.816  27.482  1.00  0.00     0.051 A 
ATOM     14  C   UNL     1      31.977  41.038  28.862  1.00  0.00     0.157 A 
ATOM     15  C   UNL     1      30.305  39.289  29.073  1.00  0.00     0.068 A 
ATOM     16  C   UNL     1      31.118  40.268  29.663  1.00  0.00     0.158 A 
BRANCH  14  17
ATOM     17  O   UNL     1      32.794  42.022  29.418  1.00  0.00    -0.504 OA
ATOM     18  H   UNL     1      33.757  42.148  29.128  1.00  0.00     0.293 HD
ENDBRANCH  14  17
BRANCH  16  19
ATOM     19  O   UNL     1      31.077  40.474  31.041  1.00  0.00    -0.504 OA
ATOM     20  H   UNL     1      31.145  39.703  31.695  1.00  0.00     0.293 HD
ENDBRANCH  16  19
ENDBRANCH   1  11
BRANCH  10  21
ATOM     21  O   UNL     1      27.737  39.618  26.476  1.00  0.00    -0.500 OA
ATOM     22  H   UNL     1      27.592  40.126  25.612  1.00  0.00     0.294 HD
ENDBRANCH  10  21
BRANCH   5  23
ATOM     23  O   UNL     1      29.843  32.174  25.852  1.00  0.00    -0.507 OA
ATOM     24  H   UNL     1      30.828  32.060  25.643  1.00  0.00     0.293 HD
ENDBRANCH   5  23
BRANCH   7  25
ATOM     25  O   UNL     1      26.079  34.967  24.742  1.00  0.00    -0.507 OA
ATOM     26  H   UNL     1      25.780  34.461  23.920  1.00  0.00     0.293 HD
ENDBRANCH   7  25
TORSDOF 6
ENDMDL
MODEL 3
REMARK VINA RESULT:     0.565      1.013      2.616
REMARK INTER + INTRA:           0.427
REMARK INTER:                   0.688
REMARK INTRA:                  -0.261
REMARK UNBOUND:                -0.253
REMARK SMILES Oc1cc(O)c2cc(O)c(-c3ccc(O)c(O)c3)[o+]c2c1.[Cl-]
REMARK SMILES IDX 10 1 19 2 20 3 21 4 2 5 3 6 4 7 6 8 7 9 8 10 11 11 12 12
REMARK SMILES IDX 13 13 14 14 18 15 16 16 15 17 17 19 9 21 1 23 5 25
REMARK H PARENT 15 18 17 20 9 22 1 24 5 26
REMARK Flexibility Score: inf
ROOT
ATOM      1  C   UNL     1      30.578  37.291  27.454  1.00  0.00     0.402 A 
ATOM      2  O   UNL     1      29.416  37.234  26.810  1.00  0.00    -0.202 OA
ATOM      3  C   UNL     1      28.881  36.101  26.368  1.00  0.00     0.368 A 
ATOM      4  C   UNL     1      27.655  36.143  25.698  1.00  0.00     0.162 A 
ATOM      5  C   UNL     1      27.072  34.969  25.221  1.00  0.00     0.128 A 
ATOM      6  C   UNL     1      27.719  33.743  25.411  1.00  0.00     0.093 A 
ATOM      7  C   UNL     1      28.948  33.673  26.077  1.00  0.00     0.136 A 
ATOM      8  C   UNL     1      29.544  34.865  26.568  1.00  0.00     0.125 A 
ATOM      9  C   UNL     1      30.766  34.890  27.259  1.00  0.00     0.078 A 
ATOM     10  C   UNL     1      31.287  36.104  27.717  1.00  0.00     0.223 A 
ENDROOT
BRANCH   1  11
ATOM     11  C   UNL     1      31.075  38.617  27.890  1.00  0.00     0.087 A 
ATOM     12  C   UNL     1      30.360  39.335  28.862  1.00  0.00     0.022 A 
ATOM     13  C   UNL     1      30.798  40.596  29.273  1.00  0.00     0.051 A 
ATOM     14  C   UNL     1      31.944  41.166  28.710  1.00  0.00     0.157 A 
ATOM     15  C   UNL     1      32.215  39.201  27.308  1.00  0.00     0.068 A 
ATOM     16  C   UNL     1      32.654  40.468  27.720  1.00  0.00     0.158 A 
BRANCH  14  17
ATOM     17  O   UNL     1      32.357  42.426  29.143  1.00  0.00    -0.504 OA
ATOM     18  H   UNL     1      31.951  42.876  29.955  1.00  0.00     0.293 HD
ENDBRANCH  14  17
BRANCH  16  19
ATOM     19  O   UNL     1      33.789  41.036  27.143  1.00  0.00    -0.504 OA
ATOM     20  H   UNL     1      33.860  42.033  26.980  1.00  0.00     0.293 HD
ENDBRANCH  16  19
ENDBRANCH   1  11
BRANCH  10  21
ATOM     21  O   UNL     1      32.475  36.123  28.447  1.00  0.00    -0.500 OA
ATOM     22  H   UNL     1      32.754  35.345  29.033  1.00  0.00     0.294 HD
ENDBRANCH  10  21
BRANCH   5  23
ATOM     23  O   UNL     1      25.850  35.031  24.555  1.00  0.00    -0.507 OA
ATOM     24  H   UNL     1      25.445  35.916  24.273  1.00  0.00     0.293 HD
ENDBRANCH   5  23
BRANCH   7  25
ATOM     25  O   UNL     1      29.531  32.411  26.224  1.00  0.00    -0.507 OA
ATOM     26  H   UNL     1      30.257  32.192  26.892  1.00  0.00     0.293 HD
ENDBRANCH   7  25
TORSDOF 6
ENDMDL
MODEL 4
REMARK VINA RESULT:     0.817      3.251      5.546
REMARK INTER + INTRA:           0.731
REMARK INTER:                   1.062
REMARK INTRA:                  -0.331
REMARK UNBOUND:                -0.253
REMARK SMILES Oc1cc(O)c2cc(O)c(-c3ccc(O)c(O)c3)[o+]c2c1.[Cl-]
REMARK SMILES IDX 10 1 19 2 20 3 21 4 2 5 3 6 4 7 6 8 7 9 8 10 11 11 12 12
REMARK SMILES IDX 13 13 14 14 18 15 16 16 15 17 17 19 9 21 1 23 5 25
REMARK H PARENT 15 18 17 20 9 22 1 24 5 26
REMARK Flexibility Score: inf
ROOT
ATOM      1  C   UNL     1      29.673  37.530  26.385  1.00  0.00     0.402 A 
ATOM      2  O   UNL     1      30.197  38.130  27.450  1.00  0.00    -0.202 OA
ATOM      3  C   UNL     1      29.575  38.216  28.620  1.00  0.00     0.368 A 
ATOM      4  C   UNL     1      30.207  38.870  29.681  1.00  0.00     0.162 A 
ATOM      5  C   UNL     1      29.575  38.977  30.921  1.00  0.00     0.128 A 
ATOM      6  C   UNL     1      28.301  38.429  31.102  1.00  0.00     0.093 A 
ATOM      7  C   UNL     1      27.645  37.770  30.056  1.00  0.00     0.136 A 
ATOM      8  C   UNL     1      28.286  37.655  28.794  1.00  0.00     0.125 A 
ATOM      9  C   UNL     1      27.711  37.000  27.693  1.00  0.00     0.078 A 
ATOM     10  C   UNL     1      28.406  36.924  26.482  1.00  0.00     0.223 A 
ENDROOT
BRANCH   1  11
ATOM     11  C   UNL     1      30.462  37.508  25.132  1.00  0.00     0.087 A 
ATOM     12  C   UNL     1      30.169  38.432  24.117  1.00  0.00     0.022 A 
ATOM     13  C   UNL     1      30.887  38.417  22.918  1.00  0.00     0.051 A 
ATOM     14  C   UNL     1      31.896  37.471  22.709  1.00  0.00     0.157 A 
ATOM     15  C   UNL     1      31.462  36.543  24.912  1.00  0.00     0.068 A 
ATOM     16  C   UNL     1      32.182  36.526  23.708  1.00  0.00     0.158 A 
BRANCH  14  17
ATOM     17  O   UNL     1      32.596  37.482  21.503  1.00  0.00    -0.504 OA
ATOM     18  H   UNL     1      32.125  37.433  20.607  1.00  0.00     0.293 HD
ENDBRANCH  14  17
BRANCH  16  19
ATOM     19  O   UNL     1      33.176  35.571  23.501  1.00  0.00    -0.504 OA
ATOM     20  H   UNL     1      33.671  35.501  22.620  1.00  0.00     0.293 HD
ENDBRANCH  16  19
ENDBRANCH   1  11
BRANCH  10  21
ATOM     21  O   UNL     1      27.857  36.230  25.404  1.00  0.00    -0.500 OA
ATOM     22  H   UNL     1      26.857  36.180  25.255  1.00  0.00     0.294 HD
ENDBRANCH  10  21
BRANCH   5  23
ATOM     23  O   UNL     1      30.221  39.634  31.966  1.00  0.00    -0.507 OA
ATOM     24  H   UNL     1      31.232  39.705  32.002  1.00  0.00     0.293 HD
ENDBRANCH   5  23
BRANCH   7  25
ATOM     25  O   UNL     1      26.373  37.252  30.317  1.00  0.00    -0.507 OA
ATOM     26  H   UNL     1      25.876  36.622  29.703  1.00  0.00     0.293 HD
ENDBRANCH   7  25
TORSDOF 6
ENDMDL
MODEL 5
REMARK VINA RESULT:     1.073      3.262      5.472
REMARK INTER + INTRA:           1.039
REMARK INTER:                   1.319
REMARK INTRA:                  -0.280
REMARK UNBOUND:                -0.253
REMARK SMILES Oc1cc(O)c2cc(O)c(-c3ccc(O)c(O)c3)[o+]c2c1.[Cl-]
REMARK SMILES IDX 10 1 19 2 20 3 21 4 2 5 3 6 4 7 6 8 7 9 8 10 11 11 12 12
REMARK SMILES IDX 13 13 14 14 18 15 16 16 15 17 17 19 9 21 1 23 5 25
REMARK H PARENT 15 18 17 20 9 22 1 24 5 26
REMARK Flexibility Score: inf
ROOT
ATOM      1  C   UNL     1      29.710  37.279  27.047  1.00  0.00     0.402 A 
ATOM      2  O   UNL     1      30.167  37.914  25.971  1.00  0.00    -0.202 OA
ATOM      3  C   UNL     1      29.495  38.877  25.351  1.00  0.00     0.368 A 
ATOM      4  C   UNL     1      30.058  39.483  24.224  1.00  0.00     0.162 A 
ATOM      5  C   UNL     1      29.373  40.494  23.551  1.00  0.00     0.128 A 
ATOM      6  C   UNL     1      28.114  40.903  24.004  1.00  0.00     0.093 A 
ATOM      7  C   UNL     1      27.527  40.312  25.129  1.00  0.00     0.136 A 
ATOM      8  C   UNL     1      28.222  39.285  25.819  1.00  0.00     0.125 A 
ATOM      9  C   UNL     1      27.718  38.645  26.963  1.00  0.00     0.078 A 
ATOM     10  C   UNL     1      28.464  37.644  27.592  1.00  0.00     0.223 A 
ENDROOT
BRANCH   1  11
ATOM     11  C   UNL     1      30.550  36.216  27.645  1.00  0.00     0.087 A 
ATOM     12  C   UNL     1      30.164  34.873  27.506  1.00  0.00     0.022 A 
ATOM     13  C   UNL     1      30.930  33.855  28.079  1.00  0.00     0.051 A 
ATOM     14  C   UNL     1      32.082  34.162  28.811  1.00  0.00     0.157 A 
ATOM     15  C   UNL     1      31.696  36.525  28.400  1.00  0.00     0.068 A 
ATOM     16  C   UNL     1      32.465  35.503  28.977  1.00  0.00     0.158 A 
BRANCH  14  17
ATOM     17  O   UNL     1      32.827  33.123  29.369  1.00  0.00    -0.504 OA
ATOM     18  H   UNL     1      33.102  32.309  28.832  1.00  0.00     0.293 HD
ENDBRANCH  14  17
BRANCH  16  19
ATOM     19  O   UNL     1      33.603  35.817  29.718  1.00  0.00    -0.504 OA
ATOM     20  H   UNL     1      34.408  35.202  29.743  1.00  0.00     0.293 HD
ENDBRANCH  16  19
ENDBRANCH   1  11
BRANCH  10  21
ATOM     21  O   UNL     1      27.987  37.044  28.757  1.00  0.00    -0.500 OA
ATOM     22  H   UNL     1      28.602  36.812  29.528  1.00  0.00     0.294 HD
ENDBRANCH  10  21
BRANCH   5  23
ATOM     23  O   UNL     1      29.950  41.086  22.429  1.00  0.00    -0.507 OA
ATOM     24  H   UNL     1      30.913  40.904  22.171  1.00  0.00     0.293 HD
ENDBRANCH   5  23
BRANCH   7  25
ATOM     25  O   UNL     1      26.265  40.775  25.516  1.00  0.00    -0.507 OA
ATOM     26  H   UNL     1      25.881  41.670  25.252  1.00  0.00     0.293 HD
ENDBRANCH   7  25
TORSDOF 6
ENDMDL
MODEL 6
REMARK VINA RESULT:     1.310      3.263      5.776
REMARK INTER + INTRA:           1.325
REMARK INTER:                   1.628
REMARK INTRA:                  -0.303
REMARK UNBOUND:                -0.253
REMARK SMILES Oc1cc(O)c2cc(O)c(-c3ccc(O)c(O)c3)[o+]c2c1.[Cl-]
REMARK SMILES IDX 10 1 19 2 20 3 21 4 2 5 3 6 4 7 6 8 7 9 8 10 11 11 12 12
REMARK SMILES IDX 13 13 14 14 18 15 16 16 15 17 17 19 9 21 1 23 5 25
REMARK H PARENT 15 18 17 20 9 22 1 24 5 26
REMARK Flexibility Score: inf
ROOT
ATOM      1  C   UNL     1      30.578  38.281  26.897  1.00  0.00     0.402 A 
ATOM      2  O   UNL     1      29.420  37.805  27.345  1.00  0.00    -0.202 OA
ATOM      3  C   UNL     1      28.979  38.003  28.582  1.00  0.00     0.368 A 
ATOM      4  C   UNL     1      27.749  37.459  28.961  1.00  0.00     0.162 A 
ATOM      5  C   UNL     1      27.262  37.648  30.255  1.00  0.00     0.128 A 
ATOM      6  C   UNL     1      28.011  38.385  31.179  1.00  0.00     0.093 A 
ATOM      7  C   UNL     1      29.247  38.939  30.826  1.00  0.00     0.136 A 
ATOM      8  C   UNL     1      29.744  38.752  29.509  1.00  0.00     0.125 A 
ATOM      9  C   UNL     1      30.965  39.282  29.061  1.00  0.00     0.078 A 
ATOM     10  C   UNL     1      31.386  39.058  27.748  1.00  0.00     0.223 A 
ENDROOT
BRANCH   1  11
ATOM     11  C   UNL     1      30.965  37.984  25.498  1.00  0.00     0.087 A 
ATOM     12  C   UNL     1      30.277  38.609  24.446  1.00  0.00     0.022 A 
ATOM     13  C   UNL     1      30.611  38.329  23.118  1.00  0.00     0.051 A 
ATOM     14  C   UNL     1      31.623  37.412  22.821  1.00  0.00     0.157 A 
ATOM     15  C   UNL     1      31.968  37.045  25.198  1.00  0.00     0.068 A 
ATOM     16  C   UNL     1      32.302  36.762  23.865  1.00  0.00     0.158 A 
BRANCH  14  17
ATOM     17  O   UNL     1      31.935  37.155  21.486  1.00  0.00    -0.504 OA
ATOM     18  H   UNL     1      32.432  36.319  21.201  1.00  0.00     0.293 HD
ENDBRANCH  14  17
BRANCH  16  19
ATOM     19  O   UNL     1      33.302  35.834  23.576  1.00  0.00    -0.504 OA
ATOM     20  H   UNL     1      33.305  34.910  23.990  1.00  0.00     0.293 HD
ENDBRANCH  16  19
ENDBRANCH   1  11
BRANCH  10  21
ATOM     21  O   UNL     1      32.574  39.627  27.288  1.00  0.00    -0.500 OA
ATOM     22  H   UNL     1      32.756  40.620  27.367  1.00  0.00     0.294 HD
ENDBRANCH  10  21
BRANCH   5  23
ATOM     23  O   UNL     1      26.034  37.098  30.614  1.00  0.00    -0.507 OA
ATOM     24  H   UNL     1      25.254  37.680  30.896  1.00  0.00     0.293 HD
ENDBRANCH   5  23
BRANCH   7  25
ATOM     25  O   UNL     1      29.935  39.659  31.807  1.00  0.00    -0.507 OA
ATOM     26  H   UNL     1      30.140  39.310  32.732  1.00  0.00     0.293 HD
ENDBRANCH   7  25
TORSDOF 6
ENDMDL
MODEL 7
REMARK VINA RESULT:     2.117      1.528      6.973
REMARK INTER + INTRA:           2.297
REMARK INTER:                   2.637
REMARK INTRA:                  -0.340
REMARK UNBOUND:                -0.253
REMARK SMILES Oc1cc(O)c2cc(O)c(-c3ccc(O)c(O)c3)[o+]c2c1.[Cl-]
REMARK SMILES IDX 10 1 19 2 20 3 21 4 2 5 3 6 4 7 6 8 7 9 8 10 11 11 12 12
REMARK SMILES IDX 13 13 14 14 18 15 16 16 15 17 17 19 9 21 1 23 5 25
REMARK H PARENT 15 18 17 20 9 22 1 24 5 26
REMARK Flexibility Score: inf
ROOT
ATOM      1  C   UNL     1      29.493  37.486  26.850  1.00  0.00     0.402 A 
ATOM      2  O   UNL     1      29.399  37.680  28.162  1.00  0.00    -0.202 OA
ATOM      3  C   UNL     1      30.069  38.627  28.810  1.00  0.00     0.368 A 
ATOM      4  C   UNL     1      29.907  38.751  30.193  1.00  0.00     0.162 A 
ATOM      5  C   UNL     1      30.600  39.734  30.899  1.00  0.00     0.128 A 
ATOM      6  C   UNL     1      31.465  40.600  30.220  1.00  0.00     0.093 A 
ATOM      7  C   UNL     1      31.646  40.497  28.836  1.00  0.00     0.136 A 
ATOM      8  C   UNL     1      30.940  39.500  28.113  1.00  0.00     0.125 A 
ATOM      9  C   UNL     1      31.048  39.331  26.723  1.00  0.00     0.078 A 
ATOM     10  C   UNL     1      30.317  38.329  26.080  1.00  0.00     0.223 A 
ENDROOT
BRANCH   1  11
ATOM     11  C   UNL     1      28.702  36.390  26.244  1.00  0.00     0.087 A 
ATOM     12  C   UNL     1      27.427  36.666  25.725  1.00  0.00     0.022 A 
ATOM     13  C   UNL     1      26.655  35.645  25.167  1.00  0.00     0.051 A 
ATOM     14  C   UNL     1      27.135  34.332  25.134  1.00  0.00     0.157 A 
ATOM     15  C   UNL     1      29.175  35.066  26.230  1.00  0.00     0.068 A 
ATOM     16  C   UNL     1      28.399  34.039  25.672  1.00  0.00     0.158 A 
BRANCH  14  17
ATOM     17  O   UNL     1      26.341  33.334  24.569  1.00  0.00    -0.504 OA
ATOM     18  H   UNL     1      26.740  32.551  24.064  1.00  0.00     0.293 HD
ENDBRANCH  14  17
BRANCH  16  19
ATOM     19  O   UNL     1      28.878  32.730  25.656  1.00  0.00    -0.504 OA
ATOM     20  H   UNL     1      29.354  32.328  26.455  1.00  0.00     0.293 HD
ENDBRANCH  16  19
ENDBRANCH   1  11
BRANCH  10  21
ATOM     21  O   UNL     1      30.386  38.193  24.693  1.00  0.00    -0.500 OA
ATOM     22  H   UNL     1      30.866  37.416  24.256  1.00  0.00     0.294 HD
ENDBRANCH  10  21
BRANCH   5  23
ATOM     23  O   UNL     1      30.425  39.841  32.277  1.00  0.00    -0.507 OA
ATOM     24  H   UNL     1      30.385  40.743  32.738  1.00  0.00     0.293 HD
ENDBRANCH   5  23
BRANCH   7  25
ATOM     25  O   UNL     1      32.529  41.397  28.233  1.00  0.00    -0.507 OA
ATOM     26  H   UNL     1      32.871  42.240  28.671  1.00  0.00     0.293 HD
ENDBRANCH   7  25
TORSDOF 6
ENDMDL
MODEL 8
REMARK VINA RESULT:     2.287      3.365      5.769
REMARK INTER + INTRA:           2.501
REMARK INTER:                   2.829
REMARK INTRA:                  -0.328
REMARK UNBOUND:                -0.253
REMARK SMILES Oc1cc(O)c2cc(O)c(-c3ccc(O)c(O)c3)[o+]c2c1.[Cl-]
REMARK SMILES IDX 10 1 19 2 20 3 21 4 2 5 3 6 4 7 6 8 7 9 8 10 11 11 12 12
REMARK SMILES IDX 13 13 14 14 18 15 16 16 15 17 17 19 9 21 1 23 5 25
REMARK H PARENT 15 18 17 20 9 22 1 24 5 26
REMARK Flexibility Score: inf
ROOT
ATOM      1  C   UNL     1      30.457  37.299  26.172  1.00  0.00     0.402 A 
ATOM      2  O   UNL     1      29.335  37.943  26.484  1.00  0.00    -0.202 OA
ATOM      3  C   UNL     1      28.806  38.897  25.726  1.00  0.00     0.368 A 
ATOM      4  C   UNL     1      27.625  39.519  26.141  1.00  0.00     0.162 A 
ATOM      5  C   UNL     1      27.049  40.526  25.366  1.00  0.00     0.128 A 
ATOM      6  C   UNL     1      27.658  40.918  24.169  1.00  0.00     0.093 A 
ATOM      7  C   UNL     1      28.842  40.313  23.732  1.00  0.00     0.136 A 
ATOM      8  C   UNL     1      29.430  39.285  24.515  1.00  0.00     0.125 A 
ATOM      9  C   UNL     1      30.607  38.612  24.149  1.00  0.00     0.078 A 
ATOM     10  C   UNL     1      31.123  37.607  24.971  1.00  0.00     0.223 A 
ENDROOT
BRANCH   1  11
ATOM     11  C   UNL     1      30.952  36.260  27.104  1.00  0.00     0.087 A 
ATOM     12  C   UNL     1      30.304  35.015  27.155  1.00  0.00     0.022 A 
ATOM     13  C   UNL     1      30.741  34.027  28.041  1.00  0.00     0.051 A 
ATOM     14  C   UNL     1      31.818  34.271  28.898  1.00  0.00     0.157 A 
ATOM     15  C   UNL     1      32.021  36.512  27.982  1.00  0.00     0.068 A 
ATOM     16  C   UNL     1      32.460  35.520  28.873  1.00  0.00     0.158 A 
BRANCH  14  17
ATOM     17  O   UNL     1      32.233  33.264  29.770  1.00  0.00    -0.504 OA
ATOM     18  H   UNL     1      33.210  33.108  29.986  1.00  0.00     0.293 HD
ENDBRANCH  14  17
BRANCH  16  19
ATOM     19  O   UNL     1      33.525  35.776  29.735  1.00  0.00    -0.504 OA
ATOM     20  H   UNL     1      34.445  36.018  29.386  1.00  0.00     0.293 HD
ENDBRANCH  16  19
ENDBRANCH   1  11
BRANCH  10  21
ATOM     21  O   UNL     1      32.264  36.904  24.583  1.00  0.00    -0.500 OA
ATOM     22  H   UNL     1      32.756  37.118  23.723  1.00  0.00     0.294 HD
ENDBRANCH  10  21
BRANCH   5  23
ATOM     23  O   UNL     1      25.872  41.134  25.797  1.00  0.00    -0.507 OA
ATOM     24  H   UNL     1      25.549  42.007  25.396  1.00  0.00     0.293 HD
ENDBRANCH   5  23
BRANCH   7  25
ATOM     25  O   UNL     1      29.389  40.762  22.526  1.00  0.00    -0.507 OA
ATOM     26  H   UNL     1      28.892  41.324  21.849  1.00  0.00     0.293 HD
ENDBRANCH   7  25
TORSDOF 6
ENDMDL
