MODEL 1
REMARK VINA RESULT:    -5.886      0.000      0.000
REMARK INTER + INTRA:          -7.089
REMARK INTER:                  -6.918
REMARK INTRA:                  -0.171
REMARK UNBOUND:                -0.171
REMARK SMILES O=C([O-])C=Cc1ccc(O)c(O)c1
REMARK SMILES IDX 6 1 13 2 7 3 11 4 8 5 9 6 5 7 4 8 2 9 1 10 3 11 12 12 10 14
REMARK H PARENT 12 13 10 15
REMARK Flexibility Score: inf
ROOT
ATOM      1  C   UNL     1       6.259  81.680  14.355  1.00  0.00    -0.022 A 
ATOM      2  C   UNL     1       5.929  81.396  13.019  1.00  0.00     0.058 A 
ATOM      3  C   UNL     1       6.065  82.977  14.850  1.00  0.00     0.012 A 
ATOM      4  C   UNL     1       5.360  82.386  12.202  1.00  0.00     0.157 A 
ATOM      5  C   UNL     1       5.497  83.964  14.038  1.00  0.00     0.051 A 
ATOM      6  C   UNL     1       5.140  83.674  12.718  1.00  0.00     0.157 A 
ENDROOT
BRANCH   1   7
ATOM      7  C   UNL     1       6.907  80.667  15.215  1.00  0.00     0.010 C 
ATOM      8  C   UNL     1       6.285  79.916  16.135  1.00  0.00     0.025 C 
BRANCH   8   9
ATOM      9  C   UNL     1       4.891  80.095  16.586  1.00  0.00     0.064 C 
ATOM     10  O   UNL     1       3.949  79.764  15.820  1.00  0.00    -0.545 OA
ATOM     11  O   UNL     1       4.595  80.554  17.864  1.00  0.00    -0.545 OA
ENDBRANCH   8   9
ENDBRANCH   1   7
BRANCH   4  12
ATOM     12  O   UNL     1       5.020  82.093  10.882  1.00  0.00    -0.504 OA
ATOM     13  H   UNL     1       4.136  81.657  10.647  1.00  0.00     0.293 HD
ENDBRANCH   4  12
BRANCH   6  14
ATOM     14  O   UNL     1       4.574  84.678  11.933  1.00  0.00    -0.504 OA
ATOM     15  H   UNL     1       3.616  84.630  11.608  1.00  0.00     0.293 HD
ENDBRANCH   6  14
TORSDOF 4
ENDMDL
MODEL 2
REMARK VINA RESULT:    -5.538      0.757      2.065
REMARK INTER + INTRA:          -6.680
REMARK INTER:                  -6.504
REMARK INTRA:                  -0.176
REMARK UNBOUND:                -0.171
REMARK SMILES O=C([O-])C=Cc1ccc(O)c(O)c1
REMARK SMILES IDX 6 1 13 2 7 3 11 4 8 5 9 6 5 7 4 8 2 9 1 10 3 11 12 12 10 14
REMARK H PARENT 12 13 10 15
REMARK Flexibility Score: inf
ROOT
ATOM      1  C   UNL     1       6.400  81.544  14.517  1.00  0.00    -0.022 A 
ATOM      2  C   UNL     1       6.082  82.867  14.868  1.00  0.00     0.058 A 
ATOM      3  C   UNL     1       6.031  81.061  13.254  1.00  0.00     0.012 A 
ATOM      4  C   UNL     1       5.450  83.714  13.944  1.00  0.00     0.157 A 
ATOM      5  C   UNL     1       5.403  81.903  12.332  1.00  0.00     0.051 A 
ATOM      6  C   UNL     1       5.114  83.229  12.669  1.00  0.00     0.157 A 
ENDROOT
BRANCH   1   7
ATOM      7  C   UNL     1       7.017  80.621  15.493  1.00  0.00     0.010 C 
ATOM      8  C   UNL     1       6.354  79.908  16.414  1.00  0.00     0.025 C 
BRANCH   8   9
ATOM      9  C   UNL     1       4.922  80.056  16.744  1.00  0.00     0.064 C 
ATOM     10  O   UNL     1       4.594  80.514  17.868  1.00  0.00    -0.545 OA
ATOM     11  O   UNL     1       3.930  79.768  15.814  1.00  0.00    -0.545 OA
ENDBRANCH   8   9
ENDBRANCH   1   7
BRANCH   4  12
ATOM     12  O   UNL     1       5.152  85.031  14.292  1.00  0.00    -0.504 OA
ATOM     13  H   UNL     1       5.247  85.362  15.245  1.00  0.00     0.293 HD
ENDBRANCH   4  12
BRANCH   6  14
ATOM     14  O   UNL     1       4.488  84.047  11.728  1.00  0.00    -0.504 OA
ATOM     15  H   UNL     1       4.337  83.749  10.772  1.00  0.00     0.293 HD
ENDBRANCH   6  14
TORSDOF 4
ENDMDL
MODEL 3
REMARK VINA RESULT:    -5.269      7.249      9.459
REMARK INTER + INTRA:          -6.364
REMARK INTER:                  -6.118
REMARK INTRA:                  -0.246
REMARK UNBOUND:                -0.171
REMARK SMILES O=C([O-])C=Cc1ccc(O)c(O)c1
REMARK SMILES IDX 6 1 13 2 7 3 11 4 8 5 9 6 5 7 4 8 2 9 1 10 3 11 12 12 10 14
REMARK H PARENT 12 13 10 15
REMARK Flexibility Score: inf
ROOT
ATOM      1  C   UNL     1       4.809  80.863   5.021  1.00  0.00    -0.022 A 
ATOM      2  C   UNL     1       4.367  81.659   3.951  1.00  0.00     0.058 A 
ATOM      3  C   UNL     1       6.183  80.647   5.195  1.00  0.00     0.012 A 
ATOM      4  C   UNL     1       5.292  82.276   3.096  1.00  0.00     0.157 A 
ATOM      5  C   UNL     1       7.106  81.262   4.344  1.00  0.00     0.051 A 
ATOM      6  C   UNL     1       6.668  82.079   3.298  1.00  0.00     0.157 A 
ENDROOT
BRANCH   1   7
ATOM      7  C   UNL     1       3.850  80.161   5.901  1.00  0.00     0.010 C 
ATOM      8  C   UNL     1       3.430  80.598   7.097  1.00  0.00     0.025 C 
BRANCH   8   9
ATOM      9  C   UNL     1       3.987  81.752   7.830  1.00  0.00     0.064 C 
ATOM     10  O   UNL     1       3.550  82.906   7.585  1.00  0.00    -0.545 OA
ATOM     11  O   UNL     1       4.931  81.585   8.837  1.00  0.00    -0.545 OA
ENDBRANCH   8   9
ENDBRANCH   1   7
BRANCH   4  12
ATOM     12  O   UNL     1       4.847  83.079   2.046  1.00  0.00    -0.504 OA
ATOM     13  H   UNL     1       5.428  83.810   1.654  1.00  0.00     0.293 HD
ENDBRANCH   4  12
BRANCH   6  14
ATOM     14  O   UNL     1       7.613  82.682   2.467  1.00  0.00    -0.504 OA
ATOM     15  H   UNL     1       8.256  82.140   1.903  1.00  0.00     0.293 HD
ENDBRANCH   6  14
TORSDOF 4
ENDMDL
MODEL 4
REMARK VINA RESULT:    -5.143      1.834      4.932
REMARK INTER + INTRA:          -6.216
REMARK INTER:                  -6.131
REMARK INTRA:                  -0.085
REMARK UNBOUND:                -0.171
REMARK SMILES O=C([O-])C=Cc1ccc(O)c(O)c1
REMARK SMILES IDX 6 1 13 2 7 3 11 4 8 5 9 6 5 7 4 8 2 9 1 10 3 11 12 12 10 14
REMARK H PARENT 12 13 10 15
REMARK Flexibility Score: inf
ROOT
ATOM      1  C   UNL     1       5.984  80.844  15.697  1.00  0.00    -0.022 A 
ATOM      2  C   UNL     1       6.276  82.080  16.299  1.00  0.00     0.058 A 
ATOM      3  C   UNL     1       5.190  79.916  16.384  1.00  0.00     0.012 A 
ATOM      4  C   UNL     1       5.734  82.405  17.552  1.00  0.00     0.157 A 
ATOM      5  C   UNL     1       4.648  80.238  17.632  1.00  0.00     0.051 A 
ATOM      6  C   UNL     1       4.913  81.480  18.218  1.00  0.00     0.157 A 
ENDROOT
BRANCH   1   7
ATOM      7  C   UNL     1       6.587  80.463  14.402  1.00  0.00     0.010 C 
ATOM      8  C   UNL     1       6.470  81.152  13.258  1.00  0.00     0.025 C 
BRANCH   8   9
ATOM      9  C   UNL     1       5.572  82.303  13.039  1.00  0.00     0.064 C 
ATOM     10  O   UNL     1       4.340  82.101  12.886  1.00  0.00    -0.545 OA
ATOM     11  O   UNL     1       6.046  83.609  13.071  1.00  0.00    -0.545 OA
ENDBRANCH   8   9
ENDBRANCH   1   7
BRANCH   4  12
ATOM     12  O   UNL     1       6.014  83.639  18.137  1.00  0.00    -0.504 OA
ATOM     13  H   UNL     1       5.958  84.502  17.608  1.00  0.00     0.293 HD
ENDBRANCH   4  12
BRANCH   6  14
ATOM     14  O   UNL     1       4.357  81.774  19.463  1.00  0.00    -0.504 OA
ATOM     15  H   UNL     1       3.635  82.475  19.577  1.00  0.00     0.293 HD
ENDBRANCH   6  14
TORSDOF 4
ENDMDL
MODEL 5
REMARK VINA RESULT:    -5.109      1.817      4.836
REMARK INTER + INTRA:          -6.176
REMARK INTER:                  -6.267
REMARK INTRA:                   0.091
REMARK UNBOUND:                -0.171
REMARK SMILES O=C([O-])C=Cc1ccc(O)c(O)c1
REMARK SMILES IDX 6 1 13 2 7 3 11 4 8 5 9 6 5 7 4 8 2 9 1 10 3 11 12 12 10 14
REMARK H PARENT 12 13 10 15
REMARK Flexibility Score: inf
ROOT
ATOM      1  C   UNL     1       6.118  81.053  16.024  1.00  0.00    -0.022 A 
ATOM      2  C   UNL     1       5.327  80.293  16.903  1.00  0.00     0.058 A 
ATOM      3  C   UNL     1       6.292  82.423  16.267  1.00  0.00     0.012 A 
ATOM      4  C   UNL     1       4.762  80.886  18.042  1.00  0.00     0.157 A 
ATOM      5  C   UNL     1       5.731  83.015  17.402  1.00  0.00     0.051 A 
ATOM      6  C   UNL     1       4.970  82.252  18.293  1.00  0.00     0.157 A 
ENDROOT
BRANCH   1   7
ATOM      7  C   UNL     1       6.678  80.460  14.792  1.00  0.00     0.010 C 
ATOM      8  C   UNL     1       6.552  80.970  13.557  1.00  0.00     0.025 C 
BRANCH   8   9
ATOM      9  C   UNL     1       5.680  82.101  13.183  1.00  0.00     0.064 C 
ATOM     10  O   UNL     1       4.439  81.918  13.098  1.00  0.00    -0.545 OA
ATOM     11  O   UNL     1       6.192  83.379  12.994  1.00  0.00    -0.545 OA
ENDBRANCH   8   9
ENDBRANCH   1   7
BRANCH   4  12
ATOM     12  O   UNL     1       3.992  80.122  18.919  1.00  0.00    -0.504 OA
ATOM     13  H   UNL     1       3.807  80.429  19.867  1.00  0.00     0.293 HD
ENDBRANCH   4  12
BRANCH   6  14
ATOM     14  O   UNL     1       4.424  82.870  19.419  1.00  0.00    -0.504 OA
ATOM     15  H   UNL     1       4.272  82.369  20.286  1.00  0.00     0.293 HD
ENDBRANCH   6  14
TORSDOF 4
ENDMDL
MODEL 6
REMARK VINA RESULT:    -4.712      1.887      2.362
REMARK INTER + INTRA:          -5.709
REMARK INTER:                  -5.650
REMARK INTRA:                  -0.059
REMARK UNBOUND:                -0.171
REMARK SMILES O=C([O-])C=Cc1ccc(O)c(O)c1
REMARK SMILES IDX 6 1 13 2 7 3 11 4 8 5 9 6 5 7 4 8 2 9 1 10 3 11 12 12 10 14
REMARK H PARENT 12 13 10 15
REMARK Flexibility Score: inf
ROOT
ATOM      1  C   UNL     1       6.160  82.451  16.351  1.00  0.00    -0.022 A 
ATOM      2  C   UNL     1       6.560  81.346  15.580  1.00  0.00     0.058 A 
ATOM      3  C   UNL     1       5.715  83.613  15.706  1.00  0.00     0.012 A 
ATOM      4  C   UNL     1       6.464  81.384  14.181  1.00  0.00     0.157 A 
ATOM      5  C   UNL     1       5.617  83.652  14.312  1.00  0.00     0.051 A 
ATOM      6  C   UNL     1       5.986  82.542  13.546  1.00  0.00     0.157 A 
ENDROOT
BRANCH   1   7
ATOM      7  C   UNL     1       6.304  82.449  17.822  1.00  0.00     0.010 C 
ATOM      8  C   UNL     1       5.588  81.698  18.671  1.00  0.00     0.025 C 
BRANCH   8   9
ATOM      9  C   UNL     1       4.410  80.884  18.311  1.00  0.00     0.064 C 
ATOM     10  O   UNL     1       4.578  79.785  17.723  1.00  0.00    -0.545 OA
ATOM     11  O   UNL     1       3.125  81.271  18.671  1.00  0.00    -0.545 OA
ENDBRANCH   8   9
ENDBRANCH   1   7
BRANCH   4  12
ATOM     12  O   UNL     1       6.846  80.278  13.422  1.00  0.00    -0.504 OA
ATOM     13  H   UNL     1       7.403  80.378  12.581  1.00  0.00     0.293 HD
ENDBRANCH   4  12
BRANCH   6  14
ATOM     14  O   UNL     1       5.875  82.610  12.157  1.00  0.00    -0.504 OA
ATOM     15  H   UNL     1       4.998  82.819  11.697  1.00  0.00     0.293 HD
ENDBRANCH   6  14
TORSDOF 4
ENDMDL
MODEL 7
REMARK VINA RESULT:    -4.456      9.893     12.115
REMARK INTER + INTRA:          -5.408
REMARK INTER:                  -5.132
REMARK INTRA:                  -0.276
REMARK UNBOUND:                -0.171
REMARK SMILES O=C([O-])C=Cc1ccc(O)c(O)c1
REMARK SMILES IDX 6 1 13 2 7 3 11 4 8 5 9 6 5 7 4 8 2 9 1 10 3 11 12 12 10 14
REMARK H PARENT 12 13 10 15
REMARK Flexibility Score: inf
ROOT
ATOM      1  C   UNL     1       3.627  79.380   2.869  1.00  0.00    -0.022 A 
ATOM      2  C   UNL     1       3.923  79.769   4.187  1.00  0.00     0.058 A 
ATOM      3  C   UNL     1       3.951  80.240   1.811  1.00  0.00     0.012 A 
ATOM      4  C   UNL     1       4.585  80.980   4.439  1.00  0.00     0.157 A 
ATOM      5  C   UNL     1       4.611  81.447   2.059  1.00  0.00     0.051 A 
ATOM      6  C   UNL     1       4.933  81.820   3.368  1.00  0.00     0.157 A 
ENDROOT
BRANCH   1   7
ATOM      7  C   UNL     1       2.884  78.134   2.588  1.00  0.00     0.010 C 
ATOM      8  C   UNL     1       3.439  76.940   2.333  1.00  0.00     0.025 C 
BRANCH   8   9
ATOM      9  C   UNL     1       4.876  76.695   2.101  1.00  0.00     0.064 C 
ATOM     10  O   UNL     1       5.556  76.129   2.996  1.00  0.00    -0.545 OA
ATOM     11  O   UNL     1       5.480  77.011   0.890  1.00  0.00    -0.545 OA
ENDBRANCH   8   9
ENDBRANCH   1   7
BRANCH   4  12
ATOM     12  O   UNL     1       4.891  81.352   5.747  1.00  0.00    -0.504 OA
ATOM     13  H   UNL     1       4.762  82.303   6.072  1.00  0.00     0.293 HD
ENDBRANCH   4  12
BRANCH   6  14
ATOM     14  O   UNL     1       5.594  83.029   3.585  1.00  0.00    -0.504 OA
ATOM     15  H   UNL     1       5.583  83.494   4.484  1.00  0.00     0.293 HD
ENDBRANCH   6  14
TORSDOF 4
ENDMDL
MODEL 8
REMARK VINA RESULT:    -4.419     10.575     11.312
REMARK INTER + INTRA:          -5.365
REMARK INTER:                  -5.069
REMARK INTRA:                  -0.296
REMARK UNBOUND:                -0.171
REMARK SMILES O=C([O-])C=Cc1ccc(O)c(O)c1
REMARK SMILES IDX 6 1 13 2 7 3 11 4 8 5 9 6 5 7 4 8 2 9 1 10 3 11 12 12 10 14
REMARK H PARENT 12 13 10 15
REMARK Flexibility Score: inf
ROOT
ATOM      1  C   UNL     1       5.568  72.392  10.505  1.00  0.00    -0.022 A 
ATOM      2  C   UNL     1       5.604  72.138   9.123  1.00  0.00     0.058 A 
ATOM      3  C   UNL     1       4.332  72.431  11.164  1.00  0.00     0.012 A 
ATOM      4  C   UNL     1       4.419  71.872   8.419  1.00  0.00     0.157 A 
ATOM      5  C   UNL     1       3.151  72.166  10.465  1.00  0.00     0.051 A 
ATOM      6  C   UNL     1       3.188  71.882   9.097  1.00  0.00     0.157 A 
ENDROOT
BRANCH   1   7
ATOM      7  C   UNL     1       6.798  72.726  11.253  1.00  0.00     0.010 C 
ATOM      8  C   UNL     1       7.635  71.837  11.808  1.00  0.00     0.025 C 
BRANCH   8   9
ATOM      9  C   UNL     1       7.384  70.388  11.936  1.00  0.00     0.064 C 
ATOM     10  O   UNL     1       6.830  69.949  12.977  1.00  0.00    -0.545 OA
ATOM     11  O   UNL     1       7.679  69.507  10.902  1.00  0.00    -0.545 OA
ENDBRANCH   8   9
ENDBRANCH   1   7
BRANCH   4  12
ATOM     12  O   UNL     1       4.463  71.604   7.052  1.00  0.00    -0.504 OA
ATOM     13  H   UNL     1       5.284  71.813   6.496  1.00  0.00     0.293 HD
ENDBRANCH   4  12
BRANCH   6  14
ATOM     14  O   UNL     1       1.994  71.619   8.426  1.00  0.00    -0.504 OA
ATOM     15  H   UNL     1       1.970  71.117   7.547  1.00  0.00     0.293 HD
ENDBRANCH   6  14
TORSDOF 4
ENDMDL
MODEL 9
REMARK VINA RESULT:    -4.405     10.402     11.736
REMARK INTER + INTRA:          -5.349
REMARK INTER:                  -5.073
REMARK INTRA:                  -0.275
REMARK UNBOUND:                -0.171
REMARK SMILES O=C([O-])C=Cc1ccc(O)c(O)c1
REMARK SMILES IDX 6 1 13 2 7 3 11 4 8 5 9 6 5 7 4 8 2 9 1 10 3 11 12 12 10 14
REMARK H PARENT 12 13 10 15
REMARK Flexibility Score: inf
ROOT
ATOM      1  C   UNL     1       4.380  72.426  10.392  1.00  0.00    -0.022 A 
ATOM      2  C   UNL     1       4.166  72.203  11.763  1.00  0.00     0.058 A 
ATOM      3  C   UNL     1       5.684  72.364   9.882  1.00  0.00     0.012 A 
ATOM      4  C   UNL     1       5.238  71.868  12.604  1.00  0.00     0.157 A 
ATOM      5  C   UNL     1       6.753  72.029  10.718  1.00  0.00     0.051 A 
ATOM      6  C   UNL     1       6.536  71.777  12.076  1.00  0.00     0.157 A 
ENDROOT
BRANCH   1   7
ATOM      7  C   UNL     1       3.272  72.831   9.502  1.00  0.00     0.010 C 
ATOM      8  C   UNL     1       2.379  72.000   8.946  1.00  0.00     0.025 C 
BRANCH   8   9
ATOM      9  C   UNL     1       2.451  70.526   8.968  1.00  0.00     0.064 C 
ATOM     10  O   UNL     1       1.845  69.894   9.871  1.00  0.00    -0.545 OA
ATOM     11  O   UNL     1       3.113  69.817   7.973  1.00  0.00    -0.545 OA
ENDBRANCH   8   9
ENDBRANCH   1   7
BRANCH   4  12
ATOM     12  O   UNL     1       5.017  71.632  13.960  1.00  0.00    -0.504 OA
ATOM     13  H   UNL     1       4.220  72.028  14.445  1.00  0.00     0.293 HD
ENDBRANCH   4  12
BRANCH   6  14
ATOM     14  O   UNL     1       7.623  71.443  12.885  1.00  0.00    -0.504 OA
ATOM     15  H   UNL     1       8.034  70.518  12.877  1.00  0.00     0.293 HD
ENDBRANCH   6  14
TORSDOF 4
ENDMDL
