MODEL 1
REMARK VINA RESULT:    -3.071      0.000      0.000
REMARK INTER + INTRA:         -11.256
REMARK INTER:                  -7.739
REMARK INTRA:                  -3.518
REMARK UNBOUND:                -3.518
REMARK SMILES CCCCCCCCCCCCCCCCCCCCCCCCCCCC(=O)[O-]
REMARK SMILES IDX 15 1 16 2 17 3 18 4 19 5 20 6 21 7 22 8 23 9 24 10 25 11
REMARK SMILES IDX 26 12 27 13 28 14 29 15 30 16 14 17 13 18 12 19 11 20 10 21
REMARK SMILES IDX 9 22 8 23 7 24 6 25 5 26 4 27 3 28 2 29 1 30
REMARK H PARENT
REMARK Flexibility Score: inf
ROOT
ATOM      1  C   UNL     1     144.047 148.872 145.218  1.00  0.00     0.000 C 
ENDROOT
BRANCH   1   2
ATOM      2  C   UNL     1     143.072 148.372 146.302  1.00  0.00     0.000 C 
BRANCH   2   3
ATOM      3  C   UNL     1     143.707 147.529 147.422  1.00  0.00     0.000 C 
BRANCH   3   4
ATOM      4  C   UNL     1     143.453 146.019 147.266  1.00  0.00     0.000 C 
BRANCH   4   5
ATOM      5  C   UNL     1     144.632 145.295 146.594  1.00  0.00     0.000 C 
BRANCH   5   6
ATOM      6  C   UNL     1     144.192 144.431 145.399  1.00  0.00     0.000 C 
BRANCH   6   7
ATOM      7  C   UNL     1     145.056 144.663 144.149  1.00  0.00     0.000 C 
BRANCH   7   8
ATOM      8  C   UNL     1     146.026 145.859 144.229  1.00  0.00     0.000 C 
BRANCH   8   9
ATOM      9  C   UNL     1     146.266 146.572 142.880  1.00  0.00     0.000 C 
BRANCH   9  10
ATOM     10  C   UNL     1     147.426 147.581 142.931  1.00  0.00     0.000 C 
BRANCH  10  11
ATOM     11  C   UNL     1     146.951 149.038 142.793  1.00  0.00     0.000 C 
BRANCH  11  12
ATOM     12  C   UNL     1     146.224 149.328 141.460  1.00  0.00     0.006 C 
BRANCH  12  13
ATOM     13  C   UNL     1     144.723 149.600 141.631  1.00  0.00     0.053 C 
BRANCH  13  14
ATOM     14  C   UNL     1     144.121 150.197 140.393  1.00  0.00     0.041 C 
ATOM     15  O   UNL     1     143.432 149.484 139.615  1.00  0.00    -0.550 OA
ATOM     16  O   UNL     1     144.320 151.540 140.102  1.00  0.00    -0.550 OA
ENDBRANCH  13  14
ENDBRANCH  12  13
ENDBRANCH  11  12
ENDBRANCH  10  11
ENDBRANCH   9  10
ENDBRANCH   8   9
ENDBRANCH   7   8
ENDBRANCH   6   7
ENDBRANCH   5   6
ENDBRANCH   4   5
ENDBRANCH   3   4
ENDBRANCH   2   3
ENDBRANCH   1   2
BRANCH   1  17
ATOM     17  C   UNL     1     144.477 150.333 145.417  1.00  0.00     0.000 C 
BRANCH  17  18
ATOM     18  C   UNL     1     143.426 151.110 146.221  1.00  0.00     0.000 C 
BRANCH  18  19
ATOM     19  C   UNL     1     144.050 151.763 147.461  1.00  0.00     0.000 C 
BRANCH  19  20
ATOM     20  C   UNL     1     145.517 151.352 147.685  1.00  0.00     0.000 C 
BRANCH  20  21
ATOM     21  C   UNL     1     145.889 151.145 149.168  1.00  0.00     0.000 C 
BRANCH  21  22
ATOM     22  C   UNL     1     145.909 149.660 149.568  1.00  0.00    -0.000 C 
BRANCH  22  23
ATOM     23  C   UNL     1     145.080 149.384 150.833  1.00  0.00    -0.000 C 
BRANCH  23  24
ATOM     24  C   UNL     1     143.789 150.216 150.879  1.00  0.00    -0.000 C 
BRANCH  24  25
ATOM     25  C   UNL     1     143.445 150.621 152.322  1.00  0.00    -0.000 C 
BRANCH  25  26
ATOM     26  C   UNL     1     144.700 150.967 153.151  1.00  0.00    -0.000 C 
BRANCH  26  27
ATOM     27  C   UNL     1     144.782 152.446 153.568  1.00  0.00    -0.000 C 
BRANCH  27  28
ATOM     28  C   UNL     1     145.442 153.337 152.504  1.00  0.00    -0.000 C 
BRANCH  28  29
ATOM     29  C   UNL     1     146.368 154.400 153.115  1.00  0.00    -0.003 C 
ATOM     30  C   UNL     1     145.947 155.825 152.757  1.00  0.00     0.004 C 
ENDBRANCH  28  29
ENDBRANCH  27  28
ENDBRANCH  26  27
ENDBRANCH  25  26
ENDBRANCH  24  25
ENDBRANCH  23  24
ENDBRANCH  22  23
ENDBRANCH  21  22
ENDBRANCH  20  21
ENDBRANCH  19  20
ENDBRANCH  18  19
ENDBRANCH  17  18
ENDBRANCH   1  17
TORSDOF 26
ENDMDL
MODEL 2
REMARK VINA RESULT:    -3.053      3.653      9.412
REMARK INTER + INTRA:         -11.212
REMARK INTER:                  -7.226
REMARK INTRA:                  -3.986
REMARK UNBOUND:                -3.518
REMARK SMILES CCCCCCCCCCCCCCCCCCCCCCCCCCCC(=O)[O-]
REMARK SMILES IDX 15 1 16 2 17 3 18 4 19 5 20 6 21 7 22 8 23 9 24 10 25 11
REMARK SMILES IDX 26 12 27 13 28 14 29 15 30 16 14 17 13 18 12 19 11 20 10 21
REMARK SMILES IDX 9 22 8 23 7 24 6 25 5 26 4 27 3 28 2 29 1 30
REMARK H PARENT
REMARK Flexibility Score: inf
ROOT
ATOM      1  C   UNL     1     144.412 149.729 145.105  1.00  0.00     0.000 C 
ENDROOT
BRANCH   1   2
ATOM      2  C   UNL     1     143.779 151.095 144.771  1.00  0.00     0.000 C 
BRANCH   2   3
ATOM      3  C   UNL     1     143.740 152.105 145.933  1.00  0.00     0.000 C 
BRANCH   3   4
ATOM      4  C   UNL     1     142.969 151.589 147.161  1.00  0.00     0.000 C 
BRANCH   4   5
ATOM      5  C   UNL     1     143.780 151.730 148.461  1.00  0.00     0.000 C 
BRANCH   5   6
ATOM      6  C   UNL     1     145.190 151.124 148.347  1.00  0.00     0.000 C 
BRANCH   6   7
ATOM      7  C   UNL     1     145.263 149.685 148.882  1.00  0.00     0.000 C 
BRANCH   7   8
ATOM      8  C   UNL     1     145.770 149.545 150.331  1.00  0.00     0.000 C 
BRANCH   8   9
ATOM      9  C   UNL     1     144.649 149.492 151.392  1.00  0.00     0.000 C 
BRANCH   9  10
ATOM     10  C   UNL     1     144.732 150.639 152.413  1.00  0.00     0.000 C 
BRANCH  10  11
ATOM     11  C   UNL     1     143.621 151.687 152.221  1.00  0.00     0.000 C 
BRANCH  11  12
ATOM     12  C   UNL     1     144.153 153.094 151.866  1.00  0.00     0.006 C 
BRANCH  12  13
ATOM     13  C   UNL     1     145.435 153.469 152.624  1.00  0.00     0.053 C 
BRANCH  13  14
ATOM     14  C   UNL     1     145.495 154.939 152.920  1.00  0.00     0.041 C 
ATOM     15  O   UNL     1     144.743 155.742 152.306  1.00  0.00    -0.550 OA
ATOM     16  O   UNL     1     146.381 155.419 153.877  1.00  0.00    -0.550 OA
ENDBRANCH  13  14
ENDBRANCH  12  13
ENDBRANCH  11  12
ENDBRANCH  10  11
ENDBRANCH   9  10
ENDBRANCH   8   9
ENDBRANCH   7   8
ENDBRANCH   6   7
ENDBRANCH   5   6
ENDBRANCH   4   5
ENDBRANCH   3   4
ENDBRANCH   2   3
ENDBRANCH   1   2
BRANCH   1  17
ATOM     17  C   UNL     1     143.424 148.559 144.983  1.00  0.00     0.000 C 
BRANCH  17  18
ATOM     18  C   UNL     1     143.188 147.897 146.347  1.00  0.00     0.000 C 
BRANCH  18  19
ATOM     19  C   UNL     1     143.147 146.369 146.219  1.00  0.00     0.000 C 
BRANCH  19  20
ATOM     20  C   UNL     1     144.395 145.681 146.801  1.00  0.00     0.000 C 
BRANCH  20  21
ATOM     21  C   UNL     1     145.284 144.997 145.741  1.00  0.00     0.000 C 
BRANCH  21  22
ATOM     22  C   UNL     1     144.651 145.016 144.339  1.00  0.00    -0.000 C 
BRANCH  22  23
ATOM     23  C   UNL     1     145.424 145.915 143.361  1.00  0.00    -0.000 C 
BRANCH  23  24
ATOM     24  C   UNL     1     146.943 145.849 143.580  1.00  0.00    -0.000 C 
BRANCH  24  25
ATOM     25  C   UNL     1     147.658 146.984 142.829  1.00  0.00    -0.000 C 
BRANCH  25  26
ATOM     26  C   UNL     1     146.912 148.330 142.947  1.00  0.00    -0.000 C 
BRANCH  26  27
ATOM     27  C   UNL     1     146.659 149.022 141.596  1.00  0.00    -0.000 C 
BRANCH  27  28
ATOM     28  C   UNL     1     145.599 148.308 140.743  1.00  0.00    -0.000 C 
BRANCH  28  29
ATOM     29  C   UNL     1     144.227 148.997 140.809  1.00  0.00    -0.003 C 
ATOM     30  C   UNL     1     144.326 150.478 141.170  1.00  0.00     0.004 C 
ENDBRANCH  28  29
ENDBRANCH  27  28
ENDBRANCH  26  27
ENDBRANCH  25  26
ENDBRANCH  24  25
ENDBRANCH  23  24
ENDBRANCH  22  23
ENDBRANCH  21  22
ENDBRANCH  20  21
ENDBRANCH  19  20
ENDBRANCH  18  19
ENDBRANCH  17  18
ENDBRANCH   1  17
TORSDOF 26
ENDMDL
MODEL 3
REMARK VINA RESULT:    -3.017      4.047     10.072
REMARK INTER + INTRA:         -11.119
REMARK INTER:                  -7.087
REMARK INTRA:                  -4.032
REMARK UNBOUND:                -3.518
REMARK SMILES CCCCCCCCCCCCCCCCCCCCCCCCCCCC(=O)[O-]
REMARK SMILES IDX 15 1 16 2 17 3 18 4 19 5 20 6 21 7 22 8 23 9 24 10 25 11
REMARK SMILES IDX 26 12 27 13 28 14 29 15 30 16 14 17 13 18 12 19 11 20 10 21
REMARK SMILES IDX 9 22 8 23 7 24 6 25 5 26 4 27 3 28 2 29 1 30
REMARK H PARENT
REMARK Flexibility Score: inf
ROOT
ATOM      1  C   UNL     1     144.017 149.533 146.388  1.00  0.00     0.000 C 
ENDROOT
BRANCH   1   2
ATOM      2  C   UNL     1     143.194 150.698 146.971  1.00  0.00     0.000 C 
BRANCH   2   3
ATOM      3  C   UNL     1     143.998 151.735 147.777  1.00  0.00     0.000 C 
BRANCH   3   4
ATOM      4  C   UNL     1     145.508 151.441 147.810  1.00  0.00     0.000 C 
BRANCH   4   5
ATOM      5  C   UNL     1     145.998 151.056 149.217  1.00  0.00     0.000 C 
BRANCH   5   6
ATOM      6  C   UNL     1     145.791 149.563 149.527  1.00  0.00     0.000 C 
BRANCH   6   7
ATOM      7  C   UNL     1     144.508 149.295 150.330  1.00  0.00     0.000 C 
BRANCH   7   8
ATOM      8  C   UNL     1     144.644 149.441 151.858  1.00  0.00     0.000 C 
BRANCH   8   9
ATOM      9  C   UNL     1     143.620 150.407 152.496  1.00  0.00     0.000 C 
BRANCH   9  10
ATOM     10  C   UNL     1     142.976 151.361 151.476  1.00  0.00     0.000 C 
BRANCH  10  11
ATOM     11  C   UNL     1     143.685 152.726 151.411  1.00  0.00     0.000 C 
BRANCH  11  12
ATOM     12  C   UNL     1     144.811 152.888 152.457  1.00  0.00     0.006 C 
BRANCH  12  13
ATOM     13  C   UNL     1     145.170 154.353 152.742  1.00  0.00     0.053 C 
BRANCH  13  14
ATOM     14  C   UNL     1     146.127 154.478 153.891  1.00  0.00     0.041 C 
ATOM     15  O   UNL     1     145.694 154.601 155.067  1.00  0.00    -0.550 OA
ATOM     16  O   UNL     1     147.497 154.455 153.660  1.00  0.00    -0.550 OA
ENDBRANCH  13  14
ENDBRANCH  12  13
ENDBRANCH  11  12
ENDBRANCH  10  11
ENDBRANCH   9  10
ENDBRANCH   8   9
ENDBRANCH   7   8
ENDBRANCH   6   7
ENDBRANCH   5   6
ENDBRANCH   4   5
ENDBRANCH   3   4
ENDBRANCH   2   3
ENDBRANCH   1   2
BRANCH   1  17
ATOM     17  C   UNL     1     144.020 149.502 144.852  1.00  0.00     0.000 C 
BRANCH  17  18
ATOM     18  C   UNL     1     143.517 148.151 144.329  1.00  0.00     0.000 C 
BRANCH  18  19
ATOM     19  C   UNL     1     143.793 147.030 145.339  1.00  0.00     0.000 C 
BRANCH  19  20
ATOM     20  C   UNL     1     144.706 145.924 144.779  1.00  0.00     0.000 C 
BRANCH  20  21
ATOM     21  C   UNL     1     145.358 146.276 143.426  1.00  0.00     0.000 C 
BRANCH  21  22
ATOM     22  C   UNL     1     146.895 146.258 143.491  1.00  0.00    -0.000 C 
BRANCH  22  23
ATOM     23  C   UNL     1     147.530 147.344 142.606  1.00  0.00    -0.000 C 
BRANCH  23  24
ATOM     24  C   UNL     1     147.068 148.758 142.993  1.00  0.00    -0.000 C 
BRANCH  24  25
ATOM     25  C   UNL     1     146.838 149.623 141.743  1.00  0.00    -0.000 C 
BRANCH  25  26
ATOM     26  C   UNL     1     145.344 149.934 141.509  1.00  0.00    -0.000 C 
BRANCH  26  27
ATOM     27  C   UNL     1     144.555 148.767 140.889  1.00  0.00    -0.000 C 
BRANCH  27  28
ATOM     28  C   UNL     1     145.056 148.379 139.490  1.00  0.00    -0.000 C 
BRANCH  28  29
ATOM     29  C   UNL     1     145.602 146.943 139.435  1.00  0.00    -0.003 C 
ATOM     30  C   UNL     1     147.042 146.878 138.929  1.00  0.00     0.004 C 
ENDBRANCH  28  29
ENDBRANCH  27  28
ENDBRANCH  26  27
ENDBRANCH  25  26
ENDBRANCH  24  25
ENDBRANCH  23  24
ENDBRANCH  22  23
ENDBRANCH  21  22
ENDBRANCH  20  21
ENDBRANCH  19  20
ENDBRANCH  18  19
ENDBRANCH  17  18
ENDBRANCH   1  17
TORSDOF 26
ENDMDL
MODEL 4
REMARK VINA RESULT:    -2.950      4.153      9.614
REMARK INTER + INTRA:         -10.952
REMARK INTER:                  -6.775
REMARK INTRA:                  -4.177
REMARK UNBOUND:                -3.518
REMARK SMILES CCCCCCCCCCCCCCCCCCCCCCCCCCCC(=O)[O-]
REMARK SMILES IDX 15 1 16 2 17 3 18 4 19 5 20 6 21 7 22 8 23 9 24 10 25 11
REMARK SMILES IDX 26 12 27 13 28 14 29 15 30 16 14 17 13 18 12 19 11 20 10 21
REMARK SMILES IDX 9 22 8 23 7 24 6 25 5 26 4 27 3 28 2 29 1 30
REMARK H PARENT
REMARK Flexibility Score: inf
ROOT
ATOM      1  C   UNL     1     144.295 152.122 147.112  1.00  0.00     0.000 C 
ENDROOT
BRANCH   1   2
ATOM      2  C   UNL     1     145.485 151.370 147.737  1.00  0.00     0.000 C 
BRANCH   2   3
ATOM      3  C   UNL     1     145.303 150.954 149.208  1.00  0.00     0.000 C 
BRANCH   3   4
ATOM      4  C   UNL     1     143.828 150.851 149.633  1.00  0.00     0.000 C 
BRANCH   4   5
ATOM      5  C   UNL     1     143.576 149.673 150.590  1.00  0.00     0.000 C 
BRANCH   5   6
ATOM      6  C   UNL     1     144.698 149.505 151.629  1.00  0.00     0.000 C 
BRANCH   6   7
ATOM      7  C   UNL     1     144.162 149.185 153.034  1.00  0.00     0.000 C 
BRANCH   7   8
ATOM      8  C   UNL     1     143.118 150.177 153.584  1.00  0.00     0.000 C 
BRANCH   8   9
ATOM      9  C   UNL     1     143.656 151.609 153.797  1.00  0.00     0.000 C 
BRANCH   9  10
ATOM     10  C   UNL     1     142.974 152.649 152.892  1.00  0.00     0.000 C 
BRANCH  10  11
ATOM     11  C   UNL     1     143.981 153.583 152.197  1.00  0.00     0.000 C 
BRANCH  11  12
ATOM     12  C   UNL     1     145.455 153.170 152.409  1.00  0.00     0.006 C 
BRANCH  12  13
ATOM     13  C   UNL     1     146.364 154.342 152.806  1.00  0.00     0.053 C 
BRANCH  13  14
ATOM     14  C   UNL     1     145.950 154.947 154.115  1.00  0.00     0.041 C 
ATOM     15  O   UNL     1     145.768 156.191 154.210  1.00  0.00    -0.550 OA
ATOM     16  O   UNL     1     145.763 154.137 155.228  1.00  0.00    -0.550 OA
ENDBRANCH  13  14
ENDBRANCH  12  13
ENDBRANCH  11  12
ENDBRANCH  10  11
ENDBRANCH   9  10
ENDBRANCH   8   9
ENDBRANCH   7   8
ENDBRANCH   6   7
ENDBRANCH   5   6
ENDBRANCH   4   5
ENDBRANCH   3   4
ENDBRANCH   2   3
ENDBRANCH   1   2
BRANCH   1  17
ATOM     17  C   UNL     1     143.821 151.510 145.785  1.00  0.00     0.000 C 
BRANCH  17  18
ATOM     18  C   UNL     1     144.613 150.238 145.454  1.00  0.00     0.000 C 
BRANCH  18  19
ATOM     19  C   UNL     1     143.688 149.017 145.374  1.00  0.00     0.000 C 
BRANCH  19  20
ATOM     20  C   UNL     1     143.050 148.654 146.727  1.00  0.00     0.000 C 
BRANCH  20  21
ATOM     21  C   UNL     1     143.795 147.540 147.492  1.00  0.00     0.000 C 
BRANCH  21  22
ATOM     22  C   UNL     1     143.412 146.132 147.005  1.00  0.00    -0.000 C 
BRANCH  22  23
ATOM     23  C   UNL     1     144.613 145.369 146.421  1.00  0.00    -0.000 C 
BRANCH  23  24
ATOM     24  C   UNL     1     144.235 144.544 145.182  1.00  0.00    -0.000 C 
BRANCH  24  25
ATOM     25  C   UNL     1     144.672 145.256 143.891  1.00  0.00    -0.000 C 
BRANCH  25  26
ATOM     26  C   UNL     1     145.797 146.284 144.137  1.00  0.00    -0.000 C 
BRANCH  26  27
ATOM     27  C   UNL     1     147.037 146.073 143.250  1.00  0.00    -0.000 C 
BRANCH  27  28
ATOM     28  C   UNL     1     147.396 147.311 142.414  1.00  0.00    -0.000 C 
BRANCH  28  29
ATOM     29  C   UNL     1     146.877 148.617 143.038  1.00  0.00    -0.003 C 
ATOM     30  C   UNL     1     146.788 149.759 142.027  1.00  0.00     0.004 C 
ENDBRANCH  28  29
ENDBRANCH  27  28
ENDBRANCH  26  27
ENDBRANCH  25  26
ENDBRANCH  24  25
ENDBRANCH  23  24
ENDBRANCH  22  23
ENDBRANCH  21  22
ENDBRANCH  20  21
ENDBRANCH  19  20
ENDBRANCH  18  19
ENDBRANCH  17  18
ENDBRANCH   1  17
TORSDOF 26
ENDMDL
MODEL 5
REMARK VINA RESULT:    -2.919      2.362      4.543
REMARK INTER + INTRA:         -10.875
REMARK INTER:                  -7.682
REMARK INTRA:                  -3.192
REMARK UNBOUND:                -3.518
REMARK SMILES CCCCCCCCCCCCCCCCCCCCCCCCCCCC(=O)[O-]
REMARK SMILES IDX 15 1 16 2 17 3 18 4 19 5 20 6 21 7 22 8 23 9 24 10 25 11
REMARK SMILES IDX 26 12 27 13 28 14 29 15 30 16 14 17 13 18 12 19 11 20 10 21
REMARK SMILES IDX 9 22 8 23 7 24 6 25 5 26 4 27 3 28 2 29 1 30
REMARK H PARENT
REMARK Flexibility Score: inf
ROOT
ATOM      1  C   UNL     1     145.462 149.901 149.414  1.00  0.00     0.000 C 
ENDROOT
BRANCH   1   2
ATOM      2  C   UNL     1     146.004 151.164 148.718  1.00  0.00     0.000 C 
BRANCH   2   3
ATOM      3  C   UNL     1     145.164 151.677 147.534  1.00  0.00     0.000 C 
BRANCH   3   4
ATOM      4  C   UNL     1     143.650 151.652 147.807  1.00  0.00     0.000 C 
BRANCH   4   5
ATOM      5  C   UNL     1     142.891 150.761 146.809  1.00  0.00     0.000 C 
BRANCH   5   6
ATOM      6  C   UNL     1     143.820 150.120 145.763  1.00  0.00     0.000 C 
BRANCH   6   7
ATOM      7  C   UNL     1     143.225 148.847 145.141  1.00  0.00     0.000 C 
BRANCH   7   8
ATOM      8  C   UNL     1     143.512 148.648 143.640  1.00  0.00     0.000 C 
BRANCH   8   9
ATOM      9  C   UNL     1     144.847 147.932 143.339  1.00  0.00     0.000 C 
BRANCH   9  10
ATOM     10  C   UNL     1     146.052 148.888 143.318  1.00  0.00     0.000 C 
BRANCH  10  11
ATOM     11  C   UNL     1     147.313 148.242 142.717  1.00  0.00     0.000 C 
BRANCH  11  12
ATOM     12  C   UNL     1     147.493 146.758 143.109  1.00  0.00     0.006 C 
BRANCH  12  13
ATOM     13  C   UNL     1     147.864 145.856 141.924  1.00  0.00     0.053 C 
BRANCH  13  14
ATOM     14  C   UNL     1     146.870 145.971 140.805  1.00  0.00     0.041 C 
ATOM     15  O   UNL     1     147.190 146.543 139.729  1.00  0.00    -0.550 OA
ATOM     16  O   UNL     1     145.593 145.445 140.953  1.00  0.00    -0.550 OA
ENDBRANCH  13  14
ENDBRANCH  12  13
ENDBRANCH  11  12
ENDBRANCH  10  11
ENDBRANCH   9  10
ENDBRANCH   8   9
ENDBRANCH   7   8
ENDBRANCH   6   7
ENDBRANCH   5   6
ENDBRANCH   4   5
ENDBRANCH   3   4
ENDBRANCH   2   3
ENDBRANCH   1   2
BRANCH   1  17
ATOM     17  C   UNL     1     145.020 150.151 150.864  1.00  0.00     0.000 C 
BRANCH  17  18
ATOM     18  C   UNL     1     145.062 151.647 151.201  1.00  0.00     0.000 C 
BRANCH  18  19
ATOM     19  C   UNL     1     143.809 152.075 151.975  1.00  0.00     0.000 C 
BRANCH  19  20
ATOM     20  C   UNL     1     143.206 150.940 152.823  1.00  0.00     0.000 C 
BRANCH  20  21
ATOM     21  C   UNL     1     143.433 151.103 154.340  1.00  0.00     0.000 C 
BRANCH  21  22
ATOM     22  C   UNL     1     144.723 150.416 154.820  1.00  0.00    -0.000 C 
BRANCH  22  23
ATOM     23  C   UNL     1     145.845 151.424 155.119  1.00  0.00    -0.000 C 
BRANCH  23  24
ATOM     24  C   UNL     1     145.328 152.681 155.835  1.00  0.00    -0.000 C 
BRANCH  24  25
ATOM     25  C   UNL     1     145.644 153.947 155.023  1.00  0.00    -0.000 C 
BRANCH  25  26
ATOM     26  C   UNL     1     146.649 153.680 153.882  1.00  0.00    -0.000 C 
BRANCH  26  27
ATOM     27  C   UNL     1     146.606 154.728 152.756  1.00  0.00    -0.000 C 
BRANCH  27  28
ATOM     28  C   UNL     1     145.309 155.551 152.749  1.00  0.00    -0.000 C 
BRANCH  28  29
ATOM     29  C   UNL     1     145.570 157.065 152.805  1.00  0.00    -0.003 C 
ATOM     30  C   UNL     1     145.202 157.678 154.155  1.00  0.00     0.004 C 
ENDBRANCH  28  29
ENDBRANCH  27  28
ENDBRANCH  26  27
ENDBRANCH  25  26
ENDBRANCH  24  25
ENDBRANCH  23  24
ENDBRANCH  22  23
ENDBRANCH  21  22
ENDBRANCH  20  21
ENDBRANCH  19  20
ENDBRANCH  18  19
ENDBRANCH  17  18
ENDBRANCH   1  17
TORSDOF 26
ENDMDL
MODEL 6
REMARK VINA RESULT:    -2.903      3.884     10.147
REMARK INTER + INTRA:         -10.834
REMARK INTER:                  -7.187
REMARK INTRA:                  -3.648
REMARK UNBOUND:                -3.518
REMARK SMILES CCCCCCCCCCCCCCCCCCCCCCCCCCCC(=O)[O-]
REMARK SMILES IDX 15 1 16 2 17 3 18 4 19 5 20 6 21 7 22 8 23 9 24 10 25 11
REMARK SMILES IDX 26 12 27 13 28 14 29 15 30 16 14 17 13 18 12 19 11 20 10 21
REMARK SMILES IDX 9 22 8 23 7 24 6 25 5 26 4 27 3 28 2 29 1 30
REMARK H PARENT
REMARK Flexibility Score: inf
ROOT
ATOM      1  C   UNL     1     145.443 151.369 147.874  1.00  0.00     0.000 C 
ENDROOT
BRANCH   1   2
ATOM      2  C   UNL     1     145.899 151.143 149.328  1.00  0.00     0.000 C 
BRANCH   2   3
ATOM      3  C   UNL     1     145.888 149.679 149.803  1.00  0.00     0.000 C 
BRANCH   3   4
ATOM      4  C   UNL     1     145.151 149.478 151.139  1.00  0.00     0.000 C 
BRANCH   4   5
ATOM      5  C   UNL     1     143.949 150.426 151.291  1.00  0.00     0.000 C 
BRANCH   5   6
ATOM      6  C   UNL     1     142.980 149.981 152.400  1.00  0.00     0.000 C 
BRANCH   6   7
ATOM      7  C   UNL     1     143.538 148.828 153.249  1.00  0.00     0.000 C 
BRANCH   7   8
ATOM      8  C   UNL     1     143.652 149.115 154.759  1.00  0.00     0.000 C 
BRANCH   8   9
ATOM      9  C   UNL     1     143.950 150.591 155.103  1.00  0.00     0.000 C 
BRANCH   9  10
ATOM     10  C   UNL     1     145.432 150.963 154.927  1.00  0.00     0.000 C 
BRANCH  10  11
ATOM     11  C   UNL     1     145.632 152.440 154.543  1.00  0.00     0.000 C 
BRANCH  11  12
ATOM     12  C   UNL     1     144.396 153.074 153.864  1.00  0.00     0.006 C 
BRANCH  12  13
ATOM     13  C   UNL     1     144.755 154.003 152.696  1.00  0.00     0.053 C 
BRANCH  13  14
ATOM     14  C   UNL     1     145.328 155.304 153.176  1.00  0.00     0.041 C 
ATOM     15  O   UNL     1     146.272 155.852 152.547  1.00  0.00    -0.550 OA
ATOM     16  O   UNL     1     144.818 155.910 154.317  1.00  0.00    -0.550 OA
ENDBRANCH  13  14
ENDBRANCH  12  13
ENDBRANCH  11  12
ENDBRANCH  10  11
ENDBRANCH   9  10
ENDBRANCH   8   9
ENDBRANCH   7   8
ENDBRANCH   6   7
ENDBRANCH   5   6
ENDBRANCH   4   5
ENDBRANCH   3   4
ENDBRANCH   2   3
ENDBRANCH   1   2
BRANCH   1  17
ATOM     17  C   UNL     1     143.939 151.657 147.749  1.00  0.00     0.000 C 
BRANCH  17  18
ATOM     18  C   UNL     1     143.359 151.009 146.485  1.00  0.00     0.000 C 
BRANCH  18  19
ATOM     19  C   UNL     1     144.392 150.100 145.807  1.00  0.00     0.000 C 
BRANCH  19  20
ATOM     20  C   UNL     1     143.768 149.140 144.778  1.00  0.00     0.000 C 
BRANCH  20  21
ATOM     21  C   UNL     1     143.463 149.795 143.414  1.00  0.00     0.000 C 
BRANCH  21  22
ATOM     22  C   UNL     1     143.210 148.759 142.306  1.00  0.00    -0.000 C 
BRANCH  22  23
ATOM     23  C   UNL     1     144.147 148.950 141.102  1.00  0.00    -0.000 C 
BRANCH  23  24
ATOM     24  C   UNL     1     145.331 149.875 141.423  1.00  0.00    -0.000 C 
BRANCH  24  25
ATOM     25  C   UNL     1     146.651 149.089 141.464  1.00  0.00    -0.000 C 
BRANCH  25  26
ATOM     26  C   UNL     1     146.985 148.573 142.880  1.00  0.00    -0.000 C 
BRANCH  26  27
ATOM     27  C   UNL     1     147.680 147.200 142.894  1.00  0.00    -0.000 C 
BRANCH  27  28
ATOM     28  C   UNL     1     146.696 146.026 142.769  1.00  0.00    -0.000 C 
BRANCH  28  29
ATOM     29  C   UNL     1     145.576 146.079 143.820  1.00  0.00    -0.003 C 
ATOM     30  C   UNL     1     144.271 145.457 143.323  1.00  0.00     0.004 C 
ENDBRANCH  28  29
ENDBRANCH  27  28
ENDBRANCH  26  27
ENDBRANCH  25  26
ENDBRANCH  24  25
ENDBRANCH  23  24
ENDBRANCH  22  23
ENDBRANCH  21  22
ENDBRANCH  20  21
ENDBRANCH  19  20
ENDBRANCH  18  19
ENDBRANCH  17  18
ENDBRANCH   1  17
TORSDOF 26
ENDMDL
MODEL 7
REMARK VINA RESULT:    -2.900      4.088     10.252
REMARK INTER + INTRA:         -10.826
REMARK INTER:                  -7.255
REMARK INTRA:                  -3.571
REMARK UNBOUND:                -3.518
REMARK SMILES CCCCCCCCCCCCCCCCCCCCCCCCCCCC(=O)[O-]
REMARK SMILES IDX 15 1 16 2 17 3 18 4 19 5 20 6 21 7 22 8 23 9 24 10 25 11
REMARK SMILES IDX 26 12 27 13 28 14 29 15 30 16 14 17 13 18 12 19 11 20 10 21
REMARK SMILES IDX 9 22 8 23 7 24 6 25 5 26 4 27 3 28 2 29 1 30
REMARK H PARENT
REMARK Flexibility Score: inf
ROOT
ATOM      1  C   UNL     1     147.011 148.667 142.038  1.00  0.00     0.000 C 
ENDROOT
BRANCH   1   2
ATOM      2  C   UNL     1     146.390 149.889 142.743  1.00  0.00     0.000 C 
BRANCH   2   3
ATOM      3  C   UNL     1     145.523 149.570 143.975  1.00  0.00     0.000 C 
BRANCH   3   4
ATOM      4  C   UNL     1     144.163 150.288 143.963  1.00  0.00     0.000 C 
BRANCH   4   5
ATOM      5  C   UNL     1     143.927 151.112 145.241  1.00  0.00     0.000 C 
BRANCH   5   6
ATOM      6  C   UNL     1     144.602 150.493 146.478  1.00  0.00     0.000 C 
BRANCH   6   7
ATOM      7  C   UNL     1     145.091 151.551 147.480  1.00  0.00     0.000 C 
BRANCH   7   8
ATOM      8  C   UNL     1     145.929 151.010 148.655  1.00  0.00     0.000 C 
BRANCH   8   9
ATOM      9  C   UNL     1     145.433 149.660 149.219  1.00  0.00     0.000 C 
BRANCH   9  10
ATOM     10  C   UNL     1     145.114 149.718 150.723  1.00  0.00     0.000 C 
BRANCH  10  11
ATOM     11  C   UNL     1     144.435 151.036 151.136  1.00  0.00     0.000 C 
BRANCH  11  12
ATOM     12  C   UNL     1     144.957 151.607 152.474  1.00  0.00     0.006 C 
BRANCH  12  13
ATOM     13  C   UNL     1     145.200 153.122 152.436  1.00  0.00     0.053 C 
BRANCH  13  14
ATOM     14  C   UNL     1     145.937 153.598 153.653  1.00  0.00     0.041 C 
ATOM     15  O   UNL     1     146.784 154.526 153.560  1.00  0.00    -0.550 OA
ATOM     16  O   UNL     1     145.685 153.016 154.890  1.00  0.00    -0.550 OA
ENDBRANCH  13  14
ENDBRANCH  12  13
ENDBRANCH  11  12
ENDBRANCH  10  11
ENDBRANCH   9  10
ENDBRANCH   8   9
ENDBRANCH   7   8
ENDBRANCH   6   7
ENDBRANCH   5   6
ENDBRANCH   4   5
ENDBRANCH   3   4
ENDBRANCH   2   3
ENDBRANCH   1   2
BRANCH   1  17
ATOM     17  C   UNL     1     147.390 147.537 143.006  1.00  0.00     0.000 C 
BRANCH  17  18
ATOM     18  C   UNL     1     147.727 146.250 142.242  1.00  0.00     0.000 C 
BRANCH  18  19
ATOM     19  C   UNL     1     147.009 145.040 142.855  1.00  0.00     0.000 C 
BRANCH  19  20
ATOM     20  C   UNL     1     145.920 145.435 143.869  1.00  0.00     0.000 C 
BRANCH  20  21
ATOM     21  C   UNL     1     144.686 144.509 143.854  1.00  0.00     0.000 C 
BRANCH  21  22
ATOM     22  C   UNL     1     143.486 145.138 143.126  1.00  0.00    -0.000 C 
BRANCH  22  23
ATOM     23  C   UNL     1     143.581 146.672 143.059  1.00  0.00    -0.000 C 
BRANCH  23  24
ATOM     24  C   UNL     1     143.350 147.212 141.640  1.00  0.00    -0.000 C 
BRANCH  24  25
ATOM     25  C   UNL     1     144.416 146.680 140.668  1.00  0.00    -0.000 C 
BRANCH  25  26
ATOM     26  C   UNL     1     144.103 147.038 139.199  1.00  0.00    -0.000 C 
BRANCH  26  27
ATOM     27  C   UNL     1     144.880 148.261 138.678  1.00  0.00    -0.000 C 
BRANCH  27  28
ATOM     28  C   UNL     1     144.021 149.196 137.813  1.00  0.00    -0.000 C 
BRANCH  28  29
ATOM     29  C   UNL     1     143.622 150.484 138.552  1.00  0.00    -0.003 C 
ATOM     30  C   UNL     1     144.126 150.515 139.995  1.00  0.00     0.004 C 
ENDBRANCH  28  29
ENDBRANCH  27  28
ENDBRANCH  26  27
ENDBRANCH  25  26
ENDBRANCH  24  25
ENDBRANCH  23  24
ENDBRANCH  22  23
ENDBRANCH  21  22
ENDBRANCH  20  21
ENDBRANCH  19  20
ENDBRANCH  18  19
ENDBRANCH  17  18
ENDBRANCH   1  17
TORSDOF 26
ENDMDL
MODEL 8
REMARK VINA RESULT:    -2.887      3.821     10.138
REMARK INTER + INTRA:         -10.793
REMARK INTER:                  -6.795
REMARK INTRA:                  -3.999
REMARK UNBOUND:                -3.518
REMARK SMILES CCCCCCCCCCCCCCCCCCCCCCCCCCCC(=O)[O-]
REMARK SMILES IDX 15 1 16 2 17 3 18 4 19 5 20 6 21 7 22 8 23 9 24 10 25 11
REMARK SMILES IDX 26 12 27 13 28 14 29 15 30 16 14 17 13 18 12 19 11 20 10 21
REMARK SMILES IDX 9 22 8 23 7 24 6 25 5 26 4 27 3 28 2 29 1 30
REMARK H PARENT
REMARK Flexibility Score: inf
ROOT
ATOM      1  C   UNL     1     143.396 147.959 147.281  1.00  0.00     0.000 C 
ENDROOT
BRANCH   1   2
ATOM      2  C   UNL     1     144.020 149.322 146.924  1.00  0.00     0.000 C 
BRANCH   2   3
ATOM      3  C   UNL     1     143.238 150.555 147.415  1.00  0.00     0.000 C 
BRANCH   3   4
ATOM      4  C   UNL     1     144.144 151.746 147.775  1.00  0.00     0.000 C 
BRANCH   4   5
ATOM      5  C   UNL     1     145.595 151.313 148.050  1.00  0.00     0.000 C 
BRANCH   5   6
ATOM      6  C   UNL     1     145.896 151.176 149.553  1.00  0.00     0.000 C 
BRANCH   6   7
ATOM      7  C   UNL     1     145.910 149.712 150.024  1.00  0.00     0.000 C 
BRANCH   7   8
ATOM      8  C   UNL     1     144.934 149.378 151.168  1.00  0.00     0.000 C 
BRANCH   8   9
ATOM      9  C   UNL     1     143.582 150.121 151.086  1.00  0.00     0.000 C 
BRANCH   9  10
ATOM     10  C   UNL     1     143.343 151.069 152.273  1.00  0.00     0.000 C 
BRANCH  10  11
ATOM     11  C   UNL     1     144.295 150.796 153.452  1.00  0.00     0.000 C 
BRANCH  11  12
ATOM     12  C   UNL     1     145.148 152.021 153.853  1.00  0.00     0.006 C 
BRANCH  12  13
ATOM     13  C   UNL     1     145.205 153.105 152.768  1.00  0.00     0.053 C 
BRANCH  13  14
ATOM     14  C   UNL     1     146.170 154.197 153.123  1.00  0.00     0.041 C 
ATOM     15  O   UNL     1     145.952 154.937 154.120  1.00  0.00    -0.550 OA
ATOM     16  O   UNL     1     147.309 154.396 152.354  1.00  0.00    -0.550 OA
ENDBRANCH  13  14
ENDBRANCH  12  13
ENDBRANCH  11  12
ENDBRANCH  10  11
ENDBRANCH   9  10
ENDBRANCH   8   9
ENDBRANCH   7   8
ENDBRANCH   6   7
ENDBRANCH   5   6
ENDBRANCH   4   5
ENDBRANCH   3   4
ENDBRANCH   2   3
ENDBRANCH   1   2
BRANCH   1  17
ATOM     17  C   UNL     1     142.929 147.167 146.051  1.00  0.00     0.000 C 
BRANCH  17  18
ATOM     18  C   UNL     1     144.076 146.981 145.049  1.00  0.00     0.000 C 
BRANCH  18  19
ATOM     19  C   UNL     1     143.639 147.367 143.630  1.00  0.00     0.000 C 
BRANCH  19  20
ATOM     20  C   UNL     1     143.193 148.836 143.515  1.00  0.00     0.000 C 
BRANCH  20  21
ATOM     21  C   UNL     1     144.237 149.757 142.851  1.00  0.00     0.000 C 
BRANCH  21  22
ATOM     22  C   UNL     1     145.524 149.887 143.683  1.00  0.00    -0.000 C 
BRANCH  22  23
ATOM     23  C   UNL     1     146.779 149.494 142.886  1.00  0.00    -0.000 C 
BRANCH  23  24
ATOM     24  C   UNL     1     146.449 149.077 141.444  1.00  0.00    -0.000 C 
BRANCH  24  25
ATOM     25  C   UNL     1     146.835 147.611 141.192  1.00  0.00    -0.000 C 
BRANCH  25  26
ATOM     26  C   UNL     1     145.681 146.797 140.570  1.00  0.00    -0.000 C 
BRANCH  26  27
ATOM     27  C   UNL     1     144.598 147.662 139.902  1.00  0.00    -0.000 C 
BRANCH  27  28
ATOM     28  C   UNL     1     144.901 147.974 138.428  1.00  0.00    -0.000 C 
BRANCH  28  29
ATOM     29  C   UNL     1     144.144 149.211 137.918  1.00  0.00    -0.003 C 
ATOM     30  C   UNL     1     143.675 150.123 139.051  1.00  0.00     0.004 C 
ENDBRANCH  28  29
ENDBRANCH  27  28
ENDBRANCH  26  27
ENDBRANCH  25  26
ENDBRANCH  24  25
ENDBRANCH  23  24
ENDBRANCH  22  23
ENDBRANCH  21  22
ENDBRANCH  20  21
ENDBRANCH  19  20
ENDBRANCH  18  19
ENDBRANCH  17  18
ENDBRANCH   1  17
TORSDOF 26
ENDMDL
MODEL 9
REMARK VINA RESULT:    -2.877      1.441      3.593
REMARK INTER + INTRA:         -10.767
REMARK INTER:                  -7.235
REMARK INTRA:                  -3.533
REMARK UNBOUND:                -3.518
REMARK SMILES CCCCCCCCCCCCCCCCCCCCCCCCCCCC(=O)[O-]
REMARK SMILES IDX 15 1 16 2 17 3 18 4 19 5 20 6 21 7 22 8 23 9 24 10 25 11
REMARK SMILES IDX 26 12 27 13 28 14 29 15 30 16 14 17 13 18 12 19 11 20 10 21
REMARK SMILES IDX 9 22 8 23 7 24 6 25 5 26 4 27 3 28 2 29 1 30
REMARK H PARENT
REMARK Flexibility Score: inf
ROOT
ATOM      1  C   UNL     1     144.816 151.723 147.439  1.00  0.00     0.000 C 
ENDROOT
BRANCH   1   2
ATOM      2  C   UNL     1     143.687 152.015 146.431  1.00  0.00     0.000 C 
BRANCH   2   3
ATOM      3  C   UNL     1     143.714 151.168 145.146  1.00  0.00     0.000 C 
BRANCH   3   4
ATOM      4  C   UNL     1     144.491 149.849 145.304  1.00  0.00     0.000 C 
BRANCH   4   5
ATOM      5  C   UNL     1     143.564 148.658 145.604  1.00  0.00     0.000 C 
BRANCH   5   6
ATOM      6  C   UNL     1     143.847 148.018 146.974  1.00  0.00     0.000 C 
BRANCH   6   7
ATOM      7  C   UNL     1     143.501 146.520 147.013  1.00  0.00     0.000 C 
BRANCH   7   8
ATOM      8  C   UNL     1     144.532 145.587 146.347  1.00  0.00     0.000 C 
BRANCH   8   9
ATOM      9  C   UNL     1     143.982 144.793 145.142  1.00  0.00     0.000 C 
BRANCH   9  10
ATOM     10  C   UNL     1     144.978 144.705 143.973  1.00  0.00     0.000 C 
BRANCH  10  11
ATOM     11  C   UNL     1     146.060 145.797 144.032  1.00  0.00     0.000 C 
BRANCH  11  12
ATOM     12  C   UNL     1     145.799 146.979 143.071  1.00  0.00     0.006 C 
BRANCH  12  13
ATOM     13  C   UNL     1     146.961 147.980 143.007  1.00  0.00     0.053 C 
BRANCH  13  14
ATOM     14  C   UNL     1     146.559 149.256 142.328  1.00  0.00     0.041 C 
ATOM     15  O   UNL     1     145.439 149.346 141.758  1.00  0.00    -0.550 OA
ATOM     16  O   UNL     1     147.422 150.345 142.327  1.00  0.00    -0.550 OA
ENDBRANCH  13  14
ENDBRANCH  12  13
ENDBRANCH  11  12
ENDBRANCH  10  11
ENDBRANCH   9  10
ENDBRANCH   8   9
ENDBRANCH   7   8
ENDBRANCH   6   7
ENDBRANCH   5   6
ENDBRANCH   4   5
ENDBRANCH   3   4
ENDBRANCH   2   3
ENDBRANCH   1   2
BRANCH   1  17
ATOM     17  C   UNL     1     144.301 151.238 148.802  1.00  0.00     0.000 C 
BRANCH  17  18
ATOM     18  C   UNL     1     145.460 151.033 149.785  1.00  0.00     0.000 C 
BRANCH  18  19
ATOM     19  C   UNL     1     145.128 151.623 151.162  1.00  0.00     0.000 C 
BRANCH  19  20
ATOM     20  C   UNL     1     143.616 151.702 151.436  1.00  0.00     0.000 C 
BRANCH  20  21
ATOM     21  C   UNL     1     143.132 150.758 152.556  1.00  0.00     0.000 C 
BRANCH  21  22
ATOM     22  C   UNL     1     144.296 150.112 153.327  1.00  0.00    -0.000 C 
BRANCH  22  23
ATOM     23  C   UNL     1     144.428 150.663 154.756  1.00  0.00    -0.000 C 
BRANCH  23  24
ATOM     24  C   UNL     1     145.806 151.288 155.018  1.00  0.00    -0.000 C 
BRANCH  24  25
ATOM     25  C   UNL     1     145.679 152.782 155.355  1.00  0.00    -0.000 C 
BRANCH  25  26
ATOM     26  C   UNL     1     144.265 153.332 155.069  1.00  0.00    -0.000 C 
BRANCH  26  27
ATOM     27  C   UNL     1     144.221 154.376 153.939  1.00  0.00    -0.000 C 
BRANCH  27  28
ATOM     28  C   UNL     1     145.548 154.493 153.175  1.00  0.00    -0.000 C 
BRANCH  28  29
ATOM     29  C   UNL     1     145.898 155.947 152.817  1.00  0.00    -0.003 C 
ATOM     30  C   UNL     1     144.719 156.703 152.206  1.00  0.00     0.004 C 
ENDBRANCH  28  29
ENDBRANCH  27  28
ENDBRANCH  26  27
ENDBRANCH  25  26
ENDBRANCH  24  25
ENDBRANCH  23  24
ENDBRANCH  22  23
ENDBRANCH  21  22
ENDBRANCH  20  21
ENDBRANCH  19  20
ENDBRANCH  18  19
ENDBRANCH  17  18
ENDBRANCH   1  17
TORSDOF 26
ENDMDL
