MODEL 1
REMARK VINA RESULT:    -5.278      0.000      0.000
REMARK INTER + INTRA:          -9.763
REMARK INTER:                  -7.747
REMARK INTRA:                  -2.016
REMARK UNBOUND:                -2.016
REMARK SMILES O=c1c(O[C@H]2O[C@H](CO)[C@H](O)[C@@H](O)[C@H]2O)c(-c2ccc(O)c(O)c2)oc2cc(O)cc(O)c12
REMARK SMILES IDX 4 1 3 2 16 3 25 4 2 5 26 6 1 7 33 8 27 9 31 10 28 11 30 12
REMARK SMILES IDX 17 13 18 14 19 15 20 16 24 17 22 18 21 19 23 21 32 23 29 25
REMARK SMILES IDX 5 27 14 28 6 29 12 30 7 31 10 32 15 33 13 35 8 37 9 38 11 40
REMARK H PARENT 21 20 23 22 32 24 29 26 15 34 13 36 9 39 11 41
REMARK Flexibility Score: inf
ROOT
ATOM      1  O   UNL     1      12.877  21.195  26.045  1.00  0.00    -0.454 OA
ENDROOT
BRANCH   1   2
ATOM      2  C   UNL     1      11.860  20.690  25.209  1.00  0.00     0.214 A 
ATOM      3  C   UNL     1      12.202  20.331  23.893  1.00  0.00     0.180 A 
ATOM      4  O   UNL     1      11.289  19.805  23.087  1.00  0.00    -0.452 OA
ATOM      5  C   UNL     1      10.525  20.506  25.632  1.00  0.00     0.239 A 
ATOM      6  C   UNL     1      10.033  19.585  23.450  1.00  0.00     0.146 A 
ATOM      7  O   UNL     1      10.166  20.935  26.757  1.00  0.00    -0.285 OA
ATOM      8  C   UNL     1       9.592  19.889  24.763  1.00  0.00     0.111 A 
ATOM      9  C   UNL     1       9.149  19.054  22.507  1.00  0.00     0.094 A 
ATOM     10  C   UNL     1       8.241  19.587  25.112  1.00  0.00     0.134 A 
ATOM     11  C   UNL     1       7.816  18.824  22.840  1.00  0.00     0.123 A 
ATOM     12  C   UNL     1       7.367  19.092  24.135  1.00  0.00     0.093 A 
BRANCH   3  13
ATOM     13  C   UNL     1      13.578  20.494  23.375  1.00  0.00     0.025 A 
ATOM     14  C   UNL     1      13.929  21.678  22.711  1.00  0.00     0.016 A 
ATOM     15  C   UNL     1      15.219  21.847  22.203  1.00  0.00     0.051 A 
ATOM     16  C   UNL     1      16.179  20.840  22.364  1.00  0.00     0.157 A 
ATOM     17  C   UNL     1      14.550  19.496  23.559  1.00  0.00     0.062 A 
ATOM     18  C   UNL     1      15.843  19.660  23.048  1.00  0.00     0.158 A 
BRANCH  16  19
ATOM     19  O   UNL     1      17.464  21.008  21.850  1.00  0.00    -0.504 OA
ATOM     20  H   UNL     1      17.966  21.883  21.951  1.00  0.00     0.293 HD
ENDBRANCH  16  19
BRANCH  18  21
ATOM     21  O   UNL     1      16.778  18.642  23.234  1.00  0.00    -0.504 OA
ATOM     22  H   UNL     1      17.775  18.820  23.227  1.00  0.00     0.293 HD
ENDBRANCH  18  21
ENDBRANCH   3  13
BRANCH  10  23
ATOM     23  O   UNL     1       7.720  19.722  26.402  1.00  0.00    -0.507 OA
ATOM     24  H   UNL     1       7.202  19.005  26.889  1.00  0.00     0.293 HD
ENDBRANCH  10  23
BRANCH  11  25
ATOM     25  O   UNL     1       6.946  18.316  21.877  1.00  0.00    -0.508 OA
ATOM     26  H   UNL     1       7.262  18.107  20.937  1.00  0.00     0.293 HD
ENDBRANCH  11  25
ENDBRANCH   1   2
BRANCH   1  27
ATOM     27  C   UNL     1      13.603  20.474  27.045  1.00  0.00     0.339 C 
ATOM     28  C   UNL     1      13.490  21.176  28.419  1.00  0.00     0.214 C 
ATOM     29  O   UNL     1      14.964  20.305  26.674  1.00  0.00    -0.332 OA
ATOM     30  C   UNL     1      14.257  22.514  28.436  1.00  0.00     0.180 C 
ATOM     31  C   UNL     1      15.630  21.555  26.551  1.00  0.00     0.179 C 
ATOM     32  C   UNL     1      15.689  22.291  27.911  1.00  0.00     0.177 C 
BRANCH  28  33
ATOM     33  O   UNL     1      12.149  21.339  28.813  1.00  0.00    -0.384 OA
ATOM     34  H   UNL     1      12.062  21.042  29.754  1.00  0.00     0.211 HD
ENDBRANCH  28  33
BRANCH  30  35
ATOM     35  O   UNL     1      13.595  23.466  27.641  1.00  0.00    -0.387 OA
ATOM     36  H   UNL     1      13.446  23.048  26.753  1.00  0.00     0.211 HD
ENDBRANCH  30  35
BRANCH  31  37
ATOM     37  C   UNL     1      17.030  21.329  25.958  1.00  0.00     0.191 C 
BRANCH  37  38
ATOM     38  O   UNL     1      17.456  20.004  26.135  1.00  0.00    -0.394 OA
ATOM     39  H   UNL     1      18.269  20.037  26.703  1.00  0.00     0.210 HD
ENDBRANCH  37  38
ENDBRANCH  31  37
BRANCH  32  40
ATOM     40  O   UNL     1      16.422  21.530  28.840  1.00  0.00    -0.387 OA
ATOM     41  H   UNL     1      16.908  22.174  29.417  1.00  0.00     0.211 HD
ENDBRANCH  32  40
ENDBRANCH   1  27
TORSDOF 12
ENDMDL
MODEL 2
REMARK VINA RESULT:    -4.999      1.017      2.401
REMARK INTER + INTRA:          -9.354
REMARK INTER:                  -7.846
REMARK INTRA:                  -1.508
REMARK UNBOUND:                -2.016
REMARK SMILES O=c1c(O[C@H]2O[C@H](CO)[C@H](O)[C@@H](O)[C@H]2O)c(-c2ccc(O)c(O)c2)oc2cc(O)cc(O)c12
REMARK SMILES IDX 4 1 3 2 16 3 25 4 2 5 26 6 1 7 33 8 27 9 31 10 28 11 30 12
REMARK SMILES IDX 17 13 18 14 19 15 20 16 24 17 22 18 21 19 23 21 32 23 29 25
REMARK SMILES IDX 5 27 14 28 6 29 12 30 7 31 10 32 15 33 13 35 8 37 9 38 11 40
REMARK H PARENT 21 20 23 22 32 24 29 26 15 34 13 36 9 39 11 41
REMARK Flexibility Score: inf
ROOT
ATOM      1  O   UNL     1      12.932  20.882  26.092  1.00  0.00    -0.454 OA
ENDROOT
BRANCH   1   2
ATOM      2  C   UNL     1      11.891  20.471  25.235  1.00  0.00     0.214 A 
ATOM      3  C   UNL     1      12.205  20.210  23.889  1.00  0.00     0.180 A 
ATOM      4  O   UNL     1      11.268  19.775  23.058  1.00  0.00    -0.452 OA
ATOM      5  C   UNL     1      10.557  20.287  25.662  1.00  0.00     0.239 A 
ATOM      6  C   UNL     1      10.011  19.557  23.421  1.00  0.00     0.146 A 
ATOM      7  O   UNL     1      10.224  20.634  26.824  1.00  0.00    -0.285 OA
ATOM      8  C   UNL     1       9.596  19.766  24.761  1.00  0.00     0.111 A 
ATOM      9  C   UNL     1       9.101  19.127  22.453  1.00  0.00     0.094 A 
ATOM     10  C   UNL     1       8.243  19.471  25.107  1.00  0.00     0.134 A 
ATOM     11  C   UNL     1       7.767  18.904  22.787  1.00  0.00     0.123 A 
ATOM     12  C   UNL     1       7.343  19.078  24.107  1.00  0.00     0.093 A 
BRANCH   3  13
ATOM     13  C   UNL     1      13.578  20.380  23.364  1.00  0.00     0.025 A 
ATOM     14  C   UNL     1      13.895  21.525  22.620  1.00  0.00     0.016 A 
ATOM     15  C   UNL     1      15.182  21.699  22.104  1.00  0.00     0.051 A 
ATOM     16  C   UNL     1      16.172  20.735  22.337  1.00  0.00     0.157 A 
ATOM     17  C   UNL     1      14.580  19.428  23.620  1.00  0.00     0.062 A 
ATOM     18  C   UNL     1      15.869  19.596  23.102  1.00  0.00     0.158 A 
BRANCH  16  19
ATOM     19  O   UNL     1      17.454  20.907  21.816  1.00  0.00    -0.504 OA
ATOM     20  H   UNL     1      18.268  20.961  22.417  1.00  0.00     0.293 HD
ENDBRANCH  16  19
BRANCH  18  21
ATOM     21  O   UNL     1      16.834  18.623  23.361  1.00  0.00    -0.504 OA
ATOM     22  H   UNL     1      17.720  18.847  23.797  1.00  0.00     0.293 HD
ENDBRANCH  18  21
ENDBRANCH   3  13
BRANCH  10  23
ATOM     23  O   UNL     1       7.743  19.516  26.411  1.00  0.00    -0.507 OA
ATOM     24  H   UNL     1       6.800  19.784  26.654  1.00  0.00     0.293 HD
ENDBRANCH  10  23
BRANCH  11  25
ATOM     25  O   UNL     1       6.872  18.497  21.801  1.00  0.00    -0.508 OA
ATOM     26  H   UNL     1       5.951  18.143  22.034  1.00  0.00     0.293 HD
ENDBRANCH  11  25
ENDBRANCH   1   2
BRANCH   1  27
ATOM     27  C   UNL     1      13.194  22.212  26.549  1.00  0.00     0.339 C 
ATOM     28  C   UNL     1      14.703  22.414  26.818  1.00  0.00     0.214 C 
ATOM     29  O   UNL     1      12.428  22.520  27.706  1.00  0.00    -0.332 OA
ATOM     30  C   UNL     1      15.173  21.606  28.045  1.00  0.00     0.180 C 
ATOM     31  C   UNL     1      12.767  21.674  28.796  1.00  0.00     0.179 C 
ATOM     32  C   UNL     1      14.235  21.890  29.235  1.00  0.00     0.177 C 
BRANCH  28  33
ATOM     33  O   UNL     1      15.478  22.128  25.678  1.00  0.00    -0.384 OA
ATOM     34  H   UNL     1      14.929  21.587  25.056  1.00  0.00     0.211 HD
ENDBRANCH  28  33
BRANCH  30  35
ATOM     35  O   UNL     1      15.178  20.231  27.752  1.00  0.00    -0.387 OA
ATOM     36  H   UNL     1      16.005  19.854  28.150  1.00  0.00     0.211 HD
ENDBRANCH  30  35
BRANCH  31  37
ATOM     37  C   UNL     1      11.781  21.911  29.951  1.00  0.00     0.191 C 
BRANCH  37  38
ATOM     38  O   UNL     1      10.466  21.596  29.576  1.00  0.00    -0.394 OA
ATOM     39  H   UNL     1      10.491  20.691  29.171  1.00  0.00     0.210 HD
ENDBRANCH  37  38
ENDBRANCH  31  37
BRANCH  32  40
ATOM     40  O   UNL     1      14.416  23.213  29.677  1.00  0.00    -0.387 OA
ATOM     41  H   UNL     1      15.387  23.324  29.856  1.00  0.00     0.211 HD
ENDBRANCH  32  40
ENDBRANCH   1  27
TORSDOF 12
ENDMDL
MODEL 3
REMARK VINA RESULT:    -4.928      4.166      6.812
REMARK INTER + INTRA:          -9.249
REMARK INTER:                  -7.701
REMARK INTRA:                  -1.548
REMARK UNBOUND:                -2.016
REMARK SMILES O=c1c(O[C@H]2O[C@H](CO)[C@H](O)[C@@H](O)[C@H]2O)c(-c2ccc(O)c(O)c2)oc2cc(O)cc(O)c12
REMARK SMILES IDX 4 1 3 2 16 3 25 4 2 5 26 6 1 7 33 8 27 9 31 10 28 11 30 12
REMARK SMILES IDX 17 13 18 14 19 15 20 16 24 17 22 18 21 19 23 21 32 23 29 25
REMARK SMILES IDX 5 27 14 28 6 29 12 30 7 31 10 32 15 33 13 35 8 37 9 38 11 40
REMARK H PARENT 21 20 23 22 32 24 29 26 15 34 13 36 9 39 11 41
REMARK Flexibility Score: inf
ROOT
ATOM      1  O   UNL     1       6.744  22.116  26.051  1.00  0.00    -0.454 OA
ENDROOT
BRANCH   1   2
ATOM      2  C   UNL     1       6.334  21.337  24.950  1.00  0.00     0.214 A 
ATOM      3  C   UNL     1       7.046  20.157  24.671  1.00  0.00     0.180 A 
ATOM      4  O   UNL     1       6.666  19.367  23.675  1.00  0.00    -0.452 OA
ATOM      5  C   UNL     1       5.233  21.668  24.129  1.00  0.00     0.239 A 
ATOM      6  C   UNL     1       5.621  19.621  22.900  1.00  0.00     0.146 A 
ATOM      7  O   UNL     1       4.659  22.777  24.278  1.00  0.00    -0.285 OA
ATOM      8  C   UNL     1       4.820  20.772  23.113  1.00  0.00     0.111 A 
ATOM      9  C   UNL     1       5.329  18.734  21.860  1.00  0.00     0.094 A 
ATOM     10  C   UNL     1       3.680  20.970  22.277  1.00  0.00     0.134 A 
ATOM     11  C   UNL     1       4.252  18.971  21.010  1.00  0.00     0.123 A 
ATOM     12  C   UNL     1       3.436  20.086  21.218  1.00  0.00     0.093 A 
BRANCH   3  13
ATOM     13  C   UNL     1       8.211  19.742  25.483  1.00  0.00     0.025 A 
ATOM     14  C   UNL     1       8.011  18.935  26.613  1.00  0.00     0.016 A 
ATOM     15  C   UNL     1       9.095  18.542  27.402  1.00  0.00     0.051 A 
ATOM     16  C   UNL     1      10.395  18.941  27.064  1.00  0.00     0.157 A 
ATOM     17  C   UNL     1       9.519  20.118  25.132  1.00  0.00     0.062 A 
ATOM     18  C   UNL     1      10.607  19.730  25.921  1.00  0.00     0.158 A 
BRANCH  16  19
ATOM     19  O   UNL     1      11.475  18.553  27.857  1.00  0.00    -0.504 OA
ATOM     20  H   UNL     1      12.250  19.179  28.039  1.00  0.00     0.293 HD
ENDBRANCH  16  19
BRANCH  18  21
ATOM     21  O   UNL     1      11.889  20.135  25.552  1.00  0.00    -0.504 OA
ATOM     22  H   UNL     1      12.543  19.506  25.102  1.00  0.00     0.293 HD
ENDBRANCH  18  21
ENDBRANCH   3  13
BRANCH  10  23
ATOM     23  O   UNL     1       2.745  21.993  22.462  1.00  0.00    -0.507 OA
ATOM     24  H   UNL     1       1.961  22.170  21.851  1.00  0.00     0.293 HD
ENDBRANCH  10  23
BRANCH  11  25
ATOM     25  O   UNL     1       3.994  18.086  19.966  1.00  0.00    -0.508 OA
ATOM     26  H   UNL     1       4.726  17.791  19.329  1.00  0.00     0.293 HD
ENDBRANCH  11  25
ENDBRANCH   1   2
BRANCH   1  27
ATOM     27  C   UNL     1       6.322  21.971  27.410  1.00  0.00     0.339 C 
ATOM     28  C   UNL     1       5.359  23.113  27.812  1.00  0.00     0.214 C 
ATOM     29  O   UNL     1       7.434  21.913  28.293  1.00  0.00    -0.332 OA
ATOM     30  C   UNL     1       6.093  24.468  27.896  1.00  0.00     0.180 C 
ATOM     31  C   UNL     1       8.189  23.116  28.259  1.00  0.00     0.179 C 
ATOM     32  C   UNL     1       7.354  24.314  28.769  1.00  0.00     0.177 C 
BRANCH  28  33
ATOM     33  O   UNL     1       4.242  23.178  26.958  1.00  0.00    -0.384 OA
ATOM     34  H   UNL     1       4.529  22.907  26.049  1.00  0.00     0.211 HD
ENDBRANCH  28  33
BRANCH  30  35
ATOM     35  O   UNL     1       6.447  24.913  26.611  1.00  0.00    -0.387 OA
ATOM     36  H   UNL     1       7.435  24.843  26.543  1.00  0.00     0.211 HD
ENDBRANCH  30  35
BRANCH  31  37
ATOM     37  C   UNL     1       9.481  22.928  29.072  1.00  0.00     0.191 C 
BRANCH  37  38
ATOM     38  O   UNL     1       9.931  21.600  29.022  1.00  0.00    -0.394 OA
ATOM     39  H   UNL     1       9.146  21.039  28.786  1.00  0.00     0.210 HD
ENDBRANCH  37  38
ENDBRANCH  31  37
BRANCH  32  40
ATOM     40  O   UNL     1       6.981  24.106  30.109  1.00  0.00    -0.387 OA
ATOM     41  H   UNL     1       7.688  23.541  30.518  1.00  0.00     0.211 HD
ENDBRANCH  32  40
ENDBRANCH   1  27
TORSDOF 12
ENDMDL
MODEL 4
REMARK VINA RESULT:    -4.844      2.098      6.738
REMARK INTER + INTRA:          -9.126
REMARK INTER:                  -7.307
REMARK INTRA:                  -1.818
REMARK UNBOUND:                -2.016
REMARK SMILES O=c1c(O[C@H]2O[C@H](CO)[C@H](O)[C@@H](O)[C@H]2O)c(-c2ccc(O)c(O)c2)oc2cc(O)cc(O)c12
REMARK SMILES IDX 4 1 3 2 16 3 25 4 2 5 26 6 1 7 33 8 27 9 31 10 28 11 30 12
REMARK SMILES IDX 17 13 18 14 19 15 20 16 24 17 22 18 21 19 23 21 32 23 29 25
REMARK SMILES IDX 5 27 14 28 6 29 12 30 7 31 10 32 15 33 13 35 8 37 9 38 11 40
REMARK H PARENT 21 20 23 22 32 24 29 26 15 34 13 36 9 39 11 41
REMARK Flexibility Score: inf
ROOT
ATOM      1  O   UNL     1      13.253  21.161  28.364  1.00  0.00    -0.454 OA
ENDROOT
BRANCH   1   2
ATOM      2  C   UNL     1      13.865  20.834  27.137  1.00  0.00     0.214 A 
ATOM      3  C   UNL     1      13.068  20.263  26.129  1.00  0.00     0.180 A 
ATOM      4  O   UNL     1      13.591  19.985  24.942  1.00  0.00    -0.452 OA
ATOM      5  C   UNL     1      15.231  21.070  26.861  1.00  0.00     0.239 A 
ATOM      6  C   UNL     1      14.857  20.219  24.628  1.00  0.00     0.146 A 
ATOM      7  O   UNL     1      15.992  21.460  27.783  1.00  0.00    -0.285 OA
ATOM      8  C   UNL     1      15.740  20.814  25.565  1.00  0.00     0.111 A 
ATOM      9  C   UNL     1      15.307  19.857  23.357  1.00  0.00     0.094 A 
ATOM     10  C   UNL     1      17.081  21.086  25.156  1.00  0.00     0.134 A 
ATOM     11  C   UNL     1      16.635  20.067  22.990  1.00  0.00     0.123 A 
ATOM     12  C   UNL     1      17.514  20.676  23.889  1.00  0.00     0.093 A 
BRANCH   3  13
ATOM     13  C   UNL     1      11.631  19.985  26.341  1.00  0.00     0.025 A 
ATOM     14  C   UNL     1      11.249  18.939  27.194  1.00  0.00     0.016 A 
ATOM     15  C   UNL     1       9.897  18.650  27.398  1.00  0.00     0.051 A 
ATOM     16  C   UNL     1       8.909  19.412  26.760  1.00  0.00     0.157 A 
ATOM     17  C   UNL     1      10.637  20.764  25.724  1.00  0.00     0.062 A 
ATOM     18  C   UNL     1       9.281  20.476  25.922  1.00  0.00     0.158 A 
BRANCH  16  19
ATOM     19  O   UNL     1       7.561  19.118  26.960  1.00  0.00    -0.504 OA
ATOM     20  H   UNL     1       6.973  19.698  27.547  1.00  0.00     0.293 HD
ENDBRANCH  16  19
BRANCH  18  21
ATOM     21  O   UNL     1       8.323  21.260  25.281  1.00  0.00    -0.504 OA
ATOM     22  H   UNL     1       7.760  21.937  25.782  1.00  0.00     0.293 HD
ENDBRANCH  18  21
ENDBRANCH   3  13
BRANCH  10  23
ATOM     23  O   UNL     1      18.010  21.778  25.938  1.00  0.00    -0.507 OA
ATOM     24  H   UNL     1      18.836  21.365  26.346  1.00  0.00     0.293 HD
ENDBRANCH  10  23
BRANCH  11  25
ATOM     25  O   UNL     1      17.068  19.677  21.725  1.00  0.00    -0.508 OA
ATOM     26  H   UNL     1      17.531  20.326  21.100  1.00  0.00     0.293 HD
ENDBRANCH  11  25
ENDBRANCH   1   2
BRANCH   1  27
ATOM     27  C   UNL     1      13.039  22.473  28.894  1.00  0.00     0.339 C 
ATOM     28  C   UNL     1      13.427  22.532  30.390  1.00  0.00     0.214 C 
ATOM     29  O   UNL     1      11.695  22.894  28.703  1.00  0.00    -0.332 OA
ATOM     30  C   UNL     1      12.446  21.722  31.262  1.00  0.00     0.180 C 
ATOM     31  C   UNL     1      10.783  22.054  29.396  1.00  0.00     0.179 C 
ATOM     32  C   UNL     1      11.000  22.136  30.926  1.00  0.00     0.177 C 
BRANCH  28  33
ATOM     33  O   UNL     1      14.761  22.133  30.598  1.00  0.00    -0.384 OA
ATOM     34  H   UNL     1      15.274  22.918  30.918  1.00  0.00     0.211 HD
ENDBRANCH  28  33
BRANCH  30  35
ATOM     35  O   UNL     1      12.617  20.344  31.038  1.00  0.00    -0.387 OA
ATOM     36  H   UNL     1      11.873  19.881  31.505  1.00  0.00     0.211 HD
ENDBRANCH  30  35
BRANCH  31  37
ATOM     37  C   UNL     1       9.345  22.426  28.999  1.00  0.00     0.191 C 
BRANCH  37  38
ATOM     38  O   UNL     1       8.506  22.507  30.120  1.00  0.00    -0.394 OA
ATOM     39  H   UNL     1       9.026  22.956  30.837  1.00  0.00     0.210 HD
ENDBRANCH  37  38
ENDBRANCH  31  37
BRANCH  32  40
ATOM     40  O   UNL     1      10.766  23.448  31.376  1.00  0.00    -0.387 OA
ATOM     41  H   UNL     1      11.215  24.056  30.731  1.00  0.00     0.211 HD
ENDBRANCH  32  40
ENDBRANCH   1  27
TORSDOF 12
ENDMDL
MODEL 5
REMARK VINA RESULT:    -4.791      1.947      4.656
REMARK INTER + INTRA:          -9.047
REMARK INTER:                  -7.143
REMARK INTRA:                  -1.905
REMARK UNBOUND:                -2.016
REMARK SMILES O=c1c(O[C@H]2O[C@H](CO)[C@H](O)[C@@H](O)[C@H]2O)c(-c2ccc(O)c(O)c2)oc2cc(O)cc(O)c12
REMARK SMILES IDX 4 1 3 2 16 3 25 4 2 5 26 6 1 7 33 8 27 9 31 10 28 11 30 12
REMARK SMILES IDX 17 13 18 14 19 15 20 16 24 17 22 18 21 19 23 21 32 23 29 25
REMARK SMILES IDX 5 27 14 28 6 29 12 30 7 31 10 32 15 33 13 35 8 37 9 38 11 40
REMARK H PARENT 21 20 23 22 32 24 29 26 15 34 13 36 9 39 11 41
REMARK Flexibility Score: inf
ROOT
ATOM      1  O   UNL     1      13.115  21.204  22.700  1.00  0.00    -0.454 OA
ENDROOT
BRANCH   1   2
ATOM      2  C   UNL     1      12.253  20.658  23.672  1.00  0.00     0.214 A 
ATOM      3  C   UNL     1      12.803  20.284  24.911  1.00  0.00     0.180 A 
ATOM      4  O   UNL     1      12.021  19.811  25.873  1.00  0.00    -0.452 OA
ATOM      5  C   UNL     1      10.864  20.488  23.474  1.00  0.00     0.239 A 
ATOM      6  C   UNL     1      10.710  19.665  25.743  1.00  0.00     0.146 A 
ATOM      7  O   UNL     1      10.370  20.695  22.336  1.00  0.00    -0.285 OA
ATOM      8  C   UNL     1      10.052  20.035  24.542  1.00  0.00     0.111 A 
ATOM      9  C   UNL     1       9.989  19.128  26.813  1.00  0.00     0.094 A 
ATOM     10  C   UNL     1       8.632  19.900  24.476  1.00  0.00     0.134 A 
ATOM     11  C   UNL     1       8.612  18.940  26.713  1.00  0.00     0.123 A 
ATOM     12  C   UNL     1       7.942  19.322  25.549  1.00  0.00     0.093 A 
BRANCH   3  13
ATOM     13  C   UNL     1      14.247  20.430  25.195  1.00  0.00     0.025 A 
ATOM     14  C   UNL     1      14.667  21.327  26.189  1.00  0.00     0.016 A 
ATOM     15  C   UNL     1      16.027  21.490  26.465  1.00  0.00     0.051 A 
ATOM     16  C   UNL     1      16.984  20.749  25.759  1.00  0.00     0.157 A 
ATOM     17  C   UNL     1      15.208  19.669  24.508  1.00  0.00     0.062 A 
ATOM     18  C   UNL     1      16.572  19.832  24.779  1.00  0.00     0.158 A 
BRANCH  16  19
ATOM     19  O   UNL     1      18.341  20.919  26.031  1.00  0.00    -0.504 OA
ATOM     20  H   UNL     1      18.992  21.221  25.316  1.00  0.00     0.293 HD
ENDBRANCH  16  19
BRANCH  18  21
ATOM     21  O   UNL     1      17.498  19.072  24.065  1.00  0.00    -0.504 OA
ATOM     22  H   UNL     1      18.293  19.493  23.599  1.00  0.00     0.293 HD
ENDBRANCH  18  21
ENDBRANCH   3  13
BRANCH  10  23
ATOM     23  O   UNL     1       7.856  20.342  23.401  1.00  0.00    -0.507 OA
ATOM     24  H   UNL     1       8.005  21.209  22.906  1.00  0.00     0.293 HD
ENDBRANCH  10  23
BRANCH  11  25
ATOM     25  O   UNL     1       7.917  18.381  27.784  1.00  0.00    -0.508 OA
ATOM     26  H   UNL     1       8.260  18.458  28.735  1.00  0.00     0.293 HD
ENDBRANCH  11  25
ENDBRANCH   1   2
BRANCH   1  27
ATOM     27  C   UNL     1      13.406  22.590  22.491  1.00  0.00     0.339 C 
ATOM     28  C   UNL     1      12.965  23.038  21.079  1.00  0.00     0.214 C 
ATOM     29  O   UNL     1      14.784  22.865  22.703  1.00  0.00    -0.332 OA
ATOM     30  C   UNL     1      13.847  22.406  19.983  1.00  0.00     0.180 C 
ATOM     31  C   UNL     1      15.603  22.165  21.776  1.00  0.00     0.179 C 
ATOM     32  C   UNL     1      15.333  22.634  20.326  1.00  0.00     0.177 C 
BRANCH  28  33
ATOM     33  O   UNL     1      11.598  22.788  20.855  1.00  0.00    -0.384 OA
ATOM     34  H   UNL     1      11.097  23.627  21.020  1.00  0.00     0.211 HD
ENDBRANCH  28  33
BRANCH  30  35
ATOM     35  O   UNL     1      13.583  21.030  19.876  1.00  0.00    -0.387 OA
ATOM     36  H   UNL     1      12.916  20.808  20.577  1.00  0.00     0.211 HD
ENDBRANCH  30  35
BRANCH  31  37
ATOM     37  C   UNL     1      17.079  22.337  22.171  1.00  0.00     0.191 C 
BRANCH  37  38
ATOM     38  O   UNL     1      17.826  21.185  21.880  1.00  0.00    -0.394 OA
ATOM     39  H   UNL     1      17.994  21.191  20.902  1.00  0.00     0.210 HD
ENDBRANCH  37  38
ENDBRANCH  31  37
BRANCH  32  40
ATOM     40  O   UNL     1      15.647  23.998  20.195  1.00  0.00    -0.387 OA
ATOM     41  H   UNL     1      16.238  24.230  20.958  1.00  0.00     0.211 HD
ENDBRANCH  32  40
ENDBRANCH   1  27
TORSDOF 12
ENDMDL
MODEL 6
REMARK VINA RESULT:    -4.703      2.183      5.380
REMARK INTER + INTRA:          -8.918
REMARK INTER:                  -7.032
REMARK INTRA:                  -1.887
REMARK UNBOUND:                -2.016
REMARK SMILES O=c1c(O[C@H]2O[C@H](CO)[C@H](O)[C@@H](O)[C@H]2O)c(-c2ccc(O)c(O)c2)oc2cc(O)cc(O)c12
REMARK SMILES IDX 4 1 3 2 16 3 25 4 2 5 26 6 1 7 33 8 27 9 31 10 28 11 30 12
REMARK SMILES IDX 17 13 18 14 19 15 20 16 24 17 22 18 21 19 23 21 32 23 29 25
REMARK SMILES IDX 5 27 14 28 6 29 12 30 7 31 10 32 15 33 13 35 8 37 9 38 11 40
REMARK H PARENT 21 20 23 22 32 24 29 26 15 34 13 36 9 39 11 41
REMARK Flexibility Score: inf
ROOT
ATOM      1  O   UNL     1      15.531  21.139  22.709  1.00  0.00    -0.454 OA
ENDROOT
BRANCH   1   2
ATOM      2  C   UNL     1      14.541  20.716  23.618  1.00  0.00     0.214 A 
ATOM      3  C   UNL     1      14.889  20.615  24.977  1.00  0.00     0.180 A 
ATOM      4  O   UNL     1      13.976  20.268  25.875  1.00  0.00    -0.452 OA
ATOM      5  C   UNL     1      13.214  20.410  23.239  1.00  0.00     0.239 A 
ATOM      6  C   UNL     1      12.714  20.004  25.570  1.00  0.00     0.146 A 
ATOM      7  O   UNL     1      12.912  20.370  22.019  1.00  0.00    -0.285 OA
ATOM      8  C   UNL     1      12.254  20.100  24.232  1.00  0.00     0.111 A 
ATOM      9  C   UNL     1      11.846  19.618  26.595  1.00  0.00     0.094 A 
ATOM     10  C   UNL     1      10.873  19.850  23.969  1.00  0.00     0.134 A 
ATOM     11  C   UNL     1      10.515  19.313  26.316  1.00  0.00     0.123 A 
ATOM     12  C   UNL     1      10.036  19.427  25.009  1.00  0.00     0.093 A 
BRANCH   3  13
ATOM     13  C   UNL     1      16.256  20.917  25.453  1.00  0.00     0.025 A 
ATOM     14  C   UNL     1      16.463  22.010  26.307  1.00  0.00     0.016 A 
ATOM     15  C   UNL     1      17.748  22.322  26.758  1.00  0.00     0.051 A 
ATOM     16  C   UNL     1      18.842  21.536  26.371  1.00  0.00     0.157 A 
ATOM     17  C   UNL     1      17.351  20.115  25.089  1.00  0.00     0.062 A 
ATOM     18  C   UNL     1      18.641  20.425  25.535  1.00  0.00     0.158 A 
BRANCH  16  19
ATOM     19  O   UNL     1      20.124  21.852  26.818  1.00  0.00    -0.504 OA
ATOM     20  H   UNL     1      20.473  21.519  27.709  1.00  0.00     0.293 HD
ENDBRANCH  16  19
BRANCH  18  21
ATOM     21  O   UNL     1      19.706  19.617  25.140  1.00  0.00    -0.504 OA
ATOM     22  H   UNL     1      19.585  18.633  24.931  1.00  0.00     0.293 HD
ENDBRANCH  18  21
ENDBRANCH   3  13
BRANCH  10  23
ATOM     23  O   UNL     1      10.272  20.031  22.720  1.00  0.00    -0.507 OA
ATOM     24  H   UNL     1       9.565  19.424  22.331  1.00  0.00     0.293 HD
ENDBRANCH  10  23
BRANCH  11  25
ATOM     25  O   UNL     1       9.674  18.908  27.350  1.00  0.00    -0.508 OA
ATOM     26  H   UNL     1       8.884  18.296  27.181  1.00  0.00     0.293 HD
ENDBRANCH  11  25
ENDBRANCH   1   2
BRANCH   1  27
ATOM     27  C   UNL     1      15.609  22.409  22.054  1.00  0.00     0.339 C 
ATOM     28  C   UNL     1      15.855  22.232  20.537  1.00  0.00     0.214 C 
ATOM     29  O   UNL     1      16.612  23.230  22.636  1.00  0.00    -0.332 OA
ATOM     30  C   UNL     1      17.271  21.691  20.253  1.00  0.00     0.180 C 
ATOM     31  C   UNL     1      17.903  22.653  22.496  1.00  0.00     0.179 C 
ATOM     32  C   UNL     1      18.308  22.547  21.006  1.00  0.00     0.177 C 
BRANCH  28  33
ATOM     33  O   UNL     1      14.862  21.434  19.938  1.00  0.00    -0.384 OA
ATOM     34  H   UNL     1      14.014  21.946  19.929  1.00  0.00     0.211 HD
ENDBRANCH  28  33
BRANCH  30  35
ATOM     35  O   UNL     1      17.371  20.347  20.656  1.00  0.00    -0.387 OA
ATOM     36  H   UNL     1      17.080  20.308  21.605  1.00  0.00     0.211 HD
ENDBRANCH  30  35
BRANCH  31  37
ATOM     37  C   UNL     1      18.918  23.472  23.310  1.00  0.00     0.191 C 
BRANCH  37  38
ATOM     38  O   UNL     1      18.617  24.842  23.277  1.00  0.00    -0.394 OA
ATOM     39  H   UNL     1      18.769  25.193  24.193  1.00  0.00     0.210 HD
ENDBRANCH  37  38
ENDBRANCH  31  37
BRANCH  32  40
ATOM     40  O   UNL     1      18.371  23.830  20.431  1.00  0.00    -0.387 OA
ATOM     41  H   UNL     1      19.135  24.298  20.859  1.00  0.00     0.211 HD
ENDBRANCH  32  40
ENDBRANCH   1  27
TORSDOF 12
ENDMDL
MODEL 7
REMARK VINA RESULT:    -4.675      1.711      4.617
REMARK INTER + INTRA:          -8.877
REMARK INTER:                  -6.891
REMARK INTRA:                  -1.986
REMARK UNBOUND:                -2.016
REMARK SMILES O=c1c(O[C@H]2O[C@H](CO)[C@H](O)[C@@H](O)[C@H]2O)c(-c2ccc(O)c(O)c2)oc2cc(O)cc(O)c12
REMARK SMILES IDX 4 1 3 2 16 3 25 4 2 5 26 6 1 7 33 8 27 9 31 10 28 11 30 12
REMARK SMILES IDX 17 13 18 14 19 15 20 16 24 17 22 18 21 19 23 21 32 23 29 25
REMARK SMILES IDX 5 27 14 28 6 29 12 30 7 31 10 32 15 33 13 35 8 37 9 38 11 40
REMARK H PARENT 21 20 23 22 32 24 29 26 15 34 13 36 9 39 11 41
REMARK Flexibility Score: inf
ROOT
ATOM      1  O   UNL     1      13.766  20.949  23.855  1.00  0.00    -0.454 OA
ENDROOT
BRANCH   1   2
ATOM      2  C   UNL     1      12.596  20.648  24.580  1.00  0.00     0.214 A 
ATOM      3  C   UNL     1      12.593  20.893  25.965  1.00  0.00     0.180 A 
ATOM      4  O   UNL     1      11.498  20.671  26.680  1.00  0.00    -0.452 OA
ATOM      5  C   UNL     1      11.421  20.135  23.986  1.00  0.00     0.239 A 
ATOM      6  C   UNL     1      10.364  20.221  26.160  1.00  0.00     0.146 A 
ATOM      7  O   UNL     1      11.438  19.788  22.777  1.00  0.00    -0.285 OA
ATOM      8  C   UNL     1      10.254  19.965  24.769  1.00  0.00     0.111 A 
ATOM      9  C   UNL     1       9.282  19.994  27.013  1.00  0.00     0.094 A 
ATOM     10  C   UNL     1       8.995  19.526  24.258  1.00  0.00     0.134 A 
ATOM     11  C   UNL     1       8.078  19.504  26.513  1.00  0.00     0.123 A 
ATOM     12  C   UNL     1       7.940  19.270  25.143  1.00  0.00     0.093 A 
BRANCH   3  13
ATOM     13  C   UNL     1      13.783  21.429  26.661  1.00  0.00     0.025 A 
ATOM     14  C   UNL     1      13.780  22.758  27.107  1.00  0.00     0.016 A 
ATOM     15  C   UNL     1      14.898  23.289  27.756  1.00  0.00     0.051 A 
ATOM     16  C   UNL     1      16.029  22.493  27.977  1.00  0.00     0.157 A 
ATOM     17  C   UNL     1      14.908  20.625  26.909  1.00  0.00     0.062 A 
ATOM     18  C   UNL     1      16.032  21.153  27.555  1.00  0.00     0.158 A 
BRANCH  16  19
ATOM     19  O   UNL     1      17.147  23.026  28.619  1.00  0.00    -0.504 OA
ATOM     20  H   UNL     1      17.235  23.014  29.628  1.00  0.00     0.293 HD
ENDBRANCH  16  19
BRANCH  18  21
ATOM     21  O   UNL     1      17.138  20.331  27.769  1.00  0.00    -0.504 OA
ATOM     22  H   UNL     1      17.040  19.353  28.018  1.00  0.00     0.293 HD
ENDBRANCH  18  21
ENDBRANCH   3  13
BRANCH  10  23
ATOM     23  O   UNL     1       8.722  19.358  22.897  1.00  0.00    -0.507 OA
ATOM     24  H   UNL     1       9.401  19.072  22.207  1.00  0.00     0.293 HD
ENDBRANCH  10  23
BRANCH  11  25
ATOM     25  O   UNL     1       7.019  19.263  27.386  1.00  0.00    -0.508 OA
ATOM     26  H   UNL     1       6.402  18.468  27.263  1.00  0.00     0.293 HD
ENDBRANCH  11  25
ENDBRANCH   1   2
BRANCH   1  27
ATOM     27  C   UNL     1      13.979  22.076  22.999  1.00  0.00     0.339 C 
ATOM     28  C   UNL     1      14.527  21.626  21.624  1.00  0.00     0.214 C 
ATOM     29  O   UNL     1      14.847  23.026  23.603  1.00  0.00    -0.332 OA
ATOM     30  C   UNL     1      15.969  21.092  21.736  1.00  0.00     0.180 C 
ATOM     31  C   UNL     1      16.138  22.479  23.835  1.00  0.00     0.179 C 
ATOM     32  C   UNL     1      16.835  22.110  22.503  1.00  0.00     0.177 C 
BRANCH  28  33
ATOM     33  O   UNL     1      13.673  20.696  21.002  1.00  0.00    -0.384 OA
ATOM     34  H   UNL     1      12.919  21.191  20.591  1.00  0.00     0.211 HD
ENDBRANCH  28  33
BRANCH  30  35
ATOM     35  O   UNL     1      15.980  19.852  22.400  1.00  0.00    -0.387 OA
ATOM     36  H   UNL     1      15.049  19.672  22.692  1.00  0.00     0.211 HD
ENDBRANCH  30  35
BRANCH  31  37
ATOM     37  C   UNL     1      16.969  23.471  24.664  1.00  0.00     0.191 C 
BRANCH  37  38
ATOM     38  O   UNL     1      18.345  23.277  24.470  1.00  0.00    -0.394 OA
ATOM     39  H   UNL     1      18.690  24.094  24.025  1.00  0.00     0.210 HD
ENDBRANCH  37  38
ENDBRANCH  31  37
BRANCH  32  40
ATOM     40  O   UNL     1      17.018  23.264  21.719  1.00  0.00    -0.387 OA
ATOM     41  H   UNL     1      17.978  23.507  21.788  1.00  0.00     0.211 HD
ENDBRANCH  32  40
ENDBRANCH   1  27
TORSDOF 12
ENDMDL
MODEL 8
REMARK VINA RESULT:    -4.674      4.747     10.800
REMARK INTER + INTRA:          -8.876
REMARK INTER:                  -7.272
REMARK INTRA:                  -1.604
REMARK UNBOUND:                -2.016
REMARK SMILES O=c1c(O[C@H]2O[C@H](CO)[C@H](O)[C@@H](O)[C@H]2O)c(-c2ccc(O)c(O)c2)oc2cc(O)cc(O)c12
REMARK SMILES IDX 4 1 3 2 16 3 25 4 2 5 26 6 1 7 33 8 27 9 31 10 28 11 30 12
REMARK SMILES IDX 17 13 18 14 19 15 20 16 24 17 22 18 21 19 23 21 32 23 29 25
REMARK SMILES IDX 5 27 14 28 6 29 12 30 7 31 10 32 15 33 13 35 8 37 9 38 11 40
REMARK H PARENT 21 20 23 22 32 24 29 26 15 34 13 36 9 39 11 41
REMARK Flexibility Score: inf
ROOT
ATOM      1  O   UNL     1       4.060  20.941  23.236  1.00  0.00    -0.454 OA
ENDROOT
BRANCH   1   2
ATOM      2  C   UNL     1       5.454  20.855  23.427  1.00  0.00     0.214 A 
ATOM      3  C   UNL     1       6.059  21.763  24.315  1.00  0.00     0.180 A 
ATOM      4  O   UNL     1       7.360  21.688  24.563  1.00  0.00    -0.452 OA
ATOM      5  C   UNL     1       6.270  19.892  22.792  1.00  0.00     0.239 A 
ATOM      6  C   UNL     1       8.157  20.782  24.015  1.00  0.00     0.146 A 
ATOM      7  O   UNL     1       5.778  19.154  21.901  1.00  0.00    -0.285 OA
ATOM      8  C   UNL     1       7.643  19.805  23.125  1.00  0.00     0.111 A 
ATOM      9  C   UNL     1       9.519  20.815  24.326  1.00  0.00     0.094 A 
ATOM     10  C   UNL     1       8.540  18.824  22.602  1.00  0.00     0.134 A 
ATOM     11  C   UNL     1      10.396  19.894  23.759  1.00  0.00     0.123 A 
ATOM     12  C   UNL     1       9.906  18.907  22.900  1.00  0.00     0.093 A 
BRANCH   3  13
ATOM     13  C   UNL     1       5.274  22.801  25.018  1.00  0.00     0.025 A 
ATOM     14  C   UNL     1       5.171  24.084  24.461  1.00  0.00     0.016 A 
ATOM     15  C   UNL     1       4.445  25.083  25.116  1.00  0.00     0.051 A 
ATOM     16  C   UNL     1       3.803  24.808  26.330  1.00  0.00     0.157 A 
ATOM     17  C   UNL     1       4.606  22.521  26.223  1.00  0.00     0.062 A 
ATOM     18  C   UNL     1       3.881  23.519  26.884  1.00  0.00     0.158 A 
BRANCH  16  19
ATOM     19  O   UNL     1       3.085  25.808  26.984  1.00  0.00    -0.504 OA
ATOM     20  H   UNL     1       3.414  26.217  27.851  1.00  0.00     0.293 HD
ENDBRANCH  16  19
BRANCH  18  21
ATOM     21  O   UNL     1       3.244  23.210  28.085  1.00  0.00    -0.504 OA
ATOM     22  H   UNL     1       2.679  22.376  28.195  1.00  0.00     0.293 HD
ENDBRANCH  18  21
ENDBRANCH   3  13
BRANCH  10  23
ATOM     23  O   UNL     1       8.138  17.740  21.817  1.00  0.00    -0.507 OA
ATOM     24  H   UNL     1       8.356  16.775  22.020  1.00  0.00     0.293 HD
ENDBRANCH  10  23
BRANCH  11  25
ATOM     25  O   UNL     1      11.753  19.960  24.065  1.00  0.00    -0.508 OA
ATOM     26  H   UNL     1      12.237  19.183  24.500  1.00  0.00     0.293 HD
ENDBRANCH  11  25
ENDBRANCH   1   2
BRANCH   1  27
ATOM     27  C   UNL     1       3.377  21.664  22.208  1.00  0.00     0.339 C 
ATOM     28  C   UNL     1       1.950  22.050  22.662  1.00  0.00     0.214 C 
ATOM     29  O   UNL     1       3.340  20.924  20.994  1.00  0.00    -0.332 OA
ATOM     30  C   UNL     1       1.038  20.812  22.776  1.00  0.00     0.180 C 
ATOM     31  C   UNL     1       2.616  19.711  21.147  1.00  0.00     0.179 C 
ATOM     32  C   UNL     1       1.129  19.986  21.478  1.00  0.00     0.177 C 
BRANCH  28  33
ATOM     33  O   UNL     1       1.967  22.797  23.854  1.00  0.00    -0.384 OA
ATOM     34  H   UNL     1       1.582  23.691  23.668  1.00  0.00     0.211 HD
ENDBRANCH  28  33
BRANCH  30  35
ATOM     35  O   UNL     1       1.420  20.025  23.877  1.00  0.00    -0.387 OA
ATOM     36  H   UNL     1       0.837  20.287  24.636  1.00  0.00     0.211 HD
ENDBRANCH  30  35
BRANCH  31  37
ATOM     37  C   UNL     1       2.774  18.862  19.875  1.00  0.00     0.191 C 
BRANCH  37  38
ATOM     38  O   UNL     1       3.981  18.146  19.882  1.00  0.00    -0.394 OA
ATOM     39  H   UNL     1       3.769  17.229  20.197  1.00  0.00     0.210 HD
ENDBRANCH  37  38
ENDBRANCH  31  37
BRANCH  32  40
ATOM     40  O   UNL     1       0.523  20.691  20.423  1.00  0.00    -0.387 OA
ATOM     41  H   UNL     1       0.683  20.164  19.597  1.00  0.00     0.211 HD
ENDBRANCH  32  40
ENDBRANCH   1  27
TORSDOF 12
ENDMDL
MODEL 9
REMARK VINA RESULT:    -4.567      2.381      7.246
REMARK INTER + INTRA:          -8.720
REMARK INTER:                  -6.657
REMARK INTRA:                  -2.063
REMARK UNBOUND:                -2.016
REMARK SMILES O=c1c(O[C@H]2O[C@H](CO)[C@H](O)[C@@H](O)[C@H]2O)c(-c2ccc(O)c(O)c2)oc2cc(O)cc(O)c12
REMARK SMILES IDX 4 1 3 2 16 3 25 4 2 5 26 6 1 7 33 8 27 9 31 10 28 11 30 12
REMARK SMILES IDX 17 13 18 14 19 15 20 16 24 17 22 18 21 19 23 21 32 23 29 25
REMARK SMILES IDX 5 27 14 28 6 29 12 30 7 31 10 32 15 33 13 35 8 37 9 38 11 40
REMARK H PARENT 21 20 23 22 32 24 29 26 15 34 13 36 9 39 11 41
REMARK Flexibility Score: inf
ROOT
ATOM      1  O   UNL     1      14.088  21.245  27.807  1.00  0.00    -0.454 OA
ENDROOT
BRANCH   1   2
ATOM      2  C   UNL     1      15.226  22.015  28.121  1.00  0.00     0.214 A 
ATOM      3  C   UNL     1      16.140  22.299  27.091  1.00  0.00     0.180 A 
ATOM      4  O   UNL     1      17.199  23.061  27.329  1.00  0.00    -0.452 OA
ATOM      5  C   UNL     1      15.483  22.536  29.410  1.00  0.00     0.239 A 
ATOM      6  C   UNL     1      17.463  23.597  28.513  1.00  0.00     0.146 A 
ATOM      7  O   UNL     1      14.751  22.193  30.373  1.00  0.00    -0.285 OA
ATOM      8  C   UNL     1      16.591  23.393  29.613  1.00  0.00     0.111 A 
ATOM      9  C   UNL     1      18.624  24.359  28.658  1.00  0.00     0.094 A 
ATOM     10  C   UNL     1      16.900  24.032  30.852  1.00  0.00     0.134 A 
ATOM     11  C   UNL     1      18.950  24.925  29.888  1.00  0.00     0.123 A 
ATOM     12  C   UNL     1      18.092  24.758  30.978  1.00  0.00     0.093 A 
BRANCH   3  13
ATOM     13  C   UNL     1      15.943  21.791  25.716  1.00  0.00     0.025 A 
ATOM     14  C   UNL     1      15.438  22.650  24.729  1.00  0.00     0.016 A 
ATOM     15  C   UNL     1      15.232  22.188  23.427  1.00  0.00     0.051 A 
ATOM     16  C   UNL     1      15.539  20.863  23.092  1.00  0.00     0.157 A 
ATOM     17  C   UNL     1      16.276  20.470  25.370  1.00  0.00     0.062 A 
ATOM     18  C   UNL     1      16.067  20.001  24.067  1.00  0.00     0.158 A 
BRANCH  16  19
ATOM     19  O   UNL     1      15.325  20.401  21.793  1.00  0.00    -0.504 OA
ATOM     20  H   UNL     1      15.096  21.035  21.036  1.00  0.00     0.293 HD
ENDBRANCH  16  19
BRANCH  18  21
ATOM     21  O   UNL     1      16.392  18.680  23.764  1.00  0.00    -0.504 OA
ATOM     22  H   UNL     1      16.751  18.041  24.464  1.00  0.00     0.293 HD
ENDBRANCH  18  21
ENDBRANCH   3  13
BRANCH  10  23
ATOM     23  O   UNL     1      16.062  24.012  31.971  1.00  0.00    -0.507 OA
ATOM     24  H   UNL     1      15.133  23.617  31.983  1.00  0.00     0.293 HD
ENDBRANCH  10  23
BRANCH  11  25
ATOM     25  O   UNL     1      20.125  25.662  30.015  1.00  0.00    -0.508 OA
ATOM     26  H   UNL     1      20.341  26.173  30.864  1.00  0.00     0.293 HD
ENDBRANCH  11  25
ENDBRANCH   1   2
BRANCH   1  27
ATOM     27  C   UNL     1      12.772  21.731  27.528  1.00  0.00     0.339 C 
ATOM     28  C   UNL     1      11.732  21.068  28.462  1.00  0.00     0.214 C 
ATOM     29  O   UNL     1      12.426  21.534  26.164  1.00  0.00    -0.332 OA
ATOM     30  C   UNL     1      11.546  19.573  28.131  1.00  0.00     0.180 C 
ATOM     31  C   UNL     1      12.397  20.153  25.829  1.00  0.00     0.179 C 
ATOM     32  C   UNL     1      11.292  19.410  26.619  1.00  0.00     0.177 C 
BRANCH  28  33
ATOM     33  O   UNL     1      12.049  21.266  29.819  1.00  0.00    -0.384 OA
ATOM     34  H   UNL     1      12.341  22.205  29.937  1.00  0.00     0.211 HD
ENDBRANCH  28  33
BRANCH  30  35
ATOM     35  O   UNL     1      12.687  18.844  28.509  1.00  0.00    -0.387 OA
ATOM     36  H   UNL     1      12.793  18.962  29.489  1.00  0.00     0.211 HD
ENDBRANCH  30  35
BRANCH  31  37
ATOM     37  C   UNL     1      12.217  20.002  24.310  1.00  0.00     0.191 C 
BRANCH  37  38
ATOM     38  O   UNL     1      11.457  18.866  23.992  1.00  0.00    -0.394 OA
ATOM     39  H   UNL     1      10.941  18.629  24.806  1.00  0.00     0.210 HD
ENDBRANCH  37  38
ENDBRANCH  31  37
BRANCH  32  40
ATOM     40  O   UNL     1      10.029  19.935  26.291  1.00  0.00    -0.387 OA
ATOM     41  H   UNL     1      10.164  20.897  26.085  1.00  0.00     0.211 HD
ENDBRANCH  32  40
ENDBRANCH   1  27
TORSDOF 12
ENDMDL
