MODEL 1
REMARK VINA RESULT:    -0.319      0.000      0.000
REMARK INTER + INTRA:           0.188
REMARK INTER:                  -0.375
REMARK INTRA:                   0.563
REMARK UNBOUND:                 0.563
REMARK SMILES O=c1c(O)c(-c2ccc(O)cc2)oc2cc(O)cc(O)c12
REMARK SMILES IDX 5 1 3 2 2 3 1 4 21 5 19 6 18 7 16 8 15 9 14 10 13 11 6 12
REMARK SMILES IDX 7 13 8 14 9 15 12 16 11 17 10 18 4 20 20 22 17 24
REMARK H PARENT 10 19 4 21 20 23 17 25
REMARK Flexibility Score: inf
ROOT
ATOM      1  C   UNL     1      -0.027  26.498  30.794  1.00  0.00     0.180 A 
ATOM      2  C   UNL     1       0.105  27.133  29.546  1.00  0.00     0.208 A 
ATOM      3  C   UNL     1       0.117  26.349  28.381  1.00  0.00     0.238 A 
ATOM      4  O   UNL     1       0.291  26.919  27.272  1.00  0.00    -0.285 OA
ATOM      5  C   UNL     1      -0.019  24.944  28.476  1.00  0.00     0.111 A 
ATOM      6  C   UNL     1      -0.061  24.056  27.358  1.00  0.00     0.134 A 
ATOM      7  C   UNL     1      -0.068  22.672  27.575  1.00  0.00     0.093 A 
ATOM      8  C   UNL     1      -0.102  22.147  28.866  1.00  0.00     0.123 A 
ATOM      9  C   UNL     1      -0.122  23.006  29.966  1.00  0.00     0.094 A 
ATOM     10  C   UNL     1      -0.078  24.390  29.781  1.00  0.00     0.146 A 
ATOM     11  O   UNL     1      -0.087  25.173  30.853  1.00  0.00    -0.452 OA
ENDROOT
BRANCH   1  12
ATOM     12  C   UNL     1      -0.073  27.258  32.063  1.00  0.00     0.021 A 
ATOM     13  C   UNL     1      -0.101  28.662  32.028  1.00  0.00     0.016 A 
ATOM     14  C   UNL     1      -0.122  29.401  33.215  1.00  0.00     0.047 A 
ATOM     15  C   UNL     1      -0.097  28.747  34.451  1.00  0.00     0.115 A 
ATOM     16  C   UNL     1      -0.028  26.608  33.310  1.00  0.00     0.016 A 
ATOM     17  C   UNL     1      -0.048  27.348  34.495  1.00  0.00     0.047 A 
BRANCH  15  18
ATOM     18  O   UNL     1      -0.118  29.495  35.626  1.00  0.00    -0.508 OA
ATOM     19  H   UNL     1       0.724  29.656  36.166  1.00  0.00     0.293 HD
ENDBRANCH  15  18
ENDBRANCH   1  12
BRANCH   2  20
ATOM     20  O   UNL     1       0.262  28.520  29.477  1.00  0.00    -0.502 OA
ATOM     21  H   UNL     1       1.173  28.965  29.474  1.00  0.00     0.293 HD
ENDBRANCH   2  20
BRANCH   6  22
ATOM     22  O   UNL     1      -0.125  24.479  26.027  1.00  0.00    -0.507 OA
ATOM     23  H   UNL     1       0.634  24.917  25.527  1.00  0.00     0.293 HD
ENDBRANCH   6  22
BRANCH   8  24
ATOM     24  O   UNL     1      -0.125  20.764  29.044  1.00  0.00    -0.508 OA
ATOM     25  H   UNL     1      -0.996  20.247  29.063  1.00  0.00     0.293 HD
ENDBRANCH   8  24
TORSDOF 5
ENDMDL
MODEL 2
REMARK VINA RESULT:     1.120      1.171      1.919
REMARK INTER + INTRA:           1.880
REMARK INTER:                   1.414
REMARK INTRA:                   0.466
REMARK UNBOUND:                 0.563
REMARK SMILES O=c1c(O)c(-c2ccc(O)cc2)oc2cc(O)cc(O)c12
REMARK SMILES IDX 5 1 3 2 2 3 1 4 21 5 19 6 18 7 16 8 15 9 14 10 13 11 6 12
REMARK SMILES IDX 7 13 8 14 9 15 12 16 11 17 10 18 4 20 20 22 17 24
REMARK H PARENT 10 19 4 21 20 23 17 25
REMARK Flexibility Score: inf
ROOT
ATOM      1  C   UNL     1       0.073  27.961  31.446  1.00  0.00     0.180 A 
ATOM      2  C   UNL     1       0.195  28.639  30.220  1.00  0.00     0.208 A 
ATOM      3  C   UNL     1       0.180  27.897  29.028  1.00  0.00     0.238 A 
ATOM      4  O   UNL     1       0.345  28.503  27.937  1.00  0.00    -0.285 OA
ATOM      5  C   UNL     1       0.027  26.490  29.075  1.00  0.00     0.111 A 
ATOM      6  C   UNL     1      -0.042  25.644  27.928  1.00  0.00     0.134 A 
ATOM      7  C   UNL     1      -0.063  24.253  28.095  1.00  0.00     0.093 A 
ATOM      8  C   UNL     1      -0.085  23.682  29.367  1.00  0.00     0.123 A 
ATOM      9  C   UNL     1      -0.078  24.502  30.497  1.00  0.00     0.094 A 
ATOM     10  C   UNL     1      -0.019  25.892  30.361  1.00  0.00     0.146 A 
ATOM     11  O   UNL     1      -0.003  26.635  31.460  1.00  0.00    -0.452 OA
ENDROOT
BRANCH   1  12
ATOM     12  C   UNL     1       0.055  28.676  32.743  1.00  0.00     0.021 A 
ATOM     13  C   UNL     1       0.084  27.940  33.939  1.00  0.00     0.016 A 
ATOM     14  C   UNL     1       0.045  28.594  35.174  1.00  0.00     0.047 A 
ATOM     15  C   UNL     1      -0.039  29.989  35.230  1.00  0.00     0.115 A 
ATOM     16  C   UNL     1      -0.050  30.078  32.806  1.00  0.00     0.016 A 
ATOM     17  C   UNL     1      -0.089  30.729  34.042  1.00  0.00     0.047 A 
BRANCH  15  18
ATOM     18  O   UNL     1      -0.077  30.627  36.467  1.00  0.00    -0.508 OA
ATOM     19  H   UNL     1       0.189  30.146  37.319  1.00  0.00     0.293 HD
ENDBRANCH  15  18
ENDBRANCH   1  12
BRANCH   2  20
ATOM     20  O   UNL     1       0.369  30.025  30.198  1.00  0.00    -0.502 OA
ATOM     21  H   UNL     1       1.274  30.458  30.056  1.00  0.00     0.293 HD
ENDBRANCH   2  20
BRANCH   6  22
ATOM     22  O   UNL     1      -0.119  26.115  26.614  1.00  0.00    -0.507 OA
ATOM     23  H   UNL     1       0.483  26.821  26.220  1.00  0.00     0.293 HD
ENDBRANCH   6  22
BRANCH   8  24
ATOM     24  O   UNL     1      -0.122  22.295  29.497  1.00  0.00    -0.508 OA
ATOM     25  H   UNL     1       0.198  21.833  30.340  1.00  0.00     0.293 HD
ENDBRANCH   8  24
TORSDOF 5
ENDMDL
