MODEL 1
REMARK VINA RESULT:    -5.069      0.000      0.000
REMARK INTER + INTRA:          -6.086
REMARK INTER:                  -5.958
REMARK INTRA:                  -0.129
REMARK UNBOUND:                -0.129
REMARK SMILES O=C([O-])C=Cc1ccc(O)c(O)c1
REMARK SMILES IDX 6 1 13 2 7 3 11 4 8 5 9 6 5 7 4 8 2 9 1 10 3 11 12 12 10 14
REMARK H PARENT 12 13 10 15
REMARK Flexibility Score: inf
ROOT
ATOM      1  C   UNL     1      -7.113 -25.166  35.045  1.00  0.00    -0.022 A 
ATOM      2  C   UNL     1      -8.185 -25.148  35.954  1.00  0.00     0.058 A 
ATOM      3  C   UNL     1      -6.906 -26.318  34.261  1.00  0.00     0.012 A 
ATOM      4  C   UNL     1      -9.020 -26.264  36.099  1.00  0.00     0.157 A 
ATOM      5  C   UNL     1      -7.740 -27.430  34.405  1.00  0.00     0.051 A 
ATOM      6  C   UNL     1      -8.794 -27.411  35.322  1.00  0.00     0.157 A 
ENDROOT
BRANCH   1   7
ATOM      7  C   UNL     1      -6.265 -23.954  34.922  1.00  0.00     0.010 C 
ATOM      8  C   UNL     1      -6.649 -22.837  34.287  1.00  0.00     0.025 C 
BRANCH   8   9
ATOM      9  C   UNL     1      -5.775 -21.657  34.174  1.00  0.00     0.064 C 
ATOM     10  O   UNL     1      -4.584 -21.687  34.584  1.00  0.00    -0.545 OA
ATOM     11  O   UNL     1      -6.273 -20.491  33.608  1.00  0.00    -0.545 OA
ENDBRANCH   8   9
ENDBRANCH   1   7
BRANCH   4  12
ATOM     12  O   UNL     1     -10.075 -26.235  37.011  1.00  0.00    -0.504 OA
ATOM     13  H   UNL     1     -10.539 -27.085  37.312  1.00  0.00     0.293 HD
ENDBRANCH   4  12
BRANCH   6  14
ATOM     14  O   UNL     1      -9.607 -28.537  35.444  1.00  0.00    -0.504 OA
ATOM     15  H   UNL     1     -10.399 -28.699  34.832  1.00  0.00     0.293 HD
ENDBRANCH   6  14
TORSDOF 4
ENDMDL
MODEL 2
REMARK VINA RESULT:    -4.914      0.857      1.908
REMARK INTER + INTRA:          -5.904
REMARK INTER:                  -5.776
REMARK INTRA:                  -0.128
REMARK UNBOUND:                -0.129
REMARK SMILES O=C([O-])C=Cc1ccc(O)c(O)c1
REMARK SMILES IDX 6 1 13 2 7 3 11 4 8 5 9 6 5 7 4 8 2 9 1 10 3 11 12 12 10 14
REMARK H PARENT 12 13 10 15
REMARK Flexibility Score: inf
ROOT
ATOM      1  C   UNL     1      -7.125 -25.107  35.256  1.00  0.00    -0.022 A 
ATOM      2  C   UNL     1      -7.009 -26.083  34.252  1.00  0.00     0.058 A 
ATOM      3  C   UNL     1      -8.051 -25.312  36.298  1.00  0.00     0.012 A 
ATOM      4  C   UNL     1      -7.815 -27.230  34.270  1.00  0.00     0.157 A 
ATOM      5  C   UNL     1      -8.854 -26.455  36.316  1.00  0.00     0.051 A 
ATOM      6  C   UNL     1      -8.744 -27.415  35.306  1.00  0.00     0.157 A 
ENDROOT
BRANCH   1   7
ATOM      7  C   UNL     1      -6.240 -23.917  35.197  1.00  0.00     0.010 C 
ATOM      8  C   UNL     1      -6.510 -22.823  34.469  1.00  0.00     0.025 C 
BRANCH   8   9
ATOM      9  C   UNL     1      -5.601 -21.666  34.426  1.00  0.00     0.064 C 
ATOM     10  O   UNL     1      -4.496 -21.680  35.031  1.00  0.00    -0.545 OA
ATOM     11  O   UNL     1      -5.969 -20.537  33.706  1.00  0.00    -0.545 OA
ENDBRANCH   8   9
ENDBRANCH   1   7
BRANCH   4  12
ATOM     12  O   UNL     1      -7.695 -28.186  33.262  1.00  0.00    -0.504 OA
ATOM     13  H   UNL     1      -8.462 -28.806  33.024  1.00  0.00     0.293 HD
ENDBRANCH   4  12
BRANCH   6  14
ATOM     14  O   UNL     1      -9.560 -28.544  35.351  1.00  0.00    -0.504 OA
ATOM     15  H   UNL     1     -10.565 -28.478  35.464  1.00  0.00     0.293 HD
ENDBRANCH   6  14
TORSDOF 4
ENDMDL
MODEL 3
REMARK VINA RESULT:    -4.603      1.256      1.377
REMARK INTER + INTRA:          -5.538
REMARK INTER:                  -5.408
REMARK INTRA:                  -0.131
REMARK UNBOUND:                -0.129
REMARK SMILES O=C([O-])C=Cc1ccc(O)c(O)c1
REMARK SMILES IDX 6 1 13 2 7 3 11 4 8 5 9 6 5 7 4 8 2 9 1 10 3 11 12 12 10 14
REMARK H PARENT 12 13 10 15
REMARK Flexibility Score: inf
ROOT
ATOM      1  C   UNL     1      -6.353 -24.343  35.150  1.00  0.00    -0.022 A 
ATOM      2  C   UNL     1      -7.676 -24.119  35.566  1.00  0.00     0.058 A 
ATOM      3  C   UNL     1      -5.839 -25.653  35.194  1.00  0.00     0.012 A 
ATOM      4  C   UNL     1      -8.466 -25.176  36.041  1.00  0.00     0.157 A 
ATOM      5  C   UNL     1      -6.627 -26.707  35.667  1.00  0.00     0.051 A 
ATOM      6  C   UNL     1      -7.937 -26.475  36.094  1.00  0.00     0.157 A 
ENDROOT
BRANCH   1   7
ATOM      7  C   UNL     1      -5.563 -23.192  34.645  1.00  0.00     0.010 C 
ATOM      8  C   UNL     1      -5.797 -21.918  34.992  1.00  0.00     0.025 C 
BRANCH   8   9
ATOM      9  C   UNL     1      -5.000 -20.800  34.460  1.00  0.00     0.064 C 
ATOM     10  O   UNL     1      -3.817 -20.601  34.846  1.00  0.00    -0.545 OA
ATOM     11  O   UNL     1      -5.562 -19.948  33.519  1.00  0.00    -0.545 OA
ENDBRANCH   8   9
ENDBRANCH   1   7
BRANCH   4  12
ATOM     12  O   UNL     1      -9.776 -24.938  36.459  1.00  0.00    -0.504 OA
ATOM     13  H   UNL     1     -10.331 -25.663  36.901  1.00  0.00     0.293 HD
ENDBRANCH   4  12
BRANCH   6  14
ATOM     14  O   UNL     1      -8.697 -27.546  36.562  1.00  0.00    -0.504 OA
ATOM     15  H   UNL     1      -9.081 -28.247  35.939  1.00  0.00     0.293 HD
ENDBRANCH   6  14
TORSDOF 4
ENDMDL
MODEL 4
REMARK VINA RESULT:    -4.499      2.138      2.920
REMARK INTER + INTRA:          -5.417
REMARK INTER:                  -5.286
REMARK INTRA:                  -0.132
REMARK UNBOUND:                -0.129
REMARK SMILES O=C([O-])C=Cc1ccc(O)c(O)c1
REMARK SMILES IDX 6 1 13 2 7 3 11 4 8 5 9 6 5 7 4 8 2 9 1 10 3 11 12 12 10 14
REMARK H PARENT 12 13 10 15
REMARK Flexibility Score: inf
ROOT
ATOM      1  C   UNL     1      -6.568 -22.447  34.328  1.00  0.00    -0.022 A 
ATOM      2  C   UNL     1      -7.777 -22.732  34.984  1.00  0.00     0.058 A 
ATOM      3  C   UNL     1      -5.693 -23.508  34.024  1.00  0.00     0.012 A 
ATOM      4  C   UNL     1      -8.099 -24.045  35.355  1.00  0.00     0.157 A 
ATOM      5  C   UNL     1      -6.014 -24.817  34.393  1.00  0.00     0.051 A 
ATOM      6  C   UNL     1      -7.211 -25.092  35.060  1.00  0.00     0.157 A 
ENDROOT
BRANCH   1   7
ATOM      7  C   UNL     1      -6.280 -21.042  33.947  1.00  0.00     0.010 C 
ATOM      8  C   UNL     1      -5.071 -20.472  34.058  1.00  0.00     0.025 C 
BRANCH   8   9
ATOM      9  C   UNL     1      -4.826 -19.070  33.681  1.00  0.00     0.064 C 
ATOM     10  O   UNL     1      -5.369 -18.121  34.308  1.00  0.00    -0.545 OA
ATOM     11  O   UNL     1      -3.982 -18.788  32.615  1.00  0.00    -0.545 OA
ENDBRANCH   8   9
ENDBRANCH   1   7
BRANCH   4  12
ATOM     12  O   UNL     1      -9.299 -24.313  36.014  1.00  0.00    -0.504 OA
ATOM     13  H   UNL     1      -9.616 -23.744  36.792  1.00  0.00     0.293 HD
ENDBRANCH   4  12
BRANCH   6  14
ATOM     14  O   UNL     1      -7.503 -26.408  35.416  1.00  0.00    -0.504 OA
ATOM     15  H   UNL     1      -8.418 -26.685  35.753  1.00  0.00     0.293 HD
ENDBRANCH   6  14
TORSDOF 4
ENDMDL
MODEL 5
REMARK VINA RESULT:    -4.461      2.524      7.157
REMARK INTER + INTRA:          -5.372
REMARK INTER:                  -5.241
REMARK INTRA:                  -0.131
REMARK UNBOUND:                -0.129
REMARK SMILES O=C([O-])C=Cc1ccc(O)c(O)c1
REMARK SMILES IDX 6 1 13 2 7 3 11 4 8 5 9 6 5 7 4 8 2 9 1 10 3 11 12 12 10 14
REMARK H PARENT 12 13 10 15
REMARK Flexibility Score: inf
ROOT
ATOM      1  C   UNL     1      -6.824 -20.793  35.066  1.00  0.00    -0.022 A 
ATOM      2  C   UNL     1      -5.935 -20.705  33.982  1.00  0.00     0.058 A 
ATOM      3  C   UNL     1      -7.029 -19.655  35.871  1.00  0.00     0.012 A 
ATOM      4  C   UNL     1      -5.242 -19.516  33.718  1.00  0.00     0.157 A 
ATOM      5  C   UNL     1      -6.338 -18.469  35.607  1.00  0.00     0.051 A 
ATOM      6  C   UNL     1      -5.443 -18.393  34.537  1.00  0.00     0.157 A 
ENDROOT
BRANCH   1   7
ATOM      7  C   UNL     1      -7.542 -22.072  35.295  1.00  0.00     0.010 C 
ATOM      8  C   UNL     1      -6.994 -23.280  35.096  1.00  0.00     0.025 C 
BRANCH   8   9
ATOM      9  C   UNL     1      -7.741 -24.528  35.322  1.00  0.00     0.064 C 
ATOM     10  O   UNL     1      -8.826 -24.532  35.962  1.00  0.00    -0.545 OA
ATOM     11  O   UNL     1      -7.239 -25.723  34.823  1.00  0.00    -0.545 OA
ENDBRANCH   8   9
ENDBRANCH   1   7
BRANCH   4  12
ATOM     12  O   UNL     1      -4.354 -19.445  32.644  1.00  0.00    -0.504 OA
ATOM     13  H   UNL     1      -4.000 -20.281  32.192  1.00  0.00     0.293 HD
ENDBRANCH   4  12
BRANCH   6  14
ATOM     14  O   UNL     1      -4.768 -17.197  34.301  1.00  0.00    -0.504 OA
ATOM     15  H   UNL     1      -5.250 -16.355  34.006  1.00  0.00     0.293 HD
ENDBRANCH   6  14
TORSDOF 4
ENDMDL
MODEL 6
REMARK VINA RESULT:    -4.448      4.470      5.875
REMARK INTER + INTRA:          -5.357
REMARK INTER:                  -5.224
REMARK INTRA:                  -0.133
REMARK UNBOUND:                -0.129
REMARK SMILES O=C([O-])C=Cc1ccc(O)c(O)c1
REMARK SMILES IDX 6 1 13 2 7 3 11 4 8 5 9 6 5 7 4 8 2 9 1 10 3 11 12 12 10 14
REMARK H PARENT 12 13 10 15
REMARK Flexibility Score: inf
ROOT
ATOM      1  C   UNL     1      -5.975 -19.687  34.470  1.00  0.00    -0.022 A 
ATOM      2  C   UNL     1      -6.105 -20.640  33.446  1.00  0.00     0.058 A 
ATOM      3  C   UNL     1      -6.985 -19.598  35.448  1.00  0.00     0.012 A 
ATOM      4  C   UNL     1      -7.232 -21.472  33.380  1.00  0.00     0.157 A 
ATOM      5  C   UNL     1      -8.108 -20.427  35.382  1.00  0.00     0.051 A 
ATOM      6  C   UNL     1      -8.239 -21.362  34.352  1.00  0.00     0.157 A 
ENDROOT
BRANCH   1   7
ATOM      7  C   UNL     1      -4.757 -18.839  34.502  1.00  0.00     0.010 C 
ATOM      8  C   UNL     1      -3.755 -18.941  33.616  1.00  0.00     0.025 C 
BRANCH   8   9
ATOM      9  C   UNL     1      -2.556 -18.090  33.686  1.00  0.00     0.064 C 
ATOM     10  O   UNL     1      -2.593 -16.879  33.339  1.00  0.00    -0.545 OA
ATOM     11  O   UNL     1      -1.361 -18.632  34.141  1.00  0.00    -0.545 OA
ENDBRANCH   8   9
ENDBRANCH   1   7
BRANCH   4  12
ATOM     12  O   UNL     1      -7.353 -22.407  32.352  1.00  0.00    -0.504 OA
ATOM     13  H   UNL     1      -6.586 -23.021  32.100  1.00  0.00     0.293 HD
ENDBRANCH   4  12
BRANCH   6  14
ATOM     14  O   UNL     1      -9.372 -22.174  34.312  1.00  0.00    -0.504 OA
ATOM     15  H   UNL     1      -9.400 -23.033  33.776  1.00  0.00     0.293 HD
ENDBRANCH   6  14
TORSDOF 4
ENDMDL
MODEL 7
REMARK VINA RESULT:    -4.419      4.193      8.261
REMARK INTER + INTRA:          -5.323
REMARK INTER:                  -5.184
REMARK INTRA:                  -0.139
REMARK UNBOUND:                -0.129
REMARK SMILES O=C([O-])C=Cc1ccc(O)c(O)c1
REMARK SMILES IDX 6 1 13 2 7 3 11 4 8 5 9 6 5 7 4 8 2 9 1 10 3 11 12 12 10 14
REMARK H PARENT 12 13 10 15
REMARK Flexibility Score: inf
ROOT
ATOM      1  C   UNL     1      -4.530 -19.679  33.981  1.00  0.00    -0.022 A 
ATOM      2  C   UNL     1      -4.173 -18.581  33.181  1.00  0.00     0.058 A 
ATOM      3  C   UNL     1      -3.622 -20.132  34.959  1.00  0.00     0.012 A 
ATOM      4  C   UNL     1      -2.925 -17.960  33.331  1.00  0.00     0.157 A 
ATOM      5  C   UNL     1      -2.379 -19.512  35.109  1.00  0.00     0.051 A 
ATOM      6  C   UNL     1      -2.023 -18.431  34.299  1.00  0.00     0.157 A 
ENDROOT
BRANCH   1   7
ATOM      7  C   UNL     1      -5.868 -20.293  33.790  1.00  0.00     0.010 C 
ATOM      8  C   UNL     1      -6.442 -21.120  34.675  1.00  0.00     0.025 C 
BRANCH   8   9
ATOM      9  C   UNL     1      -7.767 -21.721  34.445  1.00  0.00     0.064 C 
ATOM     10  O   UNL     1      -7.920 -22.971  34.416  1.00  0.00    -0.545 OA
ATOM     11  O   UNL     1      -8.866 -20.894  34.255  1.00  0.00    -0.545 OA
ENDBRANCH   8   9
ENDBRANCH   1   7
BRANCH   4  12
ATOM     12  O   UNL     1      -2.579 -16.877  32.523  1.00  0.00    -0.504 OA
ATOM     13  H   UNL     1      -2.489 -16.973  31.517  1.00  0.00     0.293 HD
ENDBRANCH   4  12
BRANCH   6  14
ATOM     14  O   UNL     1      -0.774 -17.836  34.472  1.00  0.00    -0.504 OA
ATOM     15  H   UNL     1      -0.664 -16.936  34.926  1.00  0.00     0.293 HD
ENDBRANCH   6  14
TORSDOF 4
ENDMDL
MODEL 8
REMARK VINA RESULT:    -4.281      2.441      3.306
REMARK INTER + INTRA:          -5.160
REMARK INTER:                  -5.028
REMARK INTRA:                  -0.132
REMARK UNBOUND:                -0.129
REMARK SMILES O=C([O-])C=Cc1ccc(O)c(O)c1
REMARK SMILES IDX 6 1 13 2 7 3 11 4 8 5 9 6 5 7 4 8 2 9 1 10 3 11 12 12 10 14
REMARK H PARENT 12 13 10 15
REMARK Flexibility Score: inf
ROOT
ATOM      1  C   UNL     1      -5.493 -24.095  34.660  1.00  0.00    -0.022 A 
ATOM      2  C   UNL     1      -5.873 -24.043  33.309  1.00  0.00     0.058 A 
ATOM      3  C   UNL     1      -5.835 -25.232  35.419  1.00  0.00     0.012 A 
ATOM      4  C   UNL     1      -6.602 -25.090  32.728  1.00  0.00     0.157 A 
ATOM      5  C   UNL     1      -6.561 -26.276  34.840  1.00  0.00     0.051 A 
ATOM      6  C   UNL     1      -6.949 -26.211  33.499  1.00  0.00     0.157 A 
ENDROOT
BRANCH   1   7
ATOM      7  C   UNL     1      -4.713 -22.965  35.224  1.00  0.00     0.010 C 
ATOM      8  C   UNL     1      -4.756 -21.715  34.740  1.00  0.00     0.025 C 
BRANCH   8   9
ATOM      9  C   UNL     1      -3.958 -20.621  35.318  1.00  0.00     0.064 C 
ATOM     10  O   UNL     1      -3.878 -19.500  34.748  1.00  0.00    -0.545 OA
ATOM     11  O   UNL     1      -3.278 -20.830  36.510  1.00  0.00    -0.545 OA
ENDBRANCH   8   9
ENDBRANCH   1   7
BRANCH   4  12
ATOM     12  O   UNL     1      -6.981 -25.021  31.387  1.00  0.00    -0.504 OA
ATOM     13  H   UNL     1      -6.320 -25.200  30.639  1.00  0.00     0.293 HD
ENDBRANCH   4  12
BRANCH   6  14
ATOM     14  O   UNL     1      -7.675 -27.268  32.951  1.00  0.00    -0.504 OA
ATOM     15  H   UNL     1      -7.724 -27.425  31.951  1.00  0.00     0.293 HD
ENDBRANCH   6  14
TORSDOF 4
ENDMDL
MODEL 9
REMARK VINA RESULT:    -4.271      2.076      2.571
REMARK INTER + INTRA:          -5.149
REMARK INTER:                  -5.018
REMARK INTRA:                  -0.131
REMARK UNBOUND:                -0.129
REMARK SMILES O=C([O-])C=Cc1ccc(O)c(O)c1
REMARK SMILES IDX 6 1 13 2 7 3 11 4 8 5 9 6 5 7 4 8 2 9 1 10 3 11 12 12 10 14
REMARK H PARENT 12 13 10 15
REMARK Flexibility Score: inf
ROOT
ATOM      1  C   UNL     1      -5.817 -24.121  33.899  1.00  0.00    -0.022 A 
ATOM      2  C   UNL     1      -5.977 -25.089  34.904  1.00  0.00     0.058 A 
ATOM      3  C   UNL     1      -6.352 -24.374  32.620  1.00  0.00     0.012 A 
ATOM      4  C   UNL     1      -6.635 -26.298  34.637  1.00  0.00     0.157 A 
ATOM      5  C   UNL     1      -7.008 -25.579  32.354  1.00  0.00     0.051 A 
ATOM      6  C   UNL     1      -7.150 -26.544  33.354  1.00  0.00     0.157 A 
ENDROOT
BRANCH   1   7
ATOM      7  C   UNL     1      -5.123 -22.853  34.237  1.00  0.00     0.010 C 
ATOM      8  C   UNL     1      -5.698 -21.644  34.155  1.00  0.00     0.025 C 
BRANCH   8   9
ATOM      9  C   UNL     1      -4.974 -20.406  34.487  1.00  0.00     0.064 C 
ATOM     10  O   UNL     1      -5.094 -19.370  33.780  1.00  0.00    -0.545 OA
ATOM     11  O   UNL     1      -4.142 -20.381  35.598  1.00  0.00    -0.545 OA
ENDBRANCH   8   9
ENDBRANCH   1   7
BRANCH   4  12
ATOM     12  O   UNL     1      -6.778 -27.254  35.642  1.00  0.00    -0.504 OA
ATOM     13  H   UNL     1      -6.250 -28.120  35.630  1.00  0.00     0.293 HD
ENDBRANCH   4  12
BRANCH   6  14
ATOM     14  O   UNL     1      -7.808 -27.737  33.057  1.00  0.00    -0.504 OA
ATOM     15  H   UNL     1      -8.423 -28.193  33.721  1.00  0.00     0.293 HD
ENDBRANCH   6  14
TORSDOF 4
ENDMDL
