MODEL 1
REMARK VINA RESULT:    -4.328      0.000      0.000
REMARK INTER + INTRA:          -5.451
REMARK INTER:                  -5.214
REMARK INTRA:                  -0.237
REMARK UNBOUND:                -0.237
REMARK SMILES O=c1c(O)c(-c2ccc(O)c(O)c2)oc2cc(O)cc(O)c12
REMARK SMILES IDX 5 1 3 2 2 3 1 4 22 5 20 6 19 7 17 8 16 9 15 10 14 11 6 12
REMARK SMILES IDX 7 13 8 14 9 15 13 16 11 17 10 18 12 20 4 22 21 24 18 26
REMARK H PARENT 10 19 12 21 4 23 21 25 18 27
REMARK Flexibility Score: inf
ROOT
ATOM      1  C   UNL     1     -19.630  59.707  34.276  1.00  0.00     0.180 A 
ATOM      2  C   UNL     1     -19.463  60.296  35.540  1.00  0.00     0.208 A 
ATOM      3  C   UNL     1     -18.691  59.629  36.506  1.00  0.00     0.238 A 
ATOM      4  O   UNL     1     -18.499  60.188  37.617  1.00  0.00    -0.285 OA
ATOM      5  C   UNL     1     -18.110  58.375  36.200  1.00  0.00     0.111 A 
ATOM      6  C   UNL     1     -17.343  57.592  37.114  1.00  0.00     0.134 A 
ATOM      7  C   UNL     1     -16.708  56.429  36.663  1.00  0.00     0.093 A 
ATOM      8  C   UNL     1     -16.866  55.986  35.348  1.00  0.00     0.123 A 
ATOM      9  C   UNL     1     -17.661  56.711  34.465  1.00  0.00     0.094 A 
ATOM     10  C   UNL     1     -18.278  57.894  34.875  1.00  0.00     0.146 A 
ATOM     11  O   UNL     1     -19.020  58.561  33.998  1.00  0.00    -0.452 OA
ENDROOT
BRANCH   1  12
ATOM     12  C   UNL     1     -20.450  60.336  33.215  1.00  0.00     0.025 A 
ATOM     13  C   UNL     1     -20.011  61.486  32.536  1.00  0.00     0.016 A 
ATOM     14  C   UNL     1     -20.812  62.076  31.555  1.00  0.00     0.051 A 
ATOM     15  C   UNL     1     -22.068  61.535  31.248  1.00  0.00     0.157 A 
ATOM     16  C   UNL     1     -21.718  59.810  32.918  1.00  0.00     0.062 A 
ATOM     17  C   UNL     1     -22.523  60.398  31.936  1.00  0.00     0.158 A 
BRANCH  15  18
ATOM     18  O   UNL     1     -22.864  62.125  30.267  1.00  0.00    -0.504 OA
ATOM     19  H   UNL     1     -23.048  61.662  29.384  1.00  0.00     0.293 HD
ENDBRANCH  15  18
BRANCH  17  20
ATOM     20  O   UNL     1     -23.770  59.839  31.658  1.00  0.00    -0.504 OA
ATOM     21  H   UNL     1     -24.016  59.503  30.735  1.00  0.00     0.293 HD
ENDBRANCH  17  20
ENDBRANCH   1  12
BRANCH   2  22
ATOM     22  O   UNL     1     -20.026  61.545  35.814  1.00  0.00    -0.502 OA
ATOM     23  H   UNL     1     -20.419  61.779  36.718  1.00  0.00     0.293 HD
ENDBRANCH   2  22
BRANCH   6  24
ATOM     24  O   UNL     1     -17.198  57.897  38.472  1.00  0.00    -0.507 OA
ATOM     25  H   UNL     1     -17.146  58.830  38.848  1.00  0.00     0.293 HD
ENDBRANCH   6  24
BRANCH   8  26
ATOM     26  O   UNL     1     -16.243  54.817  34.912  1.00  0.00    -0.508 OA
ATOM     27  H   UNL     1     -15.683  54.798  34.068  1.00  0.00     0.293 HD
ENDBRANCH   8  26
TORSDOF 6
ENDMDL
MODEL 2
REMARK VINA RESULT:    -4.281     11.000     14.287
REMARK INTER + INTRA:          -5.394
REMARK INTER:                  -5.075
REMARK INTRA:                  -0.319
REMARK UNBOUND:                -0.237
REMARK SMILES O=c1c(O)c(-c2ccc(O)c(O)c2)oc2cc(O)cc(O)c12
REMARK SMILES IDX 5 1 3 2 2 3 1 4 22 5 20 6 19 7 17 8 16 9 15 10 14 11 6 12
REMARK SMILES IDX 7 13 8 14 9 15 13 16 11 17 10 18 12 20 4 22 21 24 18 26
REMARK H PARENT 10 19 12 21 4 23 21 25 18 27
REMARK Flexibility Score: inf
ROOT
ATOM      1  C   UNL     1     -21.440  47.679  29.549  1.00  0.00     0.180 A 
ATOM      2  C   UNL     1     -22.469  46.746  29.338  1.00  0.00     0.208 A 
ATOM      3  C   UNL     1     -23.749  47.210  28.995  1.00  0.00     0.238 A 
ATOM      4  O   UNL     1     -24.652  46.368  28.753  1.00  0.00    -0.285 OA
ATOM      5  C   UNL     1     -23.987  48.602  28.884  1.00  0.00     0.111 A 
ATOM      6  C   UNL     1     -25.254  49.186  28.582  1.00  0.00     0.134 A 
ATOM      7  C   UNL     1     -25.345  50.567  28.368  1.00  0.00     0.093 A 
ATOM      8  C   UNL     1     -24.227  51.392  28.511  1.00  0.00     0.123 A 
ATOM      9  C   UNL     1     -22.999  50.839  28.864  1.00  0.00     0.094 A 
ATOM     10  C   UNL     1     -22.870  49.461  29.048  1.00  0.00     0.146 A 
ATOM     11  O   UNL     1     -21.678  48.973  29.375  1.00  0.00    -0.452 OA
ENDROOT
BRANCH   1  12
ATOM     12  C   UNL     1     -20.071  47.267  29.939  1.00  0.00     0.025 A 
ATOM     13  C   UNL     1     -19.668  47.247  31.285  1.00  0.00     0.016 A 
ATOM     14  C   UNL     1     -18.365  46.878  31.628  1.00  0.00     0.051 A 
ATOM     15  C   UNL     1     -17.442  46.537  30.630  1.00  0.00     0.157 A 
ATOM     16  C   UNL     1     -19.136  46.946  28.941  1.00  0.00     0.062 A 
ATOM     17  C   UNL     1     -17.829  46.575  29.280  1.00  0.00     0.158 A 
BRANCH  15  18
ATOM     18  O   UNL     1     -16.142  46.167  30.974  1.00  0.00    -0.504 OA
ATOM     19  H   UNL     1     -15.533  45.696  30.315  1.00  0.00     0.293 HD
ENDBRANCH  15  18
BRANCH  17  20
ATOM     20  O   UNL     1     -16.932  46.248  28.263  1.00  0.00    -0.504 OA
ATOM     21  H   UNL     1     -16.070  45.750  28.446  1.00  0.00     0.293 HD
ENDBRANCH  17  20
ENDBRANCH   1  12
BRANCH   2  22
ATOM     22  O   UNL     1     -22.207  45.377  29.431  1.00  0.00    -0.502 OA
ATOM     23  H   UNL     1     -21.315  45.013  29.746  1.00  0.00     0.293 HD
ENDBRANCH   2  22
BRANCH   6  24
ATOM     24  O   UNL     1     -26.449  48.462  28.507  1.00  0.00    -0.507 OA
ATOM     25  H   UNL     1     -27.214  48.680  27.888  1.00  0.00     0.293 HD
ENDBRANCH   6  24
BRANCH   8  26
ATOM     26  O   UNL     1     -24.330  52.768  28.313  1.00  0.00    -0.508 OA
ATOM     27  H   UNL     1     -25.190  53.194  27.989  1.00  0.00     0.293 HD
ENDBRANCH   8  26
TORSDOF 6
ENDMDL
MODEL 3
REMARK VINA RESULT:    -4.120      2.380      6.935
REMARK INTER + INTRA:          -5.200
REMARK INTER:                  -4.878
REMARK INTRA:                  -0.322
REMARK UNBOUND:                -0.237
REMARK SMILES O=c1c(O)c(-c2ccc(O)c(O)c2)oc2cc(O)cc(O)c12
REMARK SMILES IDX 5 1 3 2 2 3 1 4 22 5 20 6 19 7 17 8 16 9 15 10 14 11 6 12
REMARK SMILES IDX 7 13 8 14 9 15 13 16 11 17 10 18 12 20 4 22 21 24 18 26
REMARK H PARENT 10 19 12 21 4 23 21 25 18 27
REMARK Flexibility Score: inf
ROOT
ATOM      1  C   UNL     1     -18.053  56.167  36.221  1.00  0.00     0.180 A 
ATOM      2  C   UNL     1     -17.939  56.823  37.458  1.00  0.00     0.208 A 
ATOM      3  C   UNL     1     -18.213  58.198  37.527  1.00  0.00     0.238 A 
ATOM      4  O   UNL     1     -18.163  58.769  38.648  1.00  0.00    -0.285 OA
ATOM      5  C   UNL     1     -18.583  58.902  36.356  1.00  0.00     0.111 A 
ATOM      6  C   UNL     1     -18.844  60.305  36.301  1.00  0.00     0.134 A 
ATOM      7  C   UNL     1     -19.328  60.872  35.116  1.00  0.00     0.093 A 
ATOM      8  C   UNL     1     -19.498  60.098  33.965  1.00  0.00     0.123 A 
ATOM      9  C   UNL     1     -19.188  58.741  33.992  1.00  0.00     0.094 A 
ATOM     10  C   UNL     1     -18.738  58.140  35.169  1.00  0.00     0.146 A 
ATOM     11  O   UNL     1     -18.464  56.841  35.153  1.00  0.00    -0.452 OA
ENDROOT
BRANCH   1  12
ATOM     12  C   UNL     1     -17.755  54.724  36.063  1.00  0.00     0.025 A 
ATOM     13  C   UNL     1     -16.438  54.263  35.896  1.00  0.00     0.016 A 
ATOM     14  C   UNL     1     -16.183  52.900  35.726  1.00  0.00     0.051 A 
ATOM     15  C   UNL     1     -17.240  51.980  35.707  1.00  0.00     0.157 A 
ATOM     16  C   UNL     1     -18.813  53.801  36.023  1.00  0.00     0.062 A 
ATOM     17  C   UNL     1     -18.561  52.434  35.853  1.00  0.00     0.158 A 
BRANCH  15  18
ATOM     18  O   UNL     1     -16.982  50.620  35.540  1.00  0.00    -0.504 OA
ATOM     19  H   UNL     1     -16.037  50.266  35.448  1.00  0.00     0.293 HD
ENDBRANCH  15  18
BRANCH  17  20
ATOM     20  O   UNL     1     -19.635  51.545  35.833  1.00  0.00    -0.504 OA
ATOM     21  H   UNL     1     -19.509  50.546  35.936  1.00  0.00     0.293 HD
ENDBRANCH  17  20
ENDBRANCH   1  12
BRANCH   2  22
ATOM     22  O   UNL     1     -17.595  56.105  38.606  1.00  0.00    -0.502 OA
ATOM     23  H   UNL     1     -16.679  55.690  38.734  1.00  0.00     0.293 HD
ENDBRANCH   2  22
BRANCH   6  24
ATOM     24  O   UNL     1     -18.621  61.182  37.367  1.00  0.00    -0.507 OA
ATOM     25  H   UNL     1     -19.153  61.193  38.223  1.00  0.00     0.293 HD
ENDBRANCH   6  24
BRANCH   8  26
ATOM     26  O   UNL     1     -19.965  60.675  32.785  1.00  0.00    -0.508 OA
ATOM     27  H   UNL     1     -20.335  61.618  32.765  1.00  0.00     0.293 HD
ENDBRANCH   8  26
TORSDOF 6
ENDMDL
MODEL 4
REMARK VINA RESULT:    -4.084      3.015      6.976
REMARK INTER + INTRA:          -5.156
REMARK INTER:                  -4.834
REMARK INTRA:                  -0.322
REMARK UNBOUND:                -0.237
REMARK SMILES O=c1c(O)c(-c2ccc(O)c(O)c2)oc2cc(O)cc(O)c12
REMARK SMILES IDX 5 1 3 2 2 3 1 4 22 5 20 6 19 7 17 8 16 9 15 10 14 11 6 12
REMARK SMILES IDX 7 13 8 14 9 15 13 16 11 17 10 18 12 20 4 22 21 24 18 26
REMARK H PARENT 10 19 12 21 4 23 21 25 18 27
REMARK Flexibility Score: inf
ROOT
ATOM      1  C   UNL     1     -18.180  56.599  35.733  1.00  0.00     0.180 A 
ATOM      2  C   UNL     1     -18.508  57.216  34.514  1.00  0.00     0.208 A 
ATOM      3  C   UNL     1     -18.789  58.592  34.502  1.00  0.00     0.238 A 
ATOM      4  O   UNL     1     -19.027  59.150  33.399  1.00  0.00    -0.285 OA
ATOM      5  C   UNL     1     -18.753  59.329  35.710  1.00  0.00     0.111 A 
ATOM      6  C   UNL     1     -19.059  60.719  35.822  1.00  0.00     0.134 A 
ATOM      7  C   UNL     1     -18.864  61.373  37.044  1.00  0.00     0.093 A 
ATOM      8  C   UNL     1     -18.438  60.673  38.175  1.00  0.00     0.123 A 
ATOM      9  C   UNL     1     -18.195  59.305  38.091  1.00  0.00     0.094 A 
ATOM     10  C   UNL     1     -18.345  58.632  36.877  1.00  0.00     0.146 A 
ATOM     11  O   UNL     1     -18.092  57.329  36.838  1.00  0.00    -0.452 OA
ENDROOT
BRANCH   1  12
ATOM     12  C   UNL     1     -17.898  55.148  35.830  1.00  0.00     0.025 A 
ATOM     13  C   UNL     1     -16.591  54.646  35.706  1.00  0.00     0.016 A 
ATOM     14  C   UNL     1     -16.351  53.272  35.778  1.00  0.00     0.051 A 
ATOM     15  C   UNL     1     -17.414  52.378  35.962  1.00  0.00     0.157 A 
ATOM     16  C   UNL     1     -18.963  54.246  35.993  1.00  0.00     0.062 A 
ATOM     17  C   UNL     1     -18.726  52.868  36.066  1.00  0.00     0.158 A 
BRANCH  15  18
ATOM     18  O   UNL     1     -17.172  51.007  36.035  1.00  0.00    -0.504 OA
ATOM     19  H   UNL     1     -17.149  50.519  36.923  1.00  0.00     0.293 HD
ENDBRANCH  15  18
BRANCH  17  20
ATOM     20  O   UNL     1     -19.806  52.004  36.243  1.00  0.00    -0.504 OA
ATOM     21  H   UNL     1     -19.778  51.039  35.939  1.00  0.00     0.293 HD
ENDBRANCH  17  20
ENDBRANCH   1  12
BRANCH   2  22
ATOM     22  O   UNL     1     -18.516  56.475  33.330  1.00  0.00    -0.502 OA
ATOM     23  H   UNL     1     -19.370  56.250  32.834  1.00  0.00     0.293 HD
ENDBRANCH   2  22
BRANCH   6  24
ATOM     24  O   UNL     1     -19.578  61.490  34.776  1.00  0.00    -0.507 OA
ATOM     25  H   UNL     1     -19.949  61.116  33.917  1.00  0.00     0.293 HD
ENDBRANCH   6  24
BRANCH   8  26
ATOM     26  O   UNL     1     -18.263  61.330  39.393  1.00  0.00    -0.508 OA
ATOM     27  H   UNL     1     -18.884  61.167  40.176  1.00  0.00     0.293 HD
ENDBRANCH   8  26
TORSDOF 6
ENDMDL
MODEL 5
REMARK VINA RESULT:    -4.076     17.643     18.992
REMARK INTER + INTRA:          -5.147
REMARK INTER:                  -5.396
REMARK INTRA:                   0.249
REMARK UNBOUND:                -0.237
REMARK SMILES O=c1c(O)c(-c2ccc(O)c(O)c2)oc2cc(O)cc(O)c12
REMARK SMILES IDX 5 1 3 2 2 3 1 4 22 5 20 6 19 7 17 8 16 9 15 10 14 11 6 12
REMARK SMILES IDX 7 13 8 14 9 15 13 16 11 17 10 18 12 20 4 22 21 24 18 26
REMARK H PARENT 10 19 12 21 4 23 21 25 18 27
REMARK Flexibility Score: inf
ROOT
ATOM      1  C   UNL     1     -31.040  44.525  36.243  1.00  0.00     0.180 A 
ATOM      2  C   UNL     1     -30.626  43.261  35.790  1.00  0.00     0.208 A 
ATOM      3  C   UNL     1     -29.458  43.163  35.017  1.00  0.00     0.238 A 
ATOM      4  O   UNL     1     -29.062  42.022  34.662  1.00  0.00    -0.285 OA
ATOM      5  C   UNL     1     -28.729  44.333  34.693  1.00  0.00     0.111 A 
ATOM      6  C   UNL     1     -27.554  44.356  33.882  1.00  0.00     0.134 A 
ATOM      7  C   UNL     1     -26.841  45.552  33.734  1.00  0.00     0.093 A 
ATOM      8  C   UNL     1     -27.296  46.738  34.314  1.00  0.00     0.123 A 
ATOM      9  C   UNL     1     -28.474  46.737  35.057  1.00  0.00     0.094 A 
ATOM     10  C   UNL     1     -29.188  45.553  35.252  1.00  0.00     0.146 A 
ATOM     11  O   UNL     1     -30.300  45.594  35.976  1.00  0.00    -0.452 OA
ENDROOT
BRANCH   1  12
ATOM     12  C   UNL     1     -32.275  44.711  37.040  1.00  0.00     0.025 A 
ATOM     13  C   UNL     1     -32.721  43.726  37.938  1.00  0.00     0.016 A 
ATOM     14  C   UNL     1     -33.901  43.913  38.663  1.00  0.00     0.051 A 
ATOM     15  C   UNL     1     -34.658  45.080  38.492  1.00  0.00     0.157 A 
ATOM     16  C   UNL     1     -33.048  45.869  36.856  1.00  0.00     0.062 A 
ATOM     17  C   UNL     1     -34.230  46.060  37.581  1.00  0.00     0.158 A 
BRANCH  15  18
ATOM     18  O   UNL     1     -35.834  45.266  39.218  1.00  0.00    -0.504 OA
ATOM     19  H   UNL     1     -36.081  44.658  39.990  1.00  0.00     0.293 HD
ENDBRANCH  15  18
BRANCH  17  20
ATOM     20  O   UNL     1     -34.964  47.229  37.383  1.00  0.00    -0.504 OA
ATOM     21  H   UNL     1     -35.289  47.512  36.467  1.00  0.00     0.293 HD
ENDBRANCH  17  20
ENDBRANCH   1  12
BRANCH   2  22
ATOM     22  O   UNL     1     -31.348  42.117  36.141  1.00  0.00    -0.502 OA
ATOM     23  H   UNL     1     -31.185  41.613  37.004  1.00  0.00     0.293 HD
ENDBRANCH   2  22
BRANCH   6  24
ATOM     24  O   UNL     1     -27.065  43.247  33.184  1.00  0.00    -0.507 OA
ATOM     25  H   UNL     1     -27.344  42.294  33.353  1.00  0.00     0.293 HD
ENDBRANCH   6  24
BRANCH   8  26
ATOM     26  O   UNL     1     -26.589  47.928  34.148  1.00  0.00    -0.508 OA
ATOM     27  H   UNL     1     -26.525  48.385  33.246  1.00  0.00     0.293 HD
ENDBRANCH   8  26
TORSDOF 6
ENDMDL
MODEL 6
REMARK VINA RESULT:    -4.028     17.179     18.716
REMARK INTER + INTRA:          -5.089
REMARK INTER:                  -4.819
REMARK INTRA:                  -0.271
REMARK UNBOUND:                -0.237
REMARK SMILES O=c1c(O)c(-c2ccc(O)c(O)c2)oc2cc(O)cc(O)c12
REMARK SMILES IDX 5 1 3 2 2 3 1 4 22 5 20 6 19 7 17 8 16 9 15 10 14 11 6 12
REMARK SMILES IDX 7 13 8 14 9 15 13 16 11 17 10 18 12 20 4 22 21 24 18 26
REMARK H PARENT 10 19 12 21 4 23 21 25 18 27
REMARK Flexibility Score: inf
ROOT
ATOM      1  C   UNL     1     -30.418  45.055  36.166  1.00  0.00     0.180 A 
ATOM      2  C   UNL     1     -31.738  44.612  35.977  1.00  0.00     0.208 A 
ATOM      3  C   UNL     1     -32.738  45.058  36.857  1.00  0.00     0.238 A 
ATOM      4  O   UNL     1     -33.928  44.702  36.650  1.00  0.00    -0.285 OA
ATOM      5  C   UNL     1     -32.402  45.927  37.923  1.00  0.00     0.111 A 
ATOM      6  C   UNL     1     -33.327  46.409  38.898  1.00  0.00     0.134 A 
ATOM      7  C   UNL     1     -32.910  47.367  39.831  1.00  0.00     0.093 A 
ATOM      8  C   UNL     1     -31.586  47.811  39.864  1.00  0.00     0.123 A 
ATOM      9  C   UNL     1     -30.663  47.302  38.955  1.00  0.00     0.094 A 
ATOM     10  C   UNL     1     -31.057  46.372  37.990  1.00  0.00     0.146 A 
ATOM     11  O   UNL     1     -30.146  45.920  37.135  1.00  0.00    -0.452 OA
ENDROOT
BRANCH   1  12
ATOM     12  C   UNL     1     -29.305  44.608  35.296  1.00  0.00     0.025 A 
ATOM     13  C   UNL     1     -28.780  43.308  35.389  1.00  0.00     0.016 A 
ATOM     14  C   UNL     1     -27.715  42.916  34.574  1.00  0.00     0.051 A 
ATOM     15  C   UNL     1     -27.151  43.821  33.665  1.00  0.00     0.157 A 
ATOM     16  C   UNL     1     -28.723  45.518  34.398  1.00  0.00     0.062 A 
ATOM     17  C   UNL     1     -27.656  45.129  33.580  1.00  0.00     0.158 A 
BRANCH  15  18
ATOM     18  O   UNL     1     -26.089  43.427  32.851  1.00  0.00    -0.504 OA
ATOM     19  H   UNL     1     -25.921  42.452  32.634  1.00  0.00     0.293 HD
ENDBRANCH  15  18
BRANCH  17  20
ATOM     20  O   UNL     1     -27.112  46.055  32.690  1.00  0.00    -0.504 OA
ATOM     21  H   UNL     1     -26.475  46.782  32.992  1.00  0.00     0.293 HD
ENDBRANCH  17  20
ENDBRANCH   1  12
BRANCH   2  22
ATOM     22  O   UNL     1     -32.052  43.772  34.906  1.00  0.00    -0.502 OA
ATOM     23  H   UNL     1     -31.698  42.826  34.834  1.00  0.00     0.293 HD
ENDBRANCH   2  22
BRANCH   6  24
ATOM     24  O   UNL     1     -34.647  45.962  39.010  1.00  0.00    -0.507 OA
ATOM     25  H   UNL     1     -35.458  46.561  39.019  1.00  0.00     0.293 HD
ENDBRANCH   6  24
BRANCH   8  26
ATOM     26  O   UNL     1     -31.176  48.753  40.807  1.00  0.00    -0.508 OA
ATOM     27  H   UNL     1     -30.564  49.520  40.557  1.00  0.00     0.293 HD
ENDBRANCH   8  26
TORSDOF 6
ENDMDL
MODEL 7
REMARK VINA RESULT:    -4.008      8.921     10.595
REMARK INTER + INTRA:          -5.065
REMARK INTER:                  -4.885
REMARK INTRA:                  -0.180
REMARK UNBOUND:                -0.237
REMARK SMILES O=c1c(O)c(-c2ccc(O)c(O)c2)oc2cc(O)cc(O)c12
REMARK SMILES IDX 5 1 3 2 2 3 1 4 22 5 20 6 19 7 17 8 16 9 15 10 14 11 6 12
REMARK SMILES IDX 7 13 8 14 9 15 13 16 11 17 10 18 12 20 4 22 21 24 18 26
REMARK H PARENT 10 19 12 21 4 23 21 25 18 27
REMARK Flexibility Score: inf
ROOT
ATOM      1  C   UNL     1     -21.844  49.797  30.671  1.00  0.00     0.180 A 
ATOM      2  C   UNL     1     -21.352  48.533  30.303  1.00  0.00     0.208 A 
ATOM      3  C   UNL     1     -20.276  47.986  31.020  1.00  0.00     0.238 A 
ATOM      4  O   UNL     1     -19.876  46.830  30.721  1.00  0.00    -0.285 OA
ATOM      5  C   UNL     1     -19.696  48.716  32.086  1.00  0.00     0.111 A 
ATOM      6  C   UNL     1     -18.577  48.276  32.855  1.00  0.00     0.134 A 
ATOM      7  C   UNL     1     -18.169  49.020  33.968  1.00  0.00     0.093 A 
ATOM      8  C   UNL     1     -18.798  50.221  34.301  1.00  0.00     0.123 A 
ATOM      9  C   UNL     1     -19.853  50.689  33.522  1.00  0.00     0.094 A 
ATOM     10  C   UNL     1     -20.305  49.951  32.426  1.00  0.00     0.146 A 
ATOM     11  O   UNL     1     -21.321  50.428  31.715  1.00  0.00    -0.452 OA
ENDROOT
BRANCH   1  12
ATOM     12  C   UNL     1     -22.959  50.451  29.947  1.00  0.00     0.025 A 
ATOM     13  C   UNL     1     -22.839  50.813  28.594  1.00  0.00     0.016 A 
ATOM     14  C   UNL     1     -23.895  51.450  27.937  1.00  0.00     0.051 A 
ATOM     15  C   UNL     1     -25.080  51.746  28.625  1.00  0.00     0.157 A 
ATOM     16  C   UNL     1     -24.140  50.768  30.638  1.00  0.00     0.062 A 
ATOM     17  C   UNL     1     -25.200  51.406  29.983  1.00  0.00     0.158 A 
BRANCH  15  18
ATOM     18  O   UNL     1     -26.133  52.379  27.966  1.00  0.00    -0.504 OA
ATOM     19  H   UNL     1     -27.084  52.323  28.311  1.00  0.00     0.293 HD
ENDBRANCH  15  18
BRANCH  17  20
ATOM     20  O   UNL     1     -26.363  51.693  30.697  1.00  0.00    -0.504 OA
ATOM     21  H   UNL     1     -26.867  50.982  31.212  1.00  0.00     0.293 HD
ENDBRANCH  17  20
ENDBRANCH   1  12
BRANCH   2  22
ATOM     22  O   UNL     1     -21.954  47.820  29.263  1.00  0.00    -0.502 OA
ATOM     23  H   UNL     1     -22.317  48.272  28.432  1.00  0.00     0.293 HD
ENDBRANCH   2  22
BRANCH   6  24
ATOM     24  O   UNL     1     -17.821  47.139  32.552  1.00  0.00    -0.507 OA
ATOM     25  H   UNL     1     -17.464  46.913  31.637  1.00  0.00     0.293 HD
ENDBRANCH   6  24
BRANCH   8  26
ATOM     26  O   UNL     1     -18.375  50.964  35.403  1.00  0.00    -0.508 OA
ATOM     27  H   UNL     1     -17.393  51.147  35.573  1.00  0.00     0.293 HD
ENDBRANCH   8  26
TORSDOF 6
ENDMDL
MODEL 8
REMARK VINA RESULT:    -3.951      1.891      6.948
REMARK INTER + INTRA:          -4.996
REMARK INTER:                  -4.676
REMARK INTRA:                  -0.320
REMARK UNBOUND:                -0.237
REMARK SMILES O=c1c(O)c(-c2ccc(O)c(O)c2)oc2cc(O)cc(O)c12
REMARK SMILES IDX 5 1 3 2 2 3 1 4 22 5 20 6 19 7 17 8 16 9 15 10 14 11 6 12
REMARK SMILES IDX 7 13 8 14 9 15 13 16 11 17 10 18 12 20 4 22 21 24 18 26
REMARK H PARENT 10 19 12 21 4 23 21 25 18 27
REMARK Flexibility Score: inf
ROOT
ATOM      1  C   UNL     1     -20.410  59.010  33.645  1.00  0.00     0.180 A 
ATOM      2  C   UNL     1     -20.409  60.324  33.148  1.00  0.00     0.208 A 
ATOM      3  C   UNL     1     -21.573  60.823  32.542  1.00  0.00     0.238 A 
ATOM      4  O   UNL     1     -21.584  62.019  32.149  1.00  0.00    -0.285 OA
ATOM      5  C   UNL     1     -22.717  59.997  32.425  1.00  0.00     0.111 A 
ATOM      6  C   UNL     1     -23.937  60.385  31.793  1.00  0.00     0.134 A 
ATOM      7  C   UNL     1     -25.046  59.533  31.851  1.00  0.00     0.093 A 
ATOM      8  C   UNL     1     -24.960  58.279  32.461  1.00  0.00     0.123 A 
ATOM      9  C   UNL     1     -23.757  57.867  33.028  1.00  0.00     0.094 A 
ATOM     10  C   UNL     1     -22.643  58.710  33.017  1.00  0.00     0.146 A 
ATOM     11  O   UNL     1     -21.518  58.281  33.579  1.00  0.00    -0.452 OA
ENDROOT
BRANCH   1  12
ATOM     12  C   UNL     1     -19.213  58.404  34.274  1.00  0.00     0.025 A 
ATOM     13  C   UNL     1     -18.317  57.615  33.533  1.00  0.00     0.016 A 
ATOM     14  C   UNL     1     -17.207  57.035  34.152  1.00  0.00     0.051 A 
ATOM     15  C   UNL     1     -16.985  57.223  35.523  1.00  0.00     0.157 A 
ATOM     16  C   UNL     1     -18.998  58.572  35.652  1.00  0.00     0.062 A 
ATOM     17  C   UNL     1     -17.887  57.992  36.276  1.00  0.00     0.158 A 
BRANCH  15  18
ATOM     18  O   UNL     1     -15.875  56.644  36.139  1.00  0.00    -0.504 OA
ATOM     19  H   UNL     1     -15.931  55.737  36.588  1.00  0.00     0.293 HD
ENDBRANCH  15  18
BRANCH  17  20
ATOM     20  O   UNL     1     -17.697  58.192  37.643  1.00  0.00    -0.504 OA
ATOM     21  H   UNL     1     -18.473  58.293  38.285  1.00  0.00     0.293 HD
ENDBRANCH  17  20
ENDBRANCH   1  12
BRANCH   2  22
ATOM     22  O   UNL     1     -19.277  61.130  33.294  1.00  0.00    -0.502 OA
ATOM     23  H   UNL     1     -19.103  61.935  32.704  1.00  0.00     0.293 HD
ENDBRANCH   2  22
BRANCH   6  24
ATOM     24  O   UNL     1     -24.100  61.576  31.078  1.00  0.00    -0.507 OA
ATOM     25  H   UNL     1     -23.440  62.337  31.072  1.00  0.00     0.293 HD
ENDBRANCH   6  24
BRANCH   8  26
ATOM     26  O   UNL     1     -26.065  57.431  32.499  1.00  0.00    -0.508 OA
ATOM     27  H   UNL     1     -26.171  56.731  33.224  1.00  0.00     0.293 HD
ENDBRANCH   8  26
TORSDOF 6
ENDMDL
MODEL 9
REMARK VINA RESULT:    -3.946      8.914     10.215
REMARK INTER + INTRA:          -4.990
REMARK INTER:                  -4.713
REMARK INTRA:                  -0.277
REMARK UNBOUND:                -0.237
REMARK SMILES O=c1c(O)c(-c2ccc(O)c(O)c2)oc2cc(O)cc(O)c12
REMARK SMILES IDX 5 1 3 2 2 3 1 4 22 5 20 6 19 7 17 8 16 9 15 10 14 11 6 12
REMARK SMILES IDX 7 13 8 14 9 15 13 16 11 17 10 18 12 20 4 22 21 24 18 26
REMARK H PARENT 10 19 12 21 4 23 21 25 18 27
REMARK Flexibility Score: inf
ROOT
ATOM      1  C   UNL     1     -20.542  49.727  32.640  1.00  0.00     0.180 A 
ATOM      2  C   UNL     1     -19.801  50.657  33.389  1.00  0.00     0.208 A 
ATOM      3  C   UNL     1     -18.696  50.209  34.130  1.00  0.00     0.238 A 
ATOM      4  O   UNL     1     -18.003  51.055  34.754  1.00  0.00    -0.285 OA
ATOM      5  C   UNL     1     -18.355  48.835  34.125  1.00  0.00     0.111 A 
ATOM      6  C   UNL     1     -17.280  48.263  34.871  1.00  0.00     0.134 A 
ATOM      7  C   UNL     1     -16.953  46.914  34.689  1.00  0.00     0.093 A 
ATOM      8  C   UNL     1     -17.705  46.100  33.838  1.00  0.00     0.123 A 
ATOM      9  C   UNL     1     -18.792  46.634  33.152  1.00  0.00     0.094 A 
ATOM     10  C   UNL     1     -19.120  47.985  33.285  1.00  0.00     0.146 A 
ATOM     11  O   UNL     1     -20.159  48.456  32.605  1.00  0.00    -0.452 OA
ENDROOT
BRANCH   1  12
ATOM     12  C   UNL     1     -21.735  50.119  31.855  1.00  0.00     0.025 A 
ATOM     13  C   UNL     1     -22.958  50.416  32.481  1.00  0.00     0.016 A 
ATOM     14  C   UNL     1     -24.077  50.760  31.719  1.00  0.00     0.051 A 
ATOM     15  C   UNL     1     -23.994  50.800  30.321  1.00  0.00     0.157 A 
ATOM     16  C   UNL     1     -21.663  50.139  30.452  1.00  0.00     0.062 A 
ATOM     17  C   UNL     1     -22.782  50.485  29.685  1.00  0.00     0.158 A 
BRANCH  15  18
ATOM     18  O   UNL     1     -25.112  51.147  29.562  1.00  0.00    -0.504 OA
ATOM     19  H   UNL     1     -25.037  51.361  28.575  1.00  0.00     0.293 HD
ENDBRANCH  15  18
BRANCH  17  20
ATOM     20  O   UNL     1     -22.669  50.509  28.295  1.00  0.00    -0.504 OA
ATOM     21  H   UNL     1     -22.642  51.375  27.773  1.00  0.00     0.293 HD
ENDBRANCH  17  20
ENDBRANCH   1  12
BRANCH   2  22
ATOM     22  O   UNL     1     -20.141  52.012  33.362  1.00  0.00    -0.502 OA
ATOM     23  H   UNL     1     -20.829  52.413  33.989  1.00  0.00     0.293 HD
ENDBRANCH   2  22
BRANCH   6  24
ATOM     24  O   UNL     1     -16.525  48.967  35.815  1.00  0.00    -0.507 OA
ATOM     25  H   UNL     1     -16.739  49.017  36.799  1.00  0.00     0.293 HD
ENDBRANCH   6  24
BRANCH   8  26
ATOM     26  O   UNL     1     -17.383  44.753  33.675  1.00  0.00    -0.508 OA
ATOM     27  H   UNL     1     -16.478  44.464  33.324  1.00  0.00     0.293 HD
ENDBRANCH   8  26
TORSDOF 6
ENDMDL
