MODEL 1
REMARK VINA RESULT:    -5.002      0.000      0.000
REMARK INTER + INTRA:          -6.107
REMARK INTER:                  -5.880
REMARK INTRA:                  -0.228
REMARK UNBOUND:                -0.228
REMARK SMILES O=c1c(O)c(-c2ccc(O)cc2)oc2cc(O)cc(O)c12
REMARK SMILES IDX 5 1 3 2 2 3 1 4 21 5 19 6 18 7 16 8 15 9 14 10 13 11 6 12
REMARK SMILES IDX 7 13 8 14 9 15 12 16 11 17 10 18 4 20 20 22 17 24
REMARK H PARENT 10 19 4 21 20 23 17 25
REMARK Flexibility Score: inf
ROOT
ATOM      1  C   UNL     1      33.056  -5.111   3.333  1.00  0.00     0.180 A 
ATOM      2  C   UNL     1      33.598  -6.374   3.628  1.00  0.00     0.208 A 
ATOM      3  C   UNL     1      33.471  -7.407   2.685  1.00  0.00     0.238 A 
ATOM      4  O   UNL     1      33.893  -8.554   2.986  1.00  0.00    -0.285 OA
ATOM      5  C   UNL     1      32.855  -7.151   1.436  1.00  0.00     0.111 A 
ATOM      6  C   UNL     1      32.713  -8.109   0.388  1.00  0.00     0.134 A 
ATOM      7  C   UNL     1      31.990  -7.772  -0.764  1.00  0.00     0.093 A 
ATOM      8  C   UNL     1      31.461  -6.493  -0.933  1.00  0.00     0.123 A 
ATOM      9  C   UNL     1      31.641  -5.531   0.061  1.00  0.00     0.094 A 
ATOM     10  C   UNL     1      32.324  -5.848   1.237  1.00  0.00     0.146 A 
ATOM     11  O   UNL     1      32.454  -4.909   2.166  1.00  0.00    -0.452 OA
ENDROOT
BRANCH   1  12
ATOM     12  C   UNL     1      33.137  -3.977   4.282  1.00  0.00     0.021 A 
ATOM     13  C   UNL     1      33.975  -2.890   3.987  1.00  0.00     0.016 A 
ATOM     14  C   UNL     1      34.050  -1.797   4.857  1.00  0.00     0.047 A 
ATOM     15  C   UNL     1      33.275  -1.773   6.025  1.00  0.00     0.115 A 
ATOM     16  C   UNL     1      32.347  -3.937   5.445  1.00  0.00     0.016 A 
ATOM     17  C   UNL     1      32.424  -2.843   6.313  1.00  0.00     0.047 A 
BRANCH  15  18
ATOM     18  O   UNL     1      33.342  -0.690   6.898  1.00  0.00    -0.508 OA
ATOM     19  H   UNL     1      34.193  -0.466   7.400  1.00  0.00     0.293 HD
ENDBRANCH  15  18
ENDBRANCH   1  12
BRANCH   2  20
ATOM     20  O   UNL     1      34.271  -6.586   4.834  1.00  0.00    -0.502 OA
ATOM     21  H   UNL     1      35.233  -6.303   4.978  1.00  0.00     0.293 HD
ENDBRANCH   2  20
BRANCH   6  22
ATOM     22  O   UNL     1      33.277  -9.389   0.415  1.00  0.00    -0.507 OA
ATOM     23  H   UNL     1      34.214  -9.601   0.722  1.00  0.00     0.293 HD
ENDBRANCH   6  22
BRANCH   8  24
ATOM     24  O   UNL     1      30.763  -6.188  -2.099  1.00  0.00    -0.508 OA
ATOM     25  H   UNL     1      30.889  -6.725  -2.949  1.00  0.00     0.293 HD
ENDBRANCH   8  24
TORSDOF 5
ENDMDL
MODEL 2
REMARK VINA RESULT:    -4.991      2.865      3.380
REMARK INTER + INTRA:          -6.093
REMARK INTER:                  -5.797
REMARK INTRA:                  -0.296
REMARK UNBOUND:                -0.228
REMARK SMILES O=c1c(O)c(-c2ccc(O)cc2)oc2cc(O)cc(O)c12
REMARK SMILES IDX 5 1 3 2 2 3 1 4 21 5 19 6 18 7 16 8 15 9 14 10 13 11 6 12
REMARK SMILES IDX 7 13 8 14 9 15 12 16 11 17 10 18 4 20 20 22 17 24
REMARK H PARENT 10 19 4 21 20 23 17 25
REMARK Flexibility Score: inf
ROOT
ATOM      1  C   UNL     1      33.402  -4.413   1.273  1.00  0.00     0.180 A 
ATOM      2  C   UNL     1      32.038  -4.647   1.518  1.00  0.00     0.208 A 
ATOM      3  C   UNL     1      31.292  -5.370   0.572  1.00  0.00     0.238 A 
ATOM      4  O   UNL     1      30.055  -5.512   0.761  1.00  0.00    -0.285 OA
ATOM      5  C   UNL     1      31.930  -5.899  -0.576  1.00  0.00     0.111 A 
ATOM      6  C   UNL     1      31.282  -6.685  -1.576  1.00  0.00     0.134 A 
ATOM      7  C   UNL     1      31.991  -7.064  -2.723  1.00  0.00     0.093 A 
ATOM      8  C   UNL     1      33.338  -6.742  -2.877  1.00  0.00     0.123 A 
ATOM      9  C   UNL     1      33.996  -6.021  -1.880  1.00  0.00     0.094 A 
ATOM     10  C   UNL     1      33.307  -5.596  -0.742  1.00  0.00     0.146 A 
ATOM     11  O   UNL     1      33.966  -4.894   0.171  1.00  0.00    -0.452 OA
ENDROOT
BRANCH   1  12
ATOM     12  C   UNL     1      34.251  -3.647   2.215  1.00  0.00     0.021 A 
ATOM     13  C   UNL     1      34.987  -4.333   3.195  1.00  0.00     0.016 A 
ATOM     14  C   UNL     1      35.813  -3.634   4.080  1.00  0.00     0.047 A 
ATOM     15  C   UNL     1      35.925  -2.240   3.984  1.00  0.00     0.115 A 
ATOM     16  C   UNL     1      34.384  -2.251   2.112  1.00  0.00     0.016 A 
ATOM     17  C   UNL     1      35.212  -1.554   2.998  1.00  0.00     0.047 A 
BRANCH  15  18
ATOM     18  O   UNL     1      36.745  -1.532   4.861  1.00  0.00    -0.508 OA
ATOM     19  H   UNL     1      37.731  -1.744   4.951  1.00  0.00     0.293 HD
ENDBRANCH  15  18
ENDBRANCH   1  12
BRANCH   2  20
ATOM     20  O   UNL     1      31.444  -4.184   2.694  1.00  0.00    -0.502 OA
ATOM     21  H   UNL     1      30.482  -3.869   2.730  1.00  0.00     0.293 HD
ENDBRANCH   2  20
BRANCH   6  22
ATOM     22  O   UNL     1      29.962  -7.139  -1.483  1.00  0.00    -0.507 OA
ATOM     23  H   UNL     1      29.241  -6.708  -0.925  1.00  0.00     0.293 HD
ENDBRANCH   6  22
BRANCH   8  24
ATOM     24  O   UNL     1      34.015  -7.151  -4.023  1.00  0.00    -0.508 OA
ATOM     25  H   UNL     1      33.632  -7.854  -4.644  1.00  0.00     0.293 HD
ENDBRANCH   8  24
TORSDOF 5
ENDMDL
MODEL 3
REMARK VINA RESULT:    -4.974      2.739      3.234
REMARK INTER + INTRA:          -6.074
REMARK INTER:                  -5.786
REMARK INTRA:                  -0.288
REMARK UNBOUND:                -0.228
REMARK SMILES O=c1c(O)c(-c2ccc(O)cc2)oc2cc(O)cc(O)c12
REMARK SMILES IDX 5 1 3 2 2 3 1 4 21 5 19 6 18 7 16 8 15 9 14 10 13 11 6 12
REMARK SMILES IDX 7 13 8 14 9 15 12 16 11 17 10 18 4 20 20 22 17 24
REMARK H PARENT 10 19 4 21 20 23 17 25
REMARK Flexibility Score: inf
ROOT
ATOM      1  C   UNL     1      33.448  -4.381   1.335  1.00  0.00     0.180 A 
ATOM      2  C   UNL     1      32.078  -4.643   1.510  1.00  0.00     0.208 A 
ATOM      3  C   UNL     1      31.390  -5.359   0.517  1.00  0.00     0.238 A 
ATOM      4  O   UNL     1      30.149  -5.526   0.644  1.00  0.00    -0.285 OA
ATOM      5  C   UNL     1      32.091  -5.854  -0.610  1.00  0.00     0.111 A 
ATOM      6  C   UNL     1      31.504  -6.631  -1.654  1.00  0.00     0.134 A 
ATOM      7  C   UNL     1      32.273  -6.975  -2.774  1.00  0.00     0.093 A 
ATOM      8  C   UNL     1      33.620  -6.627  -2.857  1.00  0.00     0.123 A 
ATOM      9  C   UNL     1      34.218  -5.915  -1.817  1.00  0.00     0.094 A 
ATOM     10  C   UNL     1      33.469  -5.524  -0.705  1.00  0.00     0.146 A 
ATOM     11  O   UNL     1      34.072  -4.829   0.252  1.00  0.00    -0.452 OA
ENDROOT
BRANCH   1  12
ATOM     12  C   UNL     1      34.238  -3.619   2.330  1.00  0.00     0.021 A 
ATOM     13  C   UNL     1      34.304  -2.220   2.234  1.00  0.00     0.016 A 
ATOM     14  C   UNL     1      35.024  -1.478   3.175  1.00  0.00     0.047 A 
ATOM     15  C   UNL     1      35.675  -2.127   4.233  1.00  0.00     0.115 A 
ATOM     16  C   UNL     1      34.877  -4.262   3.406  1.00  0.00     0.016 A 
ATOM     17  C   UNL     1      35.596  -3.517   4.346  1.00  0.00     0.047 A 
BRANCH  15  18
ATOM     18  O   UNL     1      36.395  -1.398   5.177  1.00  0.00    -0.508 OA
ATOM     19  H   UNL     1      36.515  -0.396   5.094  1.00  0.00     0.293 HD
ENDBRANCH  15  18
ENDBRANCH   1  12
BRANCH   2  20
ATOM     20  O   UNL     1      31.422  -4.213   2.666  1.00  0.00    -0.502 OA
ATOM     21  H   UNL     1      31.845  -3.569   3.324  1.00  0.00     0.293 HD
ENDBRANCH   2  20
BRANCH   6  22
ATOM     22  O   UNL     1      30.190  -7.109  -1.632  1.00  0.00    -0.507 OA
ATOM     23  H   UNL     1      29.692  -7.465  -2.433  1.00  0.00     0.293 HD
ENDBRANCH   6  22
BRANCH   8  24
ATOM     24  O   UNL     1      34.358  -7.001  -3.978  1.00  0.00    -0.508 OA
ATOM     25  H   UNL     1      33.915  -7.414  -4.791  1.00  0.00     0.293 HD
ENDBRANCH   8  24
TORSDOF 5
ENDMDL
MODEL 4
REMARK VINA RESULT:    -4.856      2.055      6.702
REMARK INTER + INTRA:          -5.936
REMARK INTER:                  -5.647
REMARK INTRA:                  -0.289
REMARK UNBOUND:                -0.228
REMARK SMILES O=c1c(O)c(-c2ccc(O)cc2)oc2cc(O)cc(O)c12
REMARK SMILES IDX 5 1 3 2 2 3 1 4 21 5 19 6 18 7 16 8 15 9 14 10 13 11 6 12
REMARK SMILES IDX 7 13 8 14 9 15 12 16 11 17 10 18 4 20 20 22 17 24
REMARK H PARENT 10 19 4 21 20 23 17 25
REMARK Flexibility Score: inf
ROOT
ATOM      1  C   UNL     1      33.178  -5.077   2.198  1.00  0.00     0.180 A 
ATOM      2  C   UNL     1      33.319  -3.733   2.586  1.00  0.00     0.208 A 
ATOM      3  C   UNL     1      33.831  -3.444   3.862  1.00  0.00     0.238 A 
ATOM      4  O   UNL     1      33.884  -2.242   4.232  1.00  0.00    -0.285 OA
ATOM      5  C   UNL     1      34.248  -4.498   4.711  1.00  0.00     0.111 A 
ATOM      6  C   UNL     1      34.823  -4.319   6.005  1.00  0.00     0.134 A 
ATOM      7  C   UNL     1      35.099  -5.440   6.799  1.00  0.00     0.093 A 
ATOM      8  C   UNL     1      34.883  -6.731   6.322  1.00  0.00     0.123 A 
ATOM      9  C   UNL     1      34.373  -6.919   5.038  1.00  0.00     0.094 A 
ATOM     10  C   UNL     1      34.051  -5.821   4.236  1.00  0.00     0.146 A 
ATOM     11  O   UNL     1      33.548  -6.045   3.028  1.00  0.00    -0.452 OA
ENDROOT
BRANCH   1  12
ATOM     12  C   UNL     1      32.634  -5.462   0.876  1.00  0.00     0.021 A 
ATOM     13  C   UNL     1      33.517  -5.813  -0.159  1.00  0.00     0.016 A 
ATOM     14  C   UNL     1      33.025  -6.202  -1.409  1.00  0.00     0.047 A 
ATOM     15  C   UNL     1      31.642  -6.260  -1.634  1.00  0.00     0.115 A 
ATOM     16  C   UNL     1      31.248  -5.541   0.648  1.00  0.00     0.016 A 
ATOM     17  C   UNL     1      30.759  -5.932  -0.602  1.00  0.00     0.047 A 
BRANCH  15  18
ATOM     18  O   UNL     1      31.141  -6.646  -2.874  1.00  0.00    -0.508 OA
ATOM     19  H   UNL     1      30.599  -7.494  -2.987  1.00  0.00     0.293 HD
ENDBRANCH  15  18
ENDBRANCH   1  12
BRANCH   2  20
ATOM     20  O   UNL     1      32.974  -2.706   1.704  1.00  0.00    -0.502 OA
ATOM     21  H   UNL     1      33.121  -1.728   1.924  1.00  0.00     0.293 HD
ENDBRANCH   2  20
BRANCH   6  22
ATOM     22  O   UNL     1      35.163  -3.075   6.547  1.00  0.00    -0.507 OA
ATOM     23  H   UNL     1      35.829  -2.433   6.145  1.00  0.00     0.293 HD
ENDBRANCH   6  22
BRANCH   8  24
ATOM     24  O   UNL     1      35.185  -7.822   7.133  1.00  0.00    -0.508 OA
ATOM     25  H   UNL     1      36.047  -8.345   7.020  1.00  0.00     0.293 HD
ENDBRANCH   8  24
TORSDOF 5
ENDMDL
MODEL 5
REMARK VINA RESULT:    -4.855      2.920      5.196
REMARK INTER + INTRA:          -5.934
REMARK INTER:                  -5.648
REMARK INTRA:                  -0.286
REMARK UNBOUND:                -0.228
REMARK SMILES O=c1c(O)c(-c2ccc(O)cc2)oc2cc(O)cc(O)c12
REMARK SMILES IDX 5 1 3 2 2 3 1 4 21 5 19 6 18 7 16 8 15 9 14 10 13 11 6 12
REMARK SMILES IDX 7 13 8 14 9 15 12 16 11 17 10 18 4 20 20 22 17 24
REMARK H PARENT 10 19 4 21 20 23 17 25
REMARK Flexibility Score: inf
ROOT
ATOM      1  C   UNL     1      32.707  -6.357  -0.956  1.00  0.00     0.180 A 
ATOM      2  C   UNL     1      33.574  -5.759  -1.887  1.00  0.00     0.208 A 
ATOM      3  C   UNL     1      33.460  -6.105  -3.243  1.00  0.00     0.238 A 
ATOM      4  O   UNL     1      34.287  -5.623  -4.060  1.00  0.00    -0.285 OA
ATOM      5  C   UNL     1      32.445  -7.001  -3.660  1.00  0.00     0.111 A 
ATOM      6  C   UNL     1      32.209  -7.387  -5.014  1.00  0.00     0.134 A 
ATOM      7  C   UNL     1      31.243  -8.362  -5.295  1.00  0.00     0.093 A 
ATOM      8  C   UNL     1      30.463  -8.917  -4.281  1.00  0.00     0.123 A 
ATOM      9  C   UNL     1      30.648  -8.507  -2.961  1.00  0.00     0.094 A 
ATOM     10  C   UNL     1      31.629  -7.564  -2.644  1.00  0.00     0.146 A 
ATOM     11  O   UNL     1      31.786  -7.218  -1.372  1.00  0.00    -0.452 OA
ENDROOT
BRANCH   1  12
ATOM     12  C   UNL     1      32.776  -6.054   0.492  1.00  0.00     0.021 A 
ATOM     13  C   UNL     1      32.055  -4.962   1.004  1.00  0.00     0.016 A 
ATOM     14  C   UNL     1      32.086  -4.670   2.371  1.00  0.00     0.047 A 
ATOM     15  C   UNL     1      32.826  -5.477   3.246  1.00  0.00     0.115 A 
ATOM     16  C   UNL     1      33.500  -6.871   1.379  1.00  0.00     0.016 A 
ATOM     17  C   UNL     1      33.528  -6.578   2.746  1.00  0.00     0.047 A 
BRANCH  15  18
ATOM     18  O   UNL     1      32.864  -5.196   4.609  1.00  0.00    -0.508 OA
ATOM     19  H   UNL     1      32.766  -4.251   4.959  1.00  0.00     0.293 HD
ENDBRANCH  15  18
ENDBRANCH   1  12
BRANCH   2  20
ATOM     20  O   UNL     1      34.519  -4.819  -1.466  1.00  0.00    -0.502 OA
ATOM     21  H   UNL     1      34.358  -3.821  -1.528  1.00  0.00     0.293 HD
ENDBRANCH   2  20
BRANCH   6  22
ATOM     22  O   UNL     1      32.870  -6.831  -6.114  1.00  0.00    -0.507 OA
ATOM     23  H   UNL     1      33.238  -5.894  -6.154  1.00  0.00     0.293 HD
ENDBRANCH   6  22
BRANCH   8  24
ATOM     24  O   UNL     1      29.501  -9.872  -4.600  1.00  0.00    -0.508 OA
ATOM     25  H   UNL     1      29.070  -9.906  -5.517  1.00  0.00     0.293 HD
ENDBRANCH   8  24
TORSDOF 5
ENDMDL
MODEL 6
REMARK VINA RESULT:    -4.821      3.163      7.920
REMARK INTER + INTRA:          -5.894
REMARK INTER:                  -5.626
REMARK INTRA:                  -0.269
REMARK UNBOUND:                -0.228
REMARK SMILES O=c1c(O)c(-c2ccc(O)cc2)oc2cc(O)cc(O)c12
REMARK SMILES IDX 5 1 3 2 2 3 1 4 21 5 19 6 18 7 16 8 15 9 14 10 13 11 6 12
REMARK SMILES IDX 7 13 8 14 9 15 12 16 11 17 10 18 4 20 20 22 17 24
REMARK H PARENT 10 19 4 21 20 23 17 25
REMARK Flexibility Score: inf
ROOT
ATOM      1  C   UNL     1      33.100  -6.110  -1.809  1.00  0.00     0.180 A 
ATOM      2  C   UNL     1      31.790  -6.008  -1.309  1.00  0.00     0.208 A 
ATOM      3  C   UNL     1      31.594  -5.505  -0.013  1.00  0.00     0.238 A 
ATOM      4  O   UNL     1      30.426  -5.485   0.456  1.00  0.00    -0.285 OA
ATOM      5  C   UNL     1      32.702  -5.057   0.746  1.00  0.00     0.111 A 
ATOM      6  C   UNL     1      32.616  -4.487   2.052  1.00  0.00     0.134 A 
ATOM      7  C   UNL     1      33.790  -4.178   2.750  1.00  0.00     0.093 A 
ATOM      8  C   UNL     1      35.044  -4.358   2.166  1.00  0.00     0.123 A 
ATOM      9  C   UNL     1      35.138  -4.863   0.870  1.00  0.00     0.094 A 
ATOM     10  C   UNL     1      33.987  -5.216   0.162  1.00  0.00     0.146 A 
ATOM     11  O   UNL     1      34.123  -5.713  -1.061  1.00  0.00    -0.452 OA
ENDROOT
BRANCH   1  12
ATOM     12  C   UNL     1      33.388  -6.644  -3.160  1.00  0.00     0.021 A 
ATOM     13  C   UNL     1      33.432  -8.034  -3.357  1.00  0.00     0.016 A 
ATOM     14  C   UNL     1      33.680  -8.562  -4.628  1.00  0.00     0.047 A 
ATOM     15  C   UNL     1      33.870  -7.705  -5.721  1.00  0.00     0.115 A 
ATOM     16  C   UNL     1      33.561  -5.791  -4.264  1.00  0.00     0.016 A 
ATOM     17  C   UNL     1      33.807  -6.321  -5.534  1.00  0.00     0.047 A 
BRANCH  15  18
ATOM     18  O   UNL     1      34.118  -8.219  -6.991  1.00  0.00    -0.508 OA
ATOM     19  H   UNL     1      33.440  -8.800  -7.469  1.00  0.00     0.293 HD
ENDBRANCH  15  18
ENDBRANCH   1  12
BRANCH   2  20
ATOM     20  O   UNL     1      30.703  -6.383  -2.103  1.00  0.00    -0.502 OA
ATOM     21  H   UNL     1      30.081  -7.141  -1.850  1.00  0.00     0.293 HD
ENDBRANCH   2  20
BRANCH   6  22
ATOM     22  O   UNL     1      31.412  -4.183   2.697  1.00  0.00    -0.507 OA
ATOM     23  H   UNL     1      30.523  -4.611   2.491  1.00  0.00     0.293 HD
ENDBRANCH   6  22
BRANCH   8  24
ATOM     24  O   UNL     1      36.190  -4.024   2.884  1.00  0.00    -0.508 OA
ATOM     25  H   UNL     1      36.647  -3.127   2.765  1.00  0.00     0.293 HD
ENDBRANCH   8  24
TORSDOF 5
ENDMDL
MODEL 7
REMARK VINA RESULT:    -4.810      3.144      5.358
REMARK INTER + INTRA:          -5.881
REMARK INTER:                  -5.600
REMARK INTRA:                  -0.282
REMARK UNBOUND:                -0.228
REMARK SMILES O=c1c(O)c(-c2ccc(O)cc2)oc2cc(O)cc(O)c12
REMARK SMILES IDX 5 1 3 2 2 3 1 4 21 5 19 6 18 7 16 8 15 9 14 10 13 11 6 12
REMARK SMILES IDX 7 13 8 14 9 15 12 16 11 17 10 18 4 20 20 22 17 24
REMARK H PARENT 10 19 4 21 20 23 17 25
REMARK Flexibility Score: inf
ROOT
ATOM      1  C   UNL     1      32.196  -7.179  -1.172  1.00  0.00     0.180 A 
ATOM      2  C   UNL     1      31.665  -8.479  -1.233  1.00  0.00     0.208 A 
ATOM      3  C   UNL     1      31.626  -9.141  -2.471  1.00  0.00     0.238 A 
ATOM      4  O   UNL     1      31.082 -10.274  -2.532  1.00  0.00    -0.285 OA
ATOM      5  C   UNL     1      32.169  -8.519  -3.622  1.00  0.00     0.111 A 
ATOM      6  C   UNL     1      32.225  -9.115  -4.918  1.00  0.00     0.134 A 
ATOM      7  C   UNL     1      32.689  -8.363  -6.005  1.00  0.00     0.093 A 
ATOM      8  C   UNL     1      33.159  -7.062  -5.832  1.00  0.00     0.123 A 
ATOM      9  C   UNL     1      33.161  -6.489  -4.560  1.00  0.00     0.094 A 
ATOM     10  C   UNL     1      32.668  -7.199  -3.463  1.00  0.00     0.146 A 
ATOM     11  O   UNL     1      32.669  -6.609  -2.274  1.00  0.00    -0.452 OA
ENDROOT
BRANCH   1  12
ATOM     12  C   UNL     1      32.258  -6.412   0.093  1.00  0.00     0.021 A 
ATOM     13  C   UNL     1      31.202  -5.549   0.428  1.00  0.00     0.016 A 
ATOM     14  C   UNL     1      31.227  -4.831   1.629  1.00  0.00     0.047 A 
ATOM     15  C   UNL     1      32.302  -4.981   2.515  1.00  0.00     0.115 A 
ATOM     16  C   UNL     1      33.324  -6.572   0.997  1.00  0.00     0.016 A 
ATOM     17  C   UNL     1      33.345  -5.855   2.197  1.00  0.00     0.047 A 
BRANCH  15  18
ATOM     18  O   UNL     1      32.338  -4.272   3.713  1.00  0.00    -0.508 OA
ATOM     19  H   UNL     1      31.741  -3.469   3.872  1.00  0.00     0.293 HD
ENDBRANCH  15  18
ENDBRANCH   1  12
BRANCH   2  20
ATOM     20  O   UNL     1      31.204  -9.106  -0.073  1.00  0.00    -0.502 OA
ATOM     21  H   UNL     1      31.215  -8.650   0.832  1.00  0.00     0.293 HD
ENDBRANCH   2  20
BRANCH   6  22
ATOM     22  O   UNL     1      31.863 -10.439  -5.188  1.00  0.00    -0.507 OA
ATOM     23  H   UNL     1      32.123 -10.951  -6.017  1.00  0.00     0.293 HD
ENDBRANCH   6  22
BRANCH   8  24
ATOM     24  O   UNL     1      33.629  -6.350  -6.932  1.00  0.00    -0.508 OA
ATOM     25  H   UNL     1      33.598  -6.738  -7.869  1.00  0.00     0.293 HD
ENDBRANCH   8  24
TORSDOF 5
ENDMDL
MODEL 8
REMARK VINA RESULT:    -4.759      1.358      3.150
REMARK INTER + INTRA:          -5.821
REMARK INTER:                  -5.567
REMARK INTRA:                  -0.254
REMARK UNBOUND:                -0.228
REMARK SMILES O=c1c(O)c(-c2ccc(O)cc2)oc2cc(O)cc(O)c12
REMARK SMILES IDX 5 1 3 2 2 3 1 4 21 5 19 6 18 7 16 8 15 9 14 10 13 11 6 12
REMARK SMILES IDX 7 13 8 14 9 15 12 16 11 17 10 18 4 20 20 22 17 24
REMARK H PARENT 10 19 4 21 20 23 17 25
REMARK Flexibility Score: inf
ROOT
ATOM      1  C   UNL     1      33.144  -5.001   3.446  1.00  0.00     0.180 A 
ATOM      2  C   UNL     1      32.751  -4.642   2.145  1.00  0.00     0.208 A 
ATOM      3  C   UNL     1      32.655  -5.641   1.163  1.00  0.00     0.238 A 
ATOM      4  O   UNL     1      32.376  -5.302  -0.017  1.00  0.00    -0.285 OA
ATOM      5  C   UNL     1      32.897  -6.994   1.505  1.00  0.00     0.111 A 
ATOM      6  C   UNL     1      32.784  -8.093   0.602  1.00  0.00     0.134 A 
ATOM      7  C   UNL     1      33.152  -9.377   1.027  1.00  0.00     0.093 A 
ATOM      8  C   UNL     1      33.565  -9.611   2.338  1.00  0.00     0.123 A 
ATOM      9  C   UNL     1      33.626  -8.552   3.244  1.00  0.00     0.094 A 
ATOM     10  C   UNL     1      33.303  -7.255   2.841  1.00  0.00     0.146 A 
ATOM     11  O   UNL     1      33.396  -6.274   3.730  1.00  0.00    -0.452 OA
ENDROOT
BRANCH   1  12
ATOM     12  C   UNL     1      33.282  -4.003   4.531  1.00  0.00     0.021 A 
ATOM     13  C   UNL     1      32.315  -3.952   5.548  1.00  0.00     0.016 A 
ATOM     14  C   UNL     1      32.436  -3.033   6.596  1.00  0.00     0.047 A 
ATOM     15  C   UNL     1      33.536  -2.166   6.647  1.00  0.00     0.115 A 
ATOM     16  C   UNL     1      34.393  -3.143   4.600  1.00  0.00     0.016 A 
ATOM     17  C   UNL     1      34.513  -2.227   5.649  1.00  0.00     0.047 A 
BRANCH  15  18
ATOM     18  O   UNL     1      33.668  -1.247   7.685  1.00  0.00    -0.508 OA
ATOM     19  H   UNL     1      33.400  -0.277   7.571  1.00  0.00     0.293 HD
ENDBRANCH  15  18
ENDBRANCH   1  12
BRANCH   2  20
ATOM     20  O   UNL     1      32.442  -3.313   1.845  1.00  0.00    -0.502 OA
ATOM     21  H   UNL     1      32.308  -2.611   2.563  1.00  0.00     0.293 HD
ENDBRANCH   2  20
BRANCH   6  22
ATOM     22  O   UNL     1      32.298  -7.987  -0.705  1.00  0.00    -0.507 OA
ATOM     23  H   UNL     1      31.335  -7.815  -0.951  1.00  0.00     0.293 HD
ENDBRANCH   6  22
BRANCH   8  24
ATOM     24  O   UNL     1      33.907 -10.903   2.730  1.00  0.00    -0.508 OA
ATOM     25  H   UNL     1      33.800 -11.212   3.689  1.00  0.00     0.293 HD
ENDBRANCH   8  24
TORSDOF 5
ENDMDL
