MODEL 1
REMARK VINA RESULT:    -5.146      0.000      0.000
REMARK INTER + INTRA:         -17.554
REMARK INTER:                 -12.967
REMARK INTRA:                  -4.587
REMARK UNBOUND:                -4.587
REMARK SMILES CCCCCCCCCCCCCCCCCCCCCCCCCCCC(=O)[O-]
REMARK SMILES IDX 15 1 16 2 17 3 18 4 19 5 20 6 21 7 22 8 23 9 24 10 25 11
REMARK SMILES IDX 26 12 27 13 28 14 29 15 30 16 14 17 13 18 12 19 11 20 10 21
REMARK SMILES IDX 9 22 8 23 7 24 6 25 5 26 4 27 3 28 2 29 1 30
REMARK H PARENT
REMARK Flexibility Score: inf
ROOT
ATOM      1  C   UNL     1      24.483  34.853 147.157  1.00  0.00     0.000 C 
ENDROOT
BRANCH   1   2
ATOM      2  C   UNL     1      24.442  33.523 147.931  1.00  0.00     0.000 C 
BRANCH   2   3
ATOM      3  C   UNL     1      25.574  33.401 148.966  1.00  0.00     0.000 C 
BRANCH   3   4
ATOM      4  C   UNL     1      26.968  33.441 148.320  1.00  0.00     0.000 C 
BRANCH   4   5
ATOM      5  C   UNL     1      27.970  34.279 149.133  1.00  0.00     0.000 C 
BRANCH   5   6
ATOM      6  C   UNL     1      27.277  35.279 150.070  1.00  0.00     0.000 C 
BRANCH   6   7
ATOM      7  C   UNL     1      27.231  36.701 149.482  1.00  0.00     0.000 C 
BRANCH   7   8
ATOM      8  C   UNL     1      28.382  36.974 148.497  1.00  0.00     0.000 C 
BRANCH   8   9
ATOM      9  C   UNL     1      27.950  37.172 147.030  1.00  0.00     0.000 C 
BRANCH   9  10
ATOM     10  C   UNL     1      28.550  38.407 146.335  1.00  0.00     0.000 C 
BRANCH  10  11
ATOM     11  C   UNL     1      29.259  38.065 145.016  1.00  0.00     0.000 C 
BRANCH  11  12
ATOM     12  C   UNL     1      29.124  39.214 144.006  1.00  0.00     0.006 C 
BRANCH  12  13
ATOM     13  C   UNL     1      28.813  40.553 144.686  1.00  0.00     0.053 C 
BRANCH  13  14
ATOM     14  C   UNL     1      29.002  41.710 143.753  1.00  0.00     0.041 C 
ATOM     15  O   UNL     1      28.248  42.716 143.831  1.00  0.00    -0.550 OA
ATOM     16  O   UNL     1      30.036  41.694 142.826  1.00  0.00    -0.550 OA
ENDBRANCH  13  14
ENDBRANCH  12  13
ENDBRANCH  11  12
ENDBRANCH  10  11
ENDBRANCH   9  10
ENDBRANCH   8   9
ENDBRANCH   7   8
ENDBRANCH   6   7
ENDBRANCH   5   6
ENDBRANCH   4   5
ENDBRANCH   3   4
ENDBRANCH   2   3
ENDBRANCH   1   2
BRANCH   1  17
ATOM     17  C   UNL     1      23.980  36.081 147.945  1.00  0.00     0.000 C 
BRANCH  17  18
ATOM     18  C   UNL     1      24.422  37.445 147.384  1.00  0.00     0.000 C 
BRANCH  18  19
ATOM     19  C   UNL     1      23.467  38.588 147.764  1.00  0.00     0.000 C 
BRANCH  19  20
ATOM     20  C   UNL     1      22.634  38.216 149.000  1.00  0.00     0.000 C 
BRANCH  20  21
ATOM     21  C   UNL     1      23.320  38.607 150.319  1.00  0.00     0.000 C 
BRANCH  21  22
ATOM     22  C   UNL     1      24.217  39.848 150.169  1.00  0.00    -0.000 C 
BRANCH  22  23
ATOM     23  C   UNL     1      25.629  39.628 150.739  1.00  0.00    -0.000 C 
BRANCH  23  24
ATOM     24  C   UNL     1      26.603  40.758 150.366  1.00  0.00    -0.000 C 
BRANCH  24  25
ATOM     25  C   UNL     1      27.335  40.443 149.054  1.00  0.00    -0.000 C 
BRANCH  25  26
ATOM     26  C   UNL     1      27.075  41.490 147.954  1.00  0.00    -0.000 C 
BRANCH  26  27
ATOM     27  C   UNL     1      25.868  41.196 147.046  1.00  0.00    -0.000 C 
BRANCH  27  28
ATOM     28  C   UNL     1      24.622  42.010 147.423  1.00  0.00    -0.000 C 
BRANCH  28  29
ATOM     29  C   UNL     1      25.002  43.250 148.242  1.00  0.00    -0.003 C 
ATOM     30  C   UNL     1      23.867  44.269 148.257  1.00  0.00     0.004 C 
ENDBRANCH  28  29
ENDBRANCH  27  28
ENDBRANCH  26  27
ENDBRANCH  25  26
ENDBRANCH  24  25
ENDBRANCH  23  24
ENDBRANCH  22  23
ENDBRANCH  21  22
ENDBRANCH  20  21
ENDBRANCH  19  20
ENDBRANCH  18  19
ENDBRANCH  17  18
ENDBRANCH   1  17
TORSDOF 26
ENDMDL
MODEL 2
REMARK VINA RESULT:    -5.139      2.523      5.629
REMARK INTER + INTRA:         -17.536
REMARK INTER:                 -12.404
REMARK INTRA:                  -5.132
REMARK UNBOUND:                -4.587
REMARK SMILES CCCCCCCCCCCCCCCCCCCCCCCCCCCC(=O)[O-]
REMARK SMILES IDX 15 1 16 2 17 3 18 4 19 5 20 6 21 7 22 8 23 9 24 10 25 11
REMARK SMILES IDX 26 12 27 13 28 14 29 15 30 16 14 17 13 18 12 19 11 20 10 21
REMARK SMILES IDX 9 22 8 23 7 24 6 25 5 26 4 27 3 28 2 29 1 30
REMARK H PARENT
REMARK Flexibility Score: inf
ROOT
ATOM      1  C   UNL     1      23.894  36.657 147.373  1.00  0.00     0.000 C 
ENDROOT
BRANCH   1   2
ATOM      2  C   UNL     1      23.529  37.382 148.681  1.00  0.00     0.000 C 
BRANCH   2   3
ATOM      3  C   UNL     1      24.631  38.345 149.156  1.00  0.00     0.000 C 
BRANCH   3   4
ATOM      4  C   UNL     1      24.163  39.249 150.308  1.00  0.00     0.000 C 
BRANCH   4   5
ATOM      5  C   UNL     1      25.320  40.039 150.943  1.00  0.00     0.000 C 
BRANCH   5   6
ATOM      6  C   UNL     1      26.682  39.363 150.729  1.00  0.00     0.000 C 
BRANCH   6   7
ATOM      7  C   UNL     1      27.772  40.358 150.292  1.00  0.00     0.000 C 
BRANCH   7   8
ATOM      8  C   UNL     1      28.116  40.244 148.797  1.00  0.00     0.000 C 
BRANCH   8   9
ATOM      9  C   UNL     1      27.465  41.311 147.895  1.00  0.00     0.000 C 
BRANCH   9  10
ATOM     10  C   UNL     1      26.323  40.799 146.999  1.00  0.00     0.000 C 
BRANCH  10  11
ATOM     11  C   UNL     1      24.986  41.504 147.275  1.00  0.00     0.000 C 
BRANCH  11  12
ATOM     12  C   UNL     1      25.157  42.614 148.323  1.00  0.00     0.006 C 
BRANCH  12  13
ATOM     13  C   UNL     1      24.019  43.642 148.273  1.00  0.00     0.053 C 
BRANCH  13  14
ATOM     14  C   UNL     1      23.591  44.065 149.645  1.00  0.00     0.041 C 
ATOM     15  O   UNL     1      23.950  43.401 150.653  1.00  0.00    -0.550 OA
ATOM     16  O   UNL     1      22.831  45.216 149.812  1.00  0.00    -0.550 OA
ENDBRANCH  13  14
ENDBRANCH  12  13
ENDBRANCH  11  12
ENDBRANCH  10  11
ENDBRANCH   9  10
ENDBRANCH   8   9
ENDBRANCH   7   8
ENDBRANCH   6   7
ENDBRANCH   5   6
ENDBRANCH   4   5
ENDBRANCH   3   4
ENDBRANCH   2   3
ENDBRANCH   1   2
BRANCH   1  17
ATOM     17  C   UNL     1      23.723  35.124 147.407  1.00  0.00     0.000 C 
BRANCH  17  18
ATOM     18  C   UNL     1      24.177  34.444 148.710  1.00  0.00     0.000 C 
BRANCH  18  19
ATOM     19  C   UNL     1      25.142  33.271 148.471  1.00  0.00     0.000 C 
BRANCH  19  20
ATOM     20  C   UNL     1      26.574  33.652 148.872  1.00  0.00     0.000 C 
BRANCH  20  21
ATOM     21  C   UNL     1      26.637  34.950 149.693  1.00  0.00     0.000 C 
BRANCH  21  22
ATOM     22  C   UNL     1      27.535  36.016 149.039  1.00  0.00    -0.000 C 
BRANCH  22  23
ATOM     23  C   UNL     1      27.579  35.891 147.506  1.00  0.00    -0.000 C 
BRANCH  23  24
ATOM     24  C   UNL     1      27.572  37.255 146.799  1.00  0.00    -0.000 C 
BRANCH  24  25
ATOM     25  C   UNL     1      28.900  37.502 146.066  1.00  0.00    -0.000 C 
BRANCH  25  26
ATOM     26  C   UNL     1      28.994  38.911 145.452  1.00  0.00    -0.000 C 
BRANCH  26  27
ATOM     27  C   UNL     1      29.427  38.950 143.975  1.00  0.00    -0.000 C 
BRANCH  27  28
ATOM     28  C   UNL     1      29.599  40.379 143.439  1.00  0.00    -0.000 C 
BRANCH  28  29
ATOM     29  C   UNL     1      29.551  41.403 144.579  1.00  0.00    -0.003 C 
ATOM     30  C   UNL     1      28.423  42.409 144.370  1.00  0.00     0.004 C 
ENDBRANCH  28  29
ENDBRANCH  27  28
ENDBRANCH  26  27
ENDBRANCH  25  26
ENDBRANCH  24  25
ENDBRANCH  23  24
ENDBRANCH  22  23
ENDBRANCH  21  22
ENDBRANCH  20  21
ENDBRANCH  19  20
ENDBRANCH  18  19
ENDBRANCH  17  18
ENDBRANCH   1  17
TORSDOF 26
ENDMDL
MODEL 3
REMARK VINA RESULT:    -5.118      2.032      5.343
REMARK INTER + INTRA:         -17.484
REMARK INTER:                 -12.234
REMARK INTRA:                  -5.249
REMARK UNBOUND:                -4.587
REMARK SMILES CCCCCCCCCCCCCCCCCCCCCCCCCCCC(=O)[O-]
REMARK SMILES IDX 15 1 16 2 17 3 18 4 19 5 20 6 21 7 22 8 23 9 24 10 25 11
REMARK SMILES IDX 26 12 27 13 28 14 29 15 30 16 14 17 13 18 12 19 11 20 10 21
REMARK SMILES IDX 9 22 8 23 7 24 6 25 5 26 4 27 3 28 2 29 1 30
REMARK H PARENT
REMARK Flexibility Score: inf
ROOT
ATOM      1  C   UNL     1      27.431  37.452 147.578  1.00  0.00     0.000 C 
ENDROOT
BRANCH   1   2
ATOM      2  C   UNL     1      27.522  36.022 147.015  1.00  0.00     0.000 C 
BRANCH   2   3
ATOM      3  C   UNL     1      28.092  35.017 148.031  1.00  0.00     0.000 C 
BRANCH   3   4
ATOM      4  C   UNL     1      27.084  33.914 148.393  1.00  0.00     0.000 C 
BRANCH   4   5
ATOM      5  C   UNL     1      26.236  34.273 149.625  1.00  0.00     0.000 C 
BRANCH   5   6
ATOM      6  C   UNL     1      24.733  34.325 149.310  1.00  0.00     0.000 C 
BRANCH   6   7
ATOM      7  C   UNL     1      24.439  34.135 147.811  1.00  0.00     0.000 C 
BRANCH   7   8
ATOM      8  C   UNL     1      23.587  35.274 147.224  1.00  0.00     0.000 C 
BRANCH   8   9
ATOM      9  C   UNL     1      23.574  36.572 148.055  1.00  0.00     0.000 C 
BRANCH   9  10
ATOM     10  C   UNL     1      24.251  37.781 147.385  1.00  0.00     0.000 C 
BRANCH  10  11
ATOM     11  C   UNL     1      23.500  39.099 147.634  1.00  0.00     0.000 C 
BRANCH  11  12
ATOM     12  C   UNL     1      24.465  40.294 147.599  1.00  0.00     0.006 C 
BRANCH  12  13
ATOM     13  C   UNL     1      23.726  41.638 147.617  1.00  0.00     0.053 C 
BRANCH  13  14
ATOM     14  C   UNL     1      24.424  42.646 148.478  1.00  0.00     0.041 C 
ATOM     15  O   UNL     1      24.005  42.883 149.642  1.00  0.00    -0.550 OA
ATOM     16  O   UNL     1      25.562  43.292 148.011  1.00  0.00    -0.550 OA
ENDBRANCH  13  14
ENDBRANCH  12  13
ENDBRANCH  11  12
ENDBRANCH  10  11
ENDBRANCH   9  10
ENDBRANCH   8   9
ENDBRANCH   7   8
ENDBRANCH   6   7
ENDBRANCH   5   6
ENDBRANCH   4   5
ENDBRANCH   3   4
ENDBRANCH   2   3
ENDBRANCH   1   2
BRANCH   1  17
ATOM     17  C   UNL     1      28.033  37.637 148.987  1.00  0.00     0.000 C 
BRANCH  17  18
ATOM     18  C   UNL     1      27.006  37.844 150.115  1.00  0.00     0.000 C 
BRANCH  18  19
ATOM     19  C   UNL     1      26.611  39.317 150.304  1.00  0.00     0.000 C 
BRANCH  19  20
ATOM     20  C   UNL     1      27.845  40.179 150.613  1.00  0.00     0.000 C 
BRANCH  20  21
ATOM     21  C   UNL     1      28.029  41.334 149.616  1.00  0.00     0.000 C 
BRANCH  21  22
ATOM     22  C   UNL     1      29.404  41.299 148.925  1.00  0.00    -0.000 C 
BRANCH  22  23
ATOM     23  C   UNL     1      29.315  40.850 147.456  1.00  0.00    -0.000 C 
BRANCH  23  24
ATOM     24  C   UNL     1      27.910  41.034 146.863  1.00  0.00    -0.000 C 
BRANCH  24  25
ATOM     25  C   UNL     1      27.836  40.467 145.437  1.00  0.00    -0.000 C 
BRANCH  25  26
ATOM     26  C   UNL     1      28.929  41.030 144.510  1.00  0.00    -0.000 C 
BRANCH  26  27
ATOM     27  C   UNL     1      29.922  39.988 143.965  1.00  0.00    -0.000 C 
BRANCH  27  28
ATOM     28  C   UNL     1      29.714  38.590 144.566  1.00  0.00    -0.000 C 
BRANCH  28  29
ATOM     29  C   UNL     1      31.048  37.978 145.010  1.00  0.00    -0.003 C 
ATOM     30  C   UNL     1      31.060  37.712 146.512  1.00  0.00     0.004 C 
ENDBRANCH  28  29
ENDBRANCH  27  28
ENDBRANCH  26  27
ENDBRANCH  25  26
ENDBRANCH  24  25
ENDBRANCH  23  24
ENDBRANCH  22  23
ENDBRANCH  21  22
ENDBRANCH  20  21
ENDBRANCH  19  20
ENDBRANCH  18  19
ENDBRANCH  17  18
ENDBRANCH   1  17
TORSDOF 26
ENDMDL
MODEL 4
REMARK VINA RESULT:    -5.104      2.325      5.492
REMARK INTER + INTRA:         -17.449
REMARK INTER:                 -12.796
REMARK INTRA:                  -4.653
REMARK UNBOUND:                -4.587
REMARK SMILES CCCCCCCCCCCCCCCCCCCCCCCCCCCC(=O)[O-]
REMARK SMILES IDX 15 1 16 2 17 3 18 4 19 5 20 6 21 7 22 8 23 9 24 10 25 11
REMARK SMILES IDX 26 12 27 13 28 14 29 15 30 16 14 17 13 18 12 19 11 20 10 21
REMARK SMILES IDX 9 22 8 23 7 24 6 25 5 26 4 27 3 28 2 29 1 30
REMARK H PARENT
REMARK Flexibility Score: inf
ROOT
ATOM      1  C   UNL     1      26.570  33.397 148.488  1.00  0.00     0.000 C 
ENDROOT
BRANCH   1   2
ATOM      2  C   UNL     1      25.226  33.526 149.227  1.00  0.00     0.000 C 
BRANCH   2   3
ATOM      3  C   UNL     1      24.022  33.577 148.270  1.00  0.00     0.000 C 
BRANCH   3   4
ATOM      4  C   UNL     1      24.030  34.833 147.383  1.00  0.00     0.000 C 
BRANCH   4   5
ATOM      5  C   UNL     1      23.966  36.133 148.204  1.00  0.00     0.000 C 
BRANCH   5   6
ATOM      6  C   UNL     1      23.687  37.366 147.332  1.00  0.00     0.000 C 
BRANCH   6   7
ATOM      7  C   UNL     1      23.236  38.583 148.161  1.00  0.00     0.000 C 
BRANCH   7   8
ATOM      8  C   UNL     1      23.134  38.272 149.665  1.00  0.00     0.000 C 
BRANCH   8   9
ATOM      9  C   UNL     1      24.003  39.162 150.575  1.00  0.00     0.000 C 
BRANCH   9  10
ATOM     10  C   UNL     1      24.993  40.081 149.835  1.00  0.00     0.000 C 
BRANCH  10  11
ATOM     11  C   UNL     1      24.640  41.570 149.970  1.00  0.00     0.000 C 
BRANCH  11  12
ATOM     12  C   UNL     1      24.050  42.114 148.661  1.00  0.00     0.006 C 
BRANCH  12  13
ATOM     13  C   UNL     1      24.811  43.343 148.146  1.00  0.00     0.053 C 
BRANCH  13  14
ATOM     14  C   UNL     1      24.286  44.613 148.743  1.00  0.00     0.041 C 
ATOM     15  O   UNL     1      24.822  45.097 149.775  1.00  0.00    -0.550 OA
ATOM     16  O   UNL     1      23.233  45.285 148.135  1.00  0.00    -0.550 OA
ENDBRANCH  13  14
ENDBRANCH  12  13
ENDBRANCH  11  12
ENDBRANCH  10  11
ENDBRANCH   9  10
ENDBRANCH   8   9
ENDBRANCH   7   8
ENDBRANCH   6   7
ENDBRANCH   5   6
ENDBRANCH   4   5
ENDBRANCH   3   4
ENDBRANCH   2   3
ENDBRANCH   1   2
BRANCH   1  17
ATOM     17  C   UNL     1      27.733  34.201 149.107  1.00  0.00     0.000 C 
BRANCH  17  18
ATOM     18  C   UNL     1      27.322  35.233 150.172  1.00  0.00     0.000 C 
BRANCH  18  19
ATOM     19  C   UNL     1      27.296  36.672 149.633  1.00  0.00     0.000 C 
BRANCH  19  20
ATOM     20  C   UNL     1      28.148  36.796 148.361  1.00  0.00     0.000 C 
BRANCH  20  21
ATOM     21  C   UNL     1      27.359  37.359 147.169  1.00  0.00     0.000 C 
BRANCH  21  22
ATOM     22  C   UNL     1      26.948  38.828 147.377  1.00  0.00    -0.000 C 
BRANCH  22  23
ATOM     23  C   UNL     1      28.107  39.697 147.896  1.00  0.00    -0.000 C 
BRANCH  23  24
ATOM     24  C   UNL     1      28.083  41.123 147.322  1.00  0.00    -0.000 C 
BRANCH  24  25
ATOM     25  C   UNL     1      27.048  41.244 146.193  1.00  0.00    -0.000 C 
BRANCH  25  26
ATOM     26  C   UNL     1      27.692  41.339 144.798  1.00  0.00    -0.000 C 
BRANCH  26  27
ATOM     27  C   UNL     1      29.117  41.921 144.775  1.00  0.00    -0.000 C 
BRANCH  27  28
ATOM     28  C   UNL     1      30.193  40.863 144.491  1.00  0.00    -0.000 C 
BRANCH  28  29
ATOM     29  C   UNL     1      29.569  39.585 143.919  1.00  0.00    -0.003 C 
ATOM     30  C   UNL     1      29.927  38.368 144.768  1.00  0.00     0.004 C 
ENDBRANCH  28  29
ENDBRANCH  27  28
ENDBRANCH  26  27
ENDBRANCH  25  26
ENDBRANCH  24  25
ENDBRANCH  23  24
ENDBRANCH  22  23
ENDBRANCH  21  22
ENDBRANCH  20  21
ENDBRANCH  19  20
ENDBRANCH  18  19
ENDBRANCH  17  18
ENDBRANCH   1  17
TORSDOF 26
ENDMDL
MODEL 5
REMARK VINA RESULT:    -5.087      2.443      5.847
REMARK INTER + INTRA:         -17.406
REMARK INTER:                 -11.792
REMARK INTRA:                  -5.613
REMARK UNBOUND:                -4.587
REMARK SMILES CCCCCCCCCCCCCCCCCCCCCCCCCCCC(=O)[O-]
REMARK SMILES IDX 15 1 16 2 17 3 18 4 19 5 20 6 21 7 22 8 23 9 24 10 25 11
REMARK SMILES IDX 26 12 27 13 28 14 29 15 30 16 14 17 13 18 12 19 11 20 10 21
REMARK SMILES IDX 9 22 8 23 7 24 6 25 5 26 4 27 3 28 2 29 1 30
REMARK H PARENT
REMARK Flexibility Score: inf
ROOT
ATOM      1  C   UNL     1      26.893  38.744 147.525  1.00  0.00     0.000 C 
ENDROOT
BRANCH   1   2
ATOM      2  C   UNL     1      27.736  38.383 148.762  1.00  0.00     0.000 C 
BRANCH   2   3
ATOM      3  C   UNL     1      26.875  38.052 149.993  1.00  0.00     0.000 C 
BRANCH   3   4
ATOM      4  C   UNL     1      26.493  39.306 150.796  1.00  0.00     0.000 C 
BRANCH   4   5
ATOM      5  C   UNL     1      27.684  40.259 151.001  1.00  0.00     0.000 C 
BRANCH   5   6
ATOM      6  C   UNL     1      27.309  41.729 150.765  1.00  0.00     0.000 C 
BRANCH   6   7
ATOM      7  C   UNL     1      28.179  42.392 149.682  1.00  0.00     0.000 C 
BRANCH   7   8
ATOM      8  C   UNL     1      29.671  42.044 149.825  1.00  0.00     0.000 C 
BRANCH   8   9
ATOM      9  C   UNL     1      30.260  41.213 148.667  1.00  0.00     0.000 C 
BRANCH   9  10
ATOM     10  C   UNL     1      30.969  39.915 149.091  1.00  0.00     0.000 C 
BRANCH  10  11
ATOM     11  C   UNL     1      31.733  39.248 147.937  1.00  0.00     0.000 C 
BRANCH  11  12
ATOM     12  C   UNL     1      31.104  39.608 146.583  1.00  0.00     0.006 C 
BRANCH  12  13
ATOM     13  C   UNL     1      30.331  38.433 145.969  1.00  0.00     0.053 C 
BRANCH  13  14
ATOM     14  C   UNL     1      30.907  37.113 146.379  1.00  0.00     0.041 C 
ATOM     15  O   UNL     1      30.330  36.414 147.253  1.00  0.00    -0.550 OA
ATOM     16  O   UNL     1      32.058  36.635 145.765  1.00  0.00    -0.550 OA
ENDBRANCH  13  14
ENDBRANCH  12  13
ENDBRANCH  11  12
ENDBRANCH  10  11
ENDBRANCH   9  10
ENDBRANCH   8   9
ENDBRANCH   7   8
ENDBRANCH   6   7
ENDBRANCH   5   6
ENDBRANCH   4   5
ENDBRANCH   3   4
ENDBRANCH   2   3
ENDBRANCH   1   2
BRANCH   1  17
ATOM     17  C   UNL     1      27.206  40.121 146.903  1.00  0.00     0.000 C 
BRANCH  17  18
ATOM     18  C   UNL     1      26.006  41.079 146.796  1.00  0.00     0.000 C 
BRANCH  18  19
ATOM     19  C   UNL     1      25.081  41.022 148.022  1.00  0.00     0.000 C 
BRANCH  19  20
ATOM     20  C   UNL     1      23.628  40.762 147.599  1.00  0.00     0.000 C 
BRANCH  20  21
ATOM     21  C   UNL     1      23.294  39.264 147.503  1.00  0.00     0.000 C 
BRANCH  21  22
ATOM     22  C   UNL     1      23.190  38.596 148.886  1.00  0.00    -0.000 C 
BRANCH  22  23
ATOM     23  C   UNL     1      23.671  37.135 148.874  1.00  0.00    -0.000 C 
BRANCH  23  24
ATOM     24  C   UNL     1      23.782  36.558 147.454  1.00  0.00    -0.000 C 
BRANCH  24  25
ATOM     25  C   UNL     1      24.923  35.535 147.364  1.00  0.00    -0.000 C 
BRANCH  25  26
ATOM     26  C   UNL     1      24.530  34.149 147.908  1.00  0.00    -0.000 C 
BRANCH  26  27
ATOM     27  C   UNL     1      25.564  33.500 148.846  1.00  0.00    -0.000 C 
BRANCH  27  28
ATOM     28  C   UNL     1      26.238  34.511 149.786  1.00  0.00    -0.000 C 
BRANCH  28  29
ATOM     29  C   UNL     1      27.765  34.438 149.668  1.00  0.00    -0.003 C 
ATOM     30  C   UNL     1      28.185  33.732 148.382  1.00  0.00     0.004 C 
ENDBRANCH  28  29
ENDBRANCH  27  28
ENDBRANCH  26  27
ENDBRANCH  25  26
ENDBRANCH  24  25
ENDBRANCH  23  24
ENDBRANCH  22  23
ENDBRANCH  21  22
ENDBRANCH  20  21
ENDBRANCH  19  20
ENDBRANCH  18  19
ENDBRANCH  17  18
ENDBRANCH   1  17
TORSDOF 26
ENDMDL
MODEL 6
REMARK VINA RESULT:    -5.068      2.045      4.714
REMARK INTER + INTRA:         -17.357
REMARK INTER:                 -12.353
REMARK INTRA:                  -5.004
REMARK UNBOUND:                -4.587
REMARK SMILES CCCCCCCCCCCCCCCCCCCCCCCCCCCC(=O)[O-]
REMARK SMILES IDX 15 1 16 2 17 3 18 4 19 5 20 6 21 7 22 8 23 9 24 10 25 11
REMARK SMILES IDX 26 12 27 13 28 14 29 15 30 16 14 17 13 18 12 19 11 20 10 21
REMARK SMILES IDX 9 22 8 23 7 24 6 25 5 26 4 27 3 28 2 29 1 30
REMARK H PARENT
REMARK Flexibility Score: inf
ROOT
ATOM      1  C   UNL     1      26.501  33.429 148.507  1.00  0.00     0.000 C 
ENDROOT
BRANCH   1   2
ATOM      2  C   UNL     1      25.145  33.629 149.209  1.00  0.00     0.000 C 
BRANCH   2   3
ATOM      3  C   UNL     1      23.979  33.789 148.219  1.00  0.00     0.000 C 
BRANCH   3   4
ATOM      4  C   UNL     1      24.103  35.063 147.367  1.00  0.00     0.000 C 
BRANCH   4   5
ATOM      5  C   UNL     1      23.963  36.346 148.203  1.00  0.00     0.000 C 
BRANCH   5   6
ATOM      6  C   UNL     1      24.168  37.619 147.368  1.00  0.00     0.000 C 
BRANCH   6   7
ATOM      7  C   UNL     1      23.955  38.903 148.190  1.00  0.00     0.000 C 
BRANCH   7   8
ATOM      8  C   UNL     1      23.399  38.621 149.598  1.00  0.00     0.000 C 
BRANCH   8   9
ATOM      9  C   UNL     1      24.140  39.335 150.745  1.00  0.00     0.000 C 
BRANCH   9  10
ATOM     10  C   UNL     1      25.596  39.726 150.437  1.00  0.00     0.000 C 
BRANCH  10  11
ATOM     11  C   UNL     1      26.011  41.050 151.099  1.00  0.00     0.000 C 
BRANCH  11  12
ATOM     12  C   UNL     1      27.436  41.446 150.684  1.00  0.00     0.006 C 
BRANCH  12  13
ATOM     13  C   UNL     1      28.322  40.226 150.404  1.00  0.00     0.053 C 
BRANCH  13  14
ATOM     14  C   UNL     1      29.613  40.612 149.751  1.00  0.00     0.041 C 
ATOM     15  O   UNL     1      29.962  41.822 149.703  1.00  0.00    -0.550 OA
ATOM     16  O   UNL     1      30.451  39.633 149.232  1.00  0.00    -0.550 OA
ENDBRANCH  13  14
ENDBRANCH  12  13
ENDBRANCH  11  12
ENDBRANCH  10  11
ENDBRANCH   9  10
ENDBRANCH   8   9
ENDBRANCH   7   8
ENDBRANCH   6   7
ENDBRANCH   5   6
ENDBRANCH   4   5
ENDBRANCH   3   4
ENDBRANCH   2   3
ENDBRANCH   1   2
BRANCH   1  17
ATOM     17  C   UNL     1      27.672  34.232 149.109  1.00  0.00     0.000 C 
BRANCH  17  18
ATOM     18  C   UNL     1      27.265  35.486 149.904  1.00  0.00     0.000 C 
BRANCH  18  19
ATOM     19  C   UNL     1      27.547  36.794 149.146  1.00  0.00     0.000 C 
BRANCH  19  20
ATOM     20  C   UNL     1      28.090  36.504 147.739  1.00  0.00     0.000 C 
BRANCH  20  21
ATOM     21  C   UNL     1      28.499  37.780 146.985  1.00  0.00     0.000 C 
BRANCH  21  22
ATOM     22  C   UNL     1      27.444  38.895 147.102  1.00  0.00    -0.000 C 
BRANCH  22  23
ATOM     23  C   UNL     1      27.723  40.074 146.155  1.00  0.00    -0.000 C 
BRANCH  23  24
ATOM     24  C   UNL     1      27.529  41.440 146.834  1.00  0.00    -0.000 C 
BRANCH  24  25
ATOM     25  C   UNL     1      26.063  41.649 147.239  1.00  0.00    -0.000 C 
BRANCH  25  26
ATOM     26  C   UNL     1      25.806  43.029 147.873  1.00  0.00    -0.000 C 
BRANCH  26  27
ATOM     27  C   UNL     1      24.326  43.363 148.130  1.00  0.00    -0.000 C 
BRANCH  27  28
ATOM     28  C   UNL     1      23.973  43.409 149.624  1.00  0.00    -0.000 C 
BRANCH  28  29
ATOM     29  C   UNL     1      23.069  44.607 149.939  1.00  0.00    -0.003 C 
ATOM     30  C   UNL     1      22.807  45.443 148.689  1.00  0.00     0.004 C 
ENDBRANCH  28  29
ENDBRANCH  27  28
ENDBRANCH  26  27
ENDBRANCH  25  26
ENDBRANCH  24  25
ENDBRANCH  23  24
ENDBRANCH  22  23
ENDBRANCH  21  22
ENDBRANCH  20  21
ENDBRANCH  19  20
ENDBRANCH  18  19
ENDBRANCH  17  18
ENDBRANCH   1  17
TORSDOF 26
ENDMDL
MODEL 7
REMARK VINA RESULT:    -5.042      2.107      5.469
REMARK INTER + INTRA:         -17.293
REMARK INTER:                 -11.927
REMARK INTRA:                  -5.366
REMARK UNBOUND:                -4.587
REMARK SMILES CCCCCCCCCCCCCCCCCCCCCCCCCCCC(=O)[O-]
REMARK SMILES IDX 15 1 16 2 17 3 18 4 19 5 20 6 21 7 22 8 23 9 24 10 25 11
REMARK SMILES IDX 26 12 27 13 28 14 29 15 30 16 14 17 13 18 12 19 11 20 10 21
REMARK SMILES IDX 9 22 8 23 7 24 6 25 5 26 4 27 3 28 2 29 1 30
REMARK H PARENT
REMARK Flexibility Score: inf
ROOT
ATOM      1  C   UNL     1      27.745  34.240 149.383  1.00  0.00     0.000 C 
ENDROOT
BRANCH   1   2
ATOM      2  C   UNL     1      26.574  34.096 148.393  1.00  0.00     0.000 C 
BRANCH   2   3
ATOM      3  C   UNL     1      25.251  33.727 149.086  1.00  0.00     0.000 C 
BRANCH   3   4
ATOM      4  C   UNL     1      24.028  33.988 148.191  1.00  0.00     0.000 C 
BRANCH   4   5
ATOM      5  C   UNL     1      24.150  35.298 147.394  1.00  0.00     0.000 C 
BRANCH   5   6
ATOM      6  C   UNL     1      23.695  36.523 148.201  1.00  0.00     0.000 C 
BRANCH   6   7
ATOM      7  C   UNL     1      23.652  37.805 147.350  1.00  0.00     0.000 C 
BRANCH   7   8
ATOM      8  C   UNL     1      23.757  39.085 148.198  1.00  0.00     0.000 C 
BRANCH   8   9
ATOM      9  C   UNL     1      23.721  38.861 149.723  1.00  0.00     0.000 C 
BRANCH   9  10
ATOM     10  C   UNL     1      24.735  39.693 150.528  1.00  0.00     0.000 C 
BRANCH  10  11
ATOM     11  C   UNL     1      25.857  40.275 149.654  1.00  0.00     0.000 C 
BRANCH  11  12
ATOM     12  C   UNL     1      26.086  41.761 149.973  1.00  0.00     0.006 C 
BRANCH  12  13
ATOM     13  C   UNL     1      24.792  42.472 150.390  1.00  0.00     0.053 C 
BRANCH  13  14
ATOM     14  C   UNL     1      24.183  43.234 149.253  1.00  0.00     0.041 C 
ATOM     15  O   UNL     1      23.197  43.991 149.455  1.00  0.00    -0.550 OA
ATOM     16  O   UNL     1      24.730  43.139 147.980  1.00  0.00    -0.550 OA
ENDBRANCH  13  14
ENDBRANCH  12  13
ENDBRANCH  11  12
ENDBRANCH  10  11
ENDBRANCH   9  10
ENDBRANCH   8   9
ENDBRANCH   7   8
ENDBRANCH   6   7
ENDBRANCH   5   6
ENDBRANCH   4   5
ENDBRANCH   3   4
ENDBRANCH   2   3
ENDBRANCH   1   2
BRANCH   1  17
ATOM     17  C   UNL     1      27.627  35.425 150.364  1.00  0.00     0.000 C 
BRANCH  17  18
ATOM     18  C   UNL     1      26.966  36.689 149.787  1.00  0.00     0.000 C 
BRANCH  18  19
ATOM     19  C   UNL     1      27.861  37.427 148.778  1.00  0.00     0.000 C 
BRANCH  19  20
ATOM     20  C   UNL     1      27.188  37.496 147.399  1.00  0.00     0.000 C 
BRANCH  20  21
ATOM     21  C   UNL     1      28.126  37.072 146.258  1.00  0.00     0.000 C 
BRANCH  21  22
ATOM     22  C   UNL     1      29.612  37.201 146.641  1.00  0.00    -0.000 C 
BRANCH  22  23
ATOM     23  C   UNL     1      30.435  37.942 145.573  1.00  0.00    -0.000 C 
BRANCH  23  24
ATOM     24  C   UNL     1      29.556  38.607 144.502  1.00  0.00    -0.000 C 
BRANCH  24  25
ATOM     25  C   UNL     1      29.530  40.132 144.682  1.00  0.00    -0.000 C 
BRANCH  25  26
ATOM     26  C   UNL     1      28.154  40.661 145.125  1.00  0.00    -0.000 C 
BRANCH  26  27
ATOM     27  C   UNL     1      27.981  40.838 146.644  1.00  0.00    -0.000 C 
BRANCH  27  28
ATOM     28  C   UNL     1      29.088  41.694 147.278  1.00  0.00    -0.000 C 
BRANCH  28  29
ATOM     29  C   UNL     1      29.395  41.227 148.705  1.00  0.00    -0.003 C 
ATOM     30  C   UNL     1      30.355  40.040 148.702  1.00  0.00     0.004 C 
ENDBRANCH  28  29
ENDBRANCH  27  28
ENDBRANCH  26  27
ENDBRANCH  25  26
ENDBRANCH  24  25
ENDBRANCH  23  24
ENDBRANCH  22  23
ENDBRANCH  21  22
ENDBRANCH  20  21
ENDBRANCH  19  20
ENDBRANCH  18  19
ENDBRANCH  17  18
ENDBRANCH   1  17
TORSDOF 26
ENDMDL
MODEL 8
REMARK VINA RESULT:    -4.995      2.220      5.356
REMARK INTER + INTRA:         -17.174
REMARK INTER:                 -11.778
REMARK INTRA:                  -5.396
REMARK UNBOUND:                -4.587
REMARK SMILES CCCCCCCCCCCCCCCCCCCCCCCCCCCC(=O)[O-]
REMARK SMILES IDX 15 1 16 2 17 3 18 4 19 5 20 6 21 7 22 8 23 9 24 10 25 11
REMARK SMILES IDX 26 12 27 13 28 14 29 15 30 16 14 17 13 18 12 19 11 20 10 21
REMARK SMILES IDX 9 22 8 23 7 24 6 25 5 26 4 27 3 28 2 29 1 30
REMARK H PARENT
REMARK Flexibility Score: inf
ROOT
ATOM      1  C   UNL     1      27.740  34.188 149.174  1.00  0.00     0.000 C 
ENDROOT
BRANCH   1   2
ATOM      2  C   UNL     1      26.533  33.528 148.483  1.00  0.00     0.000 C 
BRANCH   2   3
ATOM      3  C   UNL     1      25.239  33.643 149.307  1.00  0.00     0.000 C 
BRANCH   3   4
ATOM      4  C   UNL     1      24.063  34.188 148.481  1.00  0.00     0.000 C 
BRANCH   4   5
ATOM      5  C   UNL     1      24.521  35.132 147.357  1.00  0.00     0.000 C 
BRANCH   5   6
ATOM      6  C   UNL     1      23.766  36.470 147.366  1.00  0.00     0.000 C 
BRANCH   6   7
ATOM      7  C   UNL     1      23.536  37.006 148.790  1.00  0.00     0.000 C 
BRANCH   7   8
ATOM      8  C   UNL     1      23.785  38.521 148.902  1.00  0.00     0.000 C 
BRANCH   8   9
ATOM      9  C   UNL     1      23.624  39.306 147.585  1.00  0.00     0.000 C 
BRANCH   9  10
ATOM     10  C   UNL     1      23.705  40.837 147.725  1.00  0.00     0.000 C 
BRANCH  10  11
ATOM     11  C   UNL     1      24.340  41.282 149.051  1.00  0.00     0.000 C 
BRANCH  11  12
ATOM     12  C   UNL     1      24.461  42.812 149.115  1.00  0.00     0.006 C 
BRANCH  12  13
ATOM     13  C   UNL     1      25.624  43.340 148.264  1.00  0.00     0.053 C 
BRANCH  13  14
ATOM     14  C   UNL     1      25.706  44.835 148.300  1.00  0.00     0.041 C 
ATOM     15  O   UNL     1      26.745  45.402 148.731  1.00  0.00    -0.550 OA
ATOM     16  O   UNL     1      24.653  45.602 147.817  1.00  0.00    -0.550 OA
ENDBRANCH  13  14
ENDBRANCH  12  13
ENDBRANCH  11  12
ENDBRANCH  10  11
ENDBRANCH   9  10
ENDBRANCH   8   9
ENDBRANCH   7   8
ENDBRANCH   6   7
ENDBRANCH   5   6
ENDBRANCH   4   5
ENDBRANCH   3   4
ENDBRANCH   2   3
ENDBRANCH   1   2
BRANCH   1  17
ATOM     17  C   UNL     1      27.383  35.243 150.242  1.00  0.00     0.000 C 
BRANCH  17  18
ATOM     18  C   UNL     1      27.283  36.689 149.726  1.00  0.00     0.000 C 
BRANCH  18  19
ATOM     19  C   UNL     1      27.915  36.876 148.337  1.00  0.00     0.000 C 
BRANCH  19  20
ATOM     20  C   UNL     1      27.108  37.878 147.499  1.00  0.00     0.000 C 
BRANCH  20  21
ATOM     21  C   UNL     1      27.220  39.319 148.024  1.00  0.00     0.000 C 
BRANCH  21  22
ATOM     22  C   UNL     1      27.305  40.353 146.887  1.00  0.00    -0.000 C 
BRANCH  22  23
ATOM     23  C   UNL     1      28.472  41.339 147.071  1.00  0.00    -0.000 C 
BRANCH  23  24
ATOM     24  C   UNL     1      29.319  41.030 148.316  1.00  0.00    -0.000 C 
BRANCH  24  25
ATOM     25  C   UNL     1      30.689  40.459 147.921  1.00  0.00    -0.000 C 
BRANCH  25  26
ATOM     26  C   UNL     1      30.840  38.967 148.271  1.00  0.00    -0.000 C 
BRANCH  26  27
ATOM     27  C   UNL     1      31.311  38.071 147.112  1.00  0.00    -0.000 C 
BRANCH  27  28
ATOM     28  C   UNL     1      31.002  38.666 145.730  1.00  0.00    -0.000 C 
BRANCH  28  29
ATOM     29  C   UNL     1      29.718  38.063 145.146  1.00  0.00    -0.003 C 
ATOM     30  C   UNL     1      29.165  38.930 144.020  1.00  0.00     0.004 C 
ENDBRANCH  28  29
ENDBRANCH  27  28
ENDBRANCH  26  27
ENDBRANCH  25  26
ENDBRANCH  24  25
ENDBRANCH  23  24
ENDBRANCH  22  23
ENDBRANCH  21  22
ENDBRANCH  20  21
ENDBRANCH  19  20
ENDBRANCH  18  19
ENDBRANCH  17  18
ENDBRANCH   1  17
TORSDOF 26
ENDMDL
MODEL 9
REMARK VINA RESULT:    -4.986      2.301      5.574
REMARK INTER + INTRA:         -17.152
REMARK INTER:                 -11.761
REMARK INTRA:                  -5.391
REMARK UNBOUND:                -4.587
REMARK SMILES CCCCCCCCCCCCCCCCCCCCCCCCCCCC(=O)[O-]
REMARK SMILES IDX 15 1 16 2 17 3 18 4 19 5 20 6 21 7 22 8 23 9 24 10 25 11
REMARK SMILES IDX 26 12 27 13 28 14 29 15 30 16 14 17 13 18 12 19 11 20 10 21
REMARK SMILES IDX 9 22 8 23 7 24 6 25 5 26 4 27 3 28 2 29 1 30
REMARK H PARENT
REMARK Flexibility Score: inf
ROOT
ATOM      1  C   UNL     1      27.428  36.213 149.453  1.00  0.00     0.000 C 
ENDROOT
BRANCH   1   2
ATOM      2  C   UNL     1      26.989  34.872 150.069  1.00  0.00     0.000 C 
BRANCH   2   3
ATOM      3  C   UNL     1      26.508  33.861 149.014  1.00  0.00     0.000 C 
BRANCH   3   4
ATOM      4  C   UNL     1      25.100  33.323 149.316  1.00  0.00     0.000 C 
BRANCH   4   5
ATOM      5  C   UNL     1      23.990  34.262 148.812  1.00  0.00     0.000 C 
BRANCH   5   6
ATOM      6  C   UNL     1      24.292  34.836 147.419  1.00  0.00     0.000 C 
BRANCH   6   7
ATOM      7  C   UNL     1      24.090  36.361 147.355  1.00  0.00     0.000 C 
BRANCH   7   8
ATOM      8  C   UNL     1      23.766  36.975 148.729  1.00  0.00     0.000 C 
BRANCH   8   9
ATOM      9  C   UNL     1      24.480  38.308 149.030  1.00  0.00     0.000 C 
BRANCH   9  10
ATOM     10  C   UNL     1      24.018  39.503 148.176  1.00  0.00     0.000 C 
BRANCH  10  11
ATOM     11  C   UNL     1      25.184  40.236 147.496  1.00  0.00     0.000 C 
BRANCH  11  12
ATOM     12  C   UNL     1      24.866  41.729 147.322  1.00  0.00     0.006 C 
BRANCH  12  13
ATOM     13  C   UNL     1      25.386  42.575 148.492  1.00  0.00     0.053 C 
BRANCH  13  14
ATOM     14  C   UNL     1      24.347  43.528 148.995  1.00  0.00     0.041 C 
ATOM     15  O   UNL     1      23.656  44.199 148.182  1.00  0.00    -0.550 OA
ATOM     16  O   UNL     1      24.111  43.646 150.359  1.00  0.00    -0.550 OA
ENDBRANCH  13  14
ENDBRANCH  12  13
ENDBRANCH  11  12
ENDBRANCH  10  11
ENDBRANCH   9  10
ENDBRANCH   8   9
ENDBRANCH   7   8
ENDBRANCH   6   7
ENDBRANCH   5   6
ENDBRANCH   4   5
ENDBRANCH   3   4
ENDBRANCH   2   3
ENDBRANCH   1   2
BRANCH   1  17
ATOM     17  C   UNL     1      27.772  36.158 147.950  1.00  0.00     0.000 C 
BRANCH  17  18
ATOM     18  C   UNL     1      27.671  37.502 147.206  1.00  0.00     0.000 C 
BRANCH  18  19
ATOM     19  C   UNL     1      28.423  37.503 145.865  1.00  0.00     0.000 C 
BRANCH  19  20
ATOM     20  C   UNL     1      29.933  37.670 146.085  1.00  0.00     0.000 C 
BRANCH  20  21
ATOM     21  C   UNL     1      30.632  38.374 144.911  1.00  0.00     0.000 C 
BRANCH  21  22
ATOM     22  C   UNL     1      29.632  38.983 143.912  1.00  0.00    -0.000 C 
BRANCH  22  23
ATOM     23  C   UNL     1      29.981  40.433 143.537  1.00  0.00    -0.000 C 
BRANCH  23  24
ATOM     24  C   UNL     1      28.786  41.389 143.684  1.00  0.00    -0.000 C 
BRANCH  24  25
ATOM     25  C   UNL     1      28.020  41.115 144.986  1.00  0.00    -0.000 C 
BRANCH  25  26
ATOM     26  C   UNL     1      28.190  42.235 146.030  1.00  0.00    -0.000 C 
BRANCH  26  27
ATOM     27  C   UNL     1      29.223  41.945 147.134  1.00  0.00    -0.000 C 
BRANCH  27  28
ATOM     28  C   UNL     1      28.926  40.651 147.907  1.00  0.00    -0.000 C 
BRANCH  28  29
ATOM     29  C   UNL     1      28.768  40.930 149.406  1.00  0.00    -0.003 C 
ATOM     30  C   UNL     1      27.824  39.923 150.058  1.00  0.00     0.004 C 
ENDBRANCH  28  29
ENDBRANCH  27  28
ENDBRANCH  26  27
ENDBRANCH  25  26
ENDBRANCH  24  25
ENDBRANCH  23  24
ENDBRANCH  22  23
ENDBRANCH  21  22
ENDBRANCH  20  21
ENDBRANCH  19  20
ENDBRANCH  18  19
ENDBRANCH  17  18
ENDBRANCH   1  17
TORSDOF 26
ENDMDL
