MODEL 1
REMARK VINA RESULT:     4.189      0.000      0.000
REMARK INTER + INTRA:           5.471
REMARK INTER:                   5.047
REMARK INTRA:                   0.425
REMARK UNBOUND:                 0.425
REMARK SMILES O=c1c(O)c(-c2ccc(O)c(O)c2)oc2cc(O)cc(O)c12
REMARK SMILES IDX 5 1 3 2 2 3 1 4 22 5 20 6 19 7 17 8 16 9 15 10 14 11 6 12
REMARK SMILES IDX 7 13 8 14 9 15 13 16 11 17 10 18 12 20 4 22 21 24 18 26
REMARK H PARENT 10 19 12 21 4 23 21 25 18 27
REMARK Flexibility Score: inf
ROOT
ATOM      1  C   UNL     1      27.161  18.334  35.689  1.00  0.00     0.180 A 
ATOM      2  C   UNL     1      28.319  17.704  36.176  1.00  0.00     0.208 A 
ATOM      3  C   UNL     1      29.544  17.937  35.530  1.00  0.00     0.238 A 
ATOM      4  O   UNL     1      30.563  17.313  35.925  1.00  0.00    -0.285 OA
ATOM      5  C   UNL     1      29.606  18.842  34.442  1.00  0.00     0.111 A 
ATOM      6  C   UNL     1      30.802  19.189  33.741  1.00  0.00     0.134 A 
ATOM      7  C   UNL     1      30.725  20.013  32.611  1.00  0.00     0.093 A 
ATOM      8  C   UNL     1      29.510  20.553  32.195  1.00  0.00     0.123 A 
ATOM      9  C   UNL     1      28.343  20.266  32.904  1.00  0.00     0.094 A 
ATOM     10  C   UNL     1      28.381  19.416  34.012  1.00  0.00     0.146 A 
ATOM     11  O   UNL     1      27.245  19.150  34.646  1.00  0.00    -0.452 OA
ENDROOT
BRANCH   1  12
ATOM     12  C   UNL     1      25.831  18.126  36.307  1.00  0.00     0.025 A 
ATOM     13  C   UNL     1      25.613  17.105  37.248  1.00  0.00     0.016 A 
ATOM     14  C   UNL     1      24.344  16.912  37.799  1.00  0.00     0.051 A 
ATOM     15  C   UNL     1      23.272  17.727  37.410  1.00  0.00     0.157 A 
ATOM     16  C   UNL     1      24.750  18.926  35.904  1.00  0.00     0.062 A 
ATOM     17  C   UNL     1      23.477  18.736  36.456  1.00  0.00     0.158 A 
BRANCH  15  18
ATOM     18  O   UNL     1      22.008  17.533  37.964  1.00  0.00    -0.504 OA
ATOM     19  H   UNL     1      21.466  18.305  38.334  1.00  0.00     0.293 HD
ENDBRANCH  15  18
BRANCH  17  20
ATOM     20  O   UNL     1      22.431  19.560  36.041  1.00  0.00    -0.504 OA
ATOM     21  H   UNL     1      22.486  20.112  35.192  1.00  0.00     0.293 HD
ENDBRANCH  17  20
ENDBRANCH   1  12
BRANCH   2  22
ATOM     22  O   UNL     1      28.251  16.875  37.299  1.00  0.00    -0.502 OA
ATOM     23  H   UNL     1      27.881  15.933  37.258  1.00  0.00     0.293 HD
ENDBRANCH   2  22
BRANCH   6  24
ATOM     24  O   UNL     1      32.081  18.776  34.124  1.00  0.00    -0.507 OA
ATOM     25  H   UNL     1      32.391  18.663  35.076  1.00  0.00     0.293 HD
ENDBRANCH   6  24
BRANCH   8  26
ATOM     26  O   UNL     1      29.474  21.384  31.076  1.00  0.00    -0.508 OA
ATOM     27  H   UNL     1      29.113  22.329  31.130  1.00  0.00     0.293 HD
ENDBRANCH   8  26
TORSDOF 6
ENDMDL
