MODEL 1
REMARK VINA RESULT:    -4.072      0.000      0.000
REMARK INTER + INTRA:          -9.130
REMARK INTER:                  -6.929
REMARK INTRA:                  -2.201
REMARK UNBOUND:                -2.201
REMARK SMILES CCCCCCCCCCCCCC(=O)[O-]
REMARK SMILES IDX 8 1 9 2 10 3 11 4 12 5 13 6 14 7 15 8 16 9 7 10 6 11 5 12
REMARK SMILES IDX 4 13 3 14 2 15 1 16
REMARK H PARENT
REMARK Flexibility Score: inf
ROOT
ATOM      1  C   UNL     1      -2.726   5.412 -59.575  1.00  0.00     0.000 C 
ENDROOT
BRANCH   1   2
ATOM      2  C   UNL     1      -1.839   6.628 -59.284  1.00  0.00     0.000 C 
BRANCH   2   3
ATOM      3  C   UNL     1      -0.810   6.310 -58.192  1.00  0.00     0.000 C 
BRANCH   3   4
ATOM      4  C   UNL     1      -1.161   5.004 -57.470  1.00  0.00     0.000 C 
BRANCH   4   5
ATOM      5  C   UNL     1      -1.321   5.235 -55.962  1.00  0.00     0.006 C 
BRANCH   5   6
ATOM      6  C   UNL     1      -0.878   6.649 -55.574  1.00  0.00     0.053 C 
BRANCH   6   7
ATOM      7  C   UNL     1       0.055   6.603 -54.405  1.00  0.00     0.041 C 
ATOM      8  O   UNL     1       0.390   7.666 -53.820  1.00  0.00    -0.550 OA
ATOM      9  O   UNL     1       0.516   5.381 -53.932  1.00  0.00    -0.550 OA
ENDBRANCH   6   7
ENDBRANCH   5   6
ENDBRANCH   4   5
ENDBRANCH   3   4
ENDBRANCH   2   3
ENDBRANCH   1   2
BRANCH   1  10
ATOM     10  C   UNL     1      -4.212   5.797 -59.551  1.00  0.00     0.000 C 
BRANCH  10  11
ATOM     11  C   UNL     1      -4.980   5.146 -58.387  1.00  0.00    -0.000 C 
BRANCH  11  12
ATOM     12  C   UNL     1      -4.941   5.928 -57.059  1.00  0.00    -0.000 C 
BRANCH  12  13
ATOM     13  C   UNL     1      -5.141   7.447 -57.191  1.00  0.00    -0.000 C 
BRANCH  13  14
ATOM     14  C   UNL     1      -4.008   8.257 -56.537  1.00  0.00    -0.000 C 
BRANCH  14  15
ATOM     15  C   UNL     1      -3.417   9.312 -57.484  1.00  0.00    -0.003 C 
ATOM     16  C   UNL     1      -4.216   9.456 -58.779  1.00  0.00     0.004 C 
ENDBRANCH  14  15
ENDBRANCH  13  14
ENDBRANCH  12  13
ENDBRANCH  11  12
ENDBRANCH  10  11
ENDBRANCH   1  10
TORSDOF 12
ENDMDL
MODEL 2
REMARK VINA RESULT:    -3.946      3.490      5.415
REMARK INTER + INTRA:          -8.915
REMARK INTER:                  -7.347
REMARK INTRA:                  -1.568
REMARK UNBOUND:                -2.201
REMARK SMILES CCCCCCCCCCCCCC(=O)[O-]
REMARK SMILES IDX 8 1 9 2 10 3 11 4 12 5 13 6 14 7 15 8 16 9 7 10 6 11 5 12
REMARK SMILES IDX 4 13 3 14 2 15 1 16
REMARK H PARENT
REMARK Flexibility Score: inf
ROOT
ATOM      1  C   UNL     1      -1.717   7.189 -59.121  1.00  0.00     0.000 C 
ENDROOT
BRANCH   1   2
ATOM      2  C   UNL     1      -2.646   6.281 -59.936  1.00  0.00     0.000 C 
BRANCH   2   3
ATOM      3  C   UNL     1      -4.114   6.681 -59.743  1.00  0.00     0.000 C 
BRANCH   3   4
ATOM      4  C   UNL     1      -4.229   7.980 -58.938  1.00  0.00     0.000 C 
BRANCH   4   5
ATOM      5  C   UNL     1      -5.139   7.792 -57.718  1.00  0.00     0.006 C 
BRANCH   5   6
ATOM      6  C   UNL     1      -5.891   6.460 -57.795  1.00  0.00     0.053 C 
BRANCH   6   7
ATOM      7  C   UNL     1      -7.367   6.687 -57.702  1.00  0.00     0.041 C 
ATOM      8  O   UNL     1      -7.858   7.803 -58.017  1.00  0.00    -0.550 OA
ATOM      9  O   UNL     1      -8.207   5.650 -57.314  1.00  0.00    -0.550 OA
ENDBRANCH   6   7
ENDBRANCH   5   6
ENDBRANCH   4   5
ENDBRANCH   3   4
ENDBRANCH   2   3
ENDBRANCH   1   2
BRANCH   1  10
ATOM     10  C   UNL     1      -0.839   6.364 -58.169  1.00  0.00     0.000 C 
BRANCH  10  11
ATOM     11  C   UNL     1      -1.577   5.153 -57.572  1.00  0.00    -0.000 C 
BRANCH  11  12
ATOM     12  C   UNL     1      -2.473   5.466 -56.357  1.00  0.00    -0.000 C 
BRANCH  12  13
ATOM     13  C   UNL     1      -2.146   6.781 -55.629  1.00  0.00    -0.000 C 
BRANCH  13  14
ATOM     14  C   UNL     1      -1.359   6.560 -54.324  1.00  0.00    -0.000 C 
BRANCH  14  15
ATOM     15  C   UNL     1       0.056   7.155 -54.383  1.00  0.00    -0.003 C 
ATOM     16  C   UNL     1       0.258   8.294 -53.384  1.00  0.00     0.004 C 
ENDBRANCH  14  15
ENDBRANCH  13  14
ENDBRANCH  12  13
ENDBRANCH  11  12
ENDBRANCH  10  11
ENDBRANCH   1  10
TORSDOF 12
ENDMDL
MODEL 3
REMARK VINA RESULT:    -3.944      1.162      2.536
REMARK INTER + INTRA:          -8.911
REMARK INTER:                  -7.303
REMARK INTRA:                  -1.608
REMARK UNBOUND:                -2.201
REMARK SMILES CCCCCCCCCCCCCC(=O)[O-]
REMARK SMILES IDX 8 1 9 2 10 3 11 4 12 5 13 6 14 7 15 8 16 9 7 10 6 11 5 12
REMARK SMILES IDX 4 13 3 14 2 15 1 16
REMARK H PARENT
REMARK Flexibility Score: inf
ROOT
ATOM      1  C   UNL     1      -1.988   7.805 -59.131  1.00  0.00     0.000 C 
ENDROOT
BRANCH   1   2
ATOM      2  C   UNL     1      -2.401   6.388 -59.547  1.00  0.00     0.000 C 
BRANCH   2   3
ATOM      3  C   UNL     1      -1.829   5.342 -58.581  1.00  0.00     0.000 C 
BRANCH   3   4
ATOM      4  C   UNL     1      -0.638   5.909 -57.800  1.00  0.00     0.000 C 
BRANCH   4   5
ATOM      5  C   UNL     1      -0.634   5.395 -56.355  1.00  0.00     0.006 C 
BRANCH   5   6
ATOM      6  C   UNL     1      -0.962   6.523 -55.371  1.00  0.00     0.053 C 
BRANCH   6   7
ATOM      7  C   UNL     1       0.070   6.588 -54.288  1.00  0.00     0.041 C 
ATOM      8  O   UNL     1       0.605   5.533 -53.859  1.00  0.00    -0.550 OA
ATOM      9  O   UNL     1       0.474   7.819 -53.787  1.00  0.00    -0.550 OA
ENDBRANCH   6   7
ENDBRANCH   5   6
ENDBRANCH   4   5
ENDBRANCH   3   4
ENDBRANCH   2   3
ENDBRANCH   1   2
BRANCH   1  10
ATOM     10  C   UNL     1      -3.196   8.601 -58.616  1.00  0.00     0.000 C 
BRANCH  10  11
ATOM     11  C   UNL     1      -3.295   8.614 -57.081  1.00  0.00    -0.000 C 
BRANCH  11  12
ATOM     12  C   UNL     1      -4.597   8.023 -56.504  1.00  0.00    -0.000 C 
BRANCH  12  13
ATOM     13  C   UNL     1      -4.721   6.493 -56.612  1.00  0.00    -0.000 C 
BRANCH  13  14
ATOM     14  C   UNL     1      -5.656   6.051 -57.751  1.00  0.00    -0.000 C 
BRANCH  14  15
ATOM     15  C   UNL     1      -7.139   6.256 -57.408  1.00  0.00    -0.003 C 
ATOM     16  C   UNL     1      -7.715   7.534 -58.016  1.00  0.00     0.004 C 
ENDBRANCH  14  15
ENDBRANCH  13  14
ENDBRANCH  12  13
ENDBRANCH  11  12
ENDBRANCH  10  11
ENDBRANCH   1  10
TORSDOF 12
ENDMDL
MODEL 4
REMARK VINA RESULT:    -3.919      3.720      5.741
REMARK INTER + INTRA:          -8.870
REMARK INTER:                  -7.081
REMARK INTRA:                  -1.789
REMARK UNBOUND:                -2.201
REMARK SMILES CCCCCCCCCCCCCC(=O)[O-]
REMARK SMILES IDX 8 1 9 2 10 3 11 4 12 5 13 6 14 7 15 8 16 9 7 10 6 11 5 12
REMARK SMILES IDX 4 13 3 14 2 15 1 16
REMARK H PARENT
REMARK Flexibility Score: inf
ROOT
ATOM      1  C   UNL     1      -3.033   8.298 -58.481  1.00  0.00     0.000 C 
ENDROOT
BRANCH   1   2
ATOM      2  C   UNL     1      -3.184   8.268 -56.956  1.00  0.00     0.000 C 
BRANCH   2   3
ATOM      3  C   UNL     1      -4.593   7.815 -56.552  1.00  0.00     0.000 C 
BRANCH   3   4
ATOM      4  C   UNL     1      -4.715   6.287 -56.603  1.00  0.00     0.000 C 
BRANCH   4   5
ATOM      5  C   UNL     1      -5.586   5.845 -57.785  1.00  0.00     0.006 C 
BRANCH   5   6
ATOM      6  C   UNL     1      -6.877   5.180 -57.297  1.00  0.00     0.053 C 
BRANCH   6   7
ATOM      7  C   UNL     1      -8.062   6.030 -57.631  1.00  0.00     0.041 C 
ATOM      8  O   UNL     1      -7.939   7.279 -57.726  1.00  0.00    -0.550 OA
ATOM      9  O   UNL     1      -9.293   5.437 -57.884  1.00  0.00    -0.550 OA
ENDBRANCH   6   7
ENDBRANCH   5   6
ENDBRANCH   4   5
ENDBRANCH   3   4
ENDBRANCH   2   3
ENDBRANCH   1   2
BRANCH   1  10
ATOM     10  C   UNL     1      -1.824   7.465 -58.931  1.00  0.00     0.000 C 
BRANCH  10  11
ATOM     11  C   UNL     1      -2.217   6.072 -59.452  1.00  0.00    -0.000 C 
BRANCH  11  12
ATOM     12  C   UNL     1      -1.881   4.900 -58.508  1.00  0.00    -0.000 C 
BRANCH  12  13
ATOM     13  C   UNL     1      -0.577   5.064 -57.707  1.00  0.00    -0.000 C 
BRANCH  13  14
ATOM     14  C   UNL     1      -0.814   5.102 -56.187  1.00  0.00    -0.000 C 
BRANCH  14  15
ATOM     15  C   UNL     1      -0.234   6.367 -55.534  1.00  0.00    -0.003 C 
ATOM     16  C   UNL     1      -1.057   6.843 -54.338  1.00  0.00     0.004 C 
ENDBRANCH  14  15
ENDBRANCH  13  14
ENDBRANCH  12  13
ENDBRANCH  11  12
ENDBRANCH  10  11
ENDBRANCH   1  10
TORSDOF 12
ENDMDL
MODEL 5
REMARK VINA RESULT:    -3.808      2.308      4.761
REMARK INTER + INTRA:          -8.681
REMARK INTER:                  -7.123
REMARK INTRA:                  -1.558
REMARK UNBOUND:                -2.201
REMARK SMILES CCCCCCCCCCCCCC(=O)[O-]
REMARK SMILES IDX 8 1 9 2 10 3 11 4 12 5 13 6 14 7 15 8 16 9 7 10 6 11 5 12
REMARK SMILES IDX 4 13 3 14 2 15 1 16
REMARK H PARENT
REMARK Flexibility Score: inf
ROOT
ATOM      1  C   UNL     1      -1.890   6.752 -59.454  1.00  0.00     0.000 C 
ENDROOT
BRANCH   1   2
ATOM      2  C   UNL     1      -2.666   5.437 -59.596  1.00  0.00     0.000 C 
BRANCH   2   3
ATOM      3  C   UNL     1      -4.180   5.685 -59.568  1.00  0.00     0.000 C 
BRANCH   3   4
ATOM      4  C   UNL     1      -4.754   5.415 -58.173  1.00  0.00     0.000 C 
BRANCH   4   5
ATOM      5  C   UNL     1      -5.630   6.584 -57.703  1.00  0.00     0.006 C 
BRANCH   5   6
ATOM      6  C   UNL     1      -5.341   7.847 -58.520  1.00  0.00     0.053 C 
BRANCH   6   7
ATOM      7  C   UNL     1      -4.490   8.794 -57.735  1.00  0.00     0.041 C 
ATOM      8  O   UNL     1      -4.315   8.615 -56.501  1.00  0.00    -0.550 OA
ATOM      9  O   UNL     1      -3.850   9.848 -58.376  1.00  0.00    -0.550 OA
ENDBRANCH   6   7
ENDBRANCH   5   6
ENDBRANCH   4   5
ENDBRANCH   3   4
ENDBRANCH   2   3
ENDBRANCH   1   2
BRANCH   1  10
ATOM     10  C   UNL     1      -0.708   6.592 -58.487  1.00  0.00     0.000 C 
BRANCH  10  11
ATOM     11  C   UNL     1      -0.625   5.184 -57.871  1.00  0.00    -0.000 C 
BRANCH  11  12
ATOM     12  C   UNL     1      -0.800   5.128 -56.341  1.00  0.00    -0.000 C 
BRANCH  12  13
ATOM     13  C   UNL     1      -2.006   5.912 -55.794  1.00  0.00    -0.000 C 
BRANCH  13  14
ATOM     14  C   UNL     1      -1.590   7.102 -54.910  1.00  0.00    -0.000 C 
BRANCH  14  15
ATOM     15  C   UNL     1      -0.214   6.898 -54.259  1.00  0.00    -0.003 C 
ATOM     16  C   UNL     1       0.267   8.132 -53.497  1.00  0.00     0.004 C 
ENDBRANCH  14  15
ENDBRANCH  13  14
ENDBRANCH  12  13
ENDBRANCH  11  12
ENDBRANCH  10  11
ENDBRANCH   1  10
TORSDOF 12
ENDMDL
MODEL 6
REMARK VINA RESULT:    -3.711      1.020      2.914
REMARK INTER + INTRA:          -8.516
REMARK INTER:                  -6.570
REMARK INTRA:                  -1.945
REMARK UNBOUND:                -2.201
REMARK SMILES CCCCCCCCCCCCCC(=O)[O-]
REMARK SMILES IDX 8 1 9 2 10 3 11 4 12 5 13 6 14 7 15 8 16 9 7 10 6 11 5 12
REMARK SMILES IDX 4 13 3 14 2 15 1 16
REMARK H PARENT
REMARK Flexibility Score: inf
ROOT
ATOM      1  C   UNL     1      -4.762   8.634 -57.799  1.00  0.00     0.000 C 
ENDROOT
BRANCH   1   2
ATOM      2  C   UNL     1      -4.292   8.346 -56.368  1.00  0.00     0.000 C 
BRANCH   2   3
ATOM      3  C   UNL     1      -2.794   8.015 -56.337  1.00  0.00     0.000 C 
BRANCH   3   4
ATOM      4  C   UNL     1      -2.489   6.954 -55.273  1.00  0.00     0.000 C 
BRANCH   4   5
ATOM      5  C   UNL     1      -1.578   5.856 -55.838  1.00  0.00     0.006 C 
BRANCH   5   6
ATOM      6  C   UNL     1      -0.102   6.234 -55.681  1.00  0.00     0.053 C 
BRANCH   6   7
ATOM      7  C   UNL     1       0.234   6.443 -54.238  1.00  0.00     0.041 C 
ATOM      8  O   UNL     1       0.293   5.461 -53.453  1.00  0.00    -0.550 OA
ATOM      9  O   UNL     1       0.530   7.718 -53.771  1.00  0.00    -0.550 OA
ENDBRANCH   6   7
ENDBRANCH   5   6
ENDBRANCH   4   5
ENDBRANCH   3   4
ENDBRANCH   2   3
ENDBRANCH   1   2
BRANCH   1  10
ATOM     10  C   UNL     1      -5.741   7.555 -58.283  1.00  0.00     0.000 C 
BRANCH  10  11
ATOM     11  C   UNL     1      -5.904   6.400 -57.280  1.00  0.00    -0.000 C 
BRANCH  11  12
ATOM     12  C   UNL     1      -5.280   5.060 -57.717  1.00  0.00    -0.000 C 
BRANCH  12  13
ATOM     13  C   UNL     1      -4.606   5.077 -59.100  1.00  0.00    -0.000 C 
BRANCH  13  14
ATOM     14  C   UNL     1      -3.074   5.196 -59.015  1.00  0.00    -0.000 C 
BRANCH  14  15
ATOM     15  C   UNL     1      -2.523   6.327 -59.897  1.00  0.00    -0.003 C 
ATOM     16  C   UNL     1      -1.300   7.009 -59.285  1.00  0.00     0.004 C 
ENDBRANCH  14  15
ENDBRANCH  13  14
ENDBRANCH  12  13
ENDBRANCH  11  12
ENDBRANCH  10  11
ENDBRANCH   1  10
TORSDOF 12
ENDMDL
MODEL 7
REMARK VINA RESULT:    -3.528      2.480      4.986
REMARK INTER + INTRA:          -8.204
REMARK INTER:                  -6.759
REMARK INTRA:                  -1.444
REMARK UNBOUND:                -2.201
REMARK SMILES CCCCCCCCCCCCCC(=O)[O-]
REMARK SMILES IDX 8 1 9 2 10 3 11 4 12 5 13 6 14 7 15 8 16 9 7 10 6 11 5 12
REMARK SMILES IDX 4 13 3 14 2 15 1 16
REMARK H PARENT
REMARK Flexibility Score: inf
ROOT
ATOM      1  C   UNL     1      -5.159   6.200 -56.609  1.00  0.00     0.000 C 
ENDROOT
BRANCH   1   2
ATOM      2  C   UNL     1      -6.113   6.515 -57.768  1.00  0.00     0.000 C 
BRANCH   2   3
ATOM      3  C   UNL     1      -6.186   8.025 -58.026  1.00  0.00     0.000 C 
BRANCH   3   4
ATOM      4  C   UNL     1      -4.825   8.689 -57.788  1.00  0.00     0.000 C 
BRANCH   4   5
ATOM      5  C   UNL     1      -3.936   8.584 -59.034  1.00  0.00     0.006 C 
BRANCH   5   6
ATOM      6  C   UNL     1      -2.459   8.468 -58.645  1.00  0.00     0.053 C 
BRANCH   6   7
ATOM      7  C   UNL     1      -1.863   7.222 -59.220  1.00  0.00     0.041 C 
ATOM      8  O   UNL     1      -0.633   6.989 -59.088  1.00  0.00    -0.550 OA
ATOM      9  O   UNL     1      -2.676   6.294 -59.860  1.00  0.00    -0.550 OA
ENDBRANCH   6   7
ENDBRANCH   5   6
ENDBRANCH   4   5
ENDBRANCH   3   4
ENDBRANCH   2   3
ENDBRANCH   1   2
BRANCH   1  10
ATOM     10  C   UNL     1      -4.173   5.088 -56.994  1.00  0.00     0.000 C 
BRANCH  10  11
ATOM     11  C   UNL     1      -2.952   5.021 -56.061  1.00  0.00    -0.000 C 
BRANCH  11  12
ATOM     12  C   UNL     1      -2.366   6.387 -55.651  1.00  0.00    -0.000 C 
BRANCH  12  13
ATOM     13  C   UNL     1      -0.829   6.459 -55.640  1.00  0.00    -0.000 C 
BRANCH  13  14
ATOM     14  C   UNL     1      -0.214   5.849 -54.368  1.00  0.00    -0.000 C 
BRANCH  14  15
ATOM     15  C   UNL     1      -0.323   6.786 -53.155  1.00  0.00    -0.003 C 
ATOM     16  C   UNL     1       0.271   8.169 -53.423  1.00  0.00     0.004 C 
ENDBRANCH  14  15
ENDBRANCH  13  14
ENDBRANCH  12  13
ENDBRANCH  11  12
ENDBRANCH  10  11
ENDBRANCH   1  10
TORSDOF 12
ENDMDL
MODEL 8
REMARK VINA RESULT:    -3.525      1.239      3.362
REMARK INTER + INTRA:          -8.198
REMARK INTER:                  -6.493
REMARK INTRA:                  -1.705
REMARK UNBOUND:                -2.201
REMARK SMILES CCCCCCCCCCCCCC(=O)[O-]
REMARK SMILES IDX 8 1 9 2 10 3 11 4 12 5 13 6 14 7 15 8 16 9 7 10 6 11 5 12
REMARK SMILES IDX 4 13 3 14 2 15 1 16
REMARK H PARENT
REMARK Flexibility Score: inf
ROOT
ATOM      1  C   UNL     1      -5.104   7.287 -56.829  1.00  0.00     0.000 C 
ENDROOT
BRANCH   1   2
ATOM      2  C   UNL     1      -5.554   5.822 -56.798  1.00  0.00     0.000 C 
BRANCH   2   3
ATOM      3  C   UNL     1      -4.550   4.954 -56.028  1.00  0.00     0.000 C 
BRANCH   3   4
ATOM      4  C   UNL     1      -3.109   5.322 -56.398  1.00  0.00     0.000 C 
BRANCH   4   5
ATOM      5  C   UNL     1      -2.227   5.417 -55.146  1.00  0.00     0.006 C 
BRANCH   5   6
ATOM      6  C   UNL     1      -1.168   6.512 -55.303  1.00  0.00     0.053 C 
BRANCH   6   7
ATOM      7  C   UNL     1      -0.765   7.045 -53.964  1.00  0.00     0.041 C 
ATOM      8  O   UNL     1      -1.112   6.446 -52.913  1.00  0.00    -0.550 OA
ATOM      9  O   UNL     1       0.035   8.178 -53.879  1.00  0.00    -0.550 OA
ENDBRANCH   6   7
ENDBRANCH   5   6
ENDBRANCH   4   5
ENDBRANCH   3   4
ENDBRANCH   2   3
ENDBRANCH   1   2
BRANCH   1  10
ATOM     10  C   UNL     1      -5.507   7.959 -58.150  1.00  0.00     0.000 C 
BRANCH  10  11
ATOM     11  C   UNL     1      -4.504   9.033 -58.605  1.00  0.00    -0.000 C 
BRANCH  11  12
ATOM     12  C   UNL     1      -3.063   8.842 -58.094  1.00  0.00    -0.000 C 
BRANCH  12  13
ATOM     13  C   UNL     1      -2.089   8.219 -59.110  1.00  0.00    -0.000 C 
BRANCH  13  14
ATOM     14  C   UNL     1      -2.078   6.681 -59.057  1.00  0.00    -0.000 C 
BRANCH  14  15
ATOM     15  C   UNL     1      -2.642   6.044 -60.336  1.00  0.00    -0.003 C 
ATOM     16  C   UNL     1      -3.857   5.158 -60.067  1.00  0.00     0.004 C 
ENDBRANCH  14  15
ENDBRANCH  13  14
ENDBRANCH  12  13
ENDBRANCH  11  12
ENDBRANCH  10  11
ENDBRANCH   1  10
TORSDOF 12
ENDMDL
MODEL 9
REMARK VINA RESULT:    -3.468      1.030      2.059
REMARK INTER + INTRA:          -8.102
REMARK INTER:                  -6.558
REMARK INTRA:                  -1.544
REMARK UNBOUND:                -2.201
REMARK SMILES CCCCCCCCCCCCCC(=O)[O-]
REMARK SMILES IDX 8 1 9 2 10 3 11 4 12 5 13 6 14 7 15 8 16 9 7 10 6 11 5 12
REMARK SMILES IDX 4 13 3 14 2 15 1 16
REMARK H PARENT
REMARK Flexibility Score: inf
ROOT
ATOM      1  C   UNL     1      -0.522   6.616 -58.492  1.00  0.00     0.000 C 
ENDROOT
BRANCH   1   2
ATOM      2  C   UNL     1      -0.467   5.117 -58.172  1.00  0.00     0.000 C 
BRANCH   2   3
ATOM      3  C   UNL     1      -0.463   4.878 -56.657  1.00  0.00     0.000 C 
BRANCH   3   4
ATOM      4  C   UNL     1      -1.789   5.321 -56.027  1.00  0.00     0.000 C 
BRANCH   4   5
ATOM      5  C   UNL     1      -1.585   5.767 -54.574  1.00  0.00     0.006 C 
BRANCH   5   6
ATOM      6  C   UNL     1      -1.248   7.260 -54.500  1.00  0.00     0.053 C 
BRANCH   6   7
ATOM      7  C   UNL     1      -0.237   7.515 -53.427  1.00  0.00     0.041 C 
ATOM      8  O   UNL     1      -0.145   6.733 -52.445  1.00  0.00    -0.550 OA
ATOM      9  O   UNL     1       0.634   8.592 -53.534  1.00  0.00    -0.550 OA
ENDBRANCH   6   7
ENDBRANCH   5   6
ENDBRANCH   4   5
ENDBRANCH   3   4
ENDBRANCH   2   3
ENDBRANCH   1   2
BRANCH   1  10
ATOM     10  C   UNL     1      -1.639   6.923 -59.500  1.00  0.00     0.000 C 
BRANCH  10  11
ATOM     11  C   UNL     1      -2.724   5.833 -59.541  1.00  0.00    -0.000 C 
BRANCH  11  12
ATOM     12  C   UNL     1      -4.175   6.354 -59.556  1.00  0.00    -0.000 C 
BRANCH  12  13
ATOM     13  C   UNL     1      -4.869   6.386 -58.183  1.00  0.00    -0.000 C 
BRANCH  13  14
ATOM     14  C   UNL     1      -5.060   7.816 -57.646  1.00  0.00    -0.000 C 
BRANCH  14  15
ATOM     15  C   UNL     1      -3.728   8.487 -57.276  1.00  0.00    -0.003 C 
ATOM     16  C   UNL     1      -3.497   9.795 -58.031  1.00  0.00     0.004 C 
ENDBRANCH  14  15
ENDBRANCH  13  14
ENDBRANCH  12  13
ENDBRANCH  11  12
ENDBRANCH  10  11
ENDBRANCH   1  10
TORSDOF 12
ENDMDL
