MODEL 1
REMARK VINA RESULT:    -7.140      0.000      0.000
REMARK INTER + INTRA:         -13.626
REMARK INTER:                 -11.732
REMARK INTRA:                  -1.894
REMARK UNBOUND:                -1.894
REMARK SMILES C[C@@H]1O[C@H](OC[C@H]2O[C@@H](Oc3c(-c4ccc(O)c(O)c4)oc4cc(O)cc(O)c4c3=O)[C@H](O)[C@@H](O)[C@H]2O)[C@@H](O)[C@H](O)[C@H]1O
REMARK SMILES IDX 7 1 36 2 34 3 32 4 9 5 8 6 6 7 5 8 4 9 1 10 2 11 42 12 3 13
REMARK SMILES IDX 40 14 38 15 43 16 41 18 39 20 37 22 35 24 10 26 11 27 12 28
REMARK SMILES IDX 30 29 21 30 29 31 31 32 22 33 27 34 23 35 26 36 24 37 13 38
REMARK SMILES IDX 20 39 14 40 18 41 15 42 16 43 19 44 17 46 28 48 25 50 33 52
REMARK H PARENT 43 17 41 19 39 21 37 23 35 25 19 45 17 47 28 49 25 51 33 53
REMARK Flexibility Score: inf
ROOT
ATOM      1  C   UNL     1      13.055  22.780  42.399  1.00  0.00     0.180 C 
ATOM      2  C   UNL     1      12.255  22.608  41.068  1.00  0.00     0.177 C 
ATOM      3  C   UNL     1      12.738  23.620  40.000  1.00  0.00     0.180 C 
ATOM      4  C   UNL     1      14.261  23.793  40.090  1.00  0.00     0.214 C 
ATOM      5  C   UNL     1      14.619  24.359  41.484  1.00  0.00     0.339 C 
ATOM      6  O   UNL     1      13.655  24.066  42.495  1.00  0.00    -0.332 OA
ENDROOT
BRANCH   1   7
ATOM      7  C   UNL     1      14.079  21.662  42.706  1.00  0.00     0.198 C 
BRANCH   7   8
ATOM      8  O   UNL     1      13.402  20.458  43.045  1.00  0.00    -0.347 OA
BRANCH   8   9
ATOM      9  C   UNL     1      13.967  19.789  44.160  1.00  0.00     0.281 C 
ATOM     10  C   UNL     1      17.292  18.261  44.416  1.00  0.00     0.041 C 
ATOM     11  C   UNL     1      15.913  18.724  44.886  1.00  0.00     0.150 C 
ATOM     12  C   UNL     1      16.034  19.612  46.151  1.00  0.00     0.174 C 
ATOM     13  O   UNL     1      15.306  19.455  43.832  1.00  0.00    -0.344 OA
ATOM     14  C   UNL     1      14.652  20.146  46.569  1.00  0.00     0.179 C 
ATOM     15  C   UNL     1      13.940  20.757  45.346  1.00  0.00     0.202 C 
BRANCH  12  16
ATOM     16  O   UNL     1      16.644  18.928  47.219  1.00  0.00    -0.388 OA
ATOM     17  H   UNL     1      17.626  18.996  47.086  1.00  0.00     0.211 HD
ENDBRANCH  12  16
BRANCH  14  18
ATOM     18  O   UNL     1      14.811  21.115  47.575  1.00  0.00    -0.387 OA
ATOM     19  H   UNL     1      15.235  20.659  48.350  1.00  0.00     0.211 HD
ENDBRANCH  14  18
BRANCH  15  20
ATOM     20  O   UNL     1      12.609  21.059  45.683  1.00  0.00    -0.385 OA
ATOM     21  H   UNL     1      12.345  21.843  45.124  1.00  0.00     0.211 HD
ENDBRANCH  15  20
ENDBRANCH   8   9
ENDBRANCH   7   8
ENDBRANCH   1   7
BRANCH   2  22
ATOM     22  O   UNL     1      12.348  21.284  40.596  1.00  0.00    -0.387 OA
ATOM     23  H   UNL     1      11.650  20.752  41.072  1.00  0.00     0.211 HD
ENDBRANCH   2  22
BRANCH   3  24
ATOM     24  O   UNL     1      12.334  23.259  38.704  1.00  0.00    -0.387 OA
ATOM     25  H   UNL     1      11.547  23.811  38.465  1.00  0.00     0.211 HD
ENDBRANCH   3  24
BRANCH   5  26
ATOM     26  O   UNL     1      15.935  23.946  41.881  1.00  0.00    -0.454 OA
BRANCH  26  27
ATOM     27  C   UNL     1      16.835  24.839  42.481  1.00  0.00     0.214 A 
ATOM     28  C   UNL     1      18.030  25.173  41.826  1.00  0.00     0.180 A 
ATOM     29  C   UNL     1      16.563  25.435  43.726  1.00  0.00     0.239 A 
ATOM     30  O   UNL     1      18.827  26.109  42.316  1.00  0.00    -0.452 OA
ATOM     31  C   UNL     1      17.378  26.504  44.178  1.00  0.00     0.111 A 
ATOM     32  O   UNL     1      15.642  24.963  44.445  1.00  0.00    -0.285 OA
ATOM     33  C   UNL     1      18.551  26.791  43.422  1.00  0.00     0.146 A 
ATOM     34  C   UNL     1      17.106  27.279  45.338  1.00  0.00     0.134 A 
ATOM     35  C   UNL     1      19.431  27.791  43.835  1.00  0.00     0.094 A 
ATOM     36  C   UNL     1      18.030  28.248  45.750  1.00  0.00     0.093 A 
ATOM     37  C   UNL     1      19.175  28.518  45.001  1.00  0.00     0.123 A 
BRANCH  28  38
ATOM     38  C   UNL     1      18.426  24.517  40.572  1.00  0.00     0.025 A 
ATOM     39  C   UNL     1      19.388  23.496  40.593  1.00  0.00     0.062 A 
ATOM     40  C   UNL     1      17.960  25.005  39.347  1.00  0.00     0.016 A 
ATOM     41  C   UNL     1      19.893  22.965  39.398  1.00  0.00     0.158 A 
ATOM     42  C   UNL     1      18.442  24.468  38.153  1.00  0.00     0.051 A 
ATOM     43  C   UNL     1      19.409  23.453  38.168  1.00  0.00     0.157 A 
BRANCH  41  44
ATOM     44  O   UNL     1      20.858  21.962  39.449  1.00  0.00    -0.504 OA
ATOM     45  H   UNL     1      21.795  22.147  39.798  1.00  0.00     0.293 HD
ENDBRANCH  41  44
BRANCH  43  46
ATOM     46  O   UNL     1      19.912  22.950  36.974  1.00  0.00    -0.504 OA
ATOM     47  H   UNL     1      20.241  23.549  36.225  1.00  0.00     0.293 HD
ENDBRANCH  43  46
ENDBRANCH  28  38
BRANCH  34  48
ATOM     48  O   UNL     1      15.936  27.170  46.084  1.00  0.00    -0.507 OA
ATOM     49  H   UNL     1      15.670  26.342  46.601  1.00  0.00     0.293 HD
ENDBRANCH  34  48
BRANCH  37  50
ATOM     50  O   UNL     1      20.042  29.528  45.412  1.00  0.00    -0.508 OA
ATOM     51  H   UNL     1      20.367  29.586  46.364  1.00  0.00     0.293 HD
ENDBRANCH  37  50
ENDBRANCH  26  27
ENDBRANCH   5  26
BRANCH   4  52
ATOM     52  O   UNL     1      14.708  24.682  39.106  1.00  0.00    -0.384 OA
ATOM     53  H   UNL     1      15.541  25.096  39.445  1.00  0.00     0.211 HD
ENDBRANCH   4  52
TORSDOF 16
ENDMDL
MODEL 2
REMARK VINA RESULT:    -7.093      2.636      7.240
REMARK INTER + INTRA:         -13.548
REMARK INTER:                 -11.916
REMARK INTRA:                  -1.632
REMARK UNBOUND:                -1.894
REMARK SMILES C[C@@H]1O[C@H](OC[C@H]2O[C@@H](Oc3c(-c4ccc(O)c(O)c4)oc4cc(O)cc(O)c4c3=O)[C@H](O)[C@@H](O)[C@H]2O)[C@@H](O)[C@H](O)[C@H]1O
REMARK SMILES IDX 7 1 36 2 34 3 32 4 9 5 8 6 6 7 5 8 4 9 1 10 2 11 42 12 3 13
REMARK SMILES IDX 40 14 38 15 43 16 41 18 39 20 37 22 35 24 10 26 11 27 12 28
REMARK SMILES IDX 30 29 21 30 29 31 31 32 22 33 27 34 23 35 26 36 24 37 13 38
REMARK SMILES IDX 20 39 14 40 18 41 15 42 16 43 19 44 17 46 28 48 25 50 33 52
REMARK H PARENT 43 17 41 19 39 21 37 23 35 25 19 45 17 47 28 49 25 51 33 53
REMARK Flexibility Score: inf
ROOT
ATOM      1  C   UNL     1      17.599  26.551  41.044  1.00  0.00     0.180 C 
ATOM      2  C   UNL     1      19.106  26.957  40.987  1.00  0.00     0.177 C 
ATOM      3  C   UNL     1      19.580  27.512  42.353  1.00  0.00     0.180 C 
ATOM      4  C   UNL     1      18.929  26.720  43.496  1.00  0.00     0.214 C 
ATOM      5  C   UNL     1      17.394  26.894  43.414  1.00  0.00     0.339 C 
ATOM      6  O   UNL     1      16.914  27.203  42.107  1.00  0.00    -0.332 OA
ENDROOT
BRANCH   1   7
ATOM      7  C   UNL     1      17.321  25.030  41.053  1.00  0.00     0.198 C 
BRANCH   7   8
ATOM      8  O   UNL     1      16.939  24.595  39.754  1.00  0.00    -0.347 OA
BRANCH   8   9
ATOM      9  C   UNL     1      18.038  24.231  38.935  1.00  0.00     0.281 C 
ATOM     10  C   UNL     1      20.897  22.110  39.823  1.00  0.00     0.041 C 
ATOM     11  C   UNL     1      19.998  22.964  38.928  1.00  0.00     0.150 C 
ATOM     12  C   UNL     1      19.594  22.182  37.651  1.00  0.00     0.174 C 
ATOM     13  O   UNL     1      18.841  23.321  39.669  1.00  0.00    -0.344 OA
ATOM     14  C   UNL     1      18.621  23.014  36.796  1.00  0.00     0.179 C 
ATOM     15  C   UNL     1      17.480  23.552  37.682  1.00  0.00     0.202 C 
BRANCH  12  16
ATOM     16  O   UNL     1      20.714  21.797  36.893  1.00  0.00    -0.388 OA
ATOM     17  H   UNL     1      20.983  20.894  37.207  1.00  0.00     0.211 HD
ENDBRANCH  12  16
BRANCH  14  18
ATOM     18  O   UNL     1      18.101  22.210  35.767  1.00  0.00    -0.387 OA
ATOM     19  H   UNL     1      17.242  21.836  36.098  1.00  0.00     0.211 HD
ENDBRANCH  14  18
BRANCH  15  20
ATOM     20  O   UNL     1      16.710  24.468  36.946  1.00  0.00    -0.385 OA
ATOM     21  H   UNL     1      16.229  25.035  37.613  1.00  0.00     0.211 HD
ENDBRANCH  15  20
ENDBRANCH   8   9
ENDBRANCH   7   8
ENDBRANCH   1   7
BRANCH   2  22
ATOM     22  O   UNL     1      19.901  25.869  40.575  1.00  0.00    -0.387 OA
ATOM     23  H   UNL     1      20.123  25.340  41.392  1.00  0.00     0.211 HD
ENDBRANCH   2  22
BRANCH   3  24
ATOM     24  O   UNL     1      20.981  27.525  42.465  1.00  0.00    -0.387 OA
ATOM     25  H   UNL     1      21.237  28.330  42.982  1.00  0.00     0.211 HD
ENDBRANCH   3  24
BRANCH   5  26
ATOM     26  O   UNL     1      16.721  25.750  43.962  1.00  0.00    -0.454 OA
BRANCH  26  27
ATOM     27  C   UNL     1      15.736  25.882  44.952  1.00  0.00     0.214 A 
ATOM     28  C   UNL     1      14.560  25.120  44.874  1.00  0.00     0.180 A 
ATOM     29  C   UNL     1      15.903  26.749  46.047  1.00  0.00     0.239 A 
ATOM     30  O   UNL     1      13.682  25.136  45.864  1.00  0.00    -0.452 OA
ATOM     31  C   UNL     1      15.001  26.673  47.138  1.00  0.00     0.111 A 
ATOM     32  O   UNL     1      16.811  27.621  46.007  1.00  0.00    -0.285 OA
ATOM     33  C   UNL     1      13.855  25.841  46.977  1.00  0.00     0.146 A 
ATOM     34  C   UNL     1      15.161  27.385  48.357  1.00  0.00     0.134 A 
ATOM     35  C   UNL     1      12.894  25.758  47.984  1.00  0.00     0.094 A 
ATOM     36  C   UNL     1      14.158  27.314  49.333  1.00  0.00     0.093 A 
ATOM     37  C   UNL     1      13.041  26.497  49.161  1.00  0.00     0.123 A 
BRANCH  28  38
ATOM     38  C   UNL     1      14.274  24.268  43.711  1.00  0.00     0.025 A 
ATOM     39  C   UNL     1      13.908  24.856  42.491  1.00  0.00     0.062 A 
ATOM     40  C   UNL     1      14.221  22.879  43.855  1.00  0.00     0.016 A 
ATOM     41  C   UNL     1      13.481  24.063  41.417  1.00  0.00     0.158 A 
ATOM     42  C   UNL     1      13.817  22.080  42.785  1.00  0.00     0.051 A 
ATOM     43  C   UNL     1      13.442  22.662  41.566  1.00  0.00     0.157 A 
BRANCH  41  44
ATOM     44  O   UNL     1      13.109  24.674  40.221  1.00  0.00    -0.504 OA
ATOM     45  H   UNL     1      12.957  25.678  40.165  1.00  0.00     0.293 HD
ENDBRANCH  41  44
BRANCH  43  46
ATOM     46  O   UNL     1      13.005  21.863  40.516  1.00  0.00    -0.504 OA
ATOM     47  H   UNL     1      12.037  21.582  40.411  1.00  0.00     0.293 HD
ENDBRANCH  43  46
ENDBRANCH  28  38
BRANCH  34  48
ATOM     48  O   UNL     1      16.293  28.129  48.674  1.00  0.00    -0.507 OA
ATOM     49  H   UNL     1      16.267  29.082  49.014  1.00  0.00     0.293 HD
ENDBRANCH  34  48
BRANCH  37  50
ATOM     50  O   UNL     1      12.092  26.408  50.178  1.00  0.00    -0.508 OA
ATOM     51  H   UNL     1      12.291  26.732  51.111  1.00  0.00     0.293 HD
ENDBRANCH  37  50
ENDBRANCH  26  27
ENDBRANCH   5  26
BRANCH   4  52
ATOM     52  O   UNL     1      19.378  27.196  44.734  1.00  0.00    -0.384 OA
ATOM     53  H   UNL     1      19.060  26.560  45.423  1.00  0.00     0.211 HD
ENDBRANCH   4  52
TORSDOF 16
ENDMDL
MODEL 3
REMARK VINA RESULT:    -7.057      2.069      3.136
REMARK INTER + INTRA:         -13.489
REMARK INTER:                 -10.932
REMARK INTRA:                  -2.556
REMARK UNBOUND:                -1.894
REMARK SMILES C[C@@H]1O[C@H](OC[C@H]2O[C@@H](Oc3c(-c4ccc(O)c(O)c4)oc4cc(O)cc(O)c4c3=O)[C@H](O)[C@@H](O)[C@H]2O)[C@@H](O)[C@H](O)[C@H]1O
REMARK SMILES IDX 7 1 36 2 34 3 32 4 9 5 8 6 6 7 5 8 4 9 1 10 2 11 42 12 3 13
REMARK SMILES IDX 40 14 38 15 43 16 41 18 39 20 37 22 35 24 10 26 11 27 12 28
REMARK SMILES IDX 30 29 21 30 29 31 31 32 22 33 27 34 23 35 26 36 24 37 13 38
REMARK SMILES IDX 20 39 14 40 18 41 15 42 16 43 19 44 17 46 28 48 25 50 33 52
REMARK H PARENT 43 17 41 19 39 21 37 23 35 25 19 45 17 47 28 49 25 51 33 53
REMARK Flexibility Score: inf
ROOT
ATOM      1  C   UNL     1      12.014  22.539  42.016  1.00  0.00     0.180 C 
ATOM      2  C   UNL     1      11.957  22.884  40.493  1.00  0.00     0.177 C 
ATOM      3  C   UNL     1      12.520  24.302  40.228  1.00  0.00     0.180 C 
ATOM      4  C   UNL     1      13.726  24.568  41.141  1.00  0.00     0.214 C 
ATOM      5  C   UNL     1      13.260  24.506  42.614  1.00  0.00     0.339 C 
ATOM      6  O   UNL     1      12.095  23.708  42.822  1.00  0.00    -0.332 OA
ENDROOT
BRANCH   1   7
ATOM      7  C   UNL     1      13.092  21.507  42.422  1.00  0.00     0.198 C 
BRANCH   7   8
ATOM      8  O   UNL     1      12.496  20.434  43.140  1.00  0.00    -0.347 OA
BRANCH   8   9
ATOM      9  C   UNL     1      13.264  20.004  44.252  1.00  0.00     0.281 C 
ATOM     10  C   UNL     1      16.753  18.871  44.271  1.00  0.00     0.041 C 
ATOM     11  C   UNL     1      15.394  19.262  44.852  1.00  0.00     0.150 C 
ATOM     12  C   UNL     1      15.558  20.343  45.952  1.00  0.00     0.174 C 
ATOM     13  O   UNL     1      14.584  19.758  43.796  1.00  0.00    -0.344 OA
ATOM     14  C   UNL     1      14.182  20.795  46.472  1.00  0.00     0.179 C 
ATOM     15  C   UNL     1      13.263  21.136  45.283  1.00  0.00     0.202 C 
BRANCH  12  16
ATOM     16  O   UNL     1      16.367  19.896  47.013  1.00  0.00    -0.388 OA
ATOM     17  H   UNL     1      16.578  18.942  46.838  1.00  0.00     0.211 HD
ENDBRANCH  12  16
BRANCH  14  18
ATOM     18  O   UNL     1      14.343  21.919  47.302  1.00  0.00    -0.387 OA
ATOM     19  H   UNL     1      15.319  22.025  47.457  1.00  0.00     0.211 HD
ENDBRANCH  14  18
BRANCH  15  20
ATOM     20  O   UNL     1      11.955  21.353  45.750  1.00  0.00    -0.385 OA
ATOM     21  H   UNL     1      11.961  22.239  46.210  1.00  0.00     0.211 HD
ENDBRANCH  15  20
ENDBRANCH   8   9
ENDBRANCH   7   8
ENDBRANCH   1   7
BRANCH   2  22
ATOM     22  O   UNL     1      12.640  21.913  39.735  1.00  0.00    -0.387 OA
ATOM     23  H   UNL     1      13.562  21.837  40.114  1.00  0.00     0.211 HD
ENDBRANCH   2  22
BRANCH   3  24
ATOM     24  O   UNL     1      12.843  24.501  38.874  1.00  0.00    -0.387 OA
ATOM     25  H   UNL     1      12.697  25.457  38.664  1.00  0.00     0.211 HD
ENDBRANCH   3  24
BRANCH   5  26
ATOM     26  O   UNL     1      14.334  24.094  43.472  1.00  0.00    -0.454 OA
BRANCH  26  27
ATOM     27  C   UNL     1      14.742  24.875  44.565  1.00  0.00     0.214 A 
ATOM     28  C   UNL     1      15.956  25.577  44.508  1.00  0.00     0.180 A 
ATOM     29  C   UNL     1      13.950  24.995  45.721  1.00  0.00     0.239 A 
ATOM     30  O   UNL     1      16.292  26.417  45.474  1.00  0.00    -0.452 OA
ATOM     31  C   UNL     1      14.280  25.974  46.692  1.00  0.00     0.111 A 
ATOM     32  O   UNL     1      13.002  24.186  45.904  1.00  0.00    -0.285 OA
ATOM     33  C   UNL     1      15.518  26.661  46.526  1.00  0.00     0.146 A 
ATOM     34  C   UNL     1      13.470  26.289  47.816  1.00  0.00     0.134 A 
ATOM     35  C   UNL     1      15.938  27.599  47.469  1.00  0.00     0.094 A 
ATOM     36  C   UNL     1      13.939  27.205  48.768  1.00  0.00     0.093 A 
ATOM     37  C   UNL     1      15.152  27.869  48.593  1.00  0.00     0.123 A 
BRANCH  28  38
ATOM     38  C   UNL     1      16.879  25.422  43.375  1.00  0.00     0.025 A 
ATOM     39  C   UNL     1      17.475  26.556  42.802  1.00  0.00     0.062 A 
ATOM     40  C   UNL     1      17.048  24.171  42.775  1.00  0.00     0.016 A 
ATOM     41  C   UNL     1      18.232  26.447  41.628  1.00  0.00     0.158 A 
ATOM     42  C   UNL     1      17.818  24.050  41.618  1.00  0.00     0.051 A 
ATOM     43  C   UNL     1      18.409  25.180  41.035  1.00  0.00     0.157 A 
BRANCH  41  44
ATOM     44  O   UNL     1      18.800  27.591  41.072  1.00  0.00    -0.504 OA
ATOM     45  H   UNL     1      19.005  27.651  40.078  1.00  0.00     0.293 HD
ENDBRANCH  41  44
BRANCH  43  46
ATOM     46  O   UNL     1      19.143  25.058  39.862  1.00  0.00    -0.504 OA
ATOM     47  H   UNL     1      18.858  25.494  38.992  1.00  0.00     0.293 HD
ENDBRANCH  43  46
ENDBRANCH  28  38
BRANCH  34  48
ATOM     48  O   UNL     1      12.193  25.773  48.017  1.00  0.00    -0.507 OA
ATOM     49  H   UNL     1      12.006  24.893  48.479  1.00  0.00     0.293 HD
ENDBRANCH  34  48
BRANCH  37  50
ATOM     50  O   UNL     1      15.559  28.814  49.533  1.00  0.00    -0.508 OA
ATOM     51  H   UNL     1      15.528  29.801  49.331  1.00  0.00     0.293 HD
ENDBRANCH  37  50
ENDBRANCH  26  27
ENDBRANCH   5  26
BRANCH   4  52
ATOM     52  O   UNL     1      14.260  25.836  40.883  1.00  0.00    -0.384 OA
ATOM     53  H   UNL     1      14.166  25.999  39.911  1.00  0.00     0.211 HD
ENDBRANCH   4  52
TORSDOF 16
ENDMDL
MODEL 4
REMARK VINA RESULT:    -6.950      2.685      7.444
REMARK INTER + INTRA:         -13.314
REMARK INTER:                 -10.777
REMARK INTRA:                  -2.537
REMARK UNBOUND:                -1.894
REMARK SMILES C[C@@H]1O[C@H](OC[C@H]2O[C@@H](Oc3c(-c4ccc(O)c(O)c4)oc4cc(O)cc(O)c4c3=O)[C@H](O)[C@@H](O)[C@H]2O)[C@@H](O)[C@H](O)[C@H]1O
REMARK SMILES IDX 7 1 36 2 34 3 32 4 9 5 8 6 6 7 5 8 4 9 1 10 2 11 42 12 3 13
REMARK SMILES IDX 40 14 38 15 43 16 41 18 39 20 37 22 35 24 10 26 11 27 12 28
REMARK SMILES IDX 30 29 21 30 29 31 31 32 22 33 27 34 23 35 26 36 24 37 13 38
REMARK SMILES IDX 20 39 14 40 18 41 15 42 16 43 19 44 17 46 28 48 25 50 33 52
REMARK H PARENT 43 17 41 19 39 21 37 23 35 25 19 45 17 47 28 49 25 51 33 53
REMARK Flexibility Score: inf
ROOT
ATOM      1  C   UNL     1      17.408  26.318  41.476  1.00  0.00     0.180 C 
ATOM      2  C   UNL     1      18.881  26.752  41.191  1.00  0.00     0.177 C 
ATOM      3  C   UNL     1      19.479  27.504  42.405  1.00  0.00     0.180 C 
ATOM      4  C   UNL     1      18.994  26.862  43.712  1.00  0.00     0.214 C 
ATOM      5  C   UNL     1      17.453  26.982  43.786  1.00  0.00     0.339 C 
ATOM      6  O   UNL     1      16.819  27.093  42.513  1.00  0.00    -0.332 OA
ENDROOT
BRANCH   1   7
ATOM      7  C   UNL     1      17.197  24.806  41.722  1.00  0.00     0.198 C 
BRANCH   7   8
ATOM      8  O   UNL     1      16.534  24.217  40.611  1.00  0.00    -0.347 OA
BRANCH   8   9
ATOM      9  C   UNL     1      16.813  24.864  39.380  1.00  0.00     0.281 C 
ATOM     10  C   UNL     1      19.380  23.984  36.911  1.00  0.00     0.041 C 
ATOM     11  C   UNL     1      18.192  24.745  37.501  1.00  0.00     0.150 C 
ATOM     12  C   UNL     1      16.997  24.750  36.513  1.00  0.00     0.174 C 
ATOM     13  O   UNL     1      17.819  24.115  38.717  1.00  0.00    -0.344 OA
ATOM     14  C   UNL     1      15.777  25.443  37.146  1.00  0.00     0.179 C 
ATOM     15  C   UNL     1      15.524  24.866  38.553  1.00  0.00     0.202 C 
BRANCH  12  16
ATOM     16  O   UNL     1      17.330  25.355  35.287  1.00  0.00    -0.388 OA
ATOM     17  H   UNL     1      16.952  24.784  34.568  1.00  0.00     0.211 HD
ENDBRANCH  12  16
BRANCH  14  18
ATOM     18  O   UNL     1      14.651  25.244  36.328  1.00  0.00    -0.387 OA
ATOM     19  H   UNL     1      14.521  24.261  36.251  1.00  0.00     0.211 HD
ENDBRANCH  14  18
BRANCH  15  20
ATOM     20  O   UNL     1      14.543  25.634  39.203  1.00  0.00    -0.385 OA
ATOM     21  H   UNL     1      13.703  25.529  38.673  1.00  0.00     0.211 HD
ENDBRANCH  15  20
ENDBRANCH   8   9
ENDBRANCH   7   8
ENDBRANCH   1   7
BRANCH   2  22
ATOM     22  O   UNL     1      19.671  25.639  40.840  1.00  0.00    -0.387 OA
ATOM     23  H   UNL     1      19.204  25.171  40.091  1.00  0.00     0.211 HD
ENDBRANCH   2  22
BRANCH   3  24
ATOM     24  O   UNL     1      20.882  27.569  42.351  1.00  0.00    -0.387 OA
ATOM     25  H   UNL     1      21.226  26.647  42.238  1.00  0.00     0.211 HD
ENDBRANCH   3  24
BRANCH   5  26
ATOM     26  O   UNL     1      16.894  25.908  44.557  1.00  0.00    -0.454 OA
BRANCH  26  27
ATOM     27  C   UNL     1      15.851  26.125  45.470  1.00  0.00     0.214 A 
ATOM     28  C   UNL     1      14.670  25.373  45.374  1.00  0.00     0.180 A 
ATOM     29  C   UNL     1      15.963  27.069  46.506  1.00  0.00     0.239 A 
ATOM     30  O   UNL     1      13.732  25.473  46.301  1.00  0.00    -0.452 OA
ATOM     31  C   UNL     1      14.993  27.086  47.540  1.00  0.00     0.111 A 
ATOM     32  O   UNL     1      16.886  27.926  46.460  1.00  0.00    -0.285 OA
ATOM     33  C   UNL     1      13.846  26.258  47.368  1.00  0.00     0.146 A 
ATOM     34  C   UNL     1      15.088  27.885  48.711  1.00  0.00     0.134 A 
ATOM     35  C   UNL     1      12.823  26.261  48.315  1.00  0.00     0.094 A 
ATOM     36  C   UNL     1      14.025  27.899  49.623  1.00  0.00     0.093 A 
ATOM     37  C   UNL     1      12.908  27.084  49.441  1.00  0.00     0.123 A 
BRANCH  28  38
ATOM     38  C   UNL     1      14.444  24.440  44.261  1.00  0.00     0.025 A 
ATOM     39  C   UNL     1      13.761  24.875  43.115  1.00  0.00     0.062 A 
ATOM     40  C   UNL     1      14.773  23.088  44.401  1.00  0.00     0.016 A 
ATOM     41  C   UNL     1      13.399  23.966  42.112  1.00  0.00     0.158 A 
ATOM     42  C   UNL     1      14.433  22.180  43.398  1.00  0.00     0.051 A 
ATOM     43  C   UNL     1      13.744  22.607  42.254  1.00  0.00     0.157 A 
BRANCH  41  44
ATOM     44  O   UNL     1      12.709  24.423  40.991  1.00  0.00    -0.504 OA
ATOM     45  H   UNL     1      12.230  23.780  40.365  1.00  0.00     0.293 HD
ENDBRANCH  41  44
BRANCH  43  46
ATOM     46  O   UNL     1      13.377  21.690  41.277  1.00  0.00    -0.504 OA
ATOM     47  H   UNL     1      13.870  21.605  40.396  1.00  0.00     0.293 HD
ENDBRANCH  43  46
ENDBRANCH  28  38
BRANCH  34  48
ATOM     48  O   UNL     1      16.211  28.638  49.044  1.00  0.00    -0.507 OA
ATOM     49  H   UNL     1      17.157  28.281  49.021  1.00  0.00     0.293 HD
ENDBRANCH  34  48
BRANCH  37  50
ATOM     50  O   UNL     1      11.896  27.083  50.400  1.00  0.00    -0.508 OA
ATOM     51  H   UNL     1      11.160  27.771  50.387  1.00  0.00     0.293 HD
ENDBRANCH  37  50
ENDBRANCH  26  27
ENDBRANCH   5  26
BRANCH   4  52
ATOM     52  O   UNL     1      19.557  27.517  44.814  1.00  0.00    -0.384 OA
ATOM     53  H   UNL     1      18.821  27.699  45.451  1.00  0.00     0.211 HD
ENDBRANCH   4  52
TORSDOF 16
ENDMDL
MODEL 5
REMARK VINA RESULT:    -6.934      1.979      7.384
REMARK INTER + INTRA:         -13.287
REMARK INTER:                 -10.946
REMARK INTRA:                  -2.341
REMARK UNBOUND:                -1.894
REMARK SMILES C[C@@H]1O[C@H](OC[C@H]2O[C@@H](Oc3c(-c4ccc(O)c(O)c4)oc4cc(O)cc(O)c4c3=O)[C@H](O)[C@@H](O)[C@H]2O)[C@@H](O)[C@H](O)[C@H]1O
REMARK SMILES IDX 7 1 36 2 34 3 32 4 9 5 8 6 6 7 5 8 4 9 1 10 2 11 42 12 3 13
REMARK SMILES IDX 40 14 38 15 43 16 41 18 39 20 37 22 35 24 10 26 11 27 12 28
REMARK SMILES IDX 30 29 21 30 29 31 31 32 22 33 27 34 23 35 26 36 24 37 13 38
REMARK SMILES IDX 20 39 14 40 18 41 15 42 16 43 19 44 17 46 28 48 25 50 33 52
REMARK H PARENT 43 17 41 19 39 21 37 23 35 25 19 45 17 47 28 49 25 51 33 53
REMARK Flexibility Score: inf
ROOT
ATOM      1  C   UNL     1      19.463  25.119  39.090  1.00  0.00     0.180 C 
ATOM      2  C   UNL     1      19.375  25.411  37.558  1.00  0.00     0.177 C 
ATOM      3  C   UNL     1      18.135  24.723  36.936  1.00  0.00     0.180 C 
ATOM      4  C   UNL     1      16.950  24.794  37.911  1.00  0.00     0.214 C 
ATOM      5  C   UNL     1      17.322  24.033  39.206  1.00  0.00     0.339 C 
ATOM      6  O   UNL     1      18.725  23.958  39.452  1.00  0.00    -0.332 OA
ENDROOT
BRANCH   1   7
ATOM      7  C   UNL     1      19.116  26.310  40.014  1.00  0.00     0.198 C 
BRANCH   7   8
ATOM      8  O   UNL     1      19.349  25.959  41.372  1.00  0.00    -0.347 OA
BRANCH   8   9
ATOM      9  C   UNL     1      18.714  26.829  42.295  1.00  0.00     0.281 C 
ATOM     10  C   UNL     1      16.090  26.000  44.723  1.00  0.00     0.041 C 
ATOM     11  C   UNL     1      17.122  26.869  44.002  1.00  0.00     0.150 C 
ATOM     12  C   UNL     1      18.096  27.521  45.017  1.00  0.00     0.174 C 
ATOM     13  O   UNL     1      17.840  26.047  43.094  1.00  0.00    -0.344 OA
ATOM     14  C   UNL     1      19.183  28.324  44.281  1.00  0.00     0.179 C 
ATOM     15  C   UNL     1      19.804  27.458  43.167  1.00  0.00     0.202 C 
BRANCH  12  16
ATOM     16  O   UNL     1      17.422  28.335  45.946  1.00  0.00    -0.388 OA
ATOM     17  H   UNL     1      17.364  29.243  45.550  1.00  0.00     0.211 HD
ENDBRANCH  12  16
BRANCH  14  18
ATOM     18  O   UNL     1      20.172  28.720  45.198  1.00  0.00    -0.387 OA
ATOM     19  H   UNL     1      19.932  28.315  46.074  1.00  0.00     0.211 HD
ENDBRANCH  14  18
BRANCH  15  20
ATOM     20  O   UNL     1      20.647  28.254  42.373  1.00  0.00    -0.385 OA
ATOM     21  H   UNL     1      20.053  28.812  41.797  1.00  0.00     0.211 HD
ENDBRANCH  15  20
ENDBRANCH   8   9
ENDBRANCH   7   8
ENDBRANCH   1   7
BRANCH   2  22
ATOM     22  O   UNL     1      19.365  26.799  37.314  1.00  0.00    -0.387 OA
ATOM     23  H   UNL     1      18.496  27.014  36.870  1.00  0.00     0.211 HD
ENDBRANCH   2  22
BRANCH   3  24
ATOM     24  O   UNL     1      17.803  25.259  35.680  1.00  0.00    -0.387 OA
ATOM     25  H   UNL     1      18.137  24.636  34.986  1.00  0.00     0.211 HD
ENDBRANCH   3  24
BRANCH   5  26
ATOM     26  O   UNL     1      16.621  24.575  40.335  1.00  0.00    -0.454 OA
BRANCH  26  27
ATOM     27  C   UNL     1      15.934  23.750  41.238  1.00  0.00     0.214 A 
ATOM     28  C   UNL     1      14.530  23.720  41.228  1.00  0.00     0.180 A 
ATOM     29  C   UNL     1      16.617  22.924  42.148  1.00  0.00     0.239 A 
ATOM     30  O   UNL     1      13.871  22.854  41.981  1.00  0.00    -0.452 OA
ATOM     31  C   UNL     1      15.896  21.937  42.869  1.00  0.00     0.111 A 
ATOM     32  O   UNL     1      17.844  23.120  42.356  1.00  0.00    -0.285 OA
ATOM     33  C   UNL     1      14.475  21.966  42.764  1.00  0.00     0.146 A 
ATOM     34  C   UNL     1      16.500  20.951  43.694  1.00  0.00     0.134 A 
ATOM     35  C   UNL     1      13.695  21.064  43.486  1.00  0.00     0.094 A 
ATOM     36  C   UNL     1      15.688  20.086  44.439  1.00  0.00     0.093 A 
ATOM     37  C   UNL     1      14.299  20.126  44.328  1.00  0.00     0.123 A 
BRANCH  28  38
ATOM     38  C   UNL     1      13.750  24.626  40.374  1.00  0.00     0.025 A 
ATOM     39  C   UNL     1      13.109  24.125  39.230  1.00  0.00     0.062 A 
ATOM     40  C   UNL     1      13.768  26.003  40.612  1.00  0.00     0.016 A 
ATOM     41  C   UNL     1      12.492  24.994  38.320  1.00  0.00     0.158 A 
ATOM     42  C   UNL     1      13.139  26.874  39.722  1.00  0.00     0.051 A 
ATOM     43  C   UNL     1      12.503  26.380  38.573  1.00  0.00     0.157 A 
BRANCH  41  44
ATOM     44  O   UNL     1      11.875  24.471  37.186  1.00  0.00    -0.504 OA
ATOM     45  H   UNL     1      12.321  24.516  36.273  1.00  0.00     0.293 HD
ENDBRANCH  41  44
BRANCH  43  46
ATOM     46  O   UNL     1      11.912  27.257  37.672  1.00  0.00    -0.504 OA
ATOM     47  H   UNL     1      11.580  26.961  36.761  1.00  0.00     0.293 HD
ENDBRANCH  43  46
ENDBRANCH  28  38
BRANCH  34  48
ATOM     48  O   UNL     1      17.875  20.751  43.778  1.00  0.00    -0.507 OA
ATOM     49  H   UNL     1      18.335  20.314  44.566  1.00  0.00     0.293 HD
ENDBRANCH  34  48
BRANCH  37  50
ATOM     50  O   UNL     1      13.527  19.211  45.042  1.00  0.00    -0.508 OA
ATOM     51  H   UNL     1      12.749  19.510  45.607  1.00  0.00     0.293 HD
ENDBRANCH  37  50
ENDBRANCH  26  27
ENDBRANCH   5  26
BRANCH   4  52
ATOM     52  O   UNL     1      15.817  24.202  37.342  1.00  0.00    -0.384 OA
ATOM     53  H   UNL     1      15.131  24.911  37.255  1.00  0.00     0.211 HD
ENDBRANCH   4  52
TORSDOF 16
ENDMDL
MODEL 6
REMARK VINA RESULT:    -6.789      3.306      6.918
REMARK INTER + INTRA:         -13.049
REMARK INTER:                 -10.985
REMARK INTRA:                  -2.063
REMARK UNBOUND:                -1.894
REMARK SMILES C[C@@H]1O[C@H](OC[C@H]2O[C@@H](Oc3c(-c4ccc(O)c(O)c4)oc4cc(O)cc(O)c4c3=O)[C@H](O)[C@@H](O)[C@H]2O)[C@@H](O)[C@H](O)[C@H]1O
REMARK SMILES IDX 7 1 36 2 34 3 32 4 9 5 8 6 6 7 5 8 4 9 1 10 2 11 42 12 3 13
REMARK SMILES IDX 40 14 38 15 43 16 41 18 39 20 37 22 35 24 10 26 11 27 12 28
REMARK SMILES IDX 30 29 21 30 29 31 31 32 22 33 27 34 23 35 26 36 24 37 13 38
REMARK SMILES IDX 20 39 14 40 18 41 15 42 16 43 19 44 17 46 28 48 25 50 33 52
REMARK H PARENT 43 17 41 19 39 21 37 23 35 25 19 45 17 47 28 49 25 51 33 53
REMARK Flexibility Score: inf
ROOT
ATOM      1  C   UNL     1      18.511  23.950  36.604  1.00  0.00     0.180 C 
ATOM      2  C   UNL     1      19.386  22.656  36.607  1.00  0.00     0.177 C 
ATOM      3  C   UNL     1      20.176  22.528  37.932  1.00  0.00     0.180 C 
ATOM      4  C   UNL     1      19.310  23.001  39.108  1.00  0.00     0.214 C 
ATOM      5  C   UNL     1      18.959  24.493  38.902  1.00  0.00     0.339 C 
ATOM      6  O   UNL     1      18.984  24.912  37.538  1.00  0.00    -0.332 OA
ENDROOT
BRANCH   1   7
ATOM      7  C   UNL     1      16.989  23.722  36.761  1.00  0.00     0.198 C 
BRANCH   7   8
ATOM      8  O   UNL     1      16.351  23.790  35.493  1.00  0.00    -0.347 OA
BRANCH   8   9
ATOM      9  C   UNL     1      15.424  22.739  35.271  1.00  0.00     0.281 C 
ATOM     10  C   UNL     1      15.679  19.250  36.375  1.00  0.00     0.041 C 
ATOM     11  C   UNL     1      15.043  20.483  35.733  1.00  0.00     0.150 C 
ATOM     12  C   UNL     1      13.639  20.752  36.334  1.00  0.00     0.174 C 
ATOM     13  O   UNL     1      15.895  21.595  35.965  1.00  0.00    -0.344 OA
ATOM     14  C   UNL     1      13.040  22.043  35.747  1.00  0.00     0.179 C 
ATOM     15  C   UNL     1      14.073  23.183  35.838  1.00  0.00     0.202 C 
BRANCH  12  16
ATOM     16  O   UNL     1      12.766  19.666  36.137  1.00  0.00    -0.388 OA
ATOM     17  H   UNL     1      12.156  19.637  36.920  1.00  0.00     0.211 HD
ENDBRANCH  12  16
BRANCH  14  18
ATOM     18  O   UNL     1      11.876  22.382  36.458  1.00  0.00    -0.387 OA
ATOM     19  H   UNL     1      11.104  22.077  35.911  1.00  0.00     0.211 HD
ENDBRANCH  14  18
BRANCH  15  20
ATOM     20  O   UNL     1      13.601  24.298  35.125  1.00  0.00    -0.385 OA
ATOM     21  H   UNL     1      12.606  24.225  35.109  1.00  0.00     0.211 HD
ENDBRANCH  15  20
ENDBRANCH   8   9
ENDBRANCH   7   8
ENDBRANCH   1   7
BRANCH   2  22
ATOM     22  O   UNL     1      18.593  21.515  36.373  1.00  0.00    -0.387 OA
ATOM     23  H   UNL     1      19.197  20.804  36.017  1.00  0.00     0.211 HD
ENDBRANCH   2  22
BRANCH   3  24
ATOM     24  O   UNL     1      20.660  21.225  38.139  1.00  0.00    -0.387 OA
ATOM     25  H   UNL     1      21.517  21.137  37.649  1.00  0.00     0.211 HD
ENDBRANCH   3  24
BRANCH   5  26
ATOM     26  O   UNL     1      17.706  24.814  39.524  1.00  0.00    -0.454 OA
BRANCH  26  27
ATOM     27  C   UNL     1      17.638  25.645  40.653  1.00  0.00     0.214 A 
ATOM     28  C   UNL     1      16.415  25.820  41.319  1.00  0.00     0.180 A 
ATOM     29  C   UNL     1      18.777  26.297  41.158  1.00  0.00     0.239 A 
ATOM     30  O   UNL     1      16.360  26.494  42.456  1.00  0.00    -0.452 OA
ATOM     31  C   UNL     1      18.713  26.926  42.427  1.00  0.00     0.111 A 
ATOM     32  O   UNL     1      19.813  26.367  40.444  1.00  0.00    -0.285 OA
ATOM     33  C   UNL     1      17.430  27.022  43.040  1.00  0.00     0.146 A 
ATOM     34  C   UNL     1      19.835  27.478  43.102  1.00  0.00     0.134 A 
ATOM     35  C   UNL     1      17.278  27.675  44.263  1.00  0.00     0.094 A 
ATOM     36  C   UNL     1      19.644  28.165  44.308  1.00  0.00     0.093 A 
ATOM     37  C   UNL     1      18.382  28.251  44.896  1.00  0.00     0.123 A 
BRANCH  28  38
ATOM     38  C   UNL     1      15.167  25.250  40.793  1.00  0.00     0.025 A 
ATOM     39  C   UNL     1      14.649  24.072  41.353  1.00  0.00     0.062 A 
ATOM     40  C   UNL     1      14.578  25.790  39.646  1.00  0.00     0.016 A 
ATOM     41  C   UNL     1      13.550  23.427  40.769  1.00  0.00     0.158 A 
ATOM     42  C   UNL     1      13.471  25.165  39.069  1.00  0.00     0.051 A 
ATOM     43  C   UNL     1      12.954  23.984  39.620  1.00  0.00     0.157 A 
BRANCH  41  44
ATOM     44  O   UNL     1      13.065  22.251  41.338  1.00  0.00    -0.504 OA
ATOM     45  H   UNL     1      13.362  21.339  41.000  1.00  0.00     0.293 HD
ENDBRANCH  41  44
BRANCH  43  46
ATOM     46  O   UNL     1      11.875  23.347  39.018  1.00  0.00    -0.504 OA
ATOM     47  H   UNL     1      11.410  23.720  38.198  1.00  0.00     0.293 HD
ENDBRANCH  43  46
ENDBRANCH  28  38
BRANCH  34  48
ATOM     48  O   UNL     1      21.148  27.340  42.660  1.00  0.00    -0.507 OA
ATOM     49  H   UNL     1      21.597  27.976  42.014  1.00  0.00     0.293 HD
ENDBRANCH  34  48
BRANCH  37  50
ATOM     50  O   UNL     1      18.241  28.894  46.125  1.00  0.00    -0.508 OA
ATOM     51  H   UNL     1      17.370  29.322  46.396  1.00  0.00     0.293 HD
ENDBRANCH  37  50
ENDBRANCH  26  27
ENDBRANCH   5  26
BRANCH   4  52
ATOM     52  O   UNL     1      20.007  22.858  40.314  1.00  0.00    -0.384 OA
ATOM     53  H   UNL     1      19.554  23.430  40.982  1.00  0.00     0.211 HD
ENDBRANCH   4  52
TORSDOF 16
ENDMDL
MODEL 7
REMARK VINA RESULT:    -6.498      1.803      7.852
REMARK INTER + INTRA:         -12.571
REMARK INTER:                 -10.641
REMARK INTRA:                  -1.929
REMARK UNBOUND:                -1.894
REMARK SMILES C[C@@H]1O[C@H](OC[C@H]2O[C@@H](Oc3c(-c4ccc(O)c(O)c4)oc4cc(O)cc(O)c4c3=O)[C@H](O)[C@@H](O)[C@H]2O)[C@@H](O)[C@H](O)[C@H]1O
REMARK SMILES IDX 7 1 36 2 34 3 32 4 9 5 8 6 6 7 5 8 4 9 1 10 2 11 42 12 3 13
REMARK SMILES IDX 40 14 38 15 43 16 41 18 39 20 37 22 35 24 10 26 11 27 12 28
REMARK SMILES IDX 30 29 21 30 29 31 31 32 22 33 27 34 23 35 26 36 24 37 13 38
REMARK SMILES IDX 20 39 14 40 18 41 15 42 16 43 19 44 17 46 28 48 25 50 33 52
REMARK H PARENT 43 17 41 19 39 21 37 23 35 25 19 45 17 47 28 49 25 51 33 53
REMARK Flexibility Score: inf
ROOT
ATOM      1  C   UNL     1      17.505  26.619  41.690  1.00  0.00     0.180 C 
ATOM      2  C   UNL     1      18.084  27.351  42.943  1.00  0.00     0.177 C 
ATOM      3  C   UNL     1      17.207  27.084  44.191  1.00  0.00     0.180 C 
ATOM      4  C   UNL     1      16.705  25.633  44.179  1.00  0.00     0.214 C 
ATOM      5  C   UNL     1      15.828  25.417  42.923  1.00  0.00     0.339 C 
ATOM      6  O   UNL     1      16.127  26.306  41.848  1.00  0.00    -0.332 OA
ENDROOT
BRANCH   1   7
ATOM      7  C   UNL     1      18.306  25.383  41.215  1.00  0.00     0.198 C 
BRANCH   7   8
ATOM      8  O   UNL     1      17.807  24.928  39.964  1.00  0.00    -0.347 OA
BRANCH   8   9
ATOM      9  C   UNL     1      18.793  24.309  39.155  1.00  0.00     0.281 C 
ATOM     10  C   UNL     1      21.139  21.654  40.109  1.00  0.00     0.041 C 
ATOM     11  C   UNL     1      20.435  22.650  39.187  1.00  0.00     0.150 C 
ATOM     12  C   UNL     1      19.859  21.931  37.940  1.00  0.00     0.174 C 
ATOM     13  O   UNL     1      19.390  23.273  39.918  1.00  0.00    -0.344 OA
ATOM     14  C   UNL     1      19.078  22.923  37.059  1.00  0.00     0.179 C 
ATOM     15  C   UNL     1      18.089  23.723  37.928  1.00  0.00     0.202 C 
BRANCH  12  16
ATOM     16  O   UNL     1      20.862  21.288  37.192  1.00  0.00    -0.388 OA
ATOM     17  H   UNL     1      21.310  21.984  36.644  1.00  0.00     0.211 HD
ENDBRANCH  12  16
BRANCH  14  18
ATOM     18  O   UNL     1      18.386  22.215  36.060  1.00  0.00    -0.387 OA
ATOM     19  H   UNL     1      17.630  22.790  35.770  1.00  0.00     0.211 HD
ENDBRANCH  14  18
BRANCH  15  20
ATOM     20  O   UNL     1      17.526  24.759  37.163  1.00  0.00    -0.385 OA
ATOM     21  H   UNL     1      17.049  25.358  37.803  1.00  0.00     0.211 HD
ENDBRANCH  15  20
ENDBRANCH   8   9
ENDBRANCH   7   8
ENDBRANCH   1   7
BRANCH   2  22
ATOM     22  O   UNL     1      19.422  26.974  43.168  1.00  0.00    -0.387 OA
ATOM     23  H   UNL     1      19.822  27.657  43.778  1.00  0.00     0.211 HD
ENDBRANCH   2  22
BRANCH   3  24
ATOM     24  O   UNL     1      17.879  27.389  45.387  1.00  0.00    -0.387 OA
ATOM     25  H   UNL     1      18.184  28.329  45.333  1.00  0.00     0.211 HD
ENDBRANCH   3  24
BRANCH   5  26
ATOM     26  O   UNL     1      15.875  24.047  42.497  1.00  0.00    -0.454 OA
BRANCH  26  27
ATOM     27  C   UNL     1      15.024  23.077  43.049  1.00  0.00     0.214 A 
ATOM     28  C   UNL     1      13.698  22.974  42.602  1.00  0.00     0.180 A 
ATOM     29  C   UNL     1      15.472  22.178  44.034  1.00  0.00     0.239 A 
ATOM     30  O   UNL     1      12.923  21.986  43.017  1.00  0.00    -0.452 OA
ATOM     31  C   UNL     1      14.660  21.070  44.386  1.00  0.00     0.111 A 
ATOM     32  O   UNL     1      16.557  22.411  44.631  1.00  0.00    -0.285 OA
ATOM     33  C   UNL     1      13.340  21.037  43.850  1.00  0.00     0.146 A 
ATOM     34  C   UNL     1      15.073  20.019  45.248  1.00  0.00     0.134 A 
ATOM     35  C   UNL     1      12.463  20.009  44.194  1.00  0.00     0.094 A 
ATOM     36  C   UNL     1      14.156  19.024  45.608  1.00  0.00     0.093 A 
ATOM     37  C   UNL     1      12.867  19.004  45.076  1.00  0.00     0.123 A 
BRANCH  28  38
ATOM     38  C   UNL     1      13.134  23.941  41.649  1.00  0.00     0.025 A 
ATOM     39  C   UNL     1      13.551  23.922  40.309  1.00  0.00     0.062 A 
ATOM     40  C   UNL     1      12.300  24.967  42.102  1.00  0.00     0.016 A 
ATOM     41  C   UNL     1      13.146  24.929  39.422  1.00  0.00     0.158 A 
ATOM     42  C   UNL     1      11.875  25.962  41.221  1.00  0.00     0.051 A 
ATOM     43  C   UNL     1      12.295  25.954  39.883  1.00  0.00     0.157 A 
BRANCH  41  44
ATOM     44  O   UNL     1      13.587  24.894  38.101  1.00  0.00    -0.504 OA
ATOM     45  H   UNL     1      14.444  24.411  37.842  1.00  0.00     0.293 HD
ENDBRANCH  41  44
BRANCH  43  46
ATOM     46  O   UNL     1      11.898  26.968  39.020  1.00  0.00    -0.504 OA
ATOM     47  H   UNL     1      12.494  27.317  38.278  1.00  0.00     0.293 HD
ENDBRANCH  43  46
ENDBRANCH  28  38
BRANCH  34  48
ATOM     48  O   UNL     1      16.370  19.883  45.733  1.00  0.00    -0.507 OA
ATOM     49  H   UNL     1      17.055  20.628  45.734  1.00  0.00     0.293 HD
ENDBRANCH  34  48
BRANCH  37  50
ATOM     50  O   UNL     1      12.001  17.966  45.414  1.00  0.00    -0.508 OA
ATOM     51  H   UNL     1      12.275  17.001  45.319  1.00  0.00     0.293 HD
ENDBRANCH  37  50
ENDBRANCH  26  27
ENDBRANCH   5  26
BRANCH   4  52
ATOM     52  O   UNL     1      15.938  25.375  45.322  1.00  0.00    -0.384 OA
ATOM     53  H   UNL     1      15.168  24.822  45.037  1.00  0.00     0.211 HD
ENDBRANCH   4  52
TORSDOF 16
ENDMDL
MODEL 8
REMARK VINA RESULT:    -6.465      1.258      2.104
REMARK INTER + INTRA:         -12.517
REMARK INTER:                 -10.889
REMARK INTRA:                  -1.628
REMARK UNBOUND:                -1.894
REMARK SMILES C[C@@H]1O[C@H](OC[C@H]2O[C@@H](Oc3c(-c4ccc(O)c(O)c4)oc4cc(O)cc(O)c4c3=O)[C@H](O)[C@@H](O)[C@H]2O)[C@@H](O)[C@H](O)[C@H]1O
REMARK SMILES IDX 7 1 36 2 34 3 32 4 9 5 8 6 6 7 5 8 4 9 1 10 2 11 42 12 3 13
REMARK SMILES IDX 40 14 38 15 43 16 41 18 39 20 37 22 35 24 10 26 11 27 12 28
REMARK SMILES IDX 30 29 21 30 29 31 31 32 22 33 27 34 23 35 26 36 24 37 13 38
REMARK SMILES IDX 20 39 14 40 18 41 15 42 16 43 19 44 17 46 28 48 25 50 33 52
REMARK H PARENT 43 17 41 19 39 21 37 23 35 25 19 45 17 47 28 49 25 51 33 53
REMARK Flexibility Score: inf
ROOT
ATOM      1  C   UNL     1      13.325  23.568  41.878  1.00  0.00     0.180 C 
ATOM      2  C   UNL     1      12.581  23.344  40.523  1.00  0.00     0.177 C 
ATOM      3  C   UNL     1      13.198  24.218  39.403  1.00  0.00     0.180 C 
ATOM      4  C   UNL     1      14.723  24.279  39.564  1.00  0.00     0.214 C 
ATOM      5  C   UNL     1      15.057  24.936  40.924  1.00  0.00     0.339 C 
ATOM      6  O   UNL     1      14.024  24.807  41.900  1.00  0.00    -0.332 OA
ENDROOT
BRANCH   1   7
ATOM      7  C   UNL     1      14.238  22.406  42.333  1.00  0.00     0.198 C 
BRANCH   7   8
ATOM      8  O   UNL     1      14.820  22.706  43.596  1.00  0.00    -0.347 OA
BRANCH   8   9
ATOM      9  C   UNL     1      14.885  21.589  44.467  1.00  0.00     0.281 C 
ATOM     10  C   UNL     1      12.221  19.189  45.245  1.00  0.00     0.041 C 
ATOM     11  C   UNL     1      13.623  19.799  45.274  1.00  0.00     0.150 C 
ATOM     12  C   UNL     1      14.687  18.748  44.863  1.00  0.00     0.174 C 
ATOM     13  O   UNL     1      13.649  20.898  44.376  1.00  0.00    -0.344 OA
ATOM     14  C   UNL     1      16.085  19.390  44.810  1.00  0.00     0.179 C 
ATOM     15  C   UNL     1      16.029  20.692  43.987  1.00  0.00     0.202 C 
BRANCH  12  16
ATOM     16  O   UNL     1      14.685  17.633  45.721  1.00  0.00    -0.388 OA
ATOM     17  H   UNL     1      15.205  16.917  45.271  1.00  0.00     0.211 HD
ENDBRANCH  12  16
BRANCH  14  18
ATOM     18  O   UNL     1      16.991  18.485  44.230  1.00  0.00    -0.387 OA
ATOM     19  H   UNL     1      16.695  17.572  44.489  1.00  0.00     0.211 HD
ENDBRANCH  14  18
BRANCH  15  20
ATOM     20  O   UNL     1      17.251  21.374  44.109  1.00  0.00    -0.385 OA
ATOM     21  H   UNL     1      17.055  22.339  43.949  1.00  0.00     0.211 HD
ENDBRANCH  15  20
ENDBRANCH   8   9
ENDBRANCH   7   8
ENDBRANCH   1   7
BRANCH   2  22
ATOM     22  O   UNL     1      12.589  21.980  40.168  1.00  0.00    -0.387 OA
ATOM     23  H   UNL     1      11.691  21.771  39.782  1.00  0.00     0.211 HD
ENDBRANCH   2  22
BRANCH   3  24
ATOM     24  O   UNL     1      12.830  23.777  38.121  1.00  0.00    -0.387 OA
ATOM     25  H   UNL     1      12.376  22.902  38.218  1.00  0.00     0.211 HD
ENDBRANCH   3  24
BRANCH   5  26
ATOM     26  O   UNL     1      16.314  24.458  41.427  1.00  0.00    -0.454 OA
BRANCH  26  27
ATOM     27  C   UNL     1      17.181  25.292  42.149  1.00  0.00     0.214 A 
ATOM     28  C   UNL     1      18.394  25.702  41.575  1.00  0.00     0.180 A 
ATOM     29  C   UNL     1      16.857  25.755  43.437  1.00  0.00     0.239 A 
ATOM     30  O   UNL     1      19.161  26.590  42.187  1.00  0.00    -0.452 OA
ATOM     31  C   UNL     1      17.642  26.779  44.026  1.00  0.00     0.111 A 
ATOM     32  O   UNL     1      15.917  25.204  44.070  1.00  0.00    -0.285 OA
ATOM     33  C   UNL     1      18.838  27.152  43.347  1.00  0.00     0.146 A 
ATOM     34  C   UNL     1      17.320  27.428  45.248  1.00  0.00     0.134 A 
ATOM     35  C   UNL     1      19.690  28.112  43.891  1.00  0.00     0.094 A 
ATOM     36  C   UNL     1      18.217  28.357  45.791  1.00  0.00     0.093 A 
ATOM     37  C   UNL     1      19.384  28.713  45.115  1.00  0.00     0.123 A 
BRANCH  28  38
ATOM     38  C   UNL     1      18.842  25.182  40.275  1.00  0.00     0.025 A 
ATOM     39  C   UNL     1      18.607  25.925  39.109  1.00  0.00     0.062 A 
ATOM     40  C   UNL     1      19.365  23.889  40.180  1.00  0.00     0.016 A 
ATOM     41  C   UNL     1      18.884  25.380  37.847  1.00  0.00     0.158 A 
ATOM     42  C   UNL     1      19.663  23.346  38.930  1.00  0.00     0.051 A 
ATOM     43  C   UNL     1      19.422  24.081  37.760  1.00  0.00     0.157 A 
BRANCH  41  44
ATOM     44  O   UNL     1      18.628  26.135  36.705  1.00  0.00    -0.504 OA
ATOM     45  H   UNL     1      17.698  26.174  36.294  1.00  0.00     0.293 HD
ENDBRANCH  41  44
BRANCH  43  46
ATOM     46  O   UNL     1      19.687  23.519  36.517  1.00  0.00    -0.504 OA
ATOM     47  H   UNL     1      18.957  23.142  35.923  1.00  0.00     0.293 HD
ENDBRANCH  43  46
ENDBRANCH  28  38
BRANCH  34  48
ATOM     48  O   UNL     1      16.125  27.232  45.935  1.00  0.00    -0.507 OA
ATOM     49  H   UNL     1      15.362  27.896  45.941  1.00  0.00     0.293 HD
ENDBRANCH  34  48
BRANCH  37  50
ATOM     50  O   UNL     1      20.223  29.683  45.660  1.00  0.00    -0.508 OA
ATOM     51  H   UNL     1      20.686  29.541  46.543  1.00  0.00     0.293 HD
ENDBRANCH  37  50
ENDBRANCH  26  27
ENDBRANCH   5  26
BRANCH   4  52
ATOM     52  O   UNL     1      15.290  25.042  38.536  1.00  0.00    -0.384 OA
ATOM     53  H   UNL     1      15.592  25.895  38.939  1.00  0.00     0.211 HD
ENDBRANCH   4  52
TORSDOF 16
ENDMDL
MODEL 9
REMARK VINA RESULT:    -6.455      2.489      8.324
REMARK INTER + INTRA:         -12.500
REMARK INTER:                 -10.287
REMARK INTRA:                  -2.212
REMARK UNBOUND:                -1.894
REMARK SMILES C[C@@H]1O[C@H](OC[C@H]2O[C@@H](Oc3c(-c4ccc(O)c(O)c4)oc4cc(O)cc(O)c4c3=O)[C@H](O)[C@@H](O)[C@H]2O)[C@@H](O)[C@H](O)[C@H]1O
REMARK SMILES IDX 7 1 36 2 34 3 32 4 9 5 8 6 6 7 5 8 4 9 1 10 2 11 42 12 3 13
REMARK SMILES IDX 40 14 38 15 43 16 41 18 39 20 37 22 35 24 10 26 11 27 12 28
REMARK SMILES IDX 30 29 21 30 29 31 31 32 22 33 27 34 23 35 26 36 24 37 13 38
REMARK SMILES IDX 20 39 14 40 18 41 15 42 16 43 19 44 17 46 28 48 25 50 33 52
REMARK H PARENT 43 17 41 19 39 21 37 23 35 25 19 45 17 47 28 49 25 51 33 53
REMARK Flexibility Score: inf
ROOT
ATOM      1  C   UNL     1      15.307  23.876  41.305  1.00  0.00     0.180 C 
ATOM      2  C   UNL     1      14.254  24.765  40.571  1.00  0.00     0.177 C 
ATOM      3  C   UNL     1      12.889  24.719  41.301  1.00  0.00     0.180 C 
ATOM      4  C   UNL     1      13.106  24.694  42.821  1.00  0.00     0.214 C 
ATOM      5  C   UNL     1      13.892  23.415  43.192  1.00  0.00     0.339 C 
ATOM      6  O   UNL     1      14.691  22.896  42.131  1.00  0.00    -0.332 OA
ENDROOT
BRANCH   1   7
ATOM      7  C   UNL     1      16.402  24.647  42.080  1.00  0.00     0.198 C 
BRANCH   7   8
ATOM      8  O   UNL     1      17.188  25.417  41.179  1.00  0.00    -0.347 OA
BRANCH   8   9
ATOM      9  C   UNL     1      17.822  26.528  41.792  1.00  0.00     0.281 C 
ATOM     10  C   UNL     1      17.831  27.428  45.349  1.00  0.00     0.041 C 
ATOM     11  C   UNL     1      18.195  27.530  43.867  1.00  0.00     0.150 C 
ATOM     12  C   UNL     1      19.734  27.551  43.681  1.00  0.00     0.174 C 
ATOM     13  O   UNL     1      17.636  26.412  43.194  1.00  0.00    -0.344 OA
ATOM     14  C   UNL     1      20.095  27.566  42.184  1.00  0.00     0.179 C 
ATOM     15  C   UNL     1      19.313  26.459  41.450  1.00  0.00     0.202 C 
BRANCH  12  16
ATOM     16  O   UNL     1      20.331  28.638  44.345  1.00  0.00    -0.388 OA
ATOM     17  H   UNL     1      19.700  29.402  44.279  1.00  0.00     0.211 HD
ENDBRANCH  12  16
BRANCH  14  18
ATOM     18  O   UNL     1      21.479  27.365  42.036  1.00  0.00    -0.387 OA
ATOM     19  H   UNL     1      21.826  27.083  42.924  1.00  0.00     0.211 HD
ENDBRANCH  14  18
BRANCH  15  20
ATOM     20  O   UNL     1      19.490  26.604  40.063  1.00  0.00    -0.385 OA
ATOM     21  H   UNL     1      19.964  25.784  39.750  1.00  0.00     0.211 HD
ENDBRANCH  15  20
ENDBRANCH   8   9
ENDBRANCH   7   8
ENDBRANCH   1   7
BRANCH   2  22
ATOM     22  O   UNL     1      14.719  26.089  40.442  1.00  0.00    -0.387 OA
ATOM     23  H   UNL     1      15.363  26.102  39.678  1.00  0.00     0.211 HD
ENDBRANCH   2  22
BRANCH   3  24
ATOM     24  O   UNL     1      12.044  25.775  40.916  1.00  0.00    -0.387 OA
ATOM     25  H   UNL     1      12.421  26.183  40.096  1.00  0.00     0.211 HD
ENDBRANCH   3  24
BRANCH   5  26
ATOM     26  O   UNL     1      14.671  23.621  44.380  1.00  0.00    -0.454 OA
BRANCH  26  27
ATOM     27  C   UNL     1      14.522  22.801  45.508  1.00  0.00     0.214 A 
ATOM     28  C   UNL     1      13.931  23.315  46.673  1.00  0.00     0.180 A 
ATOM     29  C   UNL     1      14.929  21.455  45.500  1.00  0.00     0.239 A 
ATOM     30  O   UNL     1      13.666  22.522  47.699  1.00  0.00    -0.452 OA
ATOM     31  C   UNL     1      14.544  20.605  46.568  1.00  0.00     0.111 A 
ATOM     32  O   UNL     1      15.685  21.047  44.578  1.00  0.00    -0.285 OA
ATOM     33  C   UNL     1      13.916  21.217  47.691  1.00  0.00     0.146 A 
ATOM     34  C   UNL     1      14.765  19.201  46.590  1.00  0.00     0.134 A 
ATOM     35  C   UNL     1      13.558  20.455  48.803  1.00  0.00     0.094 A 
ATOM     36  C   UNL     1      14.432  18.470  47.738  1.00  0.00     0.093 A 
ATOM     37  C   UNL     1      13.819  19.083  48.830  1.00  0.00     0.123 A 
BRANCH  28  38
ATOM     38  C   UNL     1      13.571  24.735  46.787  1.00  0.00     0.025 A 
ATOM     39  C   UNL     1      14.557  25.680  47.112  1.00  0.00     0.062 A 
ATOM     40  C   UNL     1      12.230  25.126  46.721  1.00  0.00     0.016 A 
ATOM     41  C   UNL     1      14.209  27.011  47.378  1.00  0.00     0.158 A 
ATOM     42  C   UNL     1      11.878  26.454  46.964  1.00  0.00     0.051 A 
ATOM     43  C   UNL     1      12.857  27.401  47.297  1.00  0.00     0.157 A 
BRANCH  41  44
ATOM     44  O   UNL     1      15.206  27.925  47.713  1.00  0.00    -0.504 OA
ATOM     45  H   UNL     1      16.030  27.640  48.236  1.00  0.00     0.293 HD
ENDBRANCH  41  44
BRANCH  43  46
ATOM     46  O   UNL     1      12.493  28.713  47.575  1.00  0.00    -0.504 OA
ATOM     47  H   UNL     1      12.181  29.356  46.857  1.00  0.00     0.293 HD
ENDBRANCH  43  46
ENDBRANCH  28  38
BRANCH  34  48
ATOM     48  O   UNL     1      15.257  18.479  45.506  1.00  0.00    -0.507 OA
ATOM     49  H   UNL     1      16.236  18.433  45.256  1.00  0.00     0.293 HD
ENDBRANCH  34  48
BRANCH  37  50
ATOM     50  O   UNL     1      13.452  18.312  49.932  1.00  0.00    -0.508 OA
ATOM     51  H   UNL     1      12.604  17.769  49.933  1.00  0.00     0.293 HD
ENDBRANCH  37  50
ENDBRANCH  26  27
ENDBRANCH   5  26
BRANCH   4  52
ATOM     52  O   UNL     1      11.875  24.685  43.487  1.00  0.00    -0.384 OA
ATOM     53  H   UNL     1      11.533  23.757  43.454  1.00  0.00     0.211 HD
ENDBRANCH   4  52
TORSDOF 16
ENDMDL
