MODEL 1
REMARK VINA RESULT:    -3.513      0.000      0.000
REMARK INTER + INTRA:          -8.157
REMARK INTER:                  -6.389
REMARK INTRA:                  -1.768
REMARK UNBOUND:                -1.768
REMARK SMILES CCCCCCCCCCCCCCCC(=O)[O-]
REMARK SMILES IDX 9 1 10 2 11 3 12 4 13 5 14 6 15 7 16 8 17 9 18 10 8 11 7 12
REMARK SMILES IDX 6 13 5 14 4 15 3 16 2 17 1 18
REMARK H PARENT
REMARK Flexibility Score: inf
ROOT
ATOM      1  C   UNL     1      -5.027   8.869  -2.058  1.00  0.00     0.000 C 
ENDROOT
BRANCH   1   2
ATOM      2  C   UNL     1      -4.353   7.690  -2.779  1.00  0.00     0.000 C 
BRANCH   2   3
ATOM      3  C   UNL     1      -3.628   8.119  -4.067  1.00  0.00     0.000 C 
BRANCH   3   4
ATOM      4  C   UNL     1      -2.211   7.533  -4.165  1.00  0.00     0.000 C 
BRANCH   4   5
ATOM      5  C   UNL     1      -1.632   7.626  -5.587  1.00  0.00     0.000 C 
BRANCH   5   6
ATOM      6  C   UNL     1      -1.157   6.264  -6.120  1.00  0.00     0.006 C 
BRANCH   6   7
ATOM      7  C   UNL     1      -1.013   5.211  -5.013  1.00  0.00     0.053 C 
BRANCH   7   8
ATOM      8  C   UNL     1      -1.392   3.858  -5.527  1.00  0.00     0.041 C 
ATOM      9  O   UNL     1      -1.799   3.720  -6.711  1.00  0.00    -0.550 OA
ATOM     10  O   UNL     1      -1.343   2.755  -4.684  1.00  0.00    -0.550 OA
ENDBRANCH   7   8
ENDBRANCH   6   7
ENDBRANCH   5   6
ENDBRANCH   4   5
ENDBRANCH   3   4
ENDBRANCH   2   3
ENDBRANCH   1   2
BRANCH   1  11
ATOM     11  C   UNL     1      -4.403  10.225  -2.424  1.00  0.00     0.000 C 
BRANCH  11  12
ATOM     12  C   UNL     1      -3.352  10.643  -1.385  1.00  0.00    -0.000 C 
BRANCH  12  13
ATOM     13  C   UNL     1      -1.918  10.592  -1.937  1.00  0.00    -0.000 C 
BRANCH  13  14
ATOM     14  C   UNL     1      -1.009   9.647  -1.132  1.00  0.00    -0.000 C 
BRANCH  14  15
ATOM     15  C   UNL     1      -1.797   8.726  -0.185  1.00  0.00    -0.000 C 
BRANCH  15  16
ATOM     16  C   UNL     1      -1.384   8.805   1.297  1.00  0.00    -0.000 C 
BRANCH  16  17
ATOM     17  C   UNL     1      -1.719  10.154   1.967  1.00  0.00    -0.003 C 
ATOM     18  C   UNL     1      -3.217  10.318   2.231  1.00  0.00     0.004 C 
ENDBRANCH  16  17
ENDBRANCH  15  16
ENDBRANCH  14  15
ENDBRANCH  13  14
ENDBRANCH  12  13
ENDBRANCH  11  12
ENDBRANCH   1  11
TORSDOF 14
ENDMDL
MODEL 2
REMARK VINA RESULT:    -3.396      2.474      6.654
REMARK INTER + INTRA:          -7.944
REMARK INTER:                  -6.535
REMARK INTRA:                  -1.409
REMARK UNBOUND:                -1.768
REMARK SMILES CCCCCCCCCCCCCCCC(=O)[O-]
REMARK SMILES IDX 9 1 10 2 11 3 12 4 13 5 14 6 15 7 16 8 17 9 18 10 8 11 7 12
REMARK SMILES IDX 6 13 5 14 4 15 3 16 2 17 1 18
REMARK H PARENT
REMARK Flexibility Score: inf
ROOT
ATOM      1  C   UNL     1      -3.784   7.252  -3.026  1.00  0.00     0.000 C 
ENDROOT
BRANCH   1   2
ATOM      2  C   UNL     1      -4.562   7.930  -1.887  1.00  0.00     0.000 C 
BRANCH   2   3
ATOM      3  C   UNL     1      -4.706   9.449  -2.089  1.00  0.00     0.000 C 
BRANCH   3   4
ATOM      4  C   UNL     1      -4.261  10.250  -0.855  1.00  0.00     0.000 C 
BRANCH   4   5
ATOM      5  C   UNL     1      -3.829   9.345   0.311  1.00  0.00     0.000 C 
BRANCH   5   6
ATOM      6  C   UNL     1      -2.545   9.839   0.997  1.00  0.00     0.006 C 
BRANCH   6   7
ATOM      7  C   UNL     1      -1.420   8.796   0.974  1.00  0.00     0.053 C 
BRANCH   7   8
ATOM      8  C   UNL     1      -1.160   8.340  -0.427  1.00  0.00     0.041 C 
ATOM      9  O   UNL     1      -1.154   7.112  -0.704  1.00  0.00    -0.550 OA
ATOM     10  O   UNL     1      -0.875   9.271  -1.419  1.00  0.00    -0.550 OA
ENDBRANCH   7   8
ENDBRANCH   6   7
ENDBRANCH   5   6
ENDBRANCH   4   5
ENDBRANCH   3   4
ENDBRANCH   2   3
ENDBRANCH   1   2
BRANCH   1  11
ATOM     11  C   UNL     1      -3.543   8.187  -4.221  1.00  0.00     0.000 C 
BRANCH  11  12
ATOM     12  C   UNL     1      -2.044   8.305  -4.532  1.00  0.00    -0.000 C 
BRANCH  12  13
ATOM     13  C   UNL     1      -1.303   6.964  -4.408  1.00  0.00    -0.000 C 
BRANCH  13  14
ATOM     14  C   UNL     1      -1.483   6.073  -5.650  1.00  0.00    -0.000 C 
BRANCH  14  15
ATOM     15  C   UNL     1      -1.050   4.617  -5.405  1.00  0.00    -0.000 C 
BRANCH  15  16
ATOM     16  C   UNL     1      -1.580   3.597  -6.431  1.00  0.00    -0.000 C 
BRANCH  16  17
ATOM     17  C   UNL     1      -1.619   2.146  -5.906  1.00  0.00    -0.003 C 
ATOM     18  C   UNL     1      -0.875   1.986  -4.579  1.00  0.00     0.004 C 
ENDBRANCH  16  17
ENDBRANCH  15  16
ENDBRANCH  14  15
ENDBRANCH  13  14
ENDBRANCH  12  13
ENDBRANCH  11  12
ENDBRANCH   1  11
TORSDOF 14
ENDMDL
MODEL 3
REMARK VINA RESULT:    -3.029      3.605      7.183
REMARK INTER + INTRA:          -7.275
REMARK INTER:                  -6.207
REMARK INTRA:                  -1.068
REMARK UNBOUND:                -1.768
REMARK SMILES CCCCCCCCCCCCCCCC(=O)[O-]
REMARK SMILES IDX 9 1 10 2 11 3 12 4 13 5 14 6 15 7 16 8 17 9 18 10 8 11 7 12
REMARK SMILES IDX 6 13 5 14 4 15 3 16 2 17 1 18
REMARK H PARENT
REMARK Flexibility Score: inf
ROOT
ATOM      1  C   UNL     1      -4.644   8.342  -2.540  1.00  0.00     0.000 C 
ENDROOT
BRANCH   1   2
ATOM      2  C   UNL     1      -4.607   9.835  -2.176  1.00  0.00     0.000 C 
BRANCH   2   3
ATOM      3  C   UNL     1      -3.401  10.566  -2.793  1.00  0.00     0.000 C 
BRANCH   3   4
ATOM      4  C   UNL     1      -2.445  11.125  -1.728  1.00  0.00     0.000 C 
BRANCH   4   5
ATOM      5  C   UNL     1      -1.300  10.153  -1.395  1.00  0.00     0.000 C 
BRANCH   5   6
ATOM      6  C   UNL     1      -0.965  10.129   0.106  1.00  0.00     0.006 C 
BRANCH   6   7
ATOM      7  C   UNL     1      -1.905   9.219   0.909  1.00  0.00     0.053 C 
BRANCH   7   8
ATOM      8  C   UNL     1      -2.902  10.038   1.665  1.00  0.00     0.041 C 
ATOM      9  O   UNL     1      -4.008  10.336   1.140  1.00  0.00    -0.550 OA
ATOM     10  O   UNL     1      -2.592  10.515   2.933  1.00  0.00    -0.550 OA
ENDBRANCH   7   8
ENDBRANCH   6   7
ENDBRANCH   5   6
ENDBRANCH   4   5
ENDBRANCH   3   4
ENDBRANCH   2   3
ENDBRANCH   1   2
BRANCH   1  11
ATOM     11  C   UNL     1      -3.286   7.815  -3.030  1.00  0.00     0.000 C 
BRANCH  11  12
ATOM     12  C   UNL     1      -3.347   7.446  -4.520  1.00  0.00    -0.000 C 
BRANCH  12  13
ATOM     13  C   UNL     1      -2.111   7.920  -5.301  1.00  0.00    -0.000 C 
BRANCH  13  14
ATOM     14  C   UNL     1      -0.953   6.907  -5.246  1.00  0.00    -0.000 C 
BRANCH  14  15
ATOM     15  C   UNL     1      -1.175   5.699  -6.173  1.00  0.00    -0.000 C 
BRANCH  15  16
ATOM     16  C   UNL     1      -1.372   4.351  -5.453  1.00  0.00    -0.000 C 
BRANCH  16  17
ATOM     17  C   UNL     1      -1.716   3.182  -6.401  1.00  0.00    -0.003 C 
ATOM     18  C   UNL     1      -0.953   1.904  -6.052  1.00  0.00     0.004 C 
ENDBRANCH  16  17
ENDBRANCH  15  16
ENDBRANCH  14  15
ENDBRANCH  13  14
ENDBRANCH  12  13
ENDBRANCH  11  12
ENDBRANCH   1  11
TORSDOF 14
ENDMDL
MODEL 4
REMARK VINA RESULT:    -2.852      1.126      1.859
REMARK INTER + INTRA:          -6.955
REMARK INTER:                  -5.797
REMARK INTRA:                  -1.158
REMARK UNBOUND:                -1.768
REMARK SMILES CCCCCCCCCCCCCCCC(=O)[O-]
REMARK SMILES IDX 9 1 10 2 11 3 12 4 13 5 14 6 15 7 16 8 17 9 18 10 8 11 7 12
REMARK SMILES IDX 6 13 5 14 4 15 3 16 2 17 1 18
REMARK H PARENT
REMARK Flexibility Score: inf
ROOT
ATOM      1  C   UNL     1      -4.229   8.158  -1.914  1.00  0.00     0.000 C 
ENDROOT
BRANCH   1   2
ATOM      2  C   UNL     1      -2.982   7.720  -2.698  1.00  0.00     0.000 C 
BRANCH   2   3
ATOM      3  C   UNL     1      -2.560   8.747  -3.764  1.00  0.00     0.000 C 
BRANCH   3   4
ATOM      4  C   UNL     1      -2.520   8.145  -5.177  1.00  0.00     0.000 C 
BRANCH   4   5
ATOM      5  C   UNL     1      -2.476   6.607  -5.162  1.00  0.00     0.000 C 
BRANCH   5   6
ATOM      6  C   UNL     1      -1.043   6.057  -5.247  1.00  0.00     0.006 C 
BRANCH   6   7
ATOM      7  C   UNL     1      -0.875   5.009  -6.356  1.00  0.00     0.053 C 
BRANCH   7   8
ATOM      8  C   UNL     1      -1.386   3.680  -5.898  1.00  0.00     0.041 C 
ATOM      9  O   UNL     1      -2.050   2.951  -6.682  1.00  0.00    -0.550 OA
ATOM     10  O   UNL     1      -1.171   3.265  -4.589  1.00  0.00    -0.550 OA
ENDBRANCH   7   8
ENDBRANCH   6   7
ENDBRANCH   5   6
ENDBRANCH   4   5
ENDBRANCH   3   4
ENDBRANCH   2   3
ENDBRANCH   1   2
BRANCH   1  11
ATOM     11  C   UNL     1      -4.702   9.571  -2.289  1.00  0.00     0.000 C 
BRANCH  11  12
ATOM     12  C   UNL     1      -4.277  10.592  -1.222  1.00  0.00    -0.000 C 
BRANCH  12  13
ATOM     13  C   UNL     1      -4.334  10.020   0.204  1.00  0.00    -0.000 C 
BRANCH  13  14
ATOM     14  C   UNL     1      -3.724  10.972   1.247  1.00  0.00    -0.000 C 
BRANCH  14  15
ATOM     15  C   UNL     1      -2.188  11.034   1.171  1.00  0.00    -0.000 C 
BRANCH  15  16
ATOM     16  C   UNL     1      -1.447  10.285   2.295  1.00  0.00    -0.000 C 
BRANCH  16  17
ATOM     17  C   UNL     1      -0.875   8.918   1.863  1.00  0.00    -0.003 C 
ATOM     18  C   UNL     1      -1.145   8.612   0.390  1.00  0.00     0.004 C 
ENDBRANCH  16  17
ENDBRANCH  15  16
ENDBRANCH  14  15
ENDBRANCH  13  14
ENDBRANCH  12  13
ENDBRANCH  11  12
ENDBRANCH   1  11
TORSDOF 14
ENDMDL
MODEL 5
REMARK VINA RESULT:    -2.830      3.792      7.586
REMARK INTER + INTRA:          -6.914
REMARK INTER:                  -6.315
REMARK INTRA:                  -0.598
REMARK UNBOUND:                -1.768
REMARK SMILES CCCCCCCCCCCCCCCC(=O)[O-]
REMARK SMILES IDX 9 1 10 2 11 3 12 4 13 5 14 6 15 7 16 8 17 9 18 10 8 11 7 12
REMARK SMILES IDX 6 13 5 14 4 15 3 16 2 17 1 18
REMARK H PARENT
REMARK Flexibility Score: inf
ROOT
ATOM      1  C   UNL     1      -4.593   8.245  -2.705  1.00  0.00     0.000 C 
ENDROOT
BRANCH   1   2
ATOM      2  C   UNL     1      -3.841   9.210  -1.775  1.00  0.00     0.000 C 
BRANCH   2   3
ATOM      3  C   UNL     1      -2.318   8.984  -1.792  1.00  0.00     0.000 C 
BRANCH   3   4
ATOM      4  C   UNL     1      -1.823   8.227  -0.549  1.00  0.00     0.000 C 
BRANCH   4   5
ATOM      5  C   UNL     1      -2.395   8.804   0.758  1.00  0.00     0.000 C 
BRANCH   5   6
ATOM      6  C   UNL     1      -1.367   9.649   1.529  1.00  0.00     0.006 C 
BRANCH   6   7
ATOM      7  C   UNL     1      -1.924  11.012   1.959  1.00  0.00     0.053 C 
BRANCH   7   8
ATOM      8  C   UNL     1      -3.416  10.960   2.053  1.00  0.00     0.041 C 
ATOM      9  O   UNL     1      -3.976  10.725   3.157  1.00  0.00    -0.550 OA
ATOM     10  O   UNL     1      -4.191  11.122   0.910  1.00  0.00    -0.550 OA
ENDBRANCH   7   8
ENDBRANCH   6   7
ENDBRANCH   5   6
ENDBRANCH   4   5
ENDBRANCH   3   4
ENDBRANCH   2   3
ENDBRANCH   1   2
BRANCH   1  11
ATOM     11  C   UNL     1      -3.658   7.257  -3.420  1.00  0.00     0.000 C 
BRANCH  11  12
ATOM     12  C   UNL     1      -3.423   7.682  -4.877  1.00  0.00    -0.000 C 
BRANCH  12  13
ATOM     13  C   UNL     1      -1.943   7.613  -5.285  1.00  0.00    -0.000 C 
BRANCH  13  14
ATOM     14  C   UNL     1      -1.382   6.181  -5.236  1.00  0.00    -0.000 C 
BRANCH  14  15
ATOM     15  C   UNL     1      -1.376   5.497  -6.614  1.00  0.00    -0.000 C 
BRANCH  15  16
ATOM     16  C   UNL     1      -1.319   3.958  -6.580  1.00  0.00    -0.000 C 
BRANCH  16  17
ATOM     17  C   UNL     1      -1.847   3.343  -5.267  1.00  0.00    -0.003 C 
ATOM     18  C   UNL     1      -1.229   1.975  -4.972  1.00  0.00     0.004 C 
ENDBRANCH  16  17
ENDBRANCH  15  16
ENDBRANCH  14  15
ENDBRANCH  13  14
ENDBRANCH  12  13
ENDBRANCH  11  12
ENDBRANCH   1  11
TORSDOF 14
ENDMDL
MODEL 6
REMARK VINA RESULT:    -2.629      2.578      6.674
REMARK INTER + INTRA:          -6.548
REMARK INTER:                  -6.068
REMARK INTRA:                  -0.480
REMARK UNBOUND:                -1.768
REMARK SMILES CCCCCCCCCCCCCCCC(=O)[O-]
REMARK SMILES IDX 9 1 10 2 11 3 12 4 13 5 14 6 15 7 16 8 17 9 18 10 8 11 7 12
REMARK SMILES IDX 6 13 5 14 4 15 3 16 2 17 1 18
REMARK H PARENT
REMARK Flexibility Score: inf
ROOT
ATOM      1  C   UNL     1      -4.335   8.956  -1.877  1.00  0.00     0.000 C 
ENDROOT
BRANCH   1   2
ATOM      2  C   UNL     1      -4.020   8.801  -0.381  1.00  0.00     0.000 C 
BRANCH   2   3
ATOM      3  C   UNL     1      -4.272  10.094   0.415  1.00  0.00     0.000 C 
BRANCH   3   4
ATOM      4  C   UNL     1      -3.852   9.969   1.888  1.00  0.00     0.000 C 
BRANCH   4   5
ATOM      5  C   UNL     1      -2.604  10.806   2.218  1.00  0.00     0.000 C 
BRANCH   5   6
ATOM      6  C   UNL     1      -1.445  10.549   1.242  1.00  0.00     0.006 C 
BRANCH   6   7
ATOM      7  C   UNL     1      -0.885   9.124   1.348  1.00  0.00     0.053 C 
BRANCH   7   8
ATOM      8  C   UNL     1      -0.882   8.463   0.006  1.00  0.00     0.041 C 
ATOM      9  O   UNL     1      -0.898   9.159  -1.044  1.00  0.00    -0.550 OA
ATOM     10  O   UNL     1      -0.912   7.077  -0.086  1.00  0.00    -0.550 OA
ENDBRANCH   7   8
ENDBRANCH   6   7
ENDBRANCH   5   6
ENDBRANCH   4   5
ENDBRANCH   3   4
ENDBRANCH   2   3
ENDBRANCH   1   2
BRANCH   1  11
ATOM     11  C   UNL     1      -3.764   7.810  -2.727  1.00  0.00     0.000 C 
BRANCH  11  12
ATOM     12  C   UNL     1      -3.396   8.303  -4.135  1.00  0.00    -0.000 C 
BRANCH  12  13
ATOM     13  C   UNL     1      -1.877   8.396  -4.354  1.00  0.00    -0.000 C 
BRANCH  13  14
ATOM     14  C   UNL     1      -1.474   8.133  -5.815  1.00  0.00    -0.000 C 
BRANCH  14  15
ATOM     15  C   UNL     1      -0.982   6.694  -6.048  1.00  0.00    -0.000 C 
BRANCH  15  16
ATOM     16  C   UNL     1      -1.924   5.590  -5.530  1.00  0.00    -0.000 C 
BRANCH  16  17
ATOM     17  C   UNL     1      -1.245   4.213  -5.373  1.00  0.00    -0.003 C 
ATOM     18  C   UNL     1      -1.566   3.269  -6.533  1.00  0.00     0.004 C 
ENDBRANCH  16  17
ENDBRANCH  15  16
ENDBRANCH  14  15
ENDBRANCH  13  14
ENDBRANCH  12  13
ENDBRANCH  11  12
ENDBRANCH   1  11
TORSDOF 14
ENDMDL
MODEL 7
REMARK VINA RESULT:    -2.286      1.504      2.755
REMARK INTER + INTRA:          -5.925
REMARK INTER:                  -5.076
REMARK INTRA:                  -0.848
REMARK UNBOUND:                -1.768
REMARK SMILES CCCCCCCCCCCCCCCC(=O)[O-]
REMARK SMILES IDX 9 1 10 2 11 3 12 4 13 5 14 6 15 7 16 8 17 9 18 10 8 11 7 12
REMARK SMILES IDX 6 13 5 14 4 15 3 16 2 17 1 18
REMARK H PARENT
REMARK Flexibility Score: inf
ROOT
ATOM      1  C   UNL     1      -1.856   8.426  -4.019  1.00  0.00     0.000 C 
ENDROOT
BRANCH   1   2
ATOM      2  C   UNL     1      -0.985   8.753  -5.242  1.00  0.00     0.000 C 
BRANCH   2   3
ATOM      3  C   UNL     1      -1.087   7.684  -6.345  1.00  0.00     0.000 C 
BRANCH   3   4
ATOM      4  C   UNL     1      -1.241   6.265  -5.776  1.00  0.00     0.000 C 
BRANCH   4   5
ATOM      5  C   UNL     1      -1.726   5.256  -6.830  1.00  0.00     0.000 C 
BRANCH   5   6
ATOM      6  C   UNL     1      -1.052   3.881  -6.684  1.00  0.00     0.006 C 
BRANCH   6   7
ATOM      7  C   UNL     1      -1.934   2.864  -5.946  1.00  0.00     0.053 C 
BRANCH   7   8
ATOM      8  C   UNL     1      -1.254   2.393  -4.700  1.00  0.00     0.041 C 
ATOM      9  O   UNL     1      -0.875   3.222  -3.831  1.00  0.00    -0.550 OA
ATOM     10  O   UNL     1      -0.995   1.040  -4.519  1.00  0.00    -0.550 OA
ENDBRANCH   7   8
ENDBRANCH   6   7
ENDBRANCH   5   6
ENDBRANCH   4   5
ENDBRANCH   3   4
ENDBRANCH   2   3
ENDBRANCH   1   2
BRANCH   1  11
ATOM     11  C   UNL     1      -2.993   9.438  -3.811  1.00  0.00     0.000 C 
BRANCH  11  12
ATOM     12  C   UNL     1      -4.138   8.817  -2.997  1.00  0.00    -0.000 C 
BRANCH  12  13
ATOM     13  C   UNL     1      -4.627   9.733  -1.863  1.00  0.00    -0.000 C 
BRANCH  13  14
ATOM     14  C   UNL     1      -4.689   9.012  -0.506  1.00  0.00    -0.000 C 
BRANCH  14  15
ATOM     15  C   UNL     1      -3.376   9.125   0.289  1.00  0.00    -0.000 C 
BRANCH  15  16
ATOM     16  C   UNL     1      -2.207   8.283  -0.257  1.00  0.00    -0.000 C 
BRANCH  16  17
ATOM     17  C   UNL     1      -0.942   8.324   0.626  1.00  0.00    -0.003 C 
ATOM     18  C   UNL     1      -1.137   9.170   1.886  1.00  0.00     0.004 C 
ENDBRANCH  16  17
ENDBRANCH  15  16
ENDBRANCH  14  15
ENDBRANCH  13  14
ENDBRANCH  12  13
ENDBRANCH  11  12
ENDBRANCH   1  11
TORSDOF 14
ENDMDL
MODEL 8
REMARK VINA RESULT:    -1.989      1.449      2.358
REMARK INTER + INTRA:          -5.385
REMARK INTER:                  -4.778
REMARK INTRA:                  -0.607
REMARK UNBOUND:                -1.768
REMARK SMILES CCCCCCCCCCCCCCCC(=O)[O-]
REMARK SMILES IDX 9 1 10 2 11 3 12 4 13 5 14 6 15 7 16 8 17 9 18 10 8 11 7 12
REMARK SMILES IDX 6 13 5 14 4 15 3 16 2 17 1 18
REMARK H PARENT
REMARK Flexibility Score: inf
ROOT
ATOM      1  C   UNL     1      -3.687   8.772  -1.353  1.00  0.00     0.000 C 
ENDROOT
BRANCH   1   2
ATOM      2  C   UNL     1      -3.440   7.701  -2.427  1.00  0.00     0.000 C 
BRANCH   2   3
ATOM      3  C   UNL     1      -4.175   8.004  -3.745  1.00  0.00     0.000 C 
BRANCH   3   4
ATOM      4  C   UNL     1      -3.208   8.276  -4.908  1.00  0.00     0.000 C 
BRANCH   4   5
ATOM      5  C   UNL     1      -1.991   7.334  -4.895  1.00  0.00     0.000 C 
BRANCH   5   6
ATOM      6  C   UNL     1      -2.292   5.973  -5.545  1.00  0.00     0.006 C 
BRANCH   6   7
ATOM      7  C   UNL     1      -1.031   5.279  -6.077  1.00  0.00     0.053 C 
BRANCH   7   8
ATOM      8  C   UNL     1      -1.081   3.813  -5.783  1.00  0.00     0.041 C 
ATOM      9  O   UNL     1      -1.053   2.975  -6.724  1.00  0.00    -0.550 OA
ATOM     10  O   UNL     1      -1.209   3.370  -4.473  1.00  0.00    -0.550 OA
ENDBRANCH   7   8
ENDBRANCH   6   7
ENDBRANCH   5   6
ENDBRANCH   4   5
ENDBRANCH   3   4
ENDBRANCH   2   3
ENDBRANCH   1   2
BRANCH   1  11
ATOM     11  C   UNL     1      -2.781  10.002  -1.519  1.00  0.00     0.000 C 
BRANCH  11  12
ATOM     12  C   UNL     1      -1.477   9.834  -0.725  1.00  0.00    -0.000 C 
BRANCH  12  13
ATOM     13  C   UNL     1      -1.717   9.657   0.783  1.00  0.00    -0.000 C 
BRANCH  13  14
ATOM     14  C   UNL     1      -2.864  10.539   1.306  1.00  0.00    -0.000 C 
BRANCH  14  15
ATOM     15  C   UNL     1      -2.904  10.615   2.842  1.00  0.00    -0.000 C 
BRANCH  15  16
ATOM     16  C   UNL     1      -4.237  11.108   3.438  1.00  0.00    -0.000 C 
BRANCH  16  17
ATOM     17  C   UNL     1      -5.373  10.065   3.375  1.00  0.00    -0.003 C 
ATOM     18  C   UNL     1      -6.347  10.193   4.546  1.00  0.00     0.004 C 
ENDBRANCH  16  17
ENDBRANCH  15  16
ENDBRANCH  14  15
ENDBRANCH  13  14
ENDBRANCH  12  13
ENDBRANCH  11  12
ENDBRANCH   1  11
TORSDOF 14
ENDMDL
MODEL 9
REMARK VINA RESULT:    -1.961      3.739      4.806
REMARK INTER + INTRA:          -5.334
REMARK INTER:                  -4.771
REMARK INTRA:                  -0.563
REMARK UNBOUND:                -1.768
REMARK SMILES CCCCCCCCCCCCCCCC(=O)[O-]
REMARK SMILES IDX 9 1 10 2 11 3 12 4 13 5 14 6 15 7 16 8 17 9 18 10 8 11 7 12
REMARK SMILES IDX 6 13 5 14 4 15 3 16 2 17 1 18
REMARK H PARENT
REMARK Flexibility Score: inf
ROOT
ATOM      1  C   UNL     1      -2.322   7.854  -5.113  1.00  0.00     0.000 C 
ENDROOT
BRANCH   1   2
ATOM      2  C   UNL     1      -2.371   9.387  -5.213  1.00  0.00     0.000 C 
BRANCH   2   3
ATOM      3  C   UNL     1      -1.055   9.989  -5.739  1.00  0.00     0.000 C 
BRANCH   3   4
ATOM      4  C   UNL     1      -0.875   9.777  -7.250  1.00  0.00     0.000 C 
BRANCH   4   5
ATOM      5  C   UNL     1      -1.408  10.958  -8.079  1.00  0.00     0.000 C 
BRANCH   5   6
ATOM      6  C   UNL     1      -1.048  10.843  -9.569  1.00  0.00     0.006 C 
BRANCH   6   7
ATOM      7  C   UNL     1      -1.108   9.399 -10.084  1.00  0.00     0.053 C 
BRANCH   7   8
ATOM      8  C   UNL     1      -2.011   9.307 -11.273  1.00  0.00     0.041 C 
ATOM      9  O   UNL     1      -2.301  10.340 -11.932  1.00  0.00    -0.550 OA
ATOM     10  O   UNL     1      -2.573   8.086 -11.627  1.00  0.00    -0.550 OA
ENDBRANCH   7   8
ENDBRANCH   6   7
ENDBRANCH   5   6
ENDBRANCH   4   5
ENDBRANCH   3   4
ENDBRANCH   2   3
ENDBRANCH   1   2
BRANCH   1  11
ATOM     11  C   UNL     1      -1.837   7.363  -3.739  1.00  0.00     0.000 C 
BRANCH  11  12
ATOM     12  C   UNL     1      -1.307   8.531  -2.895  1.00  0.00    -0.000 C 
BRANCH  12  13
ATOM     13  C   UNL     1      -0.875   8.097  -1.485  1.00  0.00    -0.000 C 
BRANCH  13  14
ATOM     14  C   UNL     1      -2.072   7.742  -0.584  1.00  0.00    -0.000 C 
BRANCH  14  15
ATOM     15  C   UNL     1      -3.255   8.711  -0.756  1.00  0.00    -0.000 C 
BRANCH  15  16
ATOM     16  C   UNL     1      -3.631   9.513   0.504  1.00  0.00    -0.000 C 
BRANCH  16  17
ATOM     17  C   UNL     1      -2.418  10.097   1.257  1.00  0.00    -0.003 C 
ATOM     18  C   UNL     1      -2.776  10.563   2.669  1.00  0.00     0.004 C 
ENDBRANCH  16  17
ENDBRANCH  15  16
ENDBRANCH  14  15
ENDBRANCH  13  14
ENDBRANCH  12  13
ENDBRANCH  11  12
ENDBRANCH   1  11
TORSDOF 14
ENDMDL
