MODEL 1
REMARK VINA RESULT:    -6.735      0.000      0.000
REMARK INTER + INTRA:          -8.425
REMARK INTER:                  -8.113
REMARK INTRA:                  -0.311
REMARK UNBOUND:                -0.311
REMARK SMILES Oc1cc(O)c2cc(O)c(-c3ccc(O)c(O)c3)[o+]c2c1
REMARK SMILES IDX 10 1 19 2 20 3 21 4 2 5 3 6 4 7 6 8 7 9 8 10 11 11 12 12
REMARK SMILES IDX 13 13 14 14 18 15 16 16 15 17 17 19 9 21 1 23 5 25
REMARK H PARENT 15 18 17 20 9 22 1 24 5 26
REMARK Flexibility Score: inf
ROOT
ATOM      1  C   UNL     1     -19.642 -47.207 104.409  1.00  0.00     0.402 A 
ATOM      2  O   UNL     1     -20.467 -48.099 104.956  1.00  0.00    -0.202 OA
ATOM      3  C   UNL     1     -20.278 -48.620 106.165  1.00  0.00     0.368 A 
ATOM      4  C   UNL     1     -21.194 -49.548 106.670  1.00  0.00     0.162 A 
ATOM      5  C   UNL     1     -21.011 -50.099 107.941  1.00  0.00     0.128 A 
ATOM      6  C   UNL     1     -19.903 -49.723 108.713  1.00  0.00     0.093 A 
ATOM      7  C   UNL     1     -18.974 -48.794 108.219  1.00  0.00     0.136 A 
ATOM      8  C   UNL     1     -19.161 -48.238 106.939  1.00  0.00     0.125 A 
ATOM      9  C   UNL     1     -18.264 -47.314 106.392  1.00  0.00     0.078 A 
ATOM     10  C   UNL     1     -18.492 -46.797 105.113  1.00  0.00     0.223 A 
ENDROOT
BRANCH   1  11
ATOM     11  C   UNL     1     -19.963 -46.693 103.059  1.00  0.00     0.087 A 
ATOM     12  C   UNL     1     -19.309 -47.234 101.941  1.00  0.00     0.022 A 
ATOM     13  C   UNL     1     -19.610 -46.779 100.655  1.00  0.00     0.051 A 
ATOM     14  C   UNL     1     -20.578 -45.788 100.464  1.00  0.00     0.157 A 
ATOM     15  C   UNL     1     -20.951 -45.712 102.863  1.00  0.00     0.068 A 
ATOM     16  C   UNL     1     -21.256 -45.254 101.573  1.00  0.00     0.158 A 
BRANCH  14  17
ATOM     17  O   UNL     1     -20.856 -45.351  99.169  1.00  0.00    -0.504 OA
ATOM     18  H   UNL     1     -20.732 -44.385  98.890  1.00  0.00     0.293 HD
ENDBRANCH  14  17
BRANCH  16  19
ATOM     19  O   UNL     1     -22.233 -44.276 101.390  1.00  0.00    -0.504 OA
ATOM     20  H   UNL     1     -23.220 -44.496 101.438  1.00  0.00     0.293 HD
ENDBRANCH  16  19
ENDBRANCH   1  11
BRANCH  10  21
ATOM     21  O   UNL     1     -17.575 -45.915 104.542  1.00  0.00    -0.500 OA
ATOM     22  H   UNL     1     -16.965 -45.339 105.112  1.00  0.00     0.294 HD
ENDBRANCH  10  21
BRANCH   5  23
ATOM     23  O   UNL     1     -21.933 -51.022 108.428  1.00  0.00    -0.507 OA
ATOM     24  H   UNL     1     -22.590 -51.490 107.814  1.00  0.00     0.293 HD
ENDBRANCH   5  23
BRANCH   7  25
ATOM     25  O   UNL     1     -17.875 -48.428 108.996  1.00  0.00    -0.507 OA
ATOM     26  H   UNL     1     -17.687 -47.459 109.227  1.00  0.00     0.293 HD
ENDBRANCH   7  25
TORSDOF 6
ENDMDL
MODEL 2
REMARK VINA RESULT:    -6.730      1.062      2.644
REMARK INTER + INTRA:          -8.418
REMARK INTER:                  -8.151
REMARK INTRA:                  -0.267
REMARK UNBOUND:                -0.311
REMARK SMILES Oc1cc(O)c2cc(O)c(-c3ccc(O)c(O)c3)[o+]c2c1
REMARK SMILES IDX 10 1 19 2 20 3 21 4 2 5 3 6 4 7 6 8 7 9 8 10 11 11 12 12
REMARK SMILES IDX 13 13 14 14 18 15 16 16 15 17 17 19 9 21 1 23 5 25
REMARK H PARENT 15 18 17 20 9 22 1 24 5 26
REMARK Flexibility Score: inf
ROOT
ATOM      1  C   UNL     1     -20.733 -47.911 104.394  1.00  0.00     0.402 A 
ATOM      2  O   UNL     1     -19.809 -47.753 105.340  1.00  0.00    -0.202 OA
ATOM      3  C   UNL     1     -19.825 -48.416 106.492  1.00  0.00     0.368 A 
ATOM      4  C   UNL     1     -18.813 -48.196 107.432  1.00  0.00     0.162 A 
ATOM      5  C   UNL     1     -18.815 -48.891 108.645  1.00  0.00     0.128 A 
ATOM      6  C   UNL     1     -19.835 -49.812 108.922  1.00  0.00     0.093 A 
ATOM      7  C   UNL     1     -20.858 -50.043 107.989  1.00  0.00     0.136 A 
ATOM      8  C   UNL     1     -20.853 -49.343 106.767  1.00  0.00     0.125 A 
ATOM      9  C   UNL     1     -21.851 -49.527 105.803  1.00  0.00     0.078 A 
ATOM     10  C   UNL     1     -21.805 -48.802 104.608  1.00  0.00     0.223 A 
ENDROOT
BRANCH   1  11
ATOM     11  C   UNL     1     -20.604 -47.121 103.149  1.00  0.00     0.087 A 
ATOM     12  C   UNL     1     -19.639 -47.486 102.197  1.00  0.00     0.022 A 
ATOM     13  C   UNL     1     -19.513 -46.767 101.006  1.00  0.00     0.051 A 
ATOM     14  C   UNL     1     -20.355 -45.683 100.741  1.00  0.00     0.157 A 
ATOM     15  C   UNL     1     -21.464 -46.043 102.871  1.00  0.00     0.068 A 
ATOM     16  C   UNL     1     -21.339 -45.321 101.676  1.00  0.00     0.158 A 
BRANCH  14  17
ATOM     17  O   UNL     1     -20.203 -44.982  99.545  1.00  0.00    -0.504 OA
ATOM     18  H   UNL     1     -20.643 -45.286  98.684  1.00  0.00     0.293 HD
ENDBRANCH  14  17
BRANCH  16  19
ATOM     19  O   UNL     1     -22.193 -44.251 101.412  1.00  0.00    -0.504 OA
ATOM     20  H   UNL     1     -22.457 -44.003 100.466  1.00  0.00     0.293 HD
ENDBRANCH  16  19
ENDBRANCH   1  11
BRANCH  10  21
ATOM     21  O   UNL     1     -22.823 -48.942 103.665  1.00  0.00    -0.500 OA
ATOM     22  H   UNL     1     -23.696 -48.434 103.746  1.00  0.00     0.294 HD
ENDBRANCH  10  21
BRANCH   5  23
ATOM     23  O   UNL     1     -17.800 -48.659 109.570  1.00  0.00    -0.507 OA
ATOM     24  H   UNL     1     -16.832 -48.870 109.359  1.00  0.00     0.293 HD
ENDBRANCH   5  23
BRANCH   7  25
ATOM     25  O   UNL     1     -21.867 -50.961 108.275  1.00  0.00    -0.507 OA
ATOM     26  H   UNL     1     -22.069 -51.250 109.225  1.00  0.00     0.293 HD
ENDBRANCH   7  25
TORSDOF 6
ENDMDL
MODEL 3
REMARK VINA RESULT:    -6.627      1.242      3.093
REMARK INTER + INTRA:          -8.294
REMARK INTER:                  -8.094
REMARK INTRA:                  -0.200
REMARK UNBOUND:                -0.311
REMARK SMILES Oc1cc(O)c2cc(O)c(-c3ccc(O)c(O)c3)[o+]c2c1
REMARK SMILES IDX 10 1 19 2 20 3 21 4 2 5 3 6 4 7 6 8 7 9 8 10 11 11 12 12
REMARK SMILES IDX 13 13 14 14 18 15 16 16 15 17 17 19 9 21 1 23 5 25
REMARK H PARENT 15 18 17 20 9 22 1 24 5 26
REMARK Flexibility Score: inf
ROOT
ATOM      1  C   UNL     1     -20.990 -48.027 104.119  1.00  0.00     0.402 A 
ATOM      2  O   UNL     1     -20.039 -47.807 105.025  1.00  0.00    -0.202 OA
ATOM      3  C   UNL     1     -19.994 -48.428 106.200  1.00  0.00     0.368 A 
ATOM      4  C   UNL     1     -18.959 -48.143 107.095  1.00  0.00     0.162 A 
ATOM      5  C   UNL     1     -18.897 -48.792 108.331  1.00  0.00     0.128 A 
ATOM      6  C   UNL     1     -19.878 -49.732 108.677  1.00  0.00     0.093 A 
ATOM      7  C   UNL     1     -20.925 -50.027 107.790  1.00  0.00     0.136 A 
ATOM      8  C   UNL     1     -20.984 -49.374 106.545  1.00  0.00     0.125 A 
ATOM      9  C   UNL     1     -22.008 -49.622 105.624  1.00  0.00     0.078 A 
ATOM     10  C   UNL     1     -22.025 -48.940 104.403  1.00  0.00     0.223 A 
ENDROOT
BRANCH   1  11
ATOM     11  C   UNL     1     -20.928 -47.280 102.843  1.00  0.00     0.087 A 
ATOM     12  C   UNL     1     -21.911 -46.320 102.556  1.00  0.00     0.022 A 
ATOM     13  C   UNL     1     -21.861 -45.589 101.367  1.00  0.00     0.051 A 
ATOM     14  C   UNL     1     -20.822 -45.792 100.454  1.00  0.00     0.157 A 
ATOM     15  C   UNL     1     -19.872 -47.469 101.932  1.00  0.00     0.068 A 
ATOM     16  C   UNL     1     -19.820 -46.734 100.739  1.00  0.00     0.158 A 
BRANCH  14  17
ATOM     17  O   UNL     1     -20.800 -45.050  99.274  1.00  0.00    -0.504 OA
ATOM     18  H   UNL     1     -20.633 -44.051  99.271  1.00  0.00     0.293 HD
ENDBRANCH  14  17
BRANCH  16  19
ATOM     19  O   UNL     1     -18.772 -46.933  99.840  1.00  0.00    -0.504 OA
ATOM     20  H   UNL     1     -18.799 -46.555  98.901  1.00  0.00     0.293 HD
ENDBRANCH  16  19
ENDBRANCH   1  11
BRANCH  10  21
ATOM     21  O   UNL     1     -23.071 -49.146 103.502  1.00  0.00    -0.500 OA
ATOM     22  H   UNL     1     -22.916 -49.151 102.501  1.00  0.00     0.294 HD
ENDBRANCH  10  21
BRANCH   5  23
ATOM     23  O   UNL     1     -17.858 -48.496 109.211  1.00  0.00    -0.507 OA
ATOM     24  H   UNL     1     -17.949 -48.650 110.208  1.00  0.00     0.293 HD
ENDBRANCH   5  23
BRANCH   7  25
ATOM     25  O   UNL     1     -21.896 -50.963 108.145  1.00  0.00    -0.507 OA
ATOM     26  H   UNL     1     -21.693 -51.956 108.170  1.00  0.00     0.293 HD
ENDBRANCH   7  25
TORSDOF 6
ENDMDL
MODEL 4
REMARK VINA RESULT:    -6.572      1.543      7.202
REMARK INTER + INTRA:          -8.228
REMARK INTER:                  -8.273
REMARK INTRA:                   0.045
REMARK UNBOUND:                -0.311
REMARK SMILES Oc1cc(O)c2cc(O)c(-c3ccc(O)c(O)c3)[o+]c2c1
REMARK SMILES IDX 10 1 19 2 20 3 21 4 2 5 3 6 4 7 6 8 7 9 8 10 11 11 12 12
REMARK SMILES IDX 13 13 14 14 18 15 16 16 15 17 17 19 9 21 1 23 5 25
REMARK H PARENT 15 18 17 20 9 22 1 24 5 26
REMARK Flexibility Score: inf
ROOT
ATOM      1  C   UNL     1     -20.728 -47.810 104.870  1.00  0.00     0.402 A 
ATOM      2  O   UNL     1     -20.351 -46.536 104.773  1.00  0.00    -0.202 OA
ATOM      3  C   UNL     1     -20.559 -45.795 103.689  1.00  0.00     0.368 A 
ATOM      4  C   UNL     1     -20.137 -44.462 103.669  1.00  0.00     0.162 A 
ATOM      5  C   UNL     1     -20.353 -43.671 102.538  1.00  0.00     0.128 A 
ATOM      6  C   UNL     1     -20.995 -44.215 101.417  1.00  0.00     0.093 A 
ATOM      7  C   UNL     1     -21.424 -45.552 101.421  1.00  0.00     0.136 A 
ATOM      8  C   UNL     1     -21.206 -46.347 102.562  1.00  0.00     0.125 A 
ATOM      9  C   UNL     1     -21.603 -47.687 102.620  1.00  0.00     0.078 A 
ATOM     10  C   UNL     1     -21.357 -48.436 103.775  1.00  0.00     0.223 A 
ENDROOT
BRANCH   1  11
ATOM     11  C   UNL     1     -20.448 -48.529 106.133  1.00  0.00     0.087 A 
ATOM     12  C   UNL     1     -19.236 -48.300 106.804  1.00  0.00     0.022 A 
ATOM     13  C   UNL     1     -18.959 -48.952 108.008  1.00  0.00     0.051 A 
ATOM     14  C   UNL     1     -19.892 -49.830 108.568  1.00  0.00     0.157 A 
ATOM     15  C   UNL     1     -21.393 -49.397 106.708  1.00  0.00     0.068 A 
ATOM     16  C   UNL     1     -21.118 -50.052 107.917  1.00  0.00     0.158 A 
BRANCH  14  17
ATOM     17  O   UNL     1     -19.587 -50.469 109.769  1.00  0.00    -0.504 OA
ATOM     18  H   UNL     1     -20.270 -50.578 110.509  1.00  0.00     0.293 HD
ENDBRANCH  14  17
BRANCH  16  19
ATOM     19  O   UNL     1     -22.059 -50.915 108.477  1.00  0.00    -0.504 OA
ATOM     20  H   UNL     1     -22.532 -50.695 109.345  1.00  0.00     0.293 HD
ENDBRANCH  16  19
ENDBRANCH   1  11
BRANCH  10  21
ATOM     21  O   UNL     1     -21.706 -49.786 103.820  1.00  0.00    -0.500 OA
ATOM     22  H   UNL     1     -22.407 -50.132 104.465  1.00  0.00     0.294 HD
ENDBRANCH  10  21
BRANCH   5  23
ATOM     23  O   UNL     1     -19.926 -42.345 102.536  1.00  0.00    -0.507 OA
ATOM     24  H   UNL     1     -19.123 -42.048 101.993  1.00  0.00     0.293 HD
ENDBRANCH   5  23
BRANCH   7  25
ATOM     25  O   UNL     1     -22.060 -46.082 100.300  1.00  0.00    -0.507 OA
ATOM     26  H   UNL     1     -22.998 -45.802 100.038  1.00  0.00     0.293 HD
ENDBRANCH   7  25
TORSDOF 6
ENDMDL
MODEL 5
REMARK VINA RESULT:    -6.528      1.538      7.237
REMARK INTER + INTRA:          -8.174
REMARK INTER:                  -8.256
REMARK INTRA:                   0.081
REMARK UNBOUND:                -0.311
REMARK SMILES Oc1cc(O)c2cc(O)c(-c3ccc(O)c(O)c3)[o+]c2c1
REMARK SMILES IDX 10 1 19 2 20 3 21 4 2 5 3 6 4 7 6 8 7 9 8 10 11 11 12 12
REMARK SMILES IDX 13 13 14 14 18 15 16 16 15 17 17 19 9 21 1 23 5 25
REMARK H PARENT 15 18 17 20 9 22 1 24 5 26
REMARK Flexibility Score: inf
ROOT
ATOM      1  C   UNL     1     -20.839 -47.618 104.496  1.00  0.00     0.402 A 
ATOM      2  O   UNL     1     -20.491 -46.333 104.442  1.00  0.00    -0.202 OA
ATOM      3  C   UNL     1     -20.625 -45.587 103.350  1.00  0.00     0.368 A 
ATOM      4  C   UNL     1     -20.241 -44.243 103.377  1.00  0.00     0.162 A 
ATOM      5  C   UNL     1     -20.381 -43.446 102.238  1.00  0.00     0.128 A 
ATOM      6  C   UNL     1     -20.909 -43.996 101.061  1.00  0.00     0.093 A 
ATOM      7  C   UNL     1     -21.298 -45.344 101.017  1.00  0.00     0.136 A 
ATOM      8  C   UNL     1     -21.157 -46.145 102.167  1.00  0.00     0.125 A 
ATOM      9  C   UNL     1     -21.520 -47.496 102.180  1.00  0.00     0.078 A 
ATOM     10  C   UNL     1     -21.354 -48.249 103.346  1.00  0.00     0.223 A 
ENDROOT
BRANCH   1  11
ATOM     11  C   UNL     1     -20.649 -48.342 105.773  1.00  0.00     0.087 A 
ATOM     12  C   UNL     1     -21.643 -49.227 106.219  1.00  0.00     0.022 A 
ATOM     13  C   UNL     1     -21.476 -49.936 107.411  1.00  0.00     0.051 A 
ATOM     14  C   UNL     1     -20.310 -49.784 108.168  1.00  0.00     0.157 A 
ATOM     15  C   UNL     1     -19.468 -48.206 106.525  1.00  0.00     0.068 A 
ATOM     16  C   UNL     1     -19.298 -48.918 107.721  1.00  0.00     0.158 A 
BRANCH  14  17
ATOM     17  O   UNL     1     -20.173 -50.503 109.355  1.00  0.00    -0.504 OA
ATOM     18  H   UNL     1     -19.450 -51.201 109.480  1.00  0.00     0.293 HD
ENDBRANCH  14  17
BRANCH  16  19
ATOM     19  O   UNL     1     -18.126 -48.772 108.462  1.00  0.00    -0.504 OA
ATOM     20  H   UNL     1     -17.328 -48.264 108.100  1.00  0.00     0.293 HD
ENDBRANCH  16  19
ENDBRANCH   1  11
BRANCH  10  21
ATOM     21  O   UNL     1     -21.666 -49.609 103.351  1.00  0.00    -0.500 OA
ATOM     22  H   UNL     1     -22.388 -49.990 102.750  1.00  0.00     0.294 HD
ENDBRANCH  10  21
BRANCH   5  23
ATOM     23  O   UNL     1     -19.993 -42.110 102.282  1.00  0.00    -0.507 OA
ATOM     24  H   UNL     1     -20.654 -41.360 102.114  1.00  0.00     0.293 HD
ENDBRANCH   5  23
BRANCH   7  25
ATOM     25  O   UNL     1     -21.820 -45.881  99.841  1.00  0.00    -0.507 OA
ATOM     26  H   UNL     1     -22.288 -45.302  99.154  1.00  0.00     0.293 HD
ENDBRANCH   7  25
TORSDOF 6
ENDMDL
MODEL 6
REMARK VINA RESULT:    -6.313      4.170      6.671
REMARK INTER + INTRA:          -7.916
REMARK INTER:                  -8.101
REMARK INTRA:                   0.185
REMARK UNBOUND:                -0.311
REMARK SMILES Oc1cc(O)c2cc(O)c(-c3ccc(O)c(O)c3)[o+]c2c1
REMARK SMILES IDX 10 1 19 2 20 3 21 4 2 5 3 6 4 7 6 8 7 9 8 10 11 11 12 12
REMARK SMILES IDX 13 13 14 14 18 15 16 16 15 17 17 19 9 21 1 23 5 25
REMARK H PARENT 15 18 17 20 9 22 1 24 5 26
REMARK Flexibility Score: inf
ROOT
ATOM      1  C   UNL     1     -22.893 -48.718 103.126  1.00  0.00     0.402 A 
ATOM      2  O   UNL     1     -21.876 -48.349 102.348  1.00  0.00    -0.202 OA
ATOM      3  C   UNL     1     -21.175 -47.236 102.544  1.00  0.00     0.368 A 
ATOM      4  C   UNL     1     -20.118 -46.922 101.684  1.00  0.00     0.162 A 
ATOM      5  C   UNL     1     -19.370 -45.759 101.882  1.00  0.00     0.128 A 
ATOM      6  C   UNL     1     -19.681 -44.900 102.946  1.00  0.00     0.093 A 
ATOM      7  C   UNL     1     -20.740 -45.201 103.817  1.00  0.00     0.136 A 
ATOM      8  C   UNL     1     -21.491 -46.375 103.617  1.00  0.00     0.125 A 
ATOM      9  C   UNL     1     -22.562 -46.721 104.448  1.00  0.00     0.078 A 
ATOM     10  C   UNL     1     -23.281 -47.895 104.202  1.00  0.00     0.223 A 
ENDROOT
BRANCH   1  11
ATOM     11  C   UNL     1     -23.591 -49.984 102.811  1.00  0.00     0.087 A 
ATOM     12  C   UNL     1     -23.608 -50.452 101.488  1.00  0.00     0.022 A 
ATOM     13  C   UNL     1     -24.244 -51.655 101.170  1.00  0.00     0.051 A 
ATOM     14  C   UNL     1     -24.859 -52.415 102.169  1.00  0.00     0.157 A 
ATOM     15  C   UNL     1     -24.193 -50.761 103.818  1.00  0.00     0.068 A 
ATOM     16  C   UNL     1     -24.830 -51.969 103.501  1.00  0.00     0.158 A 
BRANCH  14  17
ATOM     17  O   UNL     1     -25.489 -53.610 101.822  1.00  0.00    -0.504 OA
ATOM     18  H   UNL     1     -24.966 -54.437 101.560  1.00  0.00     0.293 HD
ENDBRANCH  14  17
BRANCH  16  19
ATOM     19  O   UNL     1     -25.429 -52.729 104.506  1.00  0.00    -0.504 OA
ATOM     20  H   UNL     1     -25.035 -53.610 104.811  1.00  0.00     0.293 HD
ENDBRANCH  16  19
ENDBRANCH   1  11
BRANCH  10  21
ATOM     21  O   UNL     1     -24.381 -48.221 104.996  1.00  0.00    -0.500 OA
ATOM     22  H   UNL     1     -25.271 -47.747 104.891  1.00  0.00     0.294 HD
ENDBRANCH  10  21
BRANCH   5  23
ATOM     23  O   UNL     1     -18.321 -45.461 101.015  1.00  0.00    -0.507 OA
ATOM     24  H   UNL     1     -17.942 -46.157 100.384  1.00  0.00     0.293 HD
ENDBRANCH   5  23
BRANCH   7  25
ATOM     25  O   UNL     1     -21.040 -44.340 104.872  1.00  0.00    -0.507 OA
ATOM     26  H   UNL     1     -20.405 -44.211 105.650  1.00  0.00     0.293 HD
ENDBRANCH   7  25
TORSDOF 6
ENDMDL
MODEL 7
REMARK VINA RESULT:    -6.200      1.931      3.521
REMARK INTER + INTRA:          -7.780
REMARK INTER:                  -7.500
REMARK INTRA:                  -0.280
REMARK UNBOUND:                -0.311
REMARK SMILES Oc1cc(O)c2cc(O)c(-c3ccc(O)c(O)c3)[o+]c2c1
REMARK SMILES IDX 10 1 19 2 20 3 21 4 2 5 3 6 4 7 6 8 7 9 8 10 11 11 12 12
REMARK SMILES IDX 13 13 14 14 18 15 16 16 15 17 17 19 9 21 1 23 5 25
REMARK H PARENT 15 18 17 20 9 22 1 24 5 26
REMARK Flexibility Score: inf
ROOT
ATOM      1  C   UNL     1     -20.310 -48.667 106.231  1.00  0.00     0.402 A 
ATOM      2  O   UNL     1     -19.467 -47.991 107.012  1.00  0.00    -0.202 OA
ATOM      3  C   UNL     1     -19.027 -48.453 108.179  1.00  0.00     0.368 A 
ATOM      4  C   UNL     1     -18.139 -47.684 108.937  1.00  0.00     0.162 A 
ATOM      5  C   UNL     1     -17.665 -48.159 110.163  1.00  0.00     0.128 A 
ATOM      6  C   UNL     1     -18.081 -49.411 110.636  1.00  0.00     0.093 A 
ATOM      7  C   UNL     1     -18.973 -50.194 109.887  1.00  0.00     0.136 A 
ATOM      8  C   UNL     1     -19.449 -49.715 108.652  1.00  0.00     0.125 A 
ATOM      9  C   UNL     1     -20.345 -50.447 107.866  1.00  0.00     0.078 A 
ATOM     10  C   UNL     1     -20.793 -49.923 106.649  1.00  0.00     0.223 A 
ENDROOT
BRANCH   1  11
ATOM     11  C   UNL     1     -20.722 -48.052 104.950  1.00  0.00     0.087 A 
ATOM     12  C   UNL     1     -19.834 -48.061 103.863  1.00  0.00     0.022 A 
ATOM     13  C   UNL     1     -20.209 -47.504 102.637  1.00  0.00     0.051 A 
ATOM     14  C   UNL     1     -21.479 -46.944 102.474  1.00  0.00     0.157 A 
ATOM     15  C   UNL     1     -22.007 -47.506 104.777  1.00  0.00     0.068 A 
ATOM     16  C   UNL     1     -22.385 -46.948 103.548  1.00  0.00     0.158 A 
BRANCH  14  17
ATOM     17  O   UNL     1     -21.824 -46.393 101.241  1.00  0.00    -0.504 OA
ATOM     18  H   UNL     1     -21.174 -45.834 100.700  1.00  0.00     0.293 HD
ENDBRANCH  14  17
BRANCH  16  19
ATOM     19  O   UNL     1     -23.659 -46.404 103.389  1.00  0.00    -0.504 OA
ATOM     20  H   UNL     1     -23.869 -45.453 103.666  1.00  0.00     0.293 HD
ENDBRANCH  16  19
ENDBRANCH   1  11
BRANCH  10  21
ATOM     21  O   UNL     1     -21.725 -50.625 105.886  1.00  0.00    -0.500 OA
ATOM     22  H   UNL     1     -22.435 -51.207 106.317  1.00  0.00     0.294 HD
ENDBRANCH  10  21
BRANCH   5  23
ATOM     23  O   UNL     1     -16.781 -47.380 110.906  1.00  0.00    -0.507 OA
ATOM     24  H   UNL     1     -17.064 -46.939 111.773  1.00  0.00     0.293 HD
ENDBRANCH   5  23
BRANCH   7  25
ATOM     25  O   UNL     1     -19.382 -51.438 110.367  1.00  0.00    -0.507 OA
ATOM     26  H   UNL     1     -20.306 -51.806 110.172  1.00  0.00     0.293 HD
ENDBRANCH   7  25
TORSDOF 6
ENDMDL
MODEL 8
REMARK VINA RESULT:    -6.042      4.691      6.409
REMARK INTER + INTRA:          -7.589
REMARK INTER:                  -7.660
REMARK INTRA:                   0.071
REMARK UNBOUND:                -0.311
REMARK SMILES Oc1cc(O)c2cc(O)c(-c3ccc(O)c(O)c3)[o+]c2c1
REMARK SMILES IDX 10 1 19 2 20 3 21 4 2 5 3 6 4 7 6 8 7 9 8 10 11 11 12 12
REMARK SMILES IDX 13 13 14 14 18 15 16 16 15 17 17 19 9 21 1 23 5 25
REMARK H PARENT 15 18 17 20 9 22 1 24 5 26
REMARK Flexibility Score: inf
ROOT
ATOM      1  C   UNL     1     -23.053 -50.619 103.802  1.00  0.00     0.402 A 
ATOM      2  O   UNL     1     -22.488 -50.697 105.007  1.00  0.00    -0.202 OA
ATOM      3  C   UNL     1     -21.645 -49.784 105.477  1.00  0.00     0.368 A 
ATOM      4  C   UNL     1     -21.099 -49.937 106.755  1.00  0.00     0.162 A 
ATOM      5  C   UNL     1     -20.215 -48.981 107.263  1.00  0.00     0.128 A 
ATOM      6  C   UNL     1     -19.872 -47.864 106.488  1.00  0.00     0.093 A 
ATOM      7  C   UNL     1     -20.410 -47.697 105.203  1.00  0.00     0.136 A 
ATOM      8  C   UNL     1     -21.302 -48.660 104.693  1.00  0.00     0.125 A 
ATOM      9  C   UNL     1     -21.863 -48.550 103.416  1.00  0.00     0.078 A 
ATOM     10  C   UNL     1     -22.739 -49.538 102.954  1.00  0.00     0.223 A 
ENDROOT
BRANCH   1  11
ATOM     11  C   UNL     1     -23.983 -51.695 103.394  1.00  0.00     0.087 A 
ATOM     12  C   UNL     1     -24.968 -52.133 104.292  1.00  0.00     0.022 A 
ATOM     13  C   UNL     1     -25.870 -53.134 103.921  1.00  0.00     0.051 A 
ATOM     14  C   UNL     1     -25.812 -53.701 102.644  1.00  0.00     0.157 A 
ATOM     15  C   UNL     1     -23.940 -52.252 102.103  1.00  0.00     0.068 A 
ATOM     16  C   UNL     1     -24.845 -53.255 101.728  1.00  0.00     0.158 A 
BRANCH  14  17
ATOM     17  O   UNL     1     -26.724 -54.699 102.303  1.00  0.00    -0.504 OA
ATOM     18  H   UNL     1     -26.554 -55.676 102.512  1.00  0.00     0.293 HD
ENDBRANCH  14  17
BRANCH  16  19
ATOM     19  O   UNL     1     -24.790 -53.805 100.448  1.00  0.00    -0.504 OA
ATOM     20  H   UNL     1     -23.964 -53.718  99.867  1.00  0.00     0.293 HD
ENDBRANCH  16  19
ENDBRANCH   1  11
BRANCH  10  21
ATOM     21  O   UNL     1     -23.262 -49.460 101.663  1.00  0.00    -0.500 OA
ATOM     22  H   UNL     1     -24.049 -48.861 101.444  1.00  0.00     0.294 HD
ENDBRANCH  10  21
BRANCH   5  23
ATOM     23  O   UNL     1     -19.680 -49.150 108.538  1.00  0.00    -0.507 OA
ATOM     24  H   UNL     1     -19.170 -48.407 109.001  1.00  0.00     0.293 HD
ENDBRANCH   5  23
BRANCH   7  25
ATOM     25  O   UNL     1     -20.061 -46.583 104.441  1.00  0.00    -0.507 OA
ATOM     26  H   UNL     1     -19.358 -45.924 104.754  1.00  0.00     0.293 HD
ENDBRANCH   7  25
TORSDOF 6
ENDMDL
MODEL 9
REMARK VINA RESULT:    -5.970      1.605      3.317
REMARK INTER + INTRA:          -7.503
REMARK INTER:                  -7.154
REMARK INTRA:                  -0.349
REMARK UNBOUND:                -0.311
REMARK SMILES Oc1cc(O)c2cc(O)c(-c3ccc(O)c(O)c3)[o+]c2c1
REMARK SMILES IDX 10 1 19 2 20 3 21 4 2 5 3 6 4 7 6 8 7 9 8 10 11 11 12 12
REMARK SMILES IDX 13 13 14 14 18 15 16 16 15 17 17 19 9 21 1 23 5 25
REMARK H PARENT 15 18 17 20 9 22 1 24 5 26
REMARK Flexibility Score: inf
ROOT
ATOM      1  C   UNL     1     -19.820 -47.144 103.724  1.00  0.00     0.402 A 
ATOM      2  O   UNL     1     -18.995 -46.400 104.460  1.00  0.00    -0.202 OA
ATOM      3  C   UNL     1     -18.647 -46.712 105.704  1.00  0.00     0.368 A 
ATOM      4  C   UNL     1     -17.772 -45.879 106.408  1.00  0.00     0.162 A 
ATOM      5  C   UNL     1     -17.393 -46.198 107.715  1.00  0.00     0.128 A 
ATOM      6  C   UNL     1     -17.894 -47.357 108.325  1.00  0.00     0.093 A 
ATOM      7  C   UNL     1     -18.775 -48.202 107.632  1.00  0.00     0.136 A 
ATOM      8  C   UNL     1     -19.154 -47.880 106.315  1.00  0.00     0.125 A 
ATOM      9  C   UNL     1     -20.034 -48.680 105.579  1.00  0.00     0.078 A 
ATOM     10  C   UNL     1     -20.384 -48.312 104.276  1.00  0.00     0.223 A 
ENDROOT
BRANCH   1  11
ATOM     11  C   UNL     1     -20.126 -46.697 102.347  1.00  0.00     0.087 A 
ATOM     12  C   UNL     1     -21.227 -45.854 102.124  1.00  0.00     0.022 A 
ATOM     13  C   UNL     1     -21.523 -45.403 100.835  1.00  0.00     0.051 A 
ATOM     14  C   UNL     1     -20.718 -45.773  99.753  1.00  0.00     0.157 A 
ATOM     15  C   UNL     1     -19.306 -47.051 101.261  1.00  0.00     0.068 A 
ATOM     16  C   UNL     1     -19.602 -46.598  99.967  1.00  0.00     0.158 A 
BRANCH  14  17
ATOM     17  O   UNL     1     -21.041 -45.310  98.478  1.00  0.00    -0.504 OA
ATOM     18  H   UNL     1     -20.368 -45.310  97.720  1.00  0.00     0.293 HD
ENDBRANCH  14  17
BRANCH  16  19
ATOM     19  O   UNL     1     -18.786 -46.960  98.895  1.00  0.00    -0.504 OA
ATOM     20  H   UNL     1     -18.809 -47.893  98.501  1.00  0.00     0.293 HD
ENDBRANCH  16  19
ENDBRANCH   1  11
BRANCH  10  21
ATOM     21  O   UNL     1     -21.301 -49.078 103.555  1.00  0.00    -0.500 OA
ATOM     22  H   UNL     1     -22.234 -48.739 103.354  1.00  0.00     0.294 HD
ENDBRANCH  10  21
BRANCH   5  23
ATOM     23  O   UNL     1     -16.521 -45.357 108.402  1.00  0.00    -0.507 OA
ATOM     24  H   UNL     1     -16.378 -44.395 108.118  1.00  0.00     0.293 HD
ENDBRANCH   5  23
BRANCH   7  25
ATOM     25  O   UNL     1     -19.268 -49.351 108.249  1.00  0.00    -0.507 OA
ATOM     26  H   UNL     1     -20.231 -49.417 108.557  1.00  0.00     0.293 HD
ENDBRANCH   7  25
TORSDOF 6
ENDMDL
