MODEL 1
REMARK VINA RESULT:    63.176      0.000      0.000
REMARK INTER + INTRA:          87.821
REMARK INTER:                  87.183
REMARK INTRA:                   0.639
REMARK UNBOUND:                 0.639
REMARK SMILES CC[C@H](CC[C@@H](C)[C@H]1CC[C@H]2C3=CC[C@@H]4C[C@H](O)CC[C@]4(C)[C@H]3CC[C@@]12C)C(C)C
REMARK SMILES IDX 5 1 4 2 3 3 2 4 1 5 28 6 29 7 30 8 6 9 7 10 8 11 9 12 26 13
REMARK SMILES IDX 10 14 11 15 25 16 27 17 12 18 24 19 23 20 13 21 21 22 14 23
REMARK SMILES IDX 15 24 20 25 22 26 16 27 19 28 17 29 18 30
REMARK H PARENT 18 31
REMARK Flexibility Score: inf
ROOT
ATOM      1  C   UNL     1      28.752 -26.164   6.571  1.00  0.00     0.004 C 
ENDROOT
BRANCH   1   2
ATOM      2  C   UNL     1      27.310 -26.331   6.034  1.00  0.00     0.004 C 
BRANCH   2   3
ATOM      3  C   UNL     1      27.229 -27.354   4.864  1.00  0.00    -0.009 C 
BRANCH   3   4
ATOM      4  C   UNL     1      27.746 -28.737   5.356  1.00  0.00     0.000 C 
ATOM      5  C   UNL     1      27.645 -28.949   6.867  1.00  0.00     0.004 C 
ENDBRANCH   3   4
BRANCH   3   6
ATOM      6  C   UNL     1      25.785 -27.365   4.241  1.00  0.00    -0.014 C 
ATOM      7  C   UNL     1      25.668 -26.611   2.905  1.00  0.00     0.007 C 
ATOM      8  C   UNL     1      24.712 -26.890   5.230  1.00  0.00     0.007 C 
ENDBRANCH   3   6
ENDBRANCH   2   3
ENDBRANCH   1   2
BRANCH   1   9
ATOM      9  C   UNL     1      29.269 -24.700   6.673  1.00  0.00    -0.011 C 
ATOM     10  C   UNL     1      29.692 -24.357   8.116  1.00  0.00     0.008 C 
BRANCH   9  11
ATOM     11  C   UNL     1      30.363 -24.231   5.632  1.00  0.00    -0.002 C 
ATOM     12  C   UNL     1      30.552 -22.722   5.389  1.00  0.00     0.005 C 
ATOM     13  C   UNL     1      31.807 -24.751   5.886  1.00  0.00    -0.023 C 
ATOM     14  C   UNL     1      31.963 -22.548   4.820  1.00  0.00     0.009 C 
ATOM     15  C   UNL     1      32.607 -23.937   4.844  1.00  0.00     0.021 C 
ATOM     16  C   UNL     1      32.279 -24.480   7.362  1.00  0.00     0.008 C 
ATOM     17  C   UNL     1      31.911 -26.262   5.572  1.00  0.00     0.012 C 
ATOM     18  C   UNL     1      34.105 -23.893   5.079  1.00  0.00    -0.067 C 
ATOM     19  C   UNL     1      33.626 -23.756   7.523  1.00  0.00     0.009 C 
ATOM     20  C   UNL     1      34.678 -24.155   6.466  1.00  0.00     0.021 C 
ATOM     21  C   UNL     1      34.918 -23.778   4.015  1.00  0.00    -0.027 C 
ATOM     22  C   UNL     1      36.153 -23.551   6.719  1.00  0.00    -0.023 C 
ATOM     23  C   UNL     1      36.400 -23.830   4.178  1.00  0.00     0.031 C 
ATOM     24  C   UNL     1      36.787 -22.981   5.394  1.00  0.00     0.002 C 
ATOM     25  C   UNL     1      37.036 -24.715   7.272  1.00  0.00     0.010 C 
ATOM     26  C   UNL     1      36.141 -22.397   7.767  1.00  0.00     0.012 C 
ATOM     27  C   UNL     1      38.321 -22.751   5.460  1.00  0.00     0.036 C 
ATOM     28  C   UNL     1      38.525 -24.365   7.390  1.00  0.00     0.032 C 
ATOM     29  C   UNL     1      39.109 -23.931   6.041  1.00  0.00     0.114 C 
BRANCH  29  30
ATOM     30  O   UNL     1      39.110 -25.003   5.131  1.00  0.00    -0.393 OA
ATOM     31  H   UNL     1      38.721 -25.780   5.609  1.00  0.00     0.210 HD
ENDBRANCH  29  30
ENDBRANCH   9  11
ENDBRANCH   1   9
TORSDOF 7
ENDMDL
MODEL 2
REMARK VINA RESULT:    65.942      2.922      9.481
REMARK INTER + INTRA:          91.638
REMARK INTER:                  90.803
REMARK INTRA:                   0.836
REMARK UNBOUND:                 0.639
REMARK SMILES CC[C@H](CC[C@@H](C)[C@H]1CC[C@H]2C3=CC[C@@H]4C[C@H](O)CC[C@]4(C)[C@H]3CC[C@@]12C)C(C)C
REMARK SMILES IDX 5 1 4 2 3 3 2 4 1 5 28 6 29 7 30 8 6 9 7 10 8 11 9 12 26 13
REMARK SMILES IDX 10 14 11 15 25 16 27 17 12 18 24 19 23 20 13 21 21 22 14 23
REMARK SMILES IDX 15 24 20 25 22 26 16 27 19 28 17 29 18 30
REMARK H PARENT 18 31
REMARK Flexibility Score: inf
ROOT
ATOM      1  C   UNL     1      36.189 -24.676   7.261  1.00  0.00     0.004 C 
ENDROOT
BRANCH   1   2
ATOM      2  C   UNL     1      36.823 -23.494   8.033  1.00  0.00     0.004 C 
BRANCH   2   3
ATOM      3  C   UNL     1      37.922 -22.768   7.206  1.00  0.00    -0.009 C 
BRANCH   3   4
ATOM      4  C   UNL     1      38.664 -21.748   8.119  1.00  0.00     0.000 C 
ATOM      5  C   UNL     1      38.496 -20.287   7.702  1.00  0.00     0.004 C 
ENDBRANCH   3   4
BRANCH   3   6
ATOM      6  C   UNL     1      38.850 -23.814   6.485  1.00  0.00    -0.014 C 
ATOM      7  C   UNL     1      38.588 -23.955   4.976  1.00  0.00     0.007 C 
ATOM      8  C   UNL     1      38.836 -25.186   7.171  1.00  0.00     0.007 C 
ENDBRANCH   3   6
ENDBRANCH   2   3
ENDBRANCH   1   2
BRANCH   1   9
ATOM      9  C   UNL     1      34.739 -24.447   6.747  1.00  0.00    -0.011 C 
ATOM     10  C   UNL     1      34.690 -23.313   5.703  1.00  0.00     0.008 C 
BRANCH   9  11
ATOM     11  C   UNL     1      33.923 -25.710   6.255  1.00  0.00    -0.002 C 
ATOM     12  C   UNL     1      33.797 -26.920   7.198  1.00  0.00     0.005 C 
ATOM     13  C   UNL     1      32.460 -25.437   5.802  1.00  0.00    -0.023 C 
ATOM     14  C   UNL     1      32.562 -27.700   6.740  1.00  0.00     0.009 C 
ATOM     15  C   UNL     1      31.930 -26.876   5.614  1.00  0.00     0.021 C 
ATOM     16  C   UNL     1      31.652 -24.627   6.882  1.00  0.00     0.008 C 
ATOM     17  C   UNL     1      32.433 -24.681   4.453  1.00  0.00     0.012 C 
ATOM     18  C   UNL     1      30.420 -27.001   5.563  1.00  0.00    -0.067 C 
ATOM     19  C   UNL     1      30.305 -25.229   7.316  1.00  0.00     0.009 C 
ATOM     20  C   UNL     1      29.534 -25.920   6.171  1.00  0.00     0.021 C 
ATOM     21  C   UNL     1      29.882 -27.995   4.837  1.00  0.00    -0.027 C 
ATOM     22  C   UNL     1      28.041 -26.399   6.554  1.00  0.00    -0.023 C 
ATOM     23  C   UNL     1      28.404 -28.105   4.670  1.00  0.00     0.031 C 
ATOM     24  C   UNL     1      27.740 -27.853   6.028  1.00  0.00     0.002 C 
ATOM     25  C   UNL     1      27.051 -25.382   5.900  1.00  0.00     0.010 C 
ATOM     26  C   UNL     1      27.804 -26.400   8.095  1.00  0.00     0.012 C 
ATOM     27  C   UNL     1      26.234 -28.230   6.002  1.00  0.00     0.036 C 
ATOM     28  C   UNL     1      25.578 -25.793   6.005  1.00  0.00     0.032 C 
ATOM     29  C   UNL     1      25.331 -27.166   5.368  1.00  0.00     0.114 C 
BRANCH  29  30
ATOM     30  O   UNL     1      25.545 -27.117   3.980  1.00  0.00    -0.393 OA
ATOM     31  H   UNL     1      24.730 -27.489   3.554  1.00  0.00     0.210 HD
ENDBRANCH  29  30
ENDBRANCH   9  11
ENDBRANCH   1   9
TORSDOF 7
ENDMDL
MODEL 3
REMARK VINA RESULT:    66.126      1.302      2.564
REMARK INTER + INTRA:          91.892
REMARK INTER:                  91.910
REMARK INTRA:                  -0.018
REMARK UNBOUND:                 0.639
REMARK SMILES CC[C@H](CC[C@@H](C)[C@H]1CC[C@H]2C3=CC[C@@H]4C[C@H](O)CC[C@]4(C)[C@H]3CC[C@@]12C)C(C)C
REMARK SMILES IDX 5 1 4 2 3 3 2 4 1 5 28 6 29 7 30 8 6 9 7 10 8 11 9 12 26 13
REMARK SMILES IDX 10 14 11 15 25 16 27 17 12 18 24 19 23 20 13 21 21 22 14 23
REMARK SMILES IDX 15 24 20 25 22 26 16 27 19 28 17 29 18 30
REMARK H PARENT 18 31
REMARK Flexibility Score: inf
ROOT
ATOM      1  C   UNL     1      28.006 -26.168   7.020  1.00  0.00     0.004 C 
ENDROOT
BRANCH   1   2
ATOM      2  C   UNL     1      27.344 -27.457   6.474  1.00  0.00     0.004 C 
BRANCH   2   3
ATOM      3  C   UNL     1      27.501 -27.595   4.933  1.00  0.00    -0.009 C 
BRANCH   3   4
ATOM      4  C   UNL     1      28.291 -28.897   4.612  1.00  0.00     0.000 C 
ATOM      5  C   UNL     1      28.891 -28.943   3.206  1.00  0.00     0.004 C 
ENDBRANCH   3   4
BRANCH   3   6
ATOM      6  C   UNL     1      26.102 -27.473   4.224  1.00  0.00    -0.014 C 
ATOM      7  C   UNL     1      26.088 -26.523   3.014  1.00  0.00     0.007 C 
ATOM      8  C   UNL     1      24.973 -27.124   5.202  1.00  0.00     0.007 C 
ENDBRANCH   3   6
ENDBRANCH   2   3
ENDBRANCH   1   2
BRANCH   1   9
ATOM      9  C   UNL     1      29.236 -25.650   6.221  1.00  0.00    -0.011 C 
ATOM     10  C   UNL     1      29.220 -24.112   6.108  1.00  0.00     0.008 C 
BRANCH   9  11
ATOM     11  C   UNL     1      30.666 -26.175   6.646  1.00  0.00    -0.002 C 
ATOM     12  C   UNL     1      31.348 -27.246   5.776  1.00  0.00     0.005 C 
ATOM     13  C   UNL     1      31.763 -25.085   6.823  1.00  0.00    -0.023 C 
ATOM     14  C   UNL     1      32.848 -27.149   6.065  1.00  0.00     0.009 C 
ATOM     15  C   UNL     1      33.024 -25.957   7.010  1.00  0.00     0.021 C 
ATOM     16  C   UNL     1      31.858 -24.138   5.571  1.00  0.00     0.008 C 
ATOM     17  C   UNL     1      31.504 -24.246   8.096  1.00  0.00     0.012 C 
ATOM     18  C   UNL     1      34.340 -25.230   6.810  1.00  0.00    -0.067 C 
ATOM     19  C   UNL     1      33.255 -23.966   4.952  1.00  0.00     0.009 C 
ATOM     20  C   UNL     1      34.397 -23.947   5.991  1.00  0.00     0.021 C 
ATOM     21  C   UNL     1      35.417 -25.649   7.496  1.00  0.00    -0.027 C 
ATOM     22  C   UNL     1      35.851 -23.586   5.389  1.00  0.00    -0.023 C 
ATOM     23  C   UNL     1      36.710 -24.911   7.414  1.00  0.00     0.031 C 
ATOM     24  C   UNL     1      36.970 -24.544   5.949  1.00  0.00     0.002 C 
ATOM     25  C   UNL     1      36.163 -22.111   5.796  1.00  0.00     0.010 C 
ATOM     26  C   UNL     1      35.882 -23.688   3.834  1.00  0.00     0.012 C 
ATOM     27  C   UNL     1      38.420 -24.031   5.741  1.00  0.00     0.036 C 
ATOM     28  C   UNL     1      37.592 -21.663   5.468  1.00  0.00     0.032 C 
ATOM     29  C   UNL     1      38.632 -22.567   6.140  1.00  0.00     0.114 C 
BRANCH  29  30
ATOM     30  O   UNL     1      38.576 -22.436   7.539  1.00  0.00    -0.393 OA
ATOM     31  H   UNL     1      39.056 -23.217   7.916  1.00  0.00     0.210 HD
ENDBRANCH  29  30
ENDBRANCH   9  11
ENDBRANCH   1   9
TORSDOF 7
ENDMDL
