MODEL 1
REMARK VINA RESULT:    -6.972      0.000      0.000
REMARK INTER + INTRA:          -8.461
REMARK INTER:                  -8.195
REMARK INTRA:                  -0.266
REMARK UNBOUND:                -0.266
REMARK SMILES O=c1cc(-c2ccc(O)c(O)c2)oc2cc(O)cc(O)c12
REMARK SMILES IDX 4 1 3 2 2 3 1 4 21 5 19 6 18 7 16 8 15 9 14 10 13 11 5 12
REMARK SMILES IDX 6 13 7 14 8 15 12 16 10 17 9 18 11 20 20 22 17 24
REMARK H PARENT 9 19 11 21 20 23 17 25
REMARK Flexibility Score: inf
ROOT
ATOM      1  C   UNL     1       7.134  52.566  21.257  1.00  0.00     0.138 A 
ATOM      2  C   UNL     1       6.967  51.787  20.105  1.00  0.00     0.100 A 
ATOM      3  C   UNL     1       5.963  52.110  19.192  1.00  0.00     0.197 A 
ATOM      4  O   UNL     1       5.877  51.432  18.136  1.00  0.00    -0.289 OA
ATOM      5  C   UNL     1       5.100  53.203  19.453  1.00  0.00     0.107 A 
ATOM      6  C   UNL     1       4.016  53.600  18.615  1.00  0.00     0.134 A 
ATOM      7  C   UNL     1       3.304  54.768  18.916  1.00  0.00     0.093 A 
ATOM      8  C   UNL     1       3.598  55.518  20.058  1.00  0.00     0.123 A 
ATOM      9  C   UNL     1       4.620  55.108  20.910  1.00  0.00     0.094 A 
ATOM     10  C   UNL     1       5.371  53.967  20.620  1.00  0.00     0.146 A 
ATOM     11  O   UNL     1       6.347  53.619  21.452  1.00  0.00    -0.456 OA
ENDROOT
BRANCH   1  12
ATOM     12  C   UNL     1       8.186  52.265  22.262  1.00  0.00     0.021 A 
ATOM     13  C   UNL     1       7.866  51.933  23.590  1.00  0.00     0.016 A 
ATOM     14  C   UNL     1       8.876  51.665  24.516  1.00  0.00     0.051 A 
ATOM     15  C   UNL     1      10.222  51.730  24.144  1.00  0.00     0.157 A 
ATOM     16  C   UNL     1       9.539  52.344  21.892  1.00  0.00     0.062 A 
ATOM     17  C   UNL     1      10.560  52.075  22.814  1.00  0.00     0.158 A 
BRANCH  15  18
ATOM     18  O   UNL     1      11.183  51.448  25.118  1.00  0.00    -0.504 OA
ATOM     19  H   UNL     1      12.151  51.243  24.913  1.00  0.00     0.293 HD
ENDBRANCH  15  18
BRANCH  17  20
ATOM     20  O   UNL     1      11.880  52.165  22.370  1.00  0.00    -0.504 OA
ATOM     21  H   UNL     1      12.684  51.965  22.947  1.00  0.00     0.293 HD
ENDBRANCH  17  20
ENDBRANCH   1  12
BRANCH   6  22
ATOM     22  O   UNL     1       3.585  52.876  17.499  1.00  0.00    -0.507 OA
ATOM     23  H   UNL     1       4.100  52.785  16.637  1.00  0.00     0.293 HD
ENDBRANCH   6  22
BRANCH   8  24
ATOM     24  O   UNL     1       2.875  56.671  20.357  1.00  0.00    -0.508 OA
ATOM     25  H   UNL     1       2.432  57.221  19.631  1.00  0.00     0.293 HD
ENDBRANCH   8  24
TORSDOF 5
ENDMDL
MODEL 2
REMARK VINA RESULT:    -6.928      1.523      2.803
REMARK INTER + INTRA:          -8.409
REMARK INTER:                  -8.109
REMARK INTRA:                  -0.300
REMARK UNBOUND:                -0.266
REMARK SMILES O=c1cc(-c2ccc(O)c(O)c2)oc2cc(O)cc(O)c12
REMARK SMILES IDX 4 1 3 2 2 3 1 4 21 5 19 6 18 7 16 8 15 9 14 10 13 11 5 12
REMARK SMILES IDX 6 13 7 14 8 15 12 16 10 17 9 18 11 20 20 22 17 24
REMARK H PARENT 9 19 11 21 20 23 17 25
REMARK Flexibility Score: inf
ROOT
ATOM      1  C   UNL     1       6.570  52.941  21.053  1.00  0.00     0.138 A 
ATOM      2  C   UNL     1       5.358  53.575  21.354  1.00  0.00     0.100 A 
ATOM      3  C   UNL     1       4.482  53.915  20.322  1.00  0.00     0.197 A 
ATOM      4  O   UNL     1       3.373  54.426  20.627  1.00  0.00    -0.289 OA
ATOM      5  C   UNL     1       4.839  53.647  18.979  1.00  0.00     0.107 A 
ATOM      6  C   UNL     1       4.045  53.987  17.843  1.00  0.00     0.134 A 
ATOM      7  C   UNL     1       4.447  53.568  16.570  1.00  0.00     0.093 A 
ATOM      8  C   UNL     1       5.646  52.873  16.384  1.00  0.00     0.123 A 
ATOM      9  C   UNL     1       6.455  52.584  17.480  1.00  0.00     0.094 A 
ATOM     10  C   UNL     1       6.064  52.959  18.767  1.00  0.00     0.146 A 
ATOM     11  O   UNL     1       6.858  52.650  19.788  1.00  0.00    -0.456 OA
ENDROOT
BRANCH   1  12
ATOM     12  C   UNL     1       7.539  52.557  22.111  1.00  0.00     0.021 A 
ATOM     13  C   UNL     1       7.114  52.095  23.369  1.00  0.00     0.016 A 
ATOM     14  C   UNL     1       8.046  51.751  24.349  1.00  0.00     0.051 A 
ATOM     15  C   UNL     1       9.418  51.866  24.103  1.00  0.00     0.157 A 
ATOM     16  C   UNL     1       8.917  52.686  21.869  1.00  0.00     0.062 A 
ATOM     17  C   UNL     1       9.860  52.342  22.846  1.00  0.00     0.158 A 
BRANCH  15  18
ATOM     18  O   UNL     1      10.297  51.503  25.125  1.00  0.00    -0.504 OA
ATOM     19  H   UNL     1      10.464  50.550  25.415  1.00  0.00     0.293 HD
ENDBRANCH  15  18
BRANCH  17  20
ATOM     20  O   UNL     1      11.211  52.489  22.528  1.00  0.00    -0.504 OA
ATOM     21  H   UNL     1      11.681  53.380  22.459  1.00  0.00     0.293 HD
ENDBRANCH  17  20
ENDBRANCH   1  12
BRANCH   6  22
ATOM     22  O   UNL     1       2.875  54.751  17.908  1.00  0.00    -0.507 OA
ATOM     23  H   UNL     1       2.617  55.346  18.680  1.00  0.00     0.293 HD
ENDBRANCH   6  22
BRANCH   8  24
ATOM     24  O   UNL     1       6.046  52.473  15.111  1.00  0.00    -0.508 OA
ATOM     25  H   UNL     1       5.508  52.714  14.286  1.00  0.00     0.293 HD
ENDBRANCH   8  24
TORSDOF 5
ENDMDL
MODEL 3
REMARK VINA RESULT:    -6.607      1.644      7.552
REMARK INTER + INTRA:          -8.032
REMARK INTER:                  -7.743
REMARK INTRA:                  -0.289
REMARK UNBOUND:                -0.266
REMARK SMILES O=c1cc(-c2ccc(O)c(O)c2)oc2cc(O)cc(O)c12
REMARK SMILES IDX 4 1 3 2 2 3 1 4 21 5 19 6 18 7 16 8 15 9 14 10 13 11 5 12
REMARK SMILES IDX 6 13 7 14 8 15 12 16 10 17 9 18 11 20 20 22 17 24
REMARK H PARENT 9 19 11 21 20 23 17 25
REMARK Flexibility Score: inf
ROOT
ATOM      1  C   UNL     1       8.404  52.264  21.783  1.00  0.00     0.138 A 
ATOM      2  C   UNL     1       8.382  52.144  23.178  1.00  0.00     0.100 A 
ATOM      3  C   UNL     1       9.567  51.884  23.868  1.00  0.00     0.197 A 
ATOM      4  O   UNL     1       9.527  51.844  25.125  1.00  0.00    -0.289 OA
ATOM      5  C   UNL     1      10.776  51.713  23.151  1.00  0.00     0.107 A 
ATOM      6  C   UNL     1      12.036  51.405  23.743  1.00  0.00     0.134 A 
ATOM      7  C   UNL     1      13.185  51.374  22.944  1.00  0.00     0.093 A 
ATOM      8  C   UNL     1      13.110  51.581  21.564  1.00  0.00     0.123 A 
ATOM      9  C   UNL     1      11.876  51.829  20.968  1.00  0.00     0.094 A 
ATOM     10  C   UNL     1      10.716  51.900  21.743  1.00  0.00     0.146 A 
ATOM     11  O   UNL     1       9.561  52.154  21.137  1.00  0.00    -0.456 OA
ENDROOT
BRANCH   1  12
ATOM     12  C   UNL     1       7.172  52.539  20.999  1.00  0.00     0.021 A 
ATOM     13  C   UNL     1       6.275  53.556  21.367  1.00  0.00     0.016 A 
ATOM     14  C   UNL     1       5.119  53.786  20.619  1.00  0.00     0.051 A 
ATOM     15  C   UNL     1       4.829  53.005  19.495  1.00  0.00     0.157 A 
ATOM     16  C   UNL     1       6.873  51.746  19.879  1.00  0.00     0.062 A 
ATOM     17  C   UNL     1       5.717  51.970  19.120  1.00  0.00     0.158 A 
BRANCH  15  18
ATOM     18  O   UNL     1       3.658  53.289  18.788  1.00  0.00    -0.504 OA
ATOM     19  H   UNL     1       3.396  52.835  17.925  1.00  0.00     0.293 HD
ENDBRANCH  15  18
BRANCH  17  20
ATOM     20  O   UNL     1       5.492  51.147  18.015  1.00  0.00    -0.504 OA
ATOM     21  H   UNL     1       6.115  51.085  17.223  1.00  0.00     0.293 HD
ENDBRANCH  17  20
ENDBRANCH   1  12
BRANCH   6  22
ATOM     22  O   UNL     1      12.209  51.099  25.097  1.00  0.00    -0.507 OA
ATOM     23  H   UNL     1      12.891  50.450  25.458  1.00  0.00     0.293 HD
ENDBRANCH   6  22
BRANCH   8  24
ATOM     24  O   UNL     1      14.257  51.534  20.774  1.00  0.00    -0.508 OA
ATOM     25  H   UNL     1      14.727  50.659  20.574  1.00  0.00     0.293 HD
ENDBRANCH   8  24
TORSDOF 5
ENDMDL
MODEL 4
REMARK VINA RESULT:    -6.591      1.847      2.429
REMARK INTER + INTRA:          -8.013
REMARK INTER:                  -7.725
REMARK INTRA:                  -0.288
REMARK UNBOUND:                -0.266
REMARK SMILES O=c1cc(-c2ccc(O)c(O)c2)oc2cc(O)cc(O)c12
REMARK SMILES IDX 4 1 3 2 2 3 1 4 21 5 19 6 18 7 16 8 15 9 14 10 13 11 5 12
REMARK SMILES IDX 6 13 7 14 8 15 12 16 10 17 9 18 11 20 20 22 17 24
REMARK H PARENT 9 19 11 21 20 23 17 25
REMARK Flexibility Score: inf
ROOT
ATOM      1  C   UNL     1       9.093  52.416  20.699  1.00  0.00     0.138 A 
ATOM      2  C   UNL     1       9.597  52.609  19.407  1.00  0.00     0.100 A 
ATOM      3  C   UNL     1       8.719  52.876  18.356  1.00  0.00     0.197 A 
ATOM      4  O   UNL     1       9.205  53.108  17.218  1.00  0.00    -0.289 OA
ATOM      5  C   UNL     1       7.324  52.917  18.597  1.00  0.00     0.107 A 
ATOM      6  C   UNL     1       6.333  53.139  17.596  1.00  0.00     0.134 A 
ATOM      7  C   UNL     1       4.991  53.275  17.972  1.00  0.00     0.093 A 
ATOM      8  C   UNL     1       4.598  53.135  19.306  1.00  0.00     0.123 A 
ATOM      9  C   UNL     1       5.553  52.864  20.283  1.00  0.00     0.094 A 
ATOM     10  C   UNL     1       6.904  52.758  19.944  1.00  0.00     0.146 A 
ATOM     11  O   UNL     1       7.784  52.514  20.910  1.00  0.00    -0.456 OA
ENDROOT
BRANCH   1  12
ATOM     12  C   UNL     1       9.982  52.128  21.854  1.00  0.00     0.021 A 
ATOM     13  C   UNL     1       9.625  52.480  23.167  1.00  0.00     0.016 A 
ATOM     14  C   UNL     1      10.484  52.206  24.232  1.00  0.00     0.051 A 
ATOM     15  C   UNL     1      11.719  51.586  24.014  1.00  0.00     0.157 A 
ATOM     16  C   UNL     1      11.228  51.517  21.633  1.00  0.00     0.062 A 
ATOM     17  C   UNL     1      12.097  51.238  22.696  1.00  0.00     0.158 A 
BRANCH  15  18
ATOM     18  O   UNL     1      12.530  51.339  25.123  1.00  0.00    -0.504 OA
ATOM     19  H   UNL     1      13.337  50.731  25.108  1.00  0.00     0.293 HD
ENDBRANCH  15  18
BRANCH  17  20
ATOM     20  O   UNL     1      13.313  50.621  22.398  1.00  0.00    -0.504 OA
ATOM     21  H   UNL     1      13.831  50.051  23.051  1.00  0.00     0.293 HD
ENDBRANCH  17  20
ENDBRANCH   1  12
BRANCH   6  22
ATOM     22  O   UNL     1       6.606  53.210  16.226  1.00  0.00    -0.507 OA
ATOM     23  H   UNL     1       7.372  52.740  15.767  1.00  0.00     0.293 HD
ENDBRANCH   6  22
BRANCH   8  24
ATOM     24  O   UNL     1       3.259  53.256  19.670  1.00  0.00    -0.508 OA
ATOM     25  H   UNL     1       2.576  53.672  19.047  1.00  0.00     0.293 HD
ENDBRANCH   8  24
TORSDOF 5
ENDMDL
MODEL 5
REMARK VINA RESULT:    -6.507      2.364      7.518
REMARK INTER + INTRA:          -7.915
REMARK INTER:                  -7.652
REMARK INTRA:                  -0.263
REMARK UNBOUND:                -0.266
REMARK SMILES O=c1cc(-c2ccc(O)c(O)c2)oc2cc(O)cc(O)c12
REMARK SMILES IDX 4 1 3 2 2 3 1 4 21 5 19 6 18 7 16 8 15 9 14 10 13 11 5 12
REMARK SMILES IDX 6 13 7 14 8 15 12 16 10 17 9 18 11 20 20 22 17 24
REMARK H PARENT 9 19 11 21 20 23 17 25
REMARK Flexibility Score: inf
ROOT
ATOM      1  C   UNL     1       9.320  52.734  20.275  1.00  0.00     0.138 A 
ATOM      2  C   UNL     1      10.155  53.310  19.310  1.00  0.00     0.100 A 
ATOM      3  C   UNL     1      11.541  53.233  19.460  1.00  0.00     0.197 A 
ATOM      4  O   UNL     1      12.266  53.704  18.546  1.00  0.00    -0.289 OA
ATOM      5  C   UNL     1      12.090  52.601  20.602  1.00  0.00     0.107 A 
ATOM      6  C   UNL     1      13.485  52.498  20.882  1.00  0.00     0.134 A 
ATOM      7  C   UNL     1      13.914  51.749  21.984  1.00  0.00     0.093 A 
ATOM      8  C   UNL     1      12.996  51.149  22.851  1.00  0.00     0.123 A 
ATOM      9  C   UNL     1      11.630  51.289  22.616  1.00  0.00     0.094 A 
ATOM     10  C   UNL     1      11.171  52.002  21.506  1.00  0.00     0.146 A 
ATOM     11  O   UNL     1       9.860  52.099  21.310  1.00  0.00    -0.456 OA
ENDROOT
BRANCH   1  12
ATOM     12  C   UNL     1       7.839  52.788  20.164  1.00  0.00     0.021 A 
ATOM     13  C   UNL     1       7.063  53.582  21.027  1.00  0.00     0.016 A 
ATOM     14  C   UNL     1       5.673  53.606  20.907  1.00  0.00     0.051 A 
ATOM     15  C   UNL     1       5.025  52.838  19.934  1.00  0.00     0.157 A 
ATOM     16  C   UNL     1       7.188  52.007  19.196  1.00  0.00     0.062 A 
ATOM     17  C   UNL     1       5.793  52.026  19.067  1.00  0.00     0.158 A 
BRANCH  15  18
ATOM     18  O   UNL     1       3.633  52.910  19.865  1.00  0.00    -0.504 OA
ATOM     19  H   UNL     1       3.010  52.393  20.470  1.00  0.00     0.293 HD
ENDBRANCH  15  18
BRANCH  17  20
ATOM     20  O   UNL     1       5.219  51.229  18.075  1.00  0.00    -0.504 OA
ATOM     21  H   UNL     1       4.785  50.335  18.251  1.00  0.00     0.293 HD
ENDBRANCH  17  20
ENDBRANCH   1  12
BRANCH   6  22
ATOM     22  O   UNL     1      14.482  53.129  20.131  1.00  0.00    -0.507 OA
ATOM     23  H   UNL     1      14.676  54.118  20.146  1.00  0.00     0.293 HD
ENDBRANCH   6  22
BRANCH   8  24
ATOM     24  O   UNL     1      13.432  50.417  23.953  1.00  0.00    -0.508 OA
ATOM     25  H   UNL     1      14.350  50.562  24.356  1.00  0.00     0.293 HD
ENDBRANCH   8  24
TORSDOF 5
ENDMDL
MODEL 6
REMARK VINA RESULT:    -6.307      1.882      7.266
REMARK INTER + INTRA:          -7.680
REMARK INTER:                  -7.364
REMARK INTRA:                  -0.316
REMARK UNBOUND:                -0.266
REMARK SMILES O=c1cc(-c2ccc(O)c(O)c2)oc2cc(O)cc(O)c12
REMARK SMILES IDX 4 1 3 2 2 3 1 4 21 5 19 6 18 7 16 8 15 9 14 10 13 11 5 12
REMARK SMILES IDX 6 13 7 14 8 15 12 16 10 17 9 18 11 20 20 22 17 24
REMARK H PARENT 9 19 11 21 20 23 17 25
REMARK Flexibility Score: inf
ROOT
ATOM      1  C   UNL     1       7.451  52.684  20.513  1.00  0.00     0.138 A 
ATOM      2  C   UNL     1       6.975  52.496  21.817  1.00  0.00     0.100 A 
ATOM      3  C   UNL     1       7.868  52.160  22.836  1.00  0.00     0.197 A 
ATOM      4  O   UNL     1       7.422  52.060  24.009  1.00  0.00    -0.289 OA
ATOM      5  C   UNL     1       9.240  51.981  22.538  1.00  0.00     0.107 A 
ATOM      6  C   UNL     1      10.234  51.598  23.487  1.00  0.00     0.134 A 
ATOM      7  C   UNL     1      11.580  51.564  23.101  1.00  0.00     0.093 A 
ATOM      8  C   UNL     1      11.960  51.841  21.785  1.00  0.00     0.123 A 
ATOM      9  C   UNL     1      10.990  52.162  20.838  1.00  0.00     0.094 A 
ATOM     10  C   UNL     1       9.643  52.238  21.201  1.00  0.00     0.146 A 
ATOM     11  O   UNL     1       8.752  52.563  20.270  1.00  0.00    -0.456 OA
ENDROOT
BRANCH   1  12
ATOM     12  C   UNL     1       6.545  53.041  19.392  1.00  0.00     0.021 A 
ATOM     13  C   UNL     1       5.218  53.451  19.616  1.00  0.00     0.016 A 
ATOM     14  C   UNL     1       4.386  53.771  18.542  1.00  0.00     0.051 A 
ATOM     15  C   UNL     1       4.850  53.683  17.226  1.00  0.00     0.157 A 
ATOM     16  C   UNL     1       7.007  52.940  18.069  1.00  0.00     0.062 A 
ATOM     17  C   UNL     1       6.178  53.261  16.985  1.00  0.00     0.158 A 
BRANCH  15  18
ATOM     18  O   UNL     1       3.967  54.020  16.198  1.00  0.00    -0.504 OA
ATOM     19  H   UNL     1       3.963  54.914  15.728  1.00  0.00     0.293 HD
ENDBRANCH  15  18
BRANCH  17  20
ATOM     20  O   UNL     1       6.712  53.144  15.700  1.00  0.00    -0.504 OA
ATOM     21  H   UNL     1       7.132  52.301  15.338  1.00  0.00     0.293 HD
ENDBRANCH  17  20
ENDBRANCH   1  12
BRANCH   6  22
ATOM     22  O   UNL     1       9.954  51.220  24.804  1.00  0.00    -0.507 OA
ATOM     23  H   UNL     1      10.387  50.447  25.286  1.00  0.00     0.293 HD
ENDBRANCH   6  22
BRANCH   8  24
ATOM     24  O   UNL     1      13.299  51.791  21.406  1.00  0.00    -0.508 OA
ATOM     25  H   UNL     1      13.959  51.179  21.871  1.00  0.00     0.293 HD
ENDBRANCH   8  24
TORSDOF 5
ENDMDL
MODEL 7
REMARK VINA RESULT:    -6.280      2.539      7.994
REMARK INTER + INTRA:          -7.648
REMARK INTER:                  -7.361
REMARK INTRA:                  -0.287
REMARK UNBOUND:                -0.266
REMARK SMILES O=c1cc(-c2ccc(O)c(O)c2)oc2cc(O)cc(O)c12
REMARK SMILES IDX 4 1 3 2 2 3 1 4 21 5 19 6 18 7 16 8 15 9 14 10 13 11 5 12
REMARK SMILES IDX 6 13 7 14 8 15 12 16 10 17 9 18 11 20 20 22 17 24
REMARK H PARENT 9 19 11 21 20 23 17 25
REMARK Flexibility Score: inf
ROOT
ATOM      1  C   UNL     1       9.317  52.380  20.132  1.00  0.00     0.138 A 
ATOM      2  C   UNL     1       8.895  52.566  21.455  1.00  0.00     0.100 A 
ATOM      3  C   UNL     1       9.787  52.333  22.504  1.00  0.00     0.197 A 
ATOM      4  O   UNL     1       9.400  52.569  23.677  1.00  0.00    -0.289 OA
ATOM      5  C   UNL     1      11.099  51.881  22.224  1.00  0.00     0.107 A 
ATOM      6  C   UNL     1      12.079  51.571  23.212  1.00  0.00     0.134 A 
ATOM      7  C   UNL     1      13.381  51.243  22.814  1.00  0.00     0.093 A 
ATOM      8  C   UNL     1      13.720  51.154  21.461  1.00  0.00     0.123 A 
ATOM      9  C   UNL     1      12.755  51.401  20.489  1.00  0.00     0.094 A 
ATOM     10  C   UNL     1      11.457  51.765  20.854  1.00  0.00     0.146 A 
ATOM     11  O   UNL     1      10.571  52.007  19.894  1.00  0.00    -0.456 OA
ENDROOT
BRANCH   1  12
ATOM     12  C   UNL     1       8.410  52.613  18.980  1.00  0.00     0.021 A 
ATOM     13  C   UNL     1       8.897  53.034  17.730  1.00  0.00     0.016 A 
ATOM     14  C   UNL     1       8.020  53.255  16.666  1.00  0.00     0.051 A 
ATOM     15  C   UNL     1       6.643  53.070  16.825  1.00  0.00     0.157 A 
ATOM     16  C   UNL     1       7.025  52.440  19.142  1.00  0.00     0.062 A 
ATOM     17  C   UNL     1       6.138  52.658  18.080  1.00  0.00     0.158 A 
BRANCH  15  18
ATOM     18  O   UNL     1       5.821  53.305  15.720  1.00  0.00    -0.504 OA
ATOM     19  H   UNL     1       6.058  53.930  14.963  1.00  0.00     0.293 HD
ENDBRANCH  15  18
BRANCH  17  20
ATOM     20  O   UNL     1       4.777  52.457  18.316  1.00  0.00    -0.504 OA
ATOM     21  H   UNL     1       4.068  53.158  18.161  1.00  0.00     0.293 HD
ENDBRANCH  17  20
ENDBRANCH   1  12
BRANCH   6  22
ATOM     22  O   UNL     1      11.823  51.546  24.587  1.00  0.00    -0.507 OA
ATOM     23  H   UNL     1      12.000  52.311  25.220  1.00  0.00     0.293 HD
ENDBRANCH   6  22
BRANCH   8  24
ATOM     24  O   UNL     1      15.014  50.813  21.074  1.00  0.00    -0.508 OA
ATOM     25  H   UNL     1      15.190  50.066  20.411  1.00  0.00     0.293 HD
ENDBRANCH   8  24
TORSDOF 5
ENDMDL
MODEL 8
REMARK VINA RESULT:    -6.186      1.854      3.455
REMARK INTER + INTRA:          -7.537
REMARK INTER:                  -7.243
REMARK INTRA:                  -0.295
REMARK UNBOUND:                -0.266
REMARK SMILES O=c1cc(-c2ccc(O)c(O)c2)oc2cc(O)cc(O)c12
REMARK SMILES IDX 4 1 3 2 2 3 1 4 21 5 19 6 18 7 16 8 15 9 14 10 13 11 5 12
REMARK SMILES IDX 6 13 7 14 8 15 12 16 10 17 9 18 11 20 20 22 17 24
REMARK H PARENT 9 19 11 21 20 23 17 25
REMARK Flexibility Score: inf
ROOT
ATOM      1  C   UNL     1       7.975  52.699  19.804  1.00  0.00     0.138 A 
ATOM      2  C   UNL     1       7.139  53.241  20.789  1.00  0.00     0.100 A 
ATOM      3  C   UNL     1       5.836  53.616  20.459  1.00  0.00     0.197 A 
ATOM      4  O   UNL     1       5.088  54.041  21.377  1.00  0.00    -0.289 OA
ATOM      5  C   UNL     1       5.380  53.477  19.125  1.00  0.00     0.107 A 
ATOM      6  C   UNL     1       4.087  53.864  18.664  1.00  0.00     0.134 A 
ATOM      7  C   UNL     1       3.707  53.571  17.349  1.00  0.00     0.093 A 
ATOM      8  C   UNL     1       4.596  52.959  16.461  1.00  0.00     0.123 A 
ATOM      9  C   UNL     1       5.880  52.627  16.886  1.00  0.00     0.094 A 
ATOM     10  C   UNL     1       6.277  52.875  18.202  1.00  0.00     0.146 A 
ATOM     11  O   UNL     1       7.505  52.528  18.572  1.00  0.00    -0.456 OA
ENDROOT
BRANCH   1  12
ATOM     12  C   UNL     1       9.370  52.284  20.100  1.00  0.00     0.021 A 
ATOM     13  C   UNL     1      10.217  51.773  19.101  1.00  0.00     0.016 A 
ATOM     14  C   UNL     1      11.520  51.381  19.410  1.00  0.00     0.051 A 
ATOM     15  C   UNL     1      12.006  51.481  20.717  1.00  0.00     0.157 A 
ATOM     16  C   UNL     1       9.854  52.372  21.416  1.00  0.00     0.062 A 
ATOM     17  C   UNL     1      11.161  51.982  21.735  1.00  0.00     0.158 A 
BRANCH  15  18
ATOM     18  O   UNL     1      13.320  51.075  20.959  1.00  0.00    -0.504 OA
ATOM     19  H   UNL     1      13.978  50.829  20.232  1.00  0.00     0.293 HD
ENDBRANCH  15  18
BRANCH  17  20
ATOM     20  O   UNL     1      11.573  52.107  23.063  1.00  0.00    -0.504 OA
ATOM     21  H   UNL     1      11.982  51.356  23.600  1.00  0.00     0.293 HD
ENDBRANCH  17  20
ENDBRANCH   1  12
BRANCH   6  22
ATOM     22  O   UNL     1       3.154  54.556  19.443  1.00  0.00    -0.507 OA
ATOM     23  H   UNL     1       2.816  54.252  20.343  1.00  0.00     0.293 HD
ENDBRANCH   6  22
BRANCH   8  24
ATOM     24  O   UNL     1       4.215  52.685  15.149  1.00  0.00    -0.508 OA
ATOM     25  H   UNL     1       4.670  51.961  14.605  1.00  0.00     0.293 HD
ENDBRANCH   8  24
TORSDOF 5
ENDMDL
MODEL 9
REMARK VINA RESULT:    -6.051      3.750      8.517
REMARK INTER + INTRA:          -7.378
REMARK INTER:                  -7.063
REMARK INTRA:                  -0.316
REMARK UNBOUND:                -0.266
REMARK SMILES O=c1cc(-c2ccc(O)c(O)c2)oc2cc(O)cc(O)c12
REMARK SMILES IDX 4 1 3 2 2 3 1 4 21 5 19 6 18 7 16 8 15 9 14 10 13 11 5 12
REMARK SMILES IDX 6 13 7 14 8 15 12 16 10 17 9 18 11 20 20 22 17 24
REMARK H PARENT 9 19 11 21 20 23 17 25
REMARK Flexibility Score: inf
ROOT
ATOM      1  C   UNL     1      11.620  51.679  23.284  1.00  0.00     0.138 A 
ATOM      2  C   UNL     1      12.583  51.614  24.299  1.00  0.00     0.100 A 
ATOM      3  C   UNL     1      13.932  51.489  23.963  1.00  0.00     0.197 A 
ATOM      4  O   UNL     1      14.780  51.497  24.893  1.00  0.00    -0.289 OA
ATOM      5  C   UNL     1      14.313  51.396  22.603  1.00  0.00     0.107 A 
ATOM      6  C   UNL     1      15.652  51.224  22.144  1.00  0.00     0.134 A 
ATOM      7  C   UNL     1      15.922  51.262  20.770  1.00  0.00     0.093 A 
ATOM      8  C   UNL     1      14.891  51.404  19.837  1.00  0.00     0.123 A 
ATOM      9  C   UNL     1      13.574  51.518  20.274  1.00  0.00     0.094 A 
ATOM     10  C   UNL     1      13.277  51.518  21.639  1.00  0.00     0.146 A 
ATOM     11  O   UNL     1      12.008  51.645  22.013  1.00  0.00    -0.456 OA
ENDROOT
BRANCH   1  12
ATOM     12  C   UNL     1      10.171  51.812  23.585  1.00  0.00     0.021 A 
ATOM     13  C   UNL     1       9.659  51.571  24.872  1.00  0.00     0.016 A 
ATOM     14  C   UNL     1       8.292  51.694  25.124  1.00  0.00     0.051 A 
ATOM     15  C   UNL     1       7.405  52.049  24.103  1.00  0.00     0.157 A 
ATOM     16  C   UNL     1       9.279  52.156  22.556  1.00  0.00     0.062 A 
ATOM     17  C   UNL     1       7.905  52.282  22.800  1.00  0.00     0.158 A 
BRANCH  15  18
ATOM     18  O   UNL     1       6.050  52.157  24.422  1.00  0.00    -0.504 OA
ATOM     19  H   UNL     1       5.597  53.024  24.676  1.00  0.00     0.293 HD
ENDBRANCH  15  18
BRANCH  17  20
ATOM     20  O   UNL     1       7.082  52.636  21.729  1.00  0.00    -0.504 OA
ATOM     21  H   UNL     1       6.208  53.130  21.829  1.00  0.00     0.293 HD
ENDBRANCH  17  20
ENDBRANCH   1  12
BRANCH   6  22
ATOM     22  O   UNL     1      16.744  50.990  22.987  1.00  0.00    -0.507 OA
ATOM     23  H   UNL     1      16.927  50.121  23.465  1.00  0.00     0.293 HD
ENDBRANCH   6  22
BRANCH   8  24
ATOM     24  O   UNL     1      15.166  51.426  18.472  1.00  0.00    -0.508 OA
ATOM     25  H   UNL     1      15.500  50.602  17.985  1.00  0.00     0.293 HD
ENDBRANCH   8  24
TORSDOF 5
ENDMDL
