MODEL 1
REMARK VINA RESULT:    -4.664      0.000      0.000
REMARK INTER + INTRA:         -13.697
REMARK INTER:                 -10.117
REMARK INTRA:                  -3.580
REMARK UNBOUND:                -3.580
REMARK SMILES CCCCCCCCCCCCCCCCCCCCCC(=O)[O-]
REMARK SMILES IDX 12 1 11 2 10 3 9 4 8 5 7 6 6 7 5 8 4 9 3 10 2 11 1 12 13 13
REMARK SMILES IDX 14 14 15 15 16 16 17 17 18 18 19 19 20 20 21 21 22 22 23 23
REMARK SMILES IDX 24 24
REMARK H PARENT
REMARK Flexibility Score: inf
ROOT
ATOM      1  C   UNL     1     -24.389 -61.222   2.059  1.00  0.00     0.000 C 
ENDROOT
BRANCH   1   2
ATOM      2  C   UNL     1     -24.905 -62.381   2.930  1.00  0.00     0.000 C 
BRANCH   2   3
ATOM      3  C   UNL     1     -24.010 -63.630   2.856  1.00  0.00     0.000 C 
BRANCH   3   4
ATOM      4  C   UNL     1     -23.780 -64.349   4.197  1.00  0.00    -0.000 C 
BRANCH   4   5
ATOM      5  C   UNL     1     -24.137 -63.479   5.415  1.00  0.00    -0.000 C 
BRANCH   5   6
ATOM      6  C   UNL     1     -22.887 -62.988   6.171  1.00  0.00    -0.000 C 
BRANCH   6   7
ATOM      7  C   UNL     1     -22.371 -61.605   5.720  1.00  0.00    -0.000 C 
BRANCH   7   8
ATOM      8  C   UNL     1     -23.444 -60.502   5.612  1.00  0.00    -0.000 C 
BRANCH   8   9
ATOM      9  C   UNL     1     -22.937 -59.069   5.854  1.00  0.00    -0.000 C 
BRANCH   9  10
ATOM     10  C   UNL     1     -23.439 -58.072   4.797  1.00  0.00    -0.000 C 
BRANCH  10  11
ATOM     11  C   UNL     1     -24.883 -58.357   4.362  1.00  0.00    -0.003 C 
ATOM     12  C   UNL     1     -25.910 -57.801   5.348  1.00  0.00     0.004 C 
ENDBRANCH  10  11
ENDBRANCH   9  10
ENDBRANCH   8   9
ENDBRANCH   7   8
ENDBRANCH   6   7
ENDBRANCH   5   6
ENDBRANCH   4   5
ENDBRANCH   3   4
ENDBRANCH   2   3
ENDBRANCH   1   2
BRANCH   1  13
ATOM     13  C   UNL     1     -22.855 -61.220   1.917  1.00  0.00     0.000 C 
BRANCH  13  14
ATOM     14  C   UNL     1     -22.329 -60.870   0.509  1.00  0.00     0.000 C 
BRANCH  14  15
ATOM     15  C   UNL     1     -21.906 -59.399   0.311  1.00  0.00     0.000 C 
BRANCH  15  16
ATOM     16  C   UNL     1     -22.132 -58.487   1.531  1.00  0.00     0.000 C 
BRANCH  16  17
ATOM     17  C   UNL     1     -23.072 -57.308   1.226  1.00  0.00     0.000 C 
BRANCH  17  18
ATOM     18  C   UNL     1     -24.024 -57.600   0.054  1.00  0.00     0.000 C 
BRANCH  18  19
ATOM     19  C   UNL     1     -25.399 -58.115   0.516  1.00  0.00     0.000 C 
BRANCH  19  20
ATOM     20  C   UNL     1     -25.961 -59.227  -0.387  1.00  0.00     0.006 C 
BRANCH  20  21
ATOM     21  C   UNL     1     -25.154 -59.447  -1.678  1.00  0.00     0.053 C 
BRANCH  21  22
ATOM     22  C   UNL     1     -25.825 -58.859  -2.883  1.00  0.00     0.041 C 
ATOM     23  O   UNL     1     -25.988 -59.556  -3.919  1.00  0.00    -0.550 OA
ATOM     24  O   UNL     1     -26.233 -57.532  -2.877  1.00  0.00    -0.550 OA
ENDBRANCH  21  22
ENDBRANCH  20  21
ENDBRANCH  19  20
ENDBRANCH  18  19
ENDBRANCH  17  18
ENDBRANCH  16  17
ENDBRANCH  15  16
ENDBRANCH  14  15
ENDBRANCH  13  14
ENDBRANCH   1  13
TORSDOF 20
ENDMDL
MODEL 2
REMARK VINA RESULT:    -4.651      1.050      1.685
REMARK INTER + INTRA:         -13.670
REMARK INTER:                 -10.531
REMARK INTRA:                  -3.139
REMARK UNBOUND:                -3.580
REMARK SMILES CCCCCCCCCCCCCCCCCCCCCC(=O)[O-]
REMARK SMILES IDX 12 1 11 2 10 3 9 4 8 5 7 6 6 7 5 8 4 9 3 10 2 11 1 12 13 13
REMARK SMILES IDX 14 14 15 15 16 16 17 17 18 18 19 19 20 20 21 21 22 22 23 23
REMARK SMILES IDX 24 24
REMARK H PARENT
REMARK Flexibility Score: inf
ROOT
ATOM      1  C   UNL     1     -24.879 -61.838   2.789  1.00  0.00     0.000 C 
ENDROOT
BRANCH   1   2
ATOM      2  C   UNL     1     -25.931 -62.469   3.718  1.00  0.00     0.000 C 
BRANCH   2   3
ATOM      3  C   UNL     1     -25.664 -63.958   4.001  1.00  0.00     0.000 C 
BRANCH   3   4
ATOM      4  C   UNL     1     -25.618 -64.341   5.491  1.00  0.00    -0.000 C 
BRANCH   4   5
ATOM      5  C   UNL     1     -24.183 -64.462   6.036  1.00  0.00    -0.000 C 
BRANCH   5   6
ATOM      6  C   UNL     1     -23.618 -63.107   6.505  1.00  0.00    -0.000 C 
BRANCH   6   7
ATOM      7  C   UNL     1     -22.435 -62.585   5.664  1.00  0.00    -0.000 C 
BRANCH   7   8
ATOM      8  C   UNL     1     -22.154 -61.073   5.785  1.00  0.00    -0.000 C 
BRANCH   8   9
ATOM      9  C   UNL     1     -23.338 -60.155   5.434  1.00  0.00    -0.000 C 
BRANCH   9  10
ATOM     10  C   UNL     1     -23.197 -58.744   6.027  1.00  0.00    -0.000 C 
BRANCH  10  11
ATOM     11  C   UNL     1     -22.659 -57.731   5.005  1.00  0.00    -0.003 C 
ATOM     12  C   UNL     1     -23.760 -57.169   4.107  1.00  0.00     0.004 C 
ENDBRANCH  10  11
ENDBRANCH   9  10
ENDBRANCH   8   9
ENDBRANCH   7   8
ENDBRANCH   6   7
ENDBRANCH   5   6
ENDBRANCH   4   5
ENDBRANCH   3   4
ENDBRANCH   2   3
ENDBRANCH   1   2
BRANCH   1  13
ATOM     13  C   UNL     1     -23.827 -62.854   2.303  1.00  0.00     0.000 C 
BRANCH  13  14
ATOM     14  C   UNL     1     -22.456 -62.249   1.934  1.00  0.00     0.000 C 
BRANCH  14  15
ATOM     15  C   UNL     1     -22.320 -61.767   0.475  1.00  0.00     0.000 C 
BRANCH  15  16
ATOM     16  C   UNL     1     -21.875 -60.302   0.311  1.00  0.00     0.000 C 
BRANCH  16  17
ATOM     17  C   UNL     1     -22.592 -59.351   1.284  1.00  0.00     0.000 C 
BRANCH  17  18
ATOM     18  C   UNL     1     -23.566 -58.399   0.570  1.00  0.00     0.000 C 
BRANCH  18  19
ATOM     19  C   UNL     1     -25.035 -58.648   0.956  1.00  0.00     0.000 C 
BRANCH  19  20
ATOM     20  C   UNL     1     -25.946 -58.892  -0.261  1.00  0.00     0.006 C 
BRANCH  20  21
ATOM     21  C   UNL     1     -25.179 -59.132  -1.573  1.00  0.00     0.053 C 
BRANCH  21  22
ATOM     22  C   UNL     1     -25.974 -58.739  -2.782  1.00  0.00     0.041 C 
ATOM     23  O   UNL     1     -26.672 -57.691  -2.767  1.00  0.00    -0.550 OA
ATOM     24  O   UNL     1     -25.978 -59.550  -3.909  1.00  0.00    -0.550 OA
ENDBRANCH  21  22
ENDBRANCH  20  21
ENDBRANCH  19  20
ENDBRANCH  18  19
ENDBRANCH  17  18
ENDBRANCH  16  17
ENDBRANCH  15  16
ENDBRANCH  14  15
ENDBRANCH  13  14
ENDBRANCH   1  13
TORSDOF 20
ENDMDL
MODEL 3
REMARK VINA RESULT:    -4.545      1.278      2.619
REMARK INTER + INTRA:         -13.439
REMARK INTER:                 -10.501
REMARK INTRA:                  -2.938
REMARK UNBOUND:                -3.580
REMARK SMILES CCCCCCCCCCCCCCCCCCCCCC(=O)[O-]
REMARK SMILES IDX 12 1 11 2 10 3 9 4 8 5 7 6 6 7 5 8 4 9 3 10 2 11 1 12 13 13
REMARK SMILES IDX 14 14 15 15 16 16 17 17 18 18 19 19 20 20 21 21 22 22 23 23
REMARK SMILES IDX 24 24
REMARK H PARENT
REMARK Flexibility Score: inf
ROOT
ATOM      1  C   UNL     1     -25.615 -63.927   4.117  1.00  0.00     0.000 C 
ENDROOT
BRANCH   1   2
ATOM      2  C   UNL     1     -25.876 -64.068   5.627  1.00  0.00     0.000 C 
BRANCH   2   3
ATOM      3  C   UNL     1     -24.612 -64.442   6.421  1.00  0.00     0.000 C 
BRANCH   3   4
ATOM      4  C   UNL     1     -23.385 -64.798   5.564  1.00  0.00    -0.000 C 
BRANCH   4   5
ATOM      5  C   UNL     1     -22.116 -64.034   5.983  1.00  0.00    -0.000 C 
BRANCH   5   6
ATOM      6  C   UNL     1     -21.921 -62.735   5.177  1.00  0.00    -0.000 C 
BRANCH   6   7
ATOM      7  C   UNL     1     -22.466 -61.468   5.867  1.00  0.00    -0.000 C 
BRANCH   7   8
ATOM      8  C   UNL     1     -23.042 -60.395   4.921  1.00  0.00    -0.000 C 
BRANCH   8   9
ATOM      9  C   UNL     1     -22.895 -58.943   5.409  1.00  0.00    -0.000 C 
BRANCH   9  10
ATOM     10  C   UNL     1     -22.960 -57.918   4.265  1.00  0.00    -0.000 C 
BRANCH  10  11
ATOM     11  C   UNL     1     -24.319 -57.923   3.550  1.00  0.00    -0.003 C 
ATOM     12  C   UNL     1     -25.492 -57.913   4.529  1.00  0.00     0.004 C 
ENDBRANCH  10  11
ENDBRANCH   9  10
ENDBRANCH   8   9
ENDBRANCH   7   8
ENDBRANCH   6   7
ENDBRANCH   5   6
ENDBRANCH   4   5
ENDBRANCH   3   4
ENDBRANCH   2   3
ENDBRANCH   1   2
BRANCH   1  13
ATOM     13  C   UNL     1     -25.790 -62.481   3.614  1.00  0.00     0.000 C 
BRANCH  13  14
ATOM     14  C   UNL     1     -24.755 -62.025   2.564  1.00  0.00     0.000 C 
BRANCH  14  15
ATOM     15  C   UNL     1     -23.736 -63.100   2.133  1.00  0.00     0.000 C 
BRANCH  15  16
ATOM     16  C   UNL     1     -22.500 -62.565   1.386  1.00  0.00     0.000 C 
BRANCH  16  17
ATOM     17  C   UNL     1     -22.454 -61.028   1.338  1.00  0.00     0.000 C 
BRANCH  17  18
ATOM     18  C   UNL     1     -22.125 -60.492  -0.064  1.00  0.00     0.000 C 
BRANCH  18  19
ATOM     19  C   UNL     1     -23.381 -60.104  -0.865  1.00  0.00     0.000 C 
BRANCH  19  20
ATOM     20  C   UNL     1     -24.519 -59.567   0.021  1.00  0.00     0.006 C 
BRANCH  20  21
ATOM     21  C   UNL     1     -25.674 -58.929  -0.770  1.00  0.00     0.053 C 
BRANCH  21  22
ATOM     22  C   UNL     1     -25.306 -58.643  -2.194  1.00  0.00     0.041 C 
ATOM     23  O   UNL     1     -24.704 -57.577  -2.489  1.00  0.00    -0.550 OA
ATOM     24  O   UNL     1     -25.664 -59.530  -3.200  1.00  0.00    -0.550 OA
ENDBRANCH  21  22
ENDBRANCH  20  21
ENDBRANCH  19  20
ENDBRANCH  18  19
ENDBRANCH  17  18
ENDBRANCH  16  17
ENDBRANCH  15  16
ENDBRANCH  14  15
ENDBRANCH  13  14
ENDBRANCH   1  13
TORSDOF 20
ENDMDL
MODEL 4
REMARK VINA RESULT:    -4.535      2.646      6.006
REMARK INTER + INTRA:         -13.417
REMARK INTER:                  -9.760
REMARK INTRA:                  -3.657
REMARK UNBOUND:                -3.580
REMARK SMILES CCCCCCCCCCCCCCCCCCCCCC(=O)[O-]
REMARK SMILES IDX 12 1 11 2 10 3 9 4 8 5 7 6 6 7 5 8 4 9 3 10 2 11 1 12 13 13
REMARK SMILES IDX 14 14 15 15 16 16 17 17 18 18 19 19 20 20 21 21 22 22 23 23
REMARK SMILES IDX 24 24
REMARK H PARENT
REMARK Flexibility Score: inf
ROOT
ATOM      1  C   UNL     1     -25.792 -62.662   3.727  1.00  0.00     0.000 C 
ENDROOT
BRANCH   1   2
ATOM      2  C   UNL     1     -24.748 -61.957   2.843  1.00  0.00     0.000 C 
BRANCH   2   3
ATOM      3  C   UNL     1     -23.748 -62.935   2.202  1.00  0.00     0.000 C 
BRANCH   3   4
ATOM      4  C   UNL     1     -22.349 -62.354   1.931  1.00  0.00    -0.000 C 
BRANCH   4   5
ATOM      5  C   UNL     1     -21.989 -62.326   0.434  1.00  0.00    -0.000 C 
BRANCH   5   6
ATOM      6  C   UNL     1     -21.891 -60.891  -0.119  1.00  0.00    -0.000 C 
BRANCH   6   7
ATOM      7  C   UNL     1     -22.182 -59.786   0.919  1.00  0.00    -0.000 C 
BRANCH   7   8
ATOM      8  C   UNL     1     -22.541 -58.406   0.332  1.00  0.00    -0.000 C 
BRANCH   8   9
ATOM      9  C   UNL     1     -24.026 -58.015   0.437  1.00  0.00    -0.000 C 
BRANCH   9  10
ATOM     10  C   UNL     1     -24.952 -59.230   0.611  1.00  0.00    -0.000 C 
BRANCH  10  11
ATOM     11  C   UNL     1     -26.438 -58.845   0.559  1.00  0.00    -0.003 C 
ATOM     12  C   UNL     1     -26.647 -57.380   0.177  1.00  0.00     0.004 C 
ENDBRANCH  10  11
ENDBRANCH   9  10
ENDBRANCH   8   9
ENDBRANCH   7   8
ENDBRANCH   6   7
ENDBRANCH   5   6
ENDBRANCH   4   5
ENDBRANCH   3   4
ENDBRANCH   2   3
ENDBRANCH   1   2
BRANCH   1  13
ATOM     13  C   UNL     1     -25.458 -64.145   3.976  1.00  0.00     0.000 C 
BRANCH  13  14
ATOM     14  C   UNL     1     -25.272 -64.533   5.459  1.00  0.00     0.000 C 
BRANCH  14  15
ATOM     15  C   UNL     1     -23.808 -64.606   5.941  1.00  0.00     0.000 C 
BRANCH  15  16
ATOM     16  C   UNL     1     -23.253 -63.299   6.539  1.00  0.00     0.000 C 
BRANCH  16  17
ATOM     17  C   UNL     1     -22.243 -62.603   5.611  1.00  0.00     0.000 C 
BRANCH  17  18
ATOM     18  C   UNL     1     -22.402 -61.074   5.605  1.00  0.00     0.000 C 
BRANCH  18  19
ATOM     19  C   UNL     1     -23.728 -60.610   6.234  1.00  0.00     0.000 C 
BRANCH  19  20
ATOM     20  C   UNL     1     -24.287 -59.330   5.588  1.00  0.00     0.006 C 
BRANCH  20  21
ATOM     21  C   UNL     1     -23.534 -58.894   4.319  1.00  0.00     0.053 C 
BRANCH  21  22
ATOM     22  C   UNL     1     -22.904 -57.541   4.461  1.00  0.00     0.041 C 
ATOM     23  O   UNL     1     -22.242 -57.257   5.494  1.00  0.00    -0.550 OA
ATOM     24  O   UNL     1     -23.083 -56.580   3.476  1.00  0.00    -0.550 OA
ENDBRANCH  21  22
ENDBRANCH  20  21
ENDBRANCH  19  20
ENDBRANCH  18  19
ENDBRANCH  17  18
ENDBRANCH  16  17
ENDBRANCH  15  16
ENDBRANCH  14  15
ENDBRANCH  13  14
ENDBRANCH   1  13
TORSDOF 20
ENDMDL
MODEL 5
REMARK VINA RESULT:    -4.516      1.587      3.370
REMARK INTER + INTRA:         -13.376
REMARK INTER:                  -9.995
REMARK INTRA:                  -3.381
REMARK UNBOUND:                -3.580
REMARK SMILES CCCCCCCCCCCCCCCCCCCCCC(=O)[O-]
REMARK SMILES IDX 12 1 11 2 10 3 9 4 8 5 7 6 6 7 5 8 4 9 3 10 2 11 1 12 13 13
REMARK SMILES IDX 14 14 15 15 16 16 17 17 18 18 19 19 20 20 21 21 22 22 23 23
REMARK SMILES IDX 24 24
REMARK H PARENT
REMARK Flexibility Score: inf
ROOT
ATOM      1  C   UNL     1     -24.390 -62.140   3.998  1.00  0.00     0.000 C 
ENDROOT
BRANCH   1   2
ATOM      2  C   UNL     1     -23.077 -62.399   4.757  1.00  0.00     0.000 C 
BRANCH   2   3
ATOM      3  C   UNL     1     -22.590 -61.172   5.548  1.00  0.00     0.000 C 
BRANCH   3   4
ATOM      4  C   UNL     1     -23.533 -59.956   5.512  1.00  0.00    -0.000 C 
BRANCH   4   5
ATOM      5  C   UNL     1     -22.790 -58.615   5.651  1.00  0.00    -0.000 C 
BRANCH   5   6
ATOM      6  C   UNL     1     -22.927 -57.736   4.393  1.00  0.00    -0.000 C 
BRANCH   6   7
ATOM      7  C   UNL     1     -23.718 -58.390   3.241  1.00  0.00    -0.000 C 
BRANCH   7   8
ATOM      8  C   UNL     1     -24.503 -57.415   2.339  1.00  0.00    -0.000 C 
BRANCH   8   9
ATOM      9  C   UNL     1     -26.021 -57.375   2.582  1.00  0.00    -0.000 C 
BRANCH   9  10
ATOM     10  C   UNL     1     -26.533 -58.591   3.372  1.00  0.00    -0.000 C 
BRANCH  10  11
ATOM     11  C   UNL     1     -27.006 -59.728   2.454  1.00  0.00    -0.003 C 
ATOM     12  C   UNL     1     -28.505 -59.659   2.167  1.00  0.00     0.004 C 
ENDBRANCH  10  11
ENDBRANCH   9  10
ENDBRANCH   8   9
ENDBRANCH   7   8
ENDBRANCH   6   7
ENDBRANCH   5   6
ENDBRANCH   4   5
ENDBRANCH   3   4
ENDBRANCH   2   3
ENDBRANCH   1   2
BRANCH   1  13
ATOM     13  C   UNL     1     -24.209 -62.163   2.468  1.00  0.00     0.000 C 
BRANCH  13  14
ATOM     14  C   UNL     1     -23.089 -63.094   1.956  1.00  0.00     0.000 C 
BRANCH  14  15
ATOM     15  C   UNL     1     -22.115 -62.457   0.943  1.00  0.00     0.000 C 
BRANCH  15  16
ATOM     16  C   UNL     1     -22.158 -60.919   0.877  1.00  0.00     0.000 C 
BRANCH  16  17
ATOM     17  C   UNL     1     -21.952 -60.379  -0.549  1.00  0.00     0.000 C 
BRANCH  17  18
ATOM     18  C   UNL     1     -23.136 -59.525  -1.032  1.00  0.00     0.000 C 
BRANCH  18  19
ATOM     19  C   UNL     1     -24.450 -59.859  -0.305  1.00  0.00     0.000 C 
BRANCH  19  20
ATOM     20  C   UNL     1     -25.682 -59.201  -0.951  1.00  0.00     0.006 C 
BRANCH  20  21
ATOM     21  C   UNL     1     -25.550 -58.991  -2.470  1.00  0.00     0.053 C 
BRANCH  21  22
ATOM     22  C   UNL     1     -25.961 -57.615  -2.897  1.00  0.00     0.041 C 
ATOM     23  O   UNL     1     -27.181 -57.306  -2.945  1.00  0.00    -0.550 OA
ATOM     24  O   UNL     1     -25.004 -56.687  -3.282  1.00  0.00    -0.550 OA
ENDBRANCH  21  22
ENDBRANCH  20  21
ENDBRANCH  19  20
ENDBRANCH  18  19
ENDBRANCH  17  18
ENDBRANCH  16  17
ENDBRANCH  15  16
ENDBRANCH  14  15
ENDBRANCH  13  14
ENDBRANCH   1  13
TORSDOF 20
ENDMDL
MODEL 6
REMARK VINA RESULT:    -4.482      1.622      3.548
REMARK INTER + INTRA:         -13.302
REMARK INTER:                  -9.428
REMARK INTRA:                  -3.874
REMARK UNBOUND:                -3.580
REMARK SMILES CCCCCCCCCCCCCCCCCCCCCC(=O)[O-]
REMARK SMILES IDX 12 1 11 2 10 3 9 4 8 5 7 6 6 7 5 8 4 9 3 10 2 11 1 12 13 13
REMARK SMILES IDX 14 14 15 15 16 16 17 17 18 18 19 19 20 20 21 21 22 22 23 23
REMARK SMILES IDX 24 24
REMARK H PARENT
REMARK Flexibility Score: inf
ROOT
ATOM      1  C   UNL     1     -26.194 -61.423   4.954  1.00  0.00     0.000 C 
ENDROOT
BRANCH   1   2
ATOM      2  C   UNL     1     -25.996 -60.055   5.629  1.00  0.00     0.000 C 
BRANCH   2   3
ATOM      3  C   UNL     1     -24.878 -60.065   6.686  1.00  0.00     0.000 C 
BRANCH   3   4
ATOM      4  C   UNL     1     -23.610 -60.841   6.288  1.00  0.00    -0.000 C 
BRANCH   4   5
ATOM      5  C   UNL     1     -22.613 -59.990   5.482  1.00  0.00    -0.000 C 
BRANCH   5   6
ATOM      6  C   UNL     1     -22.742 -58.485   5.791  1.00  0.00    -0.000 C 
BRANCH   6   7
ATOM      7  C   UNL     1     -22.669 -57.571   4.551  1.00  0.00    -0.000 C 
BRANCH   7   8
ATOM      8  C   UNL     1     -23.445 -58.069   3.315  1.00  0.00    -0.000 C 
BRANCH   8   9
ATOM      9  C   UNL     1     -24.841 -57.449   3.124  1.00  0.00    -0.000 C 
BRANCH   9  10
ATOM     10  C   UNL     1     -25.067 -56.204   3.998  1.00  0.00    -0.000 C 
BRANCH  10  11
ATOM     11  C   UNL     1     -26.201 -56.401   5.015  1.00  0.00    -0.003 C 
ATOM     12  C   UNL     1     -25.718 -56.268   6.458  1.00  0.00     0.004 C 
ENDBRANCH  10  11
ENDBRANCH   9  10
ENDBRANCH   8   9
ENDBRANCH   7   8
ENDBRANCH   6   7
ENDBRANCH   5   6
ENDBRANCH   4   5
ENDBRANCH   3   4
ENDBRANCH   2   3
ENDBRANCH   1   2
BRANCH   1  13
ATOM     13  C   UNL     1     -26.454 -61.308   3.439  1.00  0.00     0.000 C 
BRANCH  13  14
ATOM     14  C   UNL     1     -25.189 -61.155   2.568  1.00  0.00     0.000 C 
BRANCH  14  15
ATOM     15  C   UNL     1     -24.199 -62.337   2.631  1.00  0.00     0.000 C 
BRANCH  15  16
ATOM     16  C   UNL     1     -22.744 -61.988   2.269  1.00  0.00     0.000 C 
BRANCH  16  17
ATOM     17  C   UNL     1     -22.347 -62.475   0.865  1.00  0.00     0.000 C 
BRANCH  17  18
ATOM     18  C   UNL     1     -21.877 -61.328  -0.046  1.00  0.00     0.000 C 
BRANCH  18  19
ATOM     19  C   UNL     1     -22.104 -59.939   0.578  1.00  0.00     0.000 C 
BRANCH  19  20
ATOM     20  C   UNL     1     -23.069 -59.062  -0.239  1.00  0.00     0.006 C 
BRANCH  20  21
ATOM     21  C   UNL     1     -23.934 -59.851  -1.238  1.00  0.00     0.053 C 
BRANCH  21  22
ATOM     22  C   UNL     1     -24.914 -58.980  -1.963  1.00  0.00     0.041 C 
ATOM     23  O   UNL     1     -26.019 -59.450  -2.341  1.00  0.00    -0.550 OA
ATOM     24  O   UNL     1     -24.592 -57.662  -2.259  1.00  0.00    -0.550 OA
ENDBRANCH  21  22
ENDBRANCH  20  21
ENDBRANCH  19  20
ENDBRANCH  18  19
ENDBRANCH  17  18
ENDBRANCH  16  17
ENDBRANCH  15  16
ENDBRANCH  14  15
ENDBRANCH  13  14
ENDBRANCH   1  13
TORSDOF 20
ENDMDL
MODEL 7
REMARK VINA RESULT:    -4.477      3.248      5.669
REMARK INTER + INTRA:         -13.291
REMARK INTER:                  -9.721
REMARK INTRA:                  -3.570
REMARK UNBOUND:                -3.580
REMARK SMILES CCCCCCCCCCCCCCCCCCCCCC(=O)[O-]
REMARK SMILES IDX 12 1 11 2 10 3 9 4 8 5 7 6 6 7 5 8 4 9 3 10 2 11 1 12 13 13
REMARK SMILES IDX 14 14 15 15 16 16 17 17 18 18 19 19 20 20 21 21 22 22 23 23
REMARK SMILES IDX 24 24
REMARK H PARENT
REMARK Flexibility Score: inf
ROOT
ATOM      1  C   UNL     1     -24.409 -58.526  -1.342  1.00  0.00     0.000 C 
ENDROOT
BRANCH   1   2
ATOM      2  C   UNL     1     -22.974 -58.793  -0.855  1.00  0.00     0.000 C 
BRANCH   2   3
ATOM      3  C   UNL     1     -22.422 -60.147  -1.332  1.00  0.00     0.000 C 
BRANCH   3   4
ATOM      4  C   UNL     1     -22.036 -61.127  -0.209  1.00  0.00    -0.000 C 
BRANCH   4   5
ATOM      5  C   UNL     1     -22.403 -60.609   1.194  1.00  0.00    -0.000 C 
BRANCH   5   6
ATOM      6  C   UNL     1     -23.002 -61.711   2.088  1.00  0.00    -0.000 C 
BRANCH   6   7
ATOM      7  C   UNL     1     -24.516 -61.568   2.348  1.00  0.00    -0.000 C 
BRANCH   7   8
ATOM      8  C   UNL     1     -25.145 -62.671   3.224  1.00  0.00    -0.000 C 
BRANCH   8   9
ATOM      9  C   UNL     1     -25.990 -62.168   4.406  1.00  0.00    -0.000 C 
BRANCH   9  10
ATOM     10  C   UNL     1     -25.147 -61.486   5.496  1.00  0.00    -0.000 C 
BRANCH  10  11
ATOM     11  C   UNL     1     -24.041 -62.403   6.039  1.00  0.00    -0.003 C 
ATOM     12  C   UNL     1     -22.643 -61.839   5.791  1.00  0.00     0.004 C 
ENDBRANCH  10  11
ENDBRANCH   9  10
ENDBRANCH   8   9
ENDBRANCH   7   8
ENDBRANCH   6   7
ENDBRANCH   5   6
ENDBRANCH   4   5
ENDBRANCH   3   4
ENDBRANCH   2   3
ENDBRANCH   1   2
BRANCH   1  13
ATOM     13  C   UNL     1     -25.429 -59.532  -0.774  1.00  0.00     0.000 C 
BRANCH  13  14
ATOM     14  C   UNL     1     -26.234 -59.029   0.444  1.00  0.00     0.000 C 
BRANCH  14  15
ATOM     15  C   UNL     1     -26.151 -57.511   0.706  1.00  0.00     0.000 C 
BRANCH  15  16
ATOM     16  C   UNL     1     -26.154 -57.105   2.192  1.00  0.00     0.000 C 
BRANCH  16  17
ATOM     17  C   UNL     1     -24.874 -56.360   2.607  1.00  0.00     0.000 C 
BRANCH  17  18
ATOM     18  C   UNL     1     -23.604 -56.992   2.014  1.00  0.00     0.000 C 
BRANCH  18  19
ATOM     19  C   UNL     1     -22.639 -57.516   3.092  1.00  0.00     0.000 C 
BRANCH  19  20
ATOM     20  C   UNL     1     -23.325 -58.425   4.127  1.00  0.00     0.006 C 
BRANCH  20  21
ATOM     21  C   UNL     1     -22.877 -58.166   5.576  1.00  0.00     0.053 C 
BRANCH  21  22
ATOM     22  C   UNL     1     -23.000 -56.725   5.967  1.00  0.00     0.041 C 
ATOM     23  O   UNL     1     -24.121 -56.251   6.292  1.00  0.00    -0.550 OA
ATOM     24  O   UNL     1     -21.889 -55.894   5.933  1.00  0.00    -0.550 OA
ENDBRANCH  21  22
ENDBRANCH  20  21
ENDBRANCH  19  20
ENDBRANCH  18  19
ENDBRANCH  17  18
ENDBRANCH  16  17
ENDBRANCH  15  16
ENDBRANCH  14  15
ENDBRANCH  13  14
ENDBRANCH   1  13
TORSDOF 20
ENDMDL
MODEL 8
REMARK VINA RESULT:    -4.464      1.127      3.145
REMARK INTER + INTRA:         -13.264
REMARK INTER:                  -9.433
REMARK INTRA:                  -3.831
REMARK UNBOUND:                -3.580
REMARK SMILES CCCCCCCCCCCCCCCCCCCCCC(=O)[O-]
REMARK SMILES IDX 12 1 11 2 10 3 9 4 8 5 7 6 6 7 5 8 4 9 3 10 2 11 1 12 13 13
REMARK SMILES IDX 14 14 15 15 16 16 17 17 18 18 19 19 20 20 21 21 22 22 23 23
REMARK SMILES IDX 24 24
REMARK H PARENT
REMARK Flexibility Score: inf
ROOT
ATOM      1  C   UNL     1     -23.448 -64.048   4.245  1.00  0.00     0.000 C 
ENDROOT
BRANCH   1   2
ATOM      2  C   UNL     1     -24.277 -63.706   5.495  1.00  0.00     0.000 C 
BRANCH   2   3
ATOM      3  C   UNL     1     -23.608 -62.642   6.383  1.00  0.00     0.000 C 
BRANCH   3   4
ATOM      4  C   UNL     1     -22.424 -61.903   5.737  1.00  0.00    -0.000 C 
BRANCH   4   5
ATOM      5  C   UNL     1     -22.606 -60.374   5.720  1.00  0.00    -0.000 C 
BRANCH   5   6
ATOM      6  C   UNL     1     -24.022 -59.947   6.151  1.00  0.00    -0.000 C 
BRANCH   6   7
ATOM      7  C   UNL     1     -24.689 -58.915   5.218  1.00  0.00    -0.000 C 
BRANCH   7   8
ATOM      8  C   UNL     1     -26.230 -58.862   5.284  1.00  0.00    -0.000 C 
BRANCH   8   9
ATOM      9  C   UNL     1     -26.919 -58.282   4.037  1.00  0.00    -0.000 C 
BRANCH   9  10
ATOM     10  C   UNL     1     -25.942 -57.562   3.093  1.00  0.00    -0.000 C 
BRANCH  10  11
ATOM     11  C   UNL     1     -26.373 -57.655   1.622  1.00  0.00    -0.003 C 
ATOM     12  C   UNL     1     -27.218 -58.897   1.340  1.00  0.00     0.004 C 
ENDBRANCH  10  11
ENDBRANCH   9  10
ENDBRANCH   8   9
ENDBRANCH   7   8
ENDBRANCH   6   7
ENDBRANCH   5   6
ENDBRANCH   4   5
ENDBRANCH   3   4
ENDBRANCH   2   3
ENDBRANCH   1   2
BRANCH   1  13
ATOM     13  C   UNL     1     -24.125 -63.590   2.938  1.00  0.00     0.000 C 
BRANCH  13  14
ATOM     14  C   UNL     1     -25.137 -62.436   3.096  1.00  0.00     0.000 C 
BRANCH  14  15
ATOM     15  C   UNL     1     -24.780 -61.139   2.338  1.00  0.00     0.000 C 
BRANCH  15  16
ATOM     16  C   UNL     1     -23.275 -60.916   2.102  1.00  0.00     0.000 C 
BRANCH  16  17
ATOM     17  C   UNL     1     -22.892 -59.426   2.079  1.00  0.00     0.000 C 
BRANCH  17  18
ATOM     18  C   UNL     1     -22.252 -59.003   0.746  1.00  0.00     0.000 C 
BRANCH  18  19
ATOM     19  C   UNL     1     -22.238 -60.135  -0.296  1.00  0.00     0.000 C 
BRANCH  19  20
ATOM     20  C   UNL     1     -23.354 -60.002  -1.347  1.00  0.00     0.006 C 
BRANCH  20  21
ATOM     21  C   UNL     1     -24.154 -58.692  -1.242  1.00  0.00     0.053 C 
BRANCH  21  22
ATOM     22  C   UNL     1     -25.389 -58.703  -2.091  1.00  0.00     0.041 C 
ATOM     23  O   UNL     1     -25.541 -59.588  -2.974  1.00  0.00    -0.550 OA
ATOM     24  O   UNL     1     -26.351 -57.714  -1.939  1.00  0.00    -0.550 OA
ENDBRANCH  21  22
ENDBRANCH  20  21
ENDBRANCH  19  20
ENDBRANCH  18  19
ENDBRANCH  17  18
ENDBRANCH  16  17
ENDBRANCH  15  16
ENDBRANCH  14  15
ENDBRANCH  13  14
ENDBRANCH   1  13
TORSDOF 20
ENDMDL
MODEL 9
REMARK VINA RESULT:    -4.413      2.133      2.729
REMARK INTER + INTRA:         -13.153
REMARK INTER:                  -9.669
REMARK INTRA:                  -3.484
REMARK UNBOUND:                -3.580
REMARK SMILES CCCCCCCCCCCCCCCCCCCCCC(=O)[O-]
REMARK SMILES IDX 12 1 11 2 10 3 9 4 8 5 7 6 6 7 5 8 4 9 3 10 2 11 1 12 13 13
REMARK SMILES IDX 14 14 15 15 16 16 17 17 18 18 19 19 20 20 21 21 22 22 23 23
REMARK SMILES IDX 24 24
REMARK H PARENT
REMARK Flexibility Score: inf
ROOT
ATOM      1  C   UNL     1     -23.275 -63.131   1.695  1.00  0.00     0.000 C 
ENDROOT
BRANCH   1   2
ATOM      2  C   UNL     1     -24.418 -62.559   2.551  1.00  0.00     0.000 C 
BRANCH   2   3
ATOM      3  C   UNL     1     -24.585 -63.290   3.894  1.00  0.00     0.000 C 
BRANCH   3   4
ATOM      4  C   UNL     1     -23.341 -64.057   4.378  1.00  0.00    -0.000 C 
BRANCH   4   5
ATOM      5  C   UNL     1     -22.492 -63.254   5.381  1.00  0.00    -0.000 C 
BRANCH   5   6
ATOM      6  C   UNL     1     -23.244 -62.030   5.938  1.00  0.00    -0.000 C 
BRANCH   6   7
ATOM      7  C   UNL     1     -22.547 -60.679   5.675  1.00  0.00    -0.000 C 
BRANCH   7   8
ATOM      8  C   UNL     1     -23.423 -59.602   5.003  1.00  0.00    -0.000 C 
BRANCH   8   9
ATOM      9  C   UNL     1     -22.943 -58.153   5.196  1.00  0.00    -0.000 C 
BRANCH   9  10
ATOM     10  C   UNL     1     -22.527 -57.480   3.877  1.00  0.00    -0.000 C 
BRANCH  10  11
ATOM     11  C   UNL     1     -23.733 -56.959   3.081  1.00  0.00    -0.003 C 
ATOM     12  C   UNL     1     -24.180 -55.573   3.544  1.00  0.00     0.004 C 
ENDBRANCH  10  11
ENDBRANCH   9  10
ENDBRANCH   8   9
ENDBRANCH   7   8
ENDBRANCH   6   7
ENDBRANCH   5   6
ENDBRANCH   4   5
ENDBRANCH   3   4
ENDBRANCH   2   3
ENDBRANCH   1   2
BRANCH   1  13
ATOM     13  C   UNL     1     -22.288 -62.049   1.217  1.00  0.00     0.000 C 
BRANCH  13  14
ATOM     14  C   UNL     1     -22.622 -60.613   1.673  1.00  0.00     0.000 C 
BRANCH  14  15
ATOM     15  C   UNL     1     -21.891 -59.492   0.904  1.00  0.00     0.000 C 
BRANCH  15  16
ATOM     16  C   UNL     1     -22.153 -59.465  -0.613  1.00  0.00     0.000 C 
BRANCH  16  17
ATOM     17  C   UNL     1     -23.357 -58.586  -0.993  1.00  0.00     0.000 C 
BRANCH  17  18
ATOM     18  C   UNL     1     -24.488 -59.390  -1.657  1.00  0.00     0.000 C 
BRANCH  18  19
ATOM     19  C   UNL     1     -25.619 -59.750  -0.677  1.00  0.00     0.000 C 
BRANCH  19  20
ATOM     20  C   UNL     1     -25.712 -58.785   0.518  1.00  0.00     0.006 C 
BRANCH  20  21
ATOM     21  C   UNL     1     -26.215 -59.447   1.813  1.00  0.00     0.053 C 
BRANCH  21  22
ATOM     22  C   UNL     1     -27.665 -59.174   2.072  1.00  0.00     0.041 C 
ATOM     23  O   UNL     1     -28.150 -59.364   3.219  1.00  0.00    -0.550 OA
ATOM     24  O   UNL     1     -28.492 -58.750   1.040  1.00  0.00    -0.550 OA
ENDBRANCH  21  22
ENDBRANCH  20  21
ENDBRANCH  19  20
ENDBRANCH  18  19
ENDBRANCH  17  18
ENDBRANCH  16  17
ENDBRANCH  15  16
ENDBRANCH  14  15
ENDBRANCH  13  14
ENDBRANCH   1  13
TORSDOF 20
ENDMDL
