MODEL 1
REMARK VINA RESULT:    -4.963      0.000      0.000
REMARK INTER + INTRA:         -17.562
REMARK INTER:                 -13.086
REMARK INTRA:                  -4.475
REMARK UNBOUND:                -4.475
REMARK SMILES CCCCCCCCCCCCCCCCCCCCCCCCCCCCCC(=O)[O-]
REMARK SMILES IDX 16 1 17 2 18 3 19 4 20 5 21 6 22 7 23 8 24 9 25 10 26 11
REMARK SMILES IDX 27 12 28 13 29 14 30 15 31 16 32 17 15 18 14 19 13 20 12 21
REMARK SMILES IDX 11 22 10 23 9 24 8 25 7 26 6 27 5 28 4 29 3 30 2 31 1 32
REMARK H PARENT
REMARK Flexibility Score: inf
ROOT
ATOM      1  C   UNL     1      -4.945  11.943  -8.991  1.00  0.00     0.000 C 
ENDROOT
BRANCH   1   2
ATOM      2  C   UNL     1      -3.464  11.525  -9.022  1.00  0.00     0.000 C 
BRANCH   2   3
ATOM      3  C   UNL     1      -3.287  10.016  -9.267  1.00  0.00     0.000 C 
BRANCH   3   4
ATOM      4  C   UNL     1      -4.224   9.479 -10.363  1.00  0.00     0.000 C 
BRANCH   4   5
ATOM      5  C   UNL     1      -4.143   7.953 -10.518  1.00  0.00     0.000 C 
BRANCH   5   6
ATOM      6  C   UNL     1      -5.029   7.211  -9.504  1.00  0.00     0.000 C 
BRANCH   6   7
ATOM      7  C   UNL     1      -6.419   7.852  -9.340  1.00  0.00     0.000 C 
BRANCH   7   8
ATOM      8  C   UNL     1      -6.680   8.514  -7.971  1.00  0.00     0.000 C 
BRANCH   8   9
ATOM      9  C   UNL     1      -5.561   8.324  -6.925  1.00  0.00     0.000 C 
BRANCH   9  10
ATOM     10  C   UNL     1      -6.050   8.050  -5.492  1.00  0.00     0.000 C 
BRANCH  10  11
ATOM     11  C   UNL     1      -5.214   6.980  -4.773  1.00  0.00     0.000 C 
BRANCH  11  12
ATOM     12  C   UNL     1      -4.296   7.616  -3.719  1.00  0.00     0.000 C 
BRANCH  12  13
ATOM     13  C   UNL     1      -3.537   6.576  -2.875  1.00  0.00     0.006 C 
BRANCH  13  14
ATOM     14  C   UNL     1      -2.044   6.453  -3.230  1.00  0.00     0.053 C 
BRANCH  14  15
ATOM     15  C   UNL     1      -1.734   5.192  -3.980  1.00  0.00     0.041 C 
ATOM     16  O   UNL     1      -2.667   4.451  -4.386  1.00  0.00    -0.550 OA
ATOM     17  O   UNL     1      -0.416   4.852  -4.261  1.00  0.00    -0.550 OA
ENDBRANCH  14  15
ENDBRANCH  13  14
ENDBRANCH  12  13
ENDBRANCH  11  12
ENDBRANCH  10  11
ENDBRANCH   9  10
ENDBRANCH   8   9
ENDBRANCH   7   8
ENDBRANCH   6   7
ENDBRANCH   5   6
ENDBRANCH   4   5
ENDBRANCH   3   4
ENDBRANCH   2   3
ENDBRANCH   1   2
BRANCH   1  18
ATOM     18  C   UNL     1      -5.161  13.316  -8.334  1.00  0.00     0.000 C 
BRANCH  18  19
ATOM     19  C   UNL     1      -6.041  13.234  -7.074  1.00  0.00     0.000 C 
BRANCH  19  20
ATOM     20  C   UNL     1      -6.076  11.825  -6.453  1.00  0.00     0.000 C 
BRANCH  20  21
ATOM     21  C   UNL     1      -5.993  11.776  -4.916  1.00  0.00     0.000 C 
BRANCH  21  22
ATOM     22  C   UNL     1      -4.628  11.286  -4.401  1.00  0.00     0.000 C 
BRANCH  22  23
ATOM     23  C   UNL     1      -3.473  11.614  -5.363  1.00  0.00     0.000 C 
BRANCH  23  24
ATOM     24  C   UNL     1      -2.590  12.810  -4.949  1.00  0.00    -0.000 C 
BRANCH  24  25
ATOM     25  C   UNL     1      -1.247  12.437  -4.290  1.00  0.00    -0.000 C 
BRANCH  25  26
ATOM     26  C   UNL     1      -0.069  12.267  -5.269  1.00  0.00    -0.000 C 
BRANCH  26  27
ATOM     27  C   UNL     1      -0.320  12.809  -6.689  1.00  0.00    -0.000 C 
BRANCH  27  28
ATOM     28  C   UNL     1       0.509  12.101  -7.782  1.00  0.00    -0.000 C 
BRANCH  28  29
ATOM     29  C   UNL     1       0.185  10.600  -7.893  1.00  0.00    -0.000 C 
BRANCH  29  30
ATOM     30  C   UNL     1       1.438   9.718  -7.700  1.00  0.00    -0.000 C 
BRANCH  30  31
ATOM     31  C   UNL     1       2.739  10.385  -8.177  1.00  0.00    -0.003 C 
ATOM     32  C   UNL     1       3.392   9.654  -9.347  1.00  0.00     0.004 C 
ENDBRANCH  30  31
ENDBRANCH  29  30
ENDBRANCH  28  29
ENDBRANCH  27  28
ENDBRANCH  26  27
ENDBRANCH  25  26
ENDBRANCH  24  25
ENDBRANCH  23  24
ENDBRANCH  22  23
ENDBRANCH  21  22
ENDBRANCH  20  21
ENDBRANCH  19  20
ENDBRANCH  18  19
ENDBRANCH   1  18
TORSDOF 28
ENDMDL
MODEL 2
REMARK VINA RESULT:    -4.931      2.455      7.058
REMARK INTER + INTRA:         -17.479
REMARK INTER:                 -11.434
REMARK INTRA:                  -6.045
REMARK UNBOUND:                -4.475
REMARK SMILES CCCCCCCCCCCCCCCCCCCCCCCCCCCCCC(=O)[O-]
REMARK SMILES IDX 16 1 17 2 18 3 19 4 20 5 21 6 22 7 23 8 24 9 25 10 26 11
REMARK SMILES IDX 27 12 28 13 29 14 30 15 31 16 32 17 15 18 14 19 13 20 12 21
REMARK SMILES IDX 11 22 10 23 9 24 8 25 7 26 6 27 5 28 4 29 3 30 2 31 1 32
REMARK H PARENT
REMARK Flexibility Score: inf
ROOT
ATOM      1  C   UNL     1      -4.966  11.878  -6.257  1.00  0.00     0.000 C 
ENDROOT
BRANCH   1   2
ATOM      2  C   UNL     1      -5.012  12.154  -4.744  1.00  0.00     0.000 C 
BRANCH   2   3
ATOM      3  C   UNL     1      -4.278  11.076  -3.929  1.00  0.00     0.000 C 
BRANCH   3   4
ATOM      4  C   UNL     1      -2.957  10.634  -4.585  1.00  0.00     0.000 C 
BRANCH   4   5
ATOM      5  C   UNL     1      -1.761  10.715  -3.624  1.00  0.00     0.000 C 
BRANCH   5   6
ATOM      6  C   UNL     1      -0.764  11.818  -4.018  1.00  0.00     0.000 C 
BRANCH   6   7
ATOM      7  C   UNL     1      -1.326  13.236  -3.814  1.00  0.00     0.000 C 
BRANCH   7   8
ATOM      8  C   UNL     1      -1.094  14.210  -4.987  1.00  0.00     0.000 C 
BRANCH   8   9
ATOM      9  C   UNL     1      -1.932  13.929  -6.251  1.00  0.00     0.000 C 
BRANCH   9  10
ATOM     10  C   UNL     1      -1.147  13.330  -7.432  1.00  0.00     0.000 C 
BRANCH  10  11
ATOM     11  C   UNL     1      -1.729  11.994  -7.916  1.00  0.00     0.000 C 
BRANCH  11  12
ATOM     12  C   UNL     1      -0.749  10.841  -7.655  1.00  0.00     0.000 C 
BRANCH  12  13
ATOM     13  C   UNL     1       0.702  11.184  -8.040  1.00  0.00     0.006 C 
BRANCH  13  14
ATOM     14  C   UNL     1       1.761  10.500  -7.158  1.00  0.00     0.053 C 
BRANCH  14  15
ATOM     15  C   UNL     1       2.476  11.467  -6.262  1.00  0.00     0.041 C 
ATOM     16  O   UNL     1       1.917  12.540  -5.915  1.00  0.00    -0.550 OA
ATOM     17  O   UNL     1       3.746  11.169  -5.784  1.00  0.00    -0.550 OA
ENDBRANCH  14  15
ENDBRANCH  13  14
ENDBRANCH  12  13
ENDBRANCH  11  12
ENDBRANCH  10  11
ENDBRANCH   9  10
ENDBRANCH   8   9
ENDBRANCH   7   8
ENDBRANCH   6   7
ENDBRANCH   5   6
ENDBRANCH   4   5
ENDBRANCH   3   4
ENDBRANCH   2   3
ENDBRANCH   1   2
BRANCH   1  18
ATOM     18  C   UNL     1      -5.548  13.032  -7.090  1.00  0.00     0.000 C 
BRANCH  18  19
ATOM     19  C   UNL     1      -5.284  12.863  -8.596  1.00  0.00     0.000 C 
BRANCH  19  20
ATOM     20  C   UNL     1      -6.317  11.956  -9.291  1.00  0.00     0.000 C 
BRANCH  20  21
ATOM     21  C   UNL     1      -5.755  11.031 -10.387  1.00  0.00     0.000 C 
BRANCH  21  22
ATOM     22  C   UNL     1      -4.229  10.856 -10.306  1.00  0.00     0.000 C 
BRANCH  22  23
ATOM     23  C   UNL     1      -3.811   9.452  -9.837  1.00  0.00     0.000 C 
BRANCH  23  24
ATOM     24  C   UNL     1      -4.738   8.304 -10.287  1.00  0.00    -0.000 C 
BRANCH  24  25
ATOM     25  C   UNL     1      -5.376   7.487  -9.145  1.00  0.00    -0.000 C 
BRANCH  25  26
ATOM     26  C   UNL     1      -6.639   8.114  -8.526  1.00  0.00    -0.000 C 
BRANCH  26  27
ATOM     27  C   UNL     1      -6.400   8.915  -7.232  1.00  0.00    -0.000 C 
BRANCH  27  28
ATOM     28  C   UNL     1      -5.703   8.106  -6.117  1.00  0.00    -0.000 C 
BRANCH  28  29
ATOM     29  C   UNL     1      -6.447   8.188  -4.772  1.00  0.00    -0.000 C 
BRANCH  29  30
ATOM     30  C   UNL     1      -5.605   7.626  -3.605  1.00  0.00    -0.000 C 
BRANCH  30  31
ATOM     31  C   UNL     1      -4.209   7.142  -4.033  1.00  0.00    -0.003 C 
ATOM     32  C   UNL     1      -3.215   7.086  -2.875  1.00  0.00     0.004 C 
ENDBRANCH  30  31
ENDBRANCH  29  30
ENDBRANCH  28  29
ENDBRANCH  27  28
ENDBRANCH  26  27
ENDBRANCH  25  26
ENDBRANCH  24  25
ENDBRANCH  23  24
ENDBRANCH  22  23
ENDBRANCH  21  22
ENDBRANCH  20  21
ENDBRANCH  19  20
ENDBRANCH  18  19
ENDBRANCH   1  18
TORSDOF 28
ENDMDL
MODEL 3
REMARK VINA RESULT:    -4.910      2.459      6.604
REMARK INTER + INTRA:         -17.423
REMARK INTER:                 -12.233
REMARK INTRA:                  -5.190
REMARK UNBOUND:                -4.475
REMARK SMILES CCCCCCCCCCCCCCCCCCCCCCCCCCCCCC(=O)[O-]
REMARK SMILES IDX 16 1 17 2 18 3 19 4 20 5 21 6 22 7 23 8 24 9 25 10 26 11
REMARK SMILES IDX 27 12 28 13 29 14 30 15 31 16 32 17 15 18 14 19 13 20 12 21
REMARK SMILES IDX 11 22 10 23 9 24 8 25 7 26 6 27 5 28 4 29 3 30 2 31 1 32
REMARK H PARENT
REMARK Flexibility Score: inf
ROOT
ATOM      1  C   UNL     1      -3.506   9.619  -9.646  1.00  0.00     0.000 C 
ENDROOT
BRANCH   1   2
ATOM      2  C   UNL     1      -3.275  10.356  -8.314  1.00  0.00     0.000 C 
BRANCH   2   3
ATOM      3  C   UNL     1      -1.865  10.964  -8.218  1.00  0.00     0.000 C 
BRANCH   3   4
ATOM      4  C   UNL     1      -1.885  12.503  -8.184  1.00  0.00     0.000 C 
BRANCH   4   5
ATOM      5  C   UNL     1      -1.128  13.079  -6.977  1.00  0.00     0.000 C 
BRANCH   5   6
ATOM      6  C   UNL     1      -1.959  14.118  -6.206  1.00  0.00     0.000 C 
BRANCH   6   7
ATOM      7  C   UNL     1      -1.149  14.845  -5.116  1.00  0.00     0.000 C 
BRANCH   7   8
ATOM      8  C   UNL     1      -1.533  14.490  -3.665  1.00  0.00     0.000 C 
BRANCH   8   9
ATOM      9  C   UNL     1      -0.664  13.401  -3.003  1.00  0.00     0.000 C 
BRANCH   9  10
ATOM     10  C   UNL     1       0.790  13.334  -3.505  1.00  0.00     0.000 C 
BRANCH  10  11
ATOM     11  C   UNL     1       1.138  11.981  -4.142  1.00  0.00     0.000 C 
BRANCH  11  12
ATOM     12  C   UNL     1       2.026  12.169  -5.381  1.00  0.00     0.000 C 
BRANCH  12  13
ATOM     13  C   UNL     1       1.779  11.106  -6.466  1.00  0.00     0.006 C 
BRANCH  13  14
ATOM     14  C   UNL     1       3.023  10.772  -7.309  1.00  0.00     0.053 C 
BRANCH  14  15
ATOM     15  C   UNL     1       2.694   9.955  -8.522  1.00  0.00     0.041 C 
ATOM     16  O   UNL     1       1.524   9.523  -8.696  1.00  0.00    -0.550 OA
ATOM     17  O   UNL     1       3.669   9.699  -9.478  1.00  0.00    -0.550 OA
ENDBRANCH  14  15
ENDBRANCH  13  14
ENDBRANCH  12  13
ENDBRANCH  11  12
ENDBRANCH  10  11
ENDBRANCH   9  10
ENDBRANCH   8   9
ENDBRANCH   7   8
ENDBRANCH   6   7
ENDBRANCH   5   6
ENDBRANCH   4   5
ENDBRANCH   3   4
ENDBRANCH   2   3
ENDBRANCH   1   2
BRANCH   1  18
ATOM     18  C   UNL     1      -4.491  10.354 -10.568  1.00  0.00     0.000 C 
BRANCH  18  19
ATOM     19  C   UNL     1      -5.947   9.902 -10.356  1.00  0.00     0.000 C 
BRANCH  19  20
ATOM     20  C   UNL     1      -6.910  11.075 -10.095  1.00  0.00     0.000 C 
BRANCH  20  21
ATOM     21  C   UNL     1      -7.003  11.543  -8.630  1.00  0.00     0.000 C 
BRANCH  21  22
ATOM     22  C   UNL     1      -6.473  12.972  -8.420  1.00  0.00     0.000 C 
BRANCH  22  23
ATOM     23  C   UNL     1      -5.427  13.063  -7.294  1.00  0.00     0.000 C 
BRANCH  23  24
ATOM     24  C   UNL     1      -5.552  11.991  -6.191  1.00  0.00    -0.000 C 
BRANCH  24  25
ATOM     25  C   UNL     1      -5.472  12.522  -4.747  1.00  0.00    -0.000 C 
BRANCH  25  26
ATOM     26  C   UNL     1      -4.175  12.168  -3.995  1.00  0.00    -0.000 C 
BRANCH  26  27
ATOM     27  C   UNL     1      -3.356  11.020  -4.617  1.00  0.00    -0.000 C 
BRANCH  27  28
ATOM     28  C   UNL     1      -3.162   9.812  -3.676  1.00  0.00    -0.000 C 
BRANCH  28  29
ATOM     29  C   UNL     1      -4.464   9.026  -3.444  1.00  0.00    -0.000 C 
BRANCH  29  30
ATOM     30  C   UNL     1      -4.553   7.769  -4.337  1.00  0.00    -0.000 C 
BRANCH  30  31
ATOM     31  C   UNL     1      -5.906   7.621  -5.055  1.00  0.00    -0.003 C 
ATOM     32  C   UNL     1      -6.007   8.468  -6.321  1.00  0.00     0.004 C 
ENDBRANCH  30  31
ENDBRANCH  29  30
ENDBRANCH  28  29
ENDBRANCH  27  28
ENDBRANCH  26  27
ENDBRANCH  25  26
ENDBRANCH  24  25
ENDBRANCH  23  24
ENDBRANCH  22  23
ENDBRANCH  21  22
ENDBRANCH  20  21
ENDBRANCH  19  20
ENDBRANCH  18  19
ENDBRANCH   1  18
TORSDOF 28
ENDMDL
MODEL 4
REMARK VINA RESULT:    -4.864      2.391      6.911
REMARK INTER + INTRA:         -17.301
REMARK INTER:                 -12.436
REMARK INTRA:                  -4.865
REMARK UNBOUND:                -4.475
REMARK SMILES CCCCCCCCCCCCCCCCCCCCCCCCCCCCCC(=O)[O-]
REMARK SMILES IDX 16 1 17 2 18 3 19 4 20 5 21 6 22 7 23 8 24 9 25 10 26 11
REMARK SMILES IDX 27 12 28 13 29 14 30 15 31 16 32 17 15 18 14 19 13 20 12 21
REMARK SMILES IDX 11 22 10 23 9 24 8 25 7 26 6 27 5 28 4 29 3 30 2 31 1 32
REMARK H PARENT
REMARK Flexibility Score: inf
ROOT
ATOM      1  C   UNL     1      -2.838   8.064  -3.586  1.00  0.00     0.000 C 
ENDROOT
BRANCH   1   2
ATOM      2  C   UNL     1      -3.178   9.533  -3.894  1.00  0.00     0.000 C 
BRANCH   2   3
ATOM      3  C   UNL     1      -2.456  10.051  -5.149  1.00  0.00     0.000 C 
BRANCH   3   4
ATOM      4  C   UNL     1      -3.412  10.733  -6.144  1.00  0.00     0.000 C 
BRANCH   4   5
ATOM      5  C   UNL     1      -2.781  10.936  -7.530  1.00  0.00     0.000 C 
BRANCH   5   6
ATOM      6  C   UNL     1      -2.760  12.414  -7.955  1.00  0.00     0.000 C 
BRANCH   6   7
ATOM      7  C   UNL     1      -1.515  13.166  -7.451  1.00  0.00     0.000 C 
BRANCH   7   8
ATOM      8  C   UNL     1      -1.770  14.164  -6.303  1.00  0.00     0.000 C 
BRANCH   8   9
ATOM      9  C   UNL     1      -1.583  13.593  -4.882  1.00  0.00     0.000 C 
BRANCH   9  10
ATOM     10  C   UNL     1      -0.261  12.838  -4.652  1.00  0.00     0.000 C 
BRANCH  10  11
ATOM     11  C   UNL     1       0.971  13.746  -4.773  1.00  0.00     0.000 C 
BRANCH  11  12
ATOM     12  C   UNL     1       2.181  12.963  -5.302  1.00  0.00     0.000 C 
BRANCH  12  13
ATOM     13  C   UNL     1       1.823  11.539  -5.763  1.00  0.00     0.006 C 
BRANCH  13  14
ATOM     14  C   UNL     1       2.694  11.019  -6.921  1.00  0.00     0.053 C 
BRANCH  14  15
ATOM     15  C   UNL     1       1.884  10.374  -8.005  1.00  0.00     0.041 C 
ATOM     16  O   UNL     1       0.642  10.568  -8.068  1.00  0.00    -0.550 OA
ATOM     17  O   UNL     1       2.505   9.587  -8.967  1.00  0.00    -0.550 OA
ENDBRANCH  14  15
ENDBRANCH  13  14
ENDBRANCH  12  13
ENDBRANCH  11  12
ENDBRANCH  10  11
ENDBRANCH   9  10
ENDBRANCH   8   9
ENDBRANCH   7   8
ENDBRANCH   6   7
ENDBRANCH   5   6
ENDBRANCH   4   5
ENDBRANCH   3   4
ENDBRANCH   2   3
ENDBRANCH   1   2
BRANCH   1  18
ATOM     18  C   UNL     1      -4.068   7.245  -3.164  1.00  0.00     0.000 C 
BRANCH  18  19
ATOM     19  C   UNL     1      -5.390   7.976  -3.455  1.00  0.00     0.000 C 
BRANCH  19  20
ATOM     20  C   UNL     1      -6.141   7.403  -4.672  1.00  0.00     0.000 C 
BRANCH  20  21
ATOM     21  C   UNL     1      -5.975   8.192  -5.984  1.00  0.00     0.000 C 
BRANCH  21  22
ATOM     22  C   UNL     1      -6.798   9.491  -6.015  1.00  0.00     0.000 C 
BRANCH  22  23
ATOM     23  C   UNL     1      -6.985  10.048  -7.438  1.00  0.00     0.000 C 
BRANCH  23  24
ATOM     24  C   UNL     1      -6.758  11.567  -7.586  1.00  0.00    -0.000 C 
BRANCH  24  25
ATOM     25  C   UNL     1      -6.316  12.031  -8.987  1.00  0.00    -0.000 C 
BRANCH  25  26
ATOM     26  C   UNL     1      -6.199  10.910 -10.037  1.00  0.00    -0.000 C 
BRANCH  26  27
ATOM     27  C   UNL     1      -4.782  10.691 -10.600  1.00  0.00    -0.000 C 
BRANCH  27  28
ATOM     28  C   UNL     1      -4.406   9.205 -10.783  1.00  0.00    -0.000 C 
BRANCH  28  29
ATOM     29  C   UNL     1      -4.512   8.402  -9.474  1.00  0.00    -0.000 C 
BRANCH  29  30
ATOM     30  C   UNL     1      -5.543   7.256  -9.575  1.00  0.00    -0.000 C 
BRANCH  30  31
ATOM     31  C   UNL     1      -5.625   6.626 -10.976  1.00  0.00    -0.003 C 
ATOM     32  C   UNL     1      -6.710   5.559 -11.090  1.00  0.00     0.004 C 
ENDBRANCH  30  31
ENDBRANCH  29  30
ENDBRANCH  28  29
ENDBRANCH  27  28
ENDBRANCH  26  27
ENDBRANCH  25  26
ENDBRANCH  24  25
ENDBRANCH  23  24
ENDBRANCH  22  23
ENDBRANCH  21  22
ENDBRANCH  20  21
ENDBRANCH  19  20
ENDBRANCH  18  19
ENDBRANCH   1  18
TORSDOF 28
ENDMDL
MODEL 5
REMARK VINA RESULT:    -4.793      1.494      2.136
REMARK INTER + INTRA:         -17.114
REMARK INTER:                 -12.821
REMARK INTRA:                  -4.293
REMARK UNBOUND:                -4.475
REMARK SMILES CCCCCCCCCCCCCCCCCCCCCCCCCCCCCC(=O)[O-]
REMARK SMILES IDX 16 1 17 2 18 3 19 4 20 5 21 6 22 7 23 8 24 9 25 10 26 11
REMARK SMILES IDX 27 12 28 13 29 14 30 15 31 16 32 17 15 18 14 19 13 20 12 21
REMARK SMILES IDX 11 22 10 23 9 24 8 25 7 26 6 27 5 28 4 29 3 30 2 31 1 32
REMARK H PARENT
REMARK Flexibility Score: inf
ROOT
ATOM      1  C   UNL     1      -2.006  12.303  -8.127  1.00  0.00     0.000 C 
ENDROOT
BRANCH   1   2
ATOM      2  C   UNL     1      -2.609  11.479  -9.279  1.00  0.00     0.000 C 
BRANCH   2   3
ATOM      3  C   UNL     1      -4.073  11.856  -9.565  1.00  0.00     0.000 C 
BRANCH   3   4
ATOM      4  C   UNL     1      -4.814  10.779 -10.378  1.00  0.00     0.000 C 
BRANCH   4   5
ATOM      5  C   UNL     1      -4.036   9.456 -10.458  1.00  0.00     0.000 C 
BRANCH   5   6
ATOM      6  C   UNL     1      -4.889   8.248 -10.038  1.00  0.00     0.000 C 
BRANCH   6   7
ATOM      7  C   UNL     1      -6.358   8.616  -9.761  1.00  0.00     0.000 C 
BRANCH   7   8
ATOM      8  C   UNL     1      -6.825   8.407  -8.306  1.00  0.00     0.000 C 
BRANCH   8   9
ATOM      9  C   UNL     1      -5.700   8.119  -7.290  1.00  0.00     0.000 C 
BRANCH   9  10
ATOM     10  C   UNL     1      -6.019   8.513  -5.836  1.00  0.00     0.000 C 
BRANCH  10  11
ATOM     11  C   UNL     1      -5.715   7.389  -4.835  1.00  0.00     0.000 C 
BRANCH  11  12
ATOM     12  C   UNL     1      -4.416   7.674  -4.066  1.00  0.00     0.000 C 
BRANCH  12  13
ATOM     13  C   UNL     1      -3.923   6.466  -3.248  1.00  0.00     0.006 C 
BRANCH  13  14
ATOM     14  C   UNL     1      -2.391   6.342  -3.178  1.00  0.00     0.053 C 
BRANCH  14  15
ATOM     15  C   UNL     1      -1.870   5.187  -3.979  1.00  0.00     0.041 C 
ATOM     16  O   UNL     1      -2.560   4.703  -4.915  1.00  0.00    -0.550 OA
ATOM     17  O   UNL     1      -0.609   4.666  -3.716  1.00  0.00    -0.550 OA
ENDBRANCH  14  15
ENDBRANCH  13  14
ENDBRANCH  12  13
ENDBRANCH  11  12
ENDBRANCH  10  11
ENDBRANCH   9  10
ENDBRANCH   8   9
ENDBRANCH   7   8
ENDBRANCH   6   7
ENDBRANCH   5   6
ENDBRANCH   4   5
ENDBRANCH   3   4
ENDBRANCH   2   3
ENDBRANCH   1   2
BRANCH   1  18
ATOM     18  C   UNL     1      -2.808  12.174  -6.821  1.00  0.00     0.000 C 
BRANCH  18  19
ATOM     19  C   UNL     1      -3.103  10.709  -6.454  1.00  0.00     0.000 C 
BRANCH  19  20
ATOM     20  C   UNL     1      -2.270  10.207  -5.260  1.00  0.00     0.000 C 
BRANCH  20  21
ATOM     21  C   UNL     1      -2.510  10.942  -3.928  1.00  0.00     0.000 C 
BRANCH  21  22
ATOM     22  C   UNL     1      -1.217  11.489  -3.300  1.00  0.00     0.000 C 
BRANCH  22  23
ATOM     23  C   UNL     1      -1.310  12.983  -2.944  1.00  0.00     0.000 C 
BRANCH  23  24
ATOM     24  C   UNL     1      -1.758  13.908  -4.094  1.00  0.00    -0.000 C 
BRANCH  24  25
ATOM     25  C   UNL     1      -0.624  14.686  -4.792  1.00  0.00    -0.000 C 
BRANCH  25  26
ATOM     26  C   UNL     1       0.744  14.609  -4.088  1.00  0.00    -0.000 C 
BRANCH  26  27
ATOM     27  C   UNL     1       1.727  13.585  -4.687  1.00  0.00    -0.000 C 
BRANCH  27  28
ATOM     28  C   UNL     1       1.194  12.875  -5.951  1.00  0.00    -0.000 C 
BRANCH  28  29
ATOM     29  C   UNL     1       1.838  11.495  -6.171  1.00  0.00    -0.000 C 
BRANCH  29  30
ATOM     30  C   UNL     1       0.874  10.504  -6.859  1.00  0.00    -0.000 C 
BRANCH  30  31
ATOM     31  C   UNL     1       1.399   9.968  -8.202  1.00  0.00    -0.003 C 
ATOM     32  C   UNL     1       2.897  10.191  -8.390  1.00  0.00     0.004 C 
ENDBRANCH  30  31
ENDBRANCH  29  30
ENDBRANCH  28  29
ENDBRANCH  27  28
ENDBRANCH  26  27
ENDBRANCH  25  26
ENDBRANCH  24  25
ENDBRANCH  23  24
ENDBRANCH  22  23
ENDBRANCH  21  22
ENDBRANCH  20  21
ENDBRANCH  19  20
ENDBRANCH  18  19
ENDBRANCH   1  18
TORSDOF 28
ENDMDL
MODEL 6
REMARK VINA RESULT:    -4.733      2.224      6.455
REMARK INTER + INTRA:         -16.956
REMARK INTER:                 -12.342
REMARK INTRA:                  -4.614
REMARK UNBOUND:                -4.475
REMARK SMILES CCCCCCCCCCCCCCCCCCCCCCCCCCCCCC(=O)[O-]
REMARK SMILES IDX 16 1 17 2 18 3 19 4 20 5 21 6 22 7 23 8 24 9 25 10 26 11
REMARK SMILES IDX 27 12 28 13 29 14 30 15 31 16 32 17 15 18 14 19 13 20 12 21
REMARK SMILES IDX 11 22 10 23 9 24 8 25 7 26 6 27 5 28 4 29 3 30 2 31 1 32
REMARK H PARENT
REMARK Flexibility Score: inf
ROOT
ATOM      1  C   UNL     1      -3.920  11.640  -7.945  1.00  0.00     0.000 C 
ENDROOT
BRANCH   1   2
ATOM      2  C   UNL     1      -4.459  13.067  -7.745  1.00  0.00     0.000 C 
BRANCH   2   3
ATOM      3  C   UNL     1      -5.990  13.101  -7.606  1.00  0.00     0.000 C 
BRANCH   3   4
ATOM      4  C   UNL     1      -6.503  12.191  -6.475  1.00  0.00     0.000 C 
BRANCH   4   5
ATOM      5  C   UNL     1      -6.126  12.710  -5.078  1.00  0.00     0.000 C 
BRANCH   5   6
ATOM      6  C   UNL     1      -5.582  11.599  -4.165  1.00  0.00     0.000 C 
BRANCH   6   7
ATOM      7  C   UNL     1      -4.151  11.875  -3.670  1.00  0.00     0.000 C 
BRANCH   7   8
ATOM      8  C   UNL     1      -3.041  11.089  -4.397  1.00  0.00     0.000 C 
BRANCH   8   9
ATOM      9  C   UNL     1      -1.649  11.153  -3.736  1.00  0.00     0.000 C 
BRANCH   9  10
ATOM     10  C   UNL     1      -0.607  11.996  -4.494  1.00  0.00     0.000 C 
BRANCH  10  11
ATOM     11  C   UNL     1      -1.129  12.517  -5.840  1.00  0.00     0.000 C 
BRANCH  11  12
ATOM     12  C   UNL     1       0.021  12.709  -6.840  1.00  0.00     0.000 C 
BRANCH  12  13
ATOM     13  C   UNL     1       0.195  11.515  -7.795  1.00  0.00     0.006 C 
BRANCH  13  14
ATOM     14  C   UNL     1       0.968  10.333  -7.183  1.00  0.00     0.053 C 
BRANCH  14  15
ATOM     15  C   UNL     1       2.314  10.137  -7.814  1.00  0.00     0.041 C 
ATOM     16  O   UNL     1       3.358  10.456  -7.187  1.00  0.00    -0.550 OA
ATOM     17  O   UNL     1       2.418   9.572  -9.078  1.00  0.00    -0.550 OA
ENDBRANCH  14  15
ENDBRANCH  13  14
ENDBRANCH  12  13
ENDBRANCH  11  12
ENDBRANCH  10  11
ENDBRANCH   9  10
ENDBRANCH   8   9
ENDBRANCH   7   8
ENDBRANCH   6   7
ENDBRANCH   5   6
ENDBRANCH   4   5
ENDBRANCH   3   4
ENDBRANCH   2   3
ENDBRANCH   1   2
BRANCH   1  18
ATOM     18  C   UNL     1      -2.979  11.524  -9.154  1.00  0.00     0.000 C 
BRANCH  18  19
ATOM     19  C   UNL     1      -3.473  10.498 -10.189  1.00  0.00     0.000 C 
BRANCH  19  20
ATOM     20  C   UNL     1      -4.932  10.733 -10.622  1.00  0.00     0.000 C 
BRANCH  20  21
ATOM     21  C   UNL     1      -5.911   9.587 -10.302  1.00  0.00     0.000 C 
BRANCH  21  22
ATOM     22  C   UNL     1      -5.202   8.286  -9.888  1.00  0.00     0.000 C 
BRANCH  22  23
ATOM     23  C   UNL     1      -5.647   7.776  -8.506  1.00  0.00     0.000 C 
BRANCH  23  24
ATOM     24  C   UNL     1      -6.592   8.717  -7.730  1.00  0.00    -0.000 C 
BRANCH  24  25
ATOM     25  C   UNL     1      -6.453   8.668  -6.195  1.00  0.00    -0.000 C 
BRANCH  25  26
ATOM     26  C   UNL     1      -5.058   8.266  -5.682  1.00  0.00    -0.000 C 
BRANCH  26  27
ATOM     27  C   UNL     1      -5.039   7.634  -4.276  1.00  0.00    -0.000 C 
BRANCH  27  28
ATOM     28  C   UNL     1      -3.626   7.517  -3.664  1.00  0.00    -0.000 C 
BRANCH  28  29
ATOM     29  C   UNL     1      -3.250   6.065  -3.318  1.00  0.00    -0.000 C 
BRANCH  29  30
ATOM     30  C   UNL     1      -1.722   5.869  -3.211  1.00  0.00    -0.000 C 
BRANCH  30  31
ATOM     31  C   UNL     1      -1.206   4.639  -3.976  1.00  0.00    -0.003 C 
ATOM     32  C   UNL     1       0.269   4.745  -4.355  1.00  0.00     0.004 C 
ENDBRANCH  30  31
ENDBRANCH  29  30
ENDBRANCH  28  29
ENDBRANCH  27  28
ENDBRANCH  26  27
ENDBRANCH  25  26
ENDBRANCH  24  25
ENDBRANCH  23  24
ENDBRANCH  22  23
ENDBRANCH  21  22
ENDBRANCH  20  21
ENDBRANCH  19  20
ENDBRANCH  18  19
ENDBRANCH   1  18
TORSDOF 28
ENDMDL
MODEL 7
REMARK VINA RESULT:    -4.716      2.238      6.821
REMARK INTER + INTRA:         -16.911
REMARK INTER:                 -11.155
REMARK INTRA:                  -5.756
REMARK UNBOUND:                -4.475
REMARK SMILES CCCCCCCCCCCCCCCCCCCCCCCCCCCCCC(=O)[O-]
REMARK SMILES IDX 16 1 17 2 18 3 19 4 20 5 21 6 22 7 23 8 24 9 25 10 26 11
REMARK SMILES IDX 27 12 28 13 29 14 30 15 31 16 32 17 15 18 14 19 13 20 12 21
REMARK SMILES IDX 11 22 10 23 9 24 8 25 7 26 6 27 5 28 4 29 3 30 2 31 1 32
REMARK H PARENT
REMARK Flexibility Score: inf
ROOT
ATOM      1  C   UNL     1      -5.607  11.891  -6.236  1.00  0.00     0.000 C 
ENDROOT
BRANCH   1   2
ATOM      2  C   UNL     1      -6.033  12.054  -4.766  1.00  0.00     0.000 C 
BRANCH   2   3
ATOM      3  C   UNL     1      -4.873  11.800  -3.788  1.00  0.00     0.000 C 
BRANCH   3   4
ATOM      4  C   UNL     1      -3.680  11.092  -4.456  1.00  0.00     0.000 C 
BRANCH   4   5
ATOM      5  C   UNL     1      -2.614  10.645  -3.443  1.00  0.00     0.000 C 
BRANCH   5   6
ATOM      6  C   UNL     1      -1.246  11.297  -3.705  1.00  0.00     0.000 C 
BRANCH   6   7
ATOM      7  C   UNL     1      -1.320  12.833  -3.794  1.00  0.00     0.000 C 
BRANCH   7   8
ATOM      8  C   UNL     1      -0.380  13.476  -4.834  1.00  0.00     0.000 C 
BRANCH   8   9
ATOM      9  C   UNL     1      -1.086  14.205  -5.997  1.00  0.00     0.000 C 
BRANCH   9  10
ATOM     10  C   UNL     1      -2.319  13.480  -6.566  1.00  0.00     0.000 C 
BRANCH  10  11
ATOM     11  C   UNL     1      -1.997  12.649  -7.816  1.00  0.00     0.000 C 
BRANCH  11  12
ATOM     12  C   UNL     1      -1.713  11.186  -7.446  1.00  0.00     0.000 C 
BRANCH  12  13
ATOM     13  C   UNL     1      -0.420  10.643  -8.082  1.00  0.00     0.006 C 
BRANCH  13  14
ATOM     14  C   UNL     1       0.847  11.420  -7.682  1.00  0.00     0.053 C 
BRANCH  14  15
ATOM     15  C   UNL     1       2.097  10.611  -7.858  1.00  0.00     0.041 C 
ATOM     16  O   UNL     1       2.150   9.711  -8.737  1.00  0.00    -0.550 OA
ATOM     17  O   UNL     1       3.215  10.873  -7.076  1.00  0.00    -0.550 OA
ENDBRANCH  14  15
ENDBRANCH  13  14
ENDBRANCH  12  13
ENDBRANCH  11  12
ENDBRANCH  10  11
ENDBRANCH   9  10
ENDBRANCH   8   9
ENDBRANCH   7   8
ENDBRANCH   6   7
ENDBRANCH   5   6
ENDBRANCH   4   5
ENDBRANCH   3   4
ENDBRANCH   2   3
ENDBRANCH   1   2
BRANCH   1  18
ATOM     18  C   UNL     1      -5.940  13.124  -7.091  1.00  0.00     0.000 C 
BRANCH  18  19
ATOM     19  C   UNL     1      -5.670  12.894  -8.588  1.00  0.00     0.000 C 
BRANCH  19  20
ATOM     20  C   UNL     1      -6.721  11.989  -9.258  1.00  0.00     0.000 C 
BRANCH  20  21
ATOM     21  C   UNL     1      -6.200  11.108 -10.410  1.00  0.00     0.000 C 
BRANCH  21  22
ATOM     22  C   UNL     1      -4.669  10.963 -10.413  1.00  0.00     0.000 C 
BRANCH  22  23
ATOM     23  C   UNL     1      -4.201   9.558  -9.994  1.00  0.00     0.000 C 
BRANCH  23  24
ATOM     24  C   UNL     1      -4.499   9.173  -8.530  1.00  0.00    -0.000 C 
BRANCH  24  25
ATOM     25  C   UNL     1      -5.711   8.242  -8.329  1.00  0.00    -0.000 C 
BRANCH  25  26
ATOM     26  C   UNL     1      -6.375   8.330  -6.942  1.00  0.00    -0.000 C 
BRANCH  26  27
ATOM     27  C   UNL     1      -5.411   8.174  -5.750  1.00  0.00    -0.000 C 
BRANCH  27  28
ATOM     28  C   UNL     1      -6.124   8.017  -4.389  1.00  0.00    -0.000 C 
BRANCH  28  29
ATOM     29  C   UNL     1      -5.142   7.754  -3.233  1.00  0.00    -0.000 C 
BRANCH  29  30
ATOM     30  C   UNL     1      -4.193   6.573  -3.532  1.00  0.00    -0.000 C 
BRANCH  30  31
ATOM     31  C   UNL     1      -2.720   6.870  -3.203  1.00  0.00    -0.003 C 
ATOM     32  C   UNL     1      -1.760   5.818  -3.753  1.00  0.00     0.004 C 
ENDBRANCH  30  31
ENDBRANCH  29  30
ENDBRANCH  28  29
ENDBRANCH  27  28
ENDBRANCH  26  27
ENDBRANCH  25  26
ENDBRANCH  24  25
ENDBRANCH  23  24
ENDBRANCH  22  23
ENDBRANCH  21  22
ENDBRANCH  20  21
ENDBRANCH  19  20
ENDBRANCH  18  19
ENDBRANCH   1  18
TORSDOF 28
ENDMDL
MODEL 8
REMARK VINA RESULT:    -4.534      2.847      4.953
REMARK INTER + INTRA:         -16.432
REMARK INTER:                 -11.885
REMARK INTRA:                  -4.547
REMARK UNBOUND:                -4.475
REMARK SMILES CCCCCCCCCCCCCCCCCCCCCCCCCCCCCC(=O)[O-]
REMARK SMILES IDX 16 1 17 2 18 3 19 4 20 5 21 6 22 7 23 8 24 9 25 10 26 11
REMARK SMILES IDX 27 12 28 13 29 14 30 15 31 16 32 17 15 18 14 19 13 20 12 21
REMARK SMILES IDX 11 22 10 23 9 24 8 25 7 26 6 27 5 28 4 29 3 30 2 31 1 32
REMARK H PARENT
REMARK Flexibility Score: inf
ROOT
ATOM      1  C   UNL     1      -4.534   7.427 -10.442  1.00  0.00     0.000 C 
ENDROOT
BRANCH   1   2
ATOM      2  C   UNL     1      -5.481   6.999  -9.306  1.00  0.00     0.000 C 
BRANCH   2   3
ATOM      3  C   UNL     1      -6.739   7.880  -9.230  1.00  0.00     0.000 C 
BRANCH   3   4
ATOM      4  C   UNL     1      -6.829   8.671  -7.912  1.00  0.00     0.000 C 
BRANCH   4   5
ATOM      5  C   UNL     1      -5.528   8.614  -7.096  1.00  0.00     0.000 C 
BRANCH   5   6
ATOM      6  C   UNL     1      -5.737   8.010  -5.698  1.00  0.00     0.000 C 
BRANCH   6   7
ATOM      7  C   UNL     1      -6.253   9.035  -4.672  1.00  0.00     0.000 C 
BRANCH   7   8
ATOM      8  C   UNL     1      -5.167   9.912  -4.016  1.00  0.00     0.000 C 
BRANCH   8   9
ATOM      9  C   UNL     1      -3.764   9.274  -3.940  1.00  0.00     0.000 C 
BRANCH   9  10
ATOM     10  C   UNL     1      -2.720  10.090  -3.157  1.00  0.00     0.000 C 
BRANCH  10  11
ATOM     11  C   UNL     1      -1.903  11.029  -4.057  1.00  0.00     0.000 C 
BRANCH  11  12
ATOM     12  C   UNL     1      -1.391  12.242  -3.267  1.00  0.00     0.000 C 
BRANCH  12  13
ATOM     13  C   UNL     1      -2.039  13.567  -3.709  1.00  0.00     0.006 C 
BRANCH  13  14
ATOM     14  C   UNL     1      -1.042  14.588  -4.284  1.00  0.00     0.053 C 
BRANCH  14  15
ATOM     15  C   UNL     1       0.354  14.047  -4.364  1.00  0.00     0.041 C 
ATOM     16  O   UNL     1       0.829  13.680  -5.472  1.00  0.00    -0.550 OA
ATOM     17  O   UNL     1       1.144  13.980  -3.223  1.00  0.00    -0.550 OA
ENDBRANCH  14  15
ENDBRANCH  13  14
ENDBRANCH  12  13
ENDBRANCH  11  12
ENDBRANCH  10  11
ENDBRANCH   9  10
ENDBRANCH   8   9
ENDBRANCH   7   8
ENDBRANCH   6   7
ENDBRANCH   5   6
ENDBRANCH   4   5
ENDBRANCH   3   4
ENDBRANCH   2   3
ENDBRANCH   1   2
BRANCH   1  18
ATOM     18  C   UNL     1      -3.747   8.704 -10.109  1.00  0.00     0.000 C 
BRANCH  18  19
ATOM     19  C   UNL     1      -4.362   9.960 -10.750  1.00  0.00     0.000 C 
BRANCH  19  20
ATOM     20  C   UNL     1      -4.466  11.147  -9.775  1.00  0.00     0.000 C 
BRANCH  20  21
ATOM     21  C   UNL     1      -5.883  11.716  -9.572  1.00  0.00     0.000 C 
BRANCH  21  22
ATOM     22  C   UNL     1      -5.960  12.750  -8.435  1.00  0.00     0.000 C 
BRANCH  22  23
ATOM     23  C   UNL     1      -5.725  12.131  -7.046  1.00  0.00     0.000 C 
BRANCH  23  24
ATOM     24  C   UNL     1      -4.372  12.478  -6.391  1.00  0.00    -0.000 C 
BRANCH  24  25
ATOM     25  C   UNL     1      -3.436  13.359  -7.242  1.00  0.00    -0.000 C 
BRANCH  25  26
ATOM     26  C   UNL     1      -1.997  12.829  -7.386  1.00  0.00    -0.000 C 
BRANCH  26  27
ATOM     27  C   UNL     1      -1.877  11.296  -7.491  1.00  0.00    -0.000 C 
BRANCH  27  28
ATOM     28  C   UNL     1      -0.566  10.818  -8.153  1.00  0.00    -0.000 C 
BRANCH  28  29
ATOM     29  C   UNL     1       0.588  10.676  -7.145  1.00  0.00    -0.000 C 
BRANCH  29  30
ATOM     30  C   UNL     1       1.670   9.687  -7.634  1.00  0.00    -0.000 C 
BRANCH  30  31
ATOM     31  C   UNL     1       2.901  10.378  -8.245  1.00  0.00    -0.003 C 
ATOM     32  C   UNL     1       3.425   9.671  -9.493  1.00  0.00     0.004 C 
ENDBRANCH  30  31
ENDBRANCH  29  30
ENDBRANCH  28  29
ENDBRANCH  27  28
ENDBRANCH  26  27
ENDBRANCH  25  26
ENDBRANCH  24  25
ENDBRANCH  23  24
ENDBRANCH  22  23
ENDBRANCH  21  22
ENDBRANCH  20  21
ENDBRANCH  19  20
ENDBRANCH  18  19
ENDBRANCH   1  18
TORSDOF 28
ENDMDL
MODEL 9
REMARK VINA RESULT:    -4.506      3.318      7.306
REMARK INTER + INTRA:         -16.358
REMARK INTER:                 -11.451
REMARK INTRA:                  -4.907
REMARK UNBOUND:                -4.475
REMARK SMILES CCCCCCCCCCCCCCCCCCCCCCCCCCCCCC(=O)[O-]
REMARK SMILES IDX 16 1 17 2 18 3 19 4 20 5 21 6 22 7 23 8 24 9 25 10 26 11
REMARK SMILES IDX 27 12 28 13 29 14 30 15 31 16 32 17 15 18 14 19 13 20 12 21
REMARK SMILES IDX 11 22 10 23 9 24 8 25 7 26 6 27 5 28 4 29 3 30 2 31 1 32
REMARK H PARENT
REMARK Flexibility Score: inf
ROOT
ATOM      1  C   UNL     1      -2.679   9.970  -4.507  1.00  0.00     0.000 C 
ENDROOT
BRANCH   1   2
ATOM      2  C   UNL     1      -2.855  11.434  -4.067  1.00  0.00     0.000 C 
BRANCH   2   3
ATOM      3  C   UNL     1      -3.622  12.270  -5.106  1.00  0.00     0.000 C 
BRANCH   3   4
ATOM      4  C   UNL     1      -3.352  11.812  -6.551  1.00  0.00     0.000 C 
BRANCH   4   5
ATOM      5  C   UNL     1      -2.298  12.677  -7.260  1.00  0.00     0.000 C 
BRANCH   5   6
ATOM      6  C   UNL     1      -1.700  11.981  -8.494  1.00  0.00     0.000 C 
BRANCH   6   7
ATOM      7  C   UNL     1      -0.757  10.820  -8.129  1.00  0.00     0.000 C 
BRANCH   7   8
ATOM      8  C   UNL     1      -0.010  10.976  -6.789  1.00  0.00     0.000 C 
BRANCH   8   9
ATOM      9  C   UNL     1       1.363  11.675  -6.879  1.00  0.00     0.000 C 
BRANCH   9  10
ATOM     10  C   UNL     1       1.952  12.128  -5.530  1.00  0.00     0.000 C 
BRANCH  10  11
ATOM     11  C   UNL     1       1.059  11.757  -4.337  1.00  0.00     0.000 C 
BRANCH  11  12
ATOM     12  C   UNL     1       0.560  13.016  -3.612  1.00  0.00     0.000 C 
BRANCH  12  13
ATOM     13  C   UNL     1       0.838  14.312  -4.395  1.00  0.00     0.006 C 
BRANCH  13  14
ATOM     14  C   UNL     1       0.373  15.590  -3.674  1.00  0.00     0.053 C 
BRANCH  14  15
ATOM     15  C   UNL     1      -0.994  16.029  -4.105  1.00  0.00     0.041 C 
ATOM     16  O   UNL     1      -1.648  16.844  -3.403  1.00  0.00    -0.550 OA
ATOM     17  O   UNL     1      -1.532  15.566  -5.299  1.00  0.00    -0.550 OA
ENDBRANCH  14  15
ENDBRANCH  13  14
ENDBRANCH  12  13
ENDBRANCH  11  12
ENDBRANCH  10  11
ENDBRANCH   9  10
ENDBRANCH   8   9
ENDBRANCH   7   8
ENDBRANCH   6   7
ENDBRANCH   5   6
ENDBRANCH   4   5
ENDBRANCH   3   4
ENDBRANCH   2   3
ENDBRANCH   1   2
BRANCH   1  18
ATOM     18  C   UNL     1      -2.792   8.980  -3.337  1.00  0.00     0.000 C 
BRANCH  18  19
ATOM     19  C   UNL     1      -4.224   8.449  -3.150  1.00  0.00     0.000 C 
BRANCH  19  20
ATOM     20  C   UNL     1      -4.612   7.382  -4.190  1.00  0.00     0.000 C 
BRANCH  20  21
ATOM     21  C   UNL     1      -5.921   7.649  -4.957  1.00  0.00     0.000 C 
BRANCH  21  22
ATOM     22  C   UNL     1      -5.704   8.426  -6.266  1.00  0.00     0.000 C 
BRANCH  22  23
ATOM     23  C   UNL     1      -6.367   9.815  -6.255  1.00  0.00     0.000 C 
BRANCH  23  24
ATOM     24  C   UNL     1      -6.973  10.267  -7.600  1.00  0.00    -0.000 C 
BRANCH  24  25
ATOM     25  C   UNL     1      -6.861  11.776  -7.897  1.00  0.00    -0.000 C 
BRANCH  25  26
ATOM     26  C   UNL     1      -6.004  12.133  -9.126  1.00  0.00    -0.000 C 
BRANCH  26  27
ATOM     27  C   UNL     1      -5.900  11.025 -10.192  1.00  0.00    -0.000 C 
BRANCH  27  28
ATOM     28  C   UNL     1      -4.454  10.555 -10.463  1.00  0.00    -0.000 C 
BRANCH  28  29
ATOM     29  C   UNL     1      -4.068   9.318  -9.632  1.00  0.00    -0.000 C 
BRANCH  29  30
ATOM     30  C   UNL     1      -4.455   7.999 -10.337  1.00  0.00    -0.000 C 
BRANCH  30  31
ATOM     31  C   UNL     1      -5.880   7.524 -10.009  1.00  0.00    -0.003 C 
ATOM     32  C   UNL     1      -6.249   6.215 -10.705  1.00  0.00     0.004 C 
ENDBRANCH  30  31
ENDBRANCH  29  30
ENDBRANCH  28  29
ENDBRANCH  27  28
ENDBRANCH  26  27
ENDBRANCH  25  26
ENDBRANCH  24  25
ENDBRANCH  23  24
ENDBRANCH  22  23
ENDBRANCH  21  22
ENDBRANCH  20  21
ENDBRANCH  19  20
ENDBRANCH  18  19
ENDBRANCH   1  18
TORSDOF 28
ENDMDL
