MODEL 1
REMARK VINA RESULT:    -7.397      0.000      0.000
REMARK INTER + INTRA:          -9.012
REMARK INTER:                  -8.694
REMARK INTRA:                  -0.318
REMARK UNBOUND:                -0.318
REMARK SMILES O=c1cc(-c2ccc(O)c(O)c2)oc2cc(O)cc(O)c12
REMARK SMILES IDX 4 1 3 2 2 3 1 4 21 5 19 6 18 7 16 8 15 9 14 10 13 11 5 12
REMARK SMILES IDX 6 13 7 14 8 15 12 16 10 17 9 18 11 20 20 22 17 24
REMARK H PARENT 9 19 11 21 20 23 17 25
REMARK Flexibility Score: inf
ROOT
ATOM      1  C   UNL     1      45.649 -28.252  18.672  1.00  0.00     0.138 A 
ATOM      2  C   UNL     1      46.189 -27.529  19.744  1.00  0.00     0.100 A 
ATOM      3  C   UNL     1      47.018 -26.434  19.490  1.00  0.00     0.197 A 
ATOM      4  O   UNL     1      47.537 -25.843  20.472  1.00  0.00    -0.289 OA
ATOM      5  C   UNL     1      47.280 -26.045  18.155  1.00  0.00     0.107 A 
ATOM      6  C   UNL     1      48.076 -24.923  17.778  1.00  0.00     0.134 A 
ATOM      7  C   UNL     1      48.362 -24.703  16.424  1.00  0.00     0.093 A 
ATOM      8  C   UNL     1      47.830 -25.530  15.432  1.00  0.00     0.123 A 
ATOM      9  C   UNL     1      47.008 -26.598  15.787  1.00  0.00     0.094 A 
ATOM     10  C   UNL     1      46.733 -26.863  17.131  1.00  0.00     0.146 A 
ATOM     11  O   UNL     1      45.956 -27.899  17.427  1.00  0.00    -0.456 OA
ENDROOT
BRANCH   1  12
ATOM     12  C   UNL     1      44.762 -29.423  18.885  1.00  0.00     0.021 A 
ATOM     13  C   UNL     1      44.280 -29.764  20.163  1.00  0.00     0.016 A 
ATOM     14  C   UNL     1      43.437 -30.866  20.332  1.00  0.00     0.051 A 
ATOM     15  C   UNL     1      43.055 -31.641  19.231  1.00  0.00     0.157 A 
ATOM     16  C   UNL     1      44.363 -30.199  17.782  1.00  0.00     0.062 A 
ATOM     17  C   UNL     1      43.519 -31.303  17.949  1.00  0.00     0.158 A 
BRANCH  15  18
ATOM     18  O   UNL     1      42.216 -32.740  19.404  1.00  0.00    -0.504 OA
ATOM     19  H   UNL     1      42.558 -33.689  19.308  1.00  0.00     0.293 HD
ENDBRANCH  15  18
BRANCH  17  20
ATOM     20  O   UNL     1      43.154 -32.052  16.831  1.00  0.00    -0.504 OA
ATOM     21  H   UNL     1      43.820 -32.627  16.327  1.00  0.00     0.293 HD
ENDBRANCH  17  20
ENDBRANCH   1  12
BRANCH   6  22
ATOM     22  O   UNL     1      48.585 -23.986  18.682  1.00  0.00    -0.507 OA
ATOM     23  H   UNL     1      48.484 -24.039  19.685  1.00  0.00     0.293 HD
ENDBRANCH   6  22
BRANCH   8  24
ATOM     24  O   UNL     1      48.107 -25.296  14.087  1.00  0.00    -0.508 OA
ATOM     25  H   UNL     1      48.989 -25.570  13.672  1.00  0.00     0.293 HD
ENDBRANCH   8  24
TORSDOF 5
ENDMDL
MODEL 2
REMARK VINA RESULT:    -7.294      2.035      6.847
REMARK INTER + INTRA:          -8.891
REMARK INTER:                  -8.574
REMARK INTRA:                  -0.318
REMARK UNBOUND:                -0.318
REMARK SMILES O=c1cc(-c2ccc(O)c(O)c2)oc2cc(O)cc(O)c12
REMARK SMILES IDX 4 1 3 2 2 3 1 4 21 5 19 6 18 7 16 8 15 9 14 10 13 11 5 12
REMARK SMILES IDX 6 13 7 14 8 15 12 16 10 17 9 18 11 20 20 22 17 24
REMARK H PARENT 9 19 11 21 20 23 17 25
REMARK Flexibility Score: inf
ROOT
ATOM      1  C   UNL     1      46.300 -28.991  17.932  1.00  0.00     0.138 A 
ATOM      2  C   UNL     1      46.925 -29.283  19.153  1.00  0.00     0.100 A 
ATOM      3  C   UNL     1      46.378 -30.255  19.993  1.00  0.00     0.197 A 
ATOM      4  O   UNL     1      46.924 -30.451  21.109  1.00  0.00    -0.289 OA
ATOM      5  C   UNL     1      45.218 -30.959  19.592  1.00  0.00     0.107 A 
ATOM      6  C   UNL     1      44.596 -31.997  20.347  1.00  0.00     0.134 A 
ATOM      7  C   UNL     1      43.385 -32.544  19.904  1.00  0.00     0.093 A 
ATOM      8  C   UNL     1      42.805 -32.129  18.702  1.00  0.00     0.123 A 
ATOM      9  C   UNL     1      43.432 -31.153  17.930  1.00  0.00     0.094 A 
ATOM     10  C   UNL     1      44.623 -30.566  18.363  1.00  0.00     0.146 A 
ATOM     11  O   UNL     1      45.181 -29.629  17.604  1.00  0.00    -0.456 OA
ENDROOT
BRANCH   1  12
ATOM     12  C   UNL     1      46.840 -27.968  17.001  1.00  0.00     0.021 A 
ATOM     13  C   UNL     1      48.097 -27.369  17.208  1.00  0.00     0.016 A 
ATOM     14  C   UNL     1      48.584 -26.416  16.309  1.00  0.00     0.051 A 
ATOM     15  C   UNL     1      47.831 -26.051  15.187  1.00  0.00     0.157 A 
ATOM     16  C   UNL     1      46.096 -27.606  15.864  1.00  0.00     0.062 A 
ATOM     17  C   UNL     1      46.582 -26.652  14.963  1.00  0.00     0.158 A 
BRANCH  15  18
ATOM     18  O   UNL     1      48.320 -25.099  14.294  1.00  0.00    -0.504 OA
ATOM     19  H   UNL     1      48.198 -24.107  14.457  1.00  0.00     0.293 HD
ENDBRANCH  15  18
BRANCH  17  20
ATOM     20  O   UNL     1      45.809 -26.313  13.853  1.00  0.00    -0.504 OA
ATOM     21  H   UNL     1      45.684 -25.353  13.556  1.00  0.00     0.293 HD
ENDBRANCH  17  20
ENDBRANCH   1  12
BRANCH   6  22
ATOM     22  O   UNL     1      45.135 -32.543  21.516  1.00  0.00    -0.507 OA
ATOM     23  H   UNL     1      45.133 -32.091  22.418  1.00  0.00     0.293 HD
ENDBRANCH   6  22
BRANCH   8  24
ATOM     24  O   UNL     1      41.608 -32.688  18.261  1.00  0.00    -0.508 OA
ATOM     25  H   UNL     1      41.382 -32.748  17.275  1.00  0.00     0.293 HD
ENDBRANCH   8  24
TORSDOF 5
ENDMDL
MODEL 3
REMARK VINA RESULT:    -7.114      0.933      1.479
REMARK INTER + INTRA:          -8.679
REMARK INTER:                  -8.401
REMARK INTRA:                  -0.278
REMARK UNBOUND:                -0.318
REMARK SMILES O=c1cc(-c2ccc(O)c(O)c2)oc2cc(O)cc(O)c12
REMARK SMILES IDX 4 1 3 2 2 3 1 4 21 5 19 6 18 7 16 8 15 9 14 10 13 11 5 12
REMARK SMILES IDX 6 13 7 14 8 15 12 16 10 17 9 18 11 20 20 22 17 24
REMARK H PARENT 9 19 11 21 20 23 17 25
REMARK Flexibility Score: inf
ROOT
ATOM      1  C   UNL     1      45.612 -28.484  18.567  1.00  0.00     0.138 A 
ATOM      2  C   UNL     1      46.161 -27.683  19.578  1.00  0.00     0.100 A 
ATOM      3  C   UNL     1      46.924 -26.565  19.233  1.00  0.00     0.197 A 
ATOM      4  O   UNL     1      47.456 -25.901  20.161  1.00  0.00    -0.289 OA
ATOM      5  C   UNL     1      47.110 -26.233  17.871  1.00  0.00     0.107 A 
ATOM      6  C   UNL     1      47.833 -25.096  17.404  1.00  0.00     0.134 A 
ATOM      7  C   UNL     1      48.049 -24.931  16.029  1.00  0.00     0.093 A 
ATOM      8  C   UNL     1      47.517 -25.832  15.104  1.00  0.00     0.123 A 
ATOM      9  C   UNL     1      46.764 -26.917  15.547  1.00  0.00     0.094 A 
ATOM     10  C   UNL     1      46.559 -27.126  16.914  1.00  0.00     0.146 A 
ATOM     11  O   UNL     1      45.847 -28.181  17.295  1.00  0.00    -0.456 OA
ENDROOT
BRANCH   1  12
ATOM     12  C   UNL     1      44.792 -29.683  18.877  1.00  0.00     0.021 A 
ATOM     13  C   UNL     1      43.635 -29.999  18.140  1.00  0.00     0.016 A 
ATOM     14  C   UNL     1      42.888 -31.139  18.446  1.00  0.00     0.051 A 
ATOM     15  C   UNL     1      43.286 -31.987  19.486  1.00  0.00     0.157 A 
ATOM     16  C   UNL     1      45.192 -30.547  19.911  1.00  0.00     0.062 A 
ATOM     17  C   UNL     1      44.446 -31.690  20.221  1.00  0.00     0.158 A 
BRANCH  15  18
ATOM     18  O   UNL     1      42.538 -33.123  19.791  1.00  0.00    -0.504 OA
ATOM     19  H   UNL     1      41.784 -33.438  19.192  1.00  0.00     0.293 HD
ENDBRANCH  15  18
BRANCH  17  20
ATOM     20  O   UNL     1      44.872 -32.516  21.260  1.00  0.00    -0.504 OA
ATOM     21  H   UNL     1      45.289 -33.423  21.091  1.00  0.00     0.293 HD
ENDBRANCH  17  20
ENDBRANCH   1  12
BRANCH   6  22
ATOM     22  O   UNL     1      48.334 -24.091  18.238  1.00  0.00    -0.507 OA
ATOM     23  H   UNL     1      49.166 -23.550  18.053  1.00  0.00     0.293 HD
ENDBRANCH   6  22
BRANCH   8  24
ATOM     24  O   UNL     1      47.724 -25.653  13.738  1.00  0.00    -0.508 OA
ATOM     25  H   UNL     1      47.231 -26.210  13.049  1.00  0.00     0.293 HD
ENDBRANCH   8  24
TORSDOF 5
ENDMDL
MODEL 4
REMARK VINA RESULT:    -6.741      1.268      2.791
REMARK INTER + INTRA:          -8.240
REMARK INTER:                  -7.947
REMARK INTRA:                  -0.294
REMARK UNBOUND:                -0.318
REMARK SMILES O=c1cc(-c2ccc(O)c(O)c2)oc2cc(O)cc(O)c12
REMARK SMILES IDX 4 1 3 2 2 3 1 4 21 5 19 6 18 7 16 8 15 9 14 10 13 11 5 12
REMARK SMILES IDX 6 13 7 14 8 15 12 16 10 17 9 18 11 20 20 22 17 24
REMARK H PARENT 9 19 11 21 20 23 17 25
REMARK Flexibility Score: inf
ROOT
ATOM      1  C   UNL     1      46.129 -27.640  18.087  1.00  0.00     0.138 A 
ATOM      2  C   UNL     1      46.322 -27.432  16.714  1.00  0.00     0.100 A 
ATOM      3  C   UNL     1      47.173 -26.413  16.284  1.00  0.00     0.197 A 
ATOM      4  O   UNL     1      47.277 -26.210  15.046  1.00  0.00    -0.289 OA
ATOM      5  C   UNL     1      47.859 -25.620  17.234  1.00  0.00     0.107 A 
ATOM      6  C   UNL     1      48.781 -24.581  16.911  1.00  0.00     0.134 A 
ATOM      7  C   UNL     1      49.312 -23.786  17.935  1.00  0.00     0.093 A 
ATOM      8  C   UNL     1      48.998 -24.031  19.274  1.00  0.00     0.123 A 
ATOM      9  C   UNL     1      48.139 -25.078  19.604  1.00  0.00     0.094 A 
ATOM     10  C   UNL     1      47.568 -25.867  18.602  1.00  0.00     0.146 A 
ATOM     11  O   UNL     1      46.743 -26.846  18.959  1.00  0.00    -0.456 OA
ENDROOT
BRANCH   1  12
ATOM     12  C   UNL     1      45.236 -28.710  18.600  1.00  0.00     0.021 A 
ATOM     13  C   UNL     1      44.877 -28.785  19.959  1.00  0.00     0.016 A 
ATOM     14  C   UNL     1      44.026 -29.797  20.413  1.00  0.00     0.051 A 
ATOM     15  C   UNL     1      43.514 -30.744  19.518  1.00  0.00     0.157 A 
ATOM     16  C   UNL     1      44.707 -29.657  17.706  1.00  0.00     0.062 A 
ATOM     17  C   UNL     1      43.855 -30.672  18.158  1.00  0.00     0.158 A 
BRANCH  15  18
ATOM     18  O   UNL     1      42.667 -31.753  19.974  1.00  0.00    -0.504 OA
ATOM     19  H   UNL     1      43.026 -32.570  20.454  1.00  0.00     0.293 HD
ENDBRANCH  15  18
BRANCH  17  20
ATOM     20  O   UNL     1      43.359 -31.597  17.241  1.00  0.00    -0.504 OA
ATOM     21  H   UNL     1      42.416 -31.963  17.301  1.00  0.00     0.293 HD
ENDBRANCH  17  20
ENDBRANCH   1  12
BRANCH   6  22
ATOM     22  O   UNL     1      49.228 -24.308  15.615  1.00  0.00    -0.507 OA
ATOM     23  H   UNL     1      49.575 -24.998  14.967  1.00  0.00     0.293 HD
ENDBRANCH   6  22
BRANCH   8  24
ATOM     24  O   UNL     1      49.542 -23.245  20.287  1.00  0.00    -0.508 OA
ATOM     25  H   UNL     1      49.309 -22.263  20.379  1.00  0.00     0.293 HD
ENDBRANCH   8  24
TORSDOF 5
ENDMDL
MODEL 5
REMARK VINA RESULT:    -6.622      2.221      3.794
REMARK INTER + INTRA:          -8.101
REMARK INTER:                  -7.838
REMARK INTRA:                  -0.263
REMARK UNBOUND:                -0.318
REMARK SMILES O=c1cc(-c2ccc(O)c(O)c2)oc2cc(O)cc(O)c12
REMARK SMILES IDX 4 1 3 2 2 3 1 4 21 5 19 6 18 7 16 8 15 9 14 10 13 11 5 12
REMARK SMILES IDX 6 13 7 14 8 15 12 16 10 17 9 18 11 20 20 22 17 24
REMARK H PARENT 9 19 11 21 20 23 17 25
REMARK Flexibility Score: inf
ROOT
ATOM      1  C   UNL     1      47.230 -26.659  18.948  1.00  0.00     0.138 A 
ATOM      2  C   UNL     1      47.961 -26.671  17.752  1.00  0.00     0.100 A 
ATOM      3  C   UNL     1      48.929 -25.692  17.526  1.00  0.00     0.197 A 
ATOM      4  O   UNL     1      49.525 -25.692  16.417  1.00  0.00    -0.289 OA
ATOM      5  C   UNL     1      49.188 -24.715  18.516  1.00  0.00     0.107 A 
ATOM      6  C   UNL     1      50.179 -23.695  18.411  1.00  0.00     0.134 A 
ATOM      7  C   UNL     1      50.266 -22.712  19.406  1.00  0.00     0.093 A 
ATOM      8  C   UNL     1      49.437 -22.749  20.530  1.00  0.00     0.123 A 
ATOM      9  C   UNL     1      48.502 -23.772  20.667  1.00  0.00     0.094 A 
ATOM     10  C   UNL     1      48.368 -24.747  19.675  1.00  0.00     0.146 A 
ATOM     11  O   UNL     1      47.454 -25.698  19.839  1.00  0.00    -0.456 OA
ENDROOT
BRANCH   1  12
ATOM     12  C   UNL     1      46.189 -27.676  19.241  1.00  0.00     0.021 A 
ATOM     13  C   UNL     1      46.362 -28.642  20.251  1.00  0.00     0.016 A 
ATOM     14  C   UNL     1      45.362 -29.582  20.512  1.00  0.00     0.051 A 
ATOM     15  C   UNL     1      44.170 -29.569  19.778  1.00  0.00     0.157 A 
ATOM     16  C   UNL     1      44.984 -27.663  18.517  1.00  0.00     0.062 A 
ATOM     17  C   UNL     1      43.980 -28.603  18.777  1.00  0.00     0.158 A 
BRANCH  15  18
ATOM     18  O   UNL     1      43.175 -30.510  20.039  1.00  0.00    -0.504 OA
ATOM     19  H   UNL     1      43.330 -31.501  19.896  1.00  0.00     0.293 HD
ENDBRANCH  15  18
BRANCH  17  20
ATOM     20  O   UNL     1      42.804 -28.561  18.029  1.00  0.00    -0.504 OA
ATOM     21  H   UNL     1      42.596 -29.246  17.313  1.00  0.00     0.293 HD
ENDBRANCH  17  20
ENDBRANCH   1  12
BRANCH   6  22
ATOM     22  O   UNL     1      51.113 -23.615  17.374  1.00  0.00    -0.507 OA
ATOM     23  H   UNL     1      50.904 -23.763  16.398  1.00  0.00     0.293 HD
ENDBRANCH   6  22
BRANCH   8  24
ATOM     24  O   UNL     1      49.540 -21.776  21.521  1.00  0.00    -0.508 OA
ATOM     25  H   UNL     1      49.860 -22.003  22.456  1.00  0.00     0.293 HD
ENDBRANCH   8  24
TORSDOF 5
ENDMDL
MODEL 6
REMARK VINA RESULT:    -6.513      2.675      7.543
REMARK INTER + INTRA:          -7.973
REMARK INTER:                  -7.696
REMARK INTRA:                  -0.277
REMARK UNBOUND:                -0.318
REMARK SMILES O=c1cc(-c2ccc(O)c(O)c2)oc2cc(O)cc(O)c12
REMARK SMILES IDX 4 1 3 2 2 3 1 4 21 5 19 6 18 7 16 8 15 9 14 10 13 11 5 12
REMARK SMILES IDX 6 13 7 14 8 15 12 16 10 17 9 18 11 20 20 22 17 24
REMARK H PARENT 9 19 11 21 20 23 17 25
REMARK Flexibility Score: inf
ROOT
ATOM      1  C   UNL     1      48.589 -26.153  18.858  1.00  0.00     0.138 A 
ATOM      2  C   UNL     1      49.306 -27.353  18.754  1.00  0.00     0.100 A 
ATOM      3  C   UNL     1      48.621 -28.549  18.533  1.00  0.00     0.197 A 
ATOM      4  O   UNL     1      49.285 -29.618  18.507  1.00  0.00    -0.289 OA
ATOM      5  C   UNL     1      47.214 -28.537  18.384  1.00  0.00     0.107 A 
ATOM      6  C   UNL     1      46.415 -29.688  18.115  1.00  0.00     0.134 A 
ATOM      7  C   UNL     1      45.019 -29.572  18.103  1.00  0.00     0.093 A 
ATOM      8  C   UNL     1      44.397 -28.335  18.290  1.00  0.00     0.123 A 
ATOM      9  C   UNL     1      45.171 -27.196  18.500  1.00  0.00     0.094 A 
ATOM     10  C   UNL     1      46.564 -27.285  18.552  1.00  0.00     0.146 A 
ATOM     11  O   UNL     1      47.263 -26.177  18.768  1.00  0.00    -0.456 OA
ENDROOT
BRANCH   1  12
ATOM     12  C   UNL     1      49.267 -24.853  19.091  1.00  0.00     0.021 A 
ATOM     13  C   UNL     1      50.173 -24.313  18.158  1.00  0.00     0.016 A 
ATOM     14  C   UNL     1      50.789 -23.082  18.399  1.00  0.00     0.051 A 
ATOM     15  C   UNL     1      50.507 -22.367  19.569  1.00  0.00     0.157 A 
ATOM     16  C   UNL     1      48.980 -24.122  20.258  1.00  0.00     0.062 A 
ATOM     17  C   UNL     1      49.596 -22.889  20.501  1.00  0.00     0.158 A 
BRANCH  15  18
ATOM     18  O   UNL     1      51.125 -21.140  19.807  1.00  0.00    -0.504 OA
ATOM     19  H   UNL     1      51.589 -20.627  19.067  1.00  0.00     0.293 HD
ENDBRANCH  15  18
BRANCH  17  20
ATOM     20  O   UNL     1      49.291 -22.200  21.675  1.00  0.00    -0.504 OA
ATOM     21  H   UNL     1      49.958 -22.106  22.432  1.00  0.00     0.293 HD
ENDBRANCH  17  20
ENDBRANCH   1  12
BRANCH   6  22
ATOM     22  O   UNL     1      46.938 -30.953  17.831  1.00  0.00    -0.507 OA
ATOM     23  H   UNL     1      47.913 -31.148  17.656  1.00  0.00     0.293 HD
ENDBRANCH   6  22
BRANCH   8  24
ATOM     24  O   UNL     1      43.009 -28.227  18.261  1.00  0.00    -0.508 OA
ATOM     25  H   UNL     1      42.535 -27.393  18.588  1.00  0.00     0.293 HD
ENDBRANCH   8  24
TORSDOF 5
ENDMDL
MODEL 7
REMARK VINA RESULT:    -6.258      2.283      7.011
REMARK INTER + INTRA:          -7.673
REMARK INTER:                  -7.386
REMARK INTRA:                  -0.287
REMARK UNBOUND:                -0.318
REMARK SMILES O=c1cc(-c2ccc(O)c(O)c2)oc2cc(O)cc(O)c12
REMARK SMILES IDX 4 1 3 2 2 3 1 4 21 5 19 6 18 7 16 8 15 9 14 10 13 11 5 12
REMARK SMILES IDX 6 13 7 14 8 15 12 16 10 17 9 18 11 20 20 22 17 24
REMARK H PARENT 9 19 11 21 20 23 17 25
REMARK Flexibility Score: inf
ROOT
ATOM      1  C   UNL     1      46.279 -28.665  17.630  1.00  0.00     0.138 A 
ATOM      2  C   UNL     1      44.930 -29.029  17.517  1.00  0.00     0.100 A 
ATOM      3  C   UNL     1      44.431 -30.078  18.292  1.00  0.00     0.197 A 
ATOM      4  O   UNL     1      43.233 -30.423  18.123  1.00  0.00    -0.289 OA
ATOM      5  C   UNL     1      45.281 -30.742  19.208  1.00  0.00     0.107 A 
ATOM      6  C   UNL     1      44.872 -31.796  20.078  1.00  0.00     0.134 A 
ATOM      7  C   UNL     1      45.829 -32.457  20.859  1.00  0.00     0.093 A 
ATOM      8  C   UNL     1      47.168 -32.061  20.845  1.00  0.00     0.123 A 
ATOM      9  C   UNL     1      47.568 -30.998  20.039  1.00  0.00     0.094 A 
ATOM     10  C   UNL     1      46.644 -30.341  19.223  1.00  0.00     0.146 A 
ATOM     11  O   UNL     1      47.069 -29.341  18.458  1.00  0.00    -0.456 OA
ENDROOT
BRANCH   1  12
ATOM     12  C   UNL     1      46.862 -27.558  16.831  1.00  0.00     0.021 A 
ATOM     13  C   UNL     1      47.979 -26.829  17.280  1.00  0.00     0.016 A 
ATOM     14  C   UNL     1      48.513 -25.798  16.503  1.00  0.00     0.051 A 
ATOM     15  C   UNL     1      47.948 -25.483  15.262  1.00  0.00     0.157 A 
ATOM     16  C   UNL     1      46.308 -27.243  15.577  1.00  0.00     0.062 A 
ATOM     17  C   UNL     1      46.841 -26.211  14.796  1.00  0.00     0.158 A 
BRANCH  15  18
ATOM     18  O   UNL     1      48.482 -24.452  14.489  1.00  0.00    -0.504 OA
ATOM     19  H   UNL     1      49.428 -24.495  14.129  1.00  0.00     0.293 HD
ENDBRANCH  15  18
BRANCH  17  20
ATOM     20  O   UNL     1      46.256 -25.924  13.563  1.00  0.00    -0.504 OA
ATOM     21  H   UNL     1      45.357 -25.463  13.488  1.00  0.00     0.293 HD
ENDBRANCH  17  20
ENDBRANCH   1  12
BRANCH   6  22
ATOM     22  O   UNL     1      43.546 -32.212  20.231  1.00  0.00    -0.507 OA
ATOM     23  H   UNL     1      43.253 -33.171  20.348  1.00  0.00     0.293 HD
ENDBRANCH   6  22
BRANCH   8  24
ATOM     24  O   UNL     1      48.110 -32.714  21.637  1.00  0.00    -0.508 OA
ATOM     25  H   UNL     1      47.879 -33.057  22.562  1.00  0.00     0.293 HD
ENDBRANCH   8  24
TORSDOF 5
ENDMDL
MODEL 8
REMARK VINA RESULT:    -6.248      2.552      7.795
REMARK INTER + INTRA:          -7.661
REMARK INTER:                  -7.360
REMARK INTRA:                  -0.301
REMARK UNBOUND:                -0.318
REMARK SMILES O=c1cc(-c2ccc(O)c(O)c2)oc2cc(O)cc(O)c12
REMARK SMILES IDX 4 1 3 2 2 3 1 4 21 5 19 6 18 7 16 8 15 9 14 10 13 11 5 12
REMARK SMILES IDX 6 13 7 14 8 15 12 16 10 17 9 18 11 20 20 22 17 24
REMARK H PARENT 9 19 11 21 20 23 17 25
REMARK Flexibility Score: inf
ROOT
ATOM      1  C   UNL     1      48.123 -25.837  18.760  1.00  0.00     0.138 A 
ATOM      2  C   UNL     1      47.459 -26.030  17.541  1.00  0.00     0.100 A 
ATOM      3  C   UNL     1      46.723 -27.198  17.334  1.00  0.00     0.197 A 
ATOM      4  O   UNL     1      46.189 -27.371  16.208  1.00  0.00    -0.289 OA
ATOM      5  C   UNL     1      46.626 -28.161  18.366  1.00  0.00     0.107 A 
ATOM      6  C   UNL     1      45.871 -29.368  18.282  1.00  0.00     0.134 A 
ATOM      7  C   UNL     1      45.943 -30.302  19.324  1.00  0.00     0.093 A 
ATOM      8  C   UNL     1      46.697 -30.044  20.472  1.00  0.00     0.123 A 
ATOM      9  C   UNL     1      47.395 -28.843  20.586  1.00  0.00     0.094 A 
ATOM     10  C   UNL     1      47.370 -27.908  19.549  1.00  0.00     0.146 A 
ATOM     11  O   UNL     1      48.061 -26.782  19.693  1.00  0.00    -0.456 OA
ENDROOT
BRANCH   1  12
ATOM     12  C   UNL     1      48.919 -24.614  19.034  1.00  0.00     0.021 A 
ATOM     13  C   UNL     1      49.641 -23.958  18.019  1.00  0.00     0.016 A 
ATOM     14  C   UNL     1      50.373 -22.802  18.303  1.00  0.00     0.051 A 
ATOM     15  C   UNL     1      50.392 -22.277  19.600  1.00  0.00     0.157 A 
ATOM     16  C   UNL     1      48.933 -24.072  20.332  1.00  0.00     0.062 A 
ATOM     17  C   UNL     1      49.666 -22.915  20.619  1.00  0.00     0.158 A 
BRANCH  15  18
ATOM     18  O   UNL     1      51.125 -21.125  19.880  1.00  0.00    -0.504 OA
ATOM     19  H   UNL     1      51.676 -21.040  20.726  1.00  0.00     0.293 HD
ENDBRANCH  15  18
BRANCH  17  20
ATOM     20  O   UNL     1      49.660 -22.416  21.921  1.00  0.00    -0.504 OA
ATOM     21  H   UNL     1      49.234 -22.920  22.689  1.00  0.00     0.293 HD
ENDBRANCH  17  20
ENDBRANCH   1  12
BRANCH   6  22
ATOM     22  O   UNL     1      45.021 -29.686  17.219  1.00  0.00    -0.507 OA
ATOM     23  H   UNL     1      44.690 -30.614  17.003  1.00  0.00     0.293 HD
ENDBRANCH   6  22
BRANCH   8  24
ATOM     24  O   UNL     1      46.751 -30.971  21.510  1.00  0.00    -0.508 OA
ATOM     25  H   UNL     1      45.915 -31.420  21.864  1.00  0.00     0.293 HD
ENDBRANCH   8  24
TORSDOF 5
ENDMDL
MODEL 9
REMARK VINA RESULT:    -6.214      4.578      7.064
REMARK INTER + INTRA:          -7.621
REMARK INTER:                  -7.358
REMARK INTRA:                  -0.263
REMARK UNBOUND:                -0.318
REMARK SMILES O=c1cc(-c2ccc(O)c(O)c2)oc2cc(O)cc(O)c12
REMARK SMILES IDX 4 1 3 2 2 3 1 4 21 5 19 6 18 7 16 8 15 9 14 10 13 11 5 12
REMARK SMILES IDX 6 13 7 14 8 15 12 16 10 17 9 18 11 20 20 22 17 24
REMARK H PARENT 9 19 11 21 20 23 17 25
REMARK Flexibility Score: inf
ROOT
ATOM      1  C   UNL     1      48.822 -25.594  17.994  1.00  0.00     0.138 A 
ATOM      2  C   UNL     1      49.691 -26.687  17.874  1.00  0.00     0.100 A 
ATOM      3  C   UNL     1      49.497 -27.613  16.846  1.00  0.00     0.197 A 
ATOM      4  O   UNL     1      50.254 -28.617  16.801  1.00  0.00    -0.289 OA
ATOM      5  C   UNL     1      48.446 -27.423  15.917  1.00  0.00     0.107 A 
ATOM      6  C   UNL     1      48.179 -28.278  14.808  1.00  0.00     0.134 A 
ATOM      7  C   UNL     1      47.041 -28.055  14.022  1.00  0.00     0.093 A 
ATOM      8  C   UNL     1      46.194 -26.972  14.272  1.00  0.00     0.123 A 
ATOM      9  C   UNL     1      46.477 -26.100  15.321  1.00  0.00     0.094 A 
ATOM     10  C   UNL     1      47.586 -26.316  16.143  1.00  0.00     0.146 A 
ATOM     11  O   UNL     1      47.811 -25.469  17.141  1.00  0.00    -0.456 OA
ENDROOT
BRANCH   1  12
ATOM     12  C   UNL     1      48.983 -24.580  19.067  1.00  0.00     0.021 A 
ATOM     13  C   UNL     1      48.317 -24.697  20.302  1.00  0.00     0.016 A 
ATOM     14  C   UNL     1      48.495 -23.732  21.297  1.00  0.00     0.051 A 
ATOM     15  C   UNL     1      49.346 -22.642  21.082  1.00  0.00     0.157 A 
ATOM     16  C   UNL     1      49.846 -23.488  18.863  1.00  0.00     0.062 A 
ATOM     17  C   UNL     1      50.026 -22.521  19.859  1.00  0.00     0.158 A 
BRANCH  15  18
ATOM     18  O   UNL     1      49.520 -21.680  22.076  1.00  0.00    -0.504 OA
ATOM     19  H   UNL     1      48.753 -21.098  22.391  1.00  0.00     0.293 HD
ENDBRANCH  15  18
BRANCH  17  20
ATOM     20  O   UNL     1      50.882 -21.448  19.614  1.00  0.00    -0.504 OA
ATOM     21  H   UNL     1      50.622 -20.679  19.008  1.00  0.00     0.293 HD
ENDBRANCH  17  20
ENDBRANCH   1  12
BRANCH   6  22
ATOM     22  O   UNL     1      49.006 -29.336  14.419  1.00  0.00    -0.507 OA
ATOM     23  H   UNL     1      48.830 -30.309  14.619  1.00  0.00     0.293 HD
ENDBRANCH   6  22
BRANCH   8  24
ATOM     24  O   UNL     1      45.073 -26.749  13.477  1.00  0.00    -0.508 OA
ATOM     25  H   UNL     1      44.641 -27.497  12.947  1.00  0.00     0.293 HD
ENDBRANCH   8  24
TORSDOF 5
ENDMDL
