MODEL 1
REMARK VINA RESULT:    -6.112      0.000      0.000
REMARK INTER + INTRA:          -7.144
REMARK INTER:                  -7.005
REMARK INTRA:                  -0.139
REMARK UNBOUND:                -0.139
REMARK SMILES O=C([O-])C=Cc1ccc(O)cc1
REMARK SMILES IDX 6 1 7 2 12 3 8 4 11 5 9 6 5 7 4 8 2 9 1 10 3 11 10 12
REMARK H PARENT 10 13
REMARK Flexibility Score: inf
ROOT
ATOM      1  C   UNL     1      27.668  24.045  48.783  1.00  0.00    -0.025 A 
ATOM      2  C   UNL     1      26.796  22.978  49.085  1.00  0.00     0.012 A 
ATOM      3  C   UNL     1      28.416  24.623  49.824  1.00  0.00     0.012 A 
ATOM      4  C   UNL     1      26.662  22.525  50.400  1.00  0.00     0.047 A 
ATOM      5  C   UNL     1      28.278  24.166  51.138  1.00  0.00     0.047 A 
ATOM      6  C   UNL     1      27.400  23.119  51.431  1.00  0.00     0.115 A 
ENDROOT
BRANCH   1   7
ATOM      7  C   UNL     1      27.858  24.557  47.404  1.00  0.00     0.010 C 
ATOM      8  C   UNL     1      26.958  24.402  46.421  1.00  0.00     0.025 C 
BRANCH   8   9
ATOM      9  C   UNL     1      27.175  24.936  45.066  1.00  0.00     0.064 C 
ATOM     10  O   UNL     1      28.335  25.050  44.587  1.00  0.00    -0.545 OA
ATOM     11  O   UNL     1      26.081  25.318  44.300  1.00  0.00    -0.545 OA
ENDBRANCH   8   9
ENDBRANCH   1   7
BRANCH   6  12
ATOM     12  O   UNL     1      27.273  22.675  52.745  1.00  0.00    -0.508 OA
ATOM     13  H   UNL     1      28.000  22.130  53.192  1.00  0.00     0.293 HD
ENDBRANCH   6  12
TORSDOF 3
ENDMDL
MODEL 2
REMARK VINA RESULT:    -6.086      0.134      1.404
REMARK INTER + INTRA:          -7.114
REMARK INTER:                  -6.964
REMARK INTRA:                  -0.150
REMARK UNBOUND:                -0.139
REMARK SMILES O=C([O-])C=Cc1ccc(O)cc1
REMARK SMILES IDX 6 1 7 2 12 3 8 4 11 5 9 6 5 7 4 8 2 9 1 10 3 11 10 12
REMARK H PARENT 10 13
REMARK Flexibility Score: inf
ROOT
ATOM      1  C   UNL     1      27.844  24.010  48.837  1.00  0.00    -0.025 A 
ATOM      2  C   UNL     1      28.562  24.596  49.901  1.00  0.00     0.012 A 
ATOM      3  C   UNL     1      26.942  22.970  49.120  1.00  0.00     0.012 A 
ATOM      4  C   UNL     1      28.394  24.129  51.208  1.00  0.00     0.047 A 
ATOM      5  C   UNL     1      26.778  22.506  50.428  1.00  0.00     0.047 A 
ATOM      6  C   UNL     1      27.504  23.082  51.475  1.00  0.00     0.115 A 
ENDROOT
BRANCH   1   7
ATOM      7  C   UNL     1      27.975  24.475  47.434  1.00  0.00     0.010 C 
ATOM      8  C   UNL     1      26.977  24.431  46.538  1.00  0.00     0.025 C 
BRANCH   8   9
ATOM      9  C   UNL     1      27.140  24.914  45.157  1.00  0.00     0.064 C 
ATOM     10  O   UNL     1      28.280  25.008  44.628  1.00  0.00    -0.545 OA
ATOM     11  O   UNL     1      26.016  25.269  44.421  1.00  0.00    -0.545 OA
ENDBRANCH   8   9
ENDBRANCH   1   7
BRANCH   6  12
ATOM     12  O   UNL     1      27.331  22.609  52.774  1.00  0.00    -0.508 OA
ATOM     13  H   UNL     1      26.847  23.156  53.476  1.00  0.00     0.293 HD
ENDBRANCH   6  12
TORSDOF 3
ENDMDL
MODEL 3
REMARK VINA RESULT:    -5.852      1.217      5.888
REMARK INTER + INTRA:          -6.845
REMARK INTER:                  -6.703
REMARK INTRA:                  -0.143
REMARK UNBOUND:                -0.139
REMARK SMILES O=C([O-])C=Cc1ccc(O)cc1
REMARK SMILES IDX 6 1 7 2 12 3 8 4 11 5 9 6 5 7 4 8 2 9 1 10 3 11 10 12
REMARK H PARENT 10 13
REMARK Flexibility Score: inf
ROOT
ATOM      1  C   UNL     1      28.389  24.621  48.398  1.00  0.00    -0.025 A 
ATOM      2  C   UNL     1      29.481  24.819  47.527  1.00  0.00     0.012 A 
ATOM      3  C   UNL     1      27.102  24.487  47.851  1.00  0.00     0.012 A 
ATOM      4  C   UNL     1      29.277  24.905  46.146  1.00  0.00     0.047 A 
ATOM      5  C   UNL     1      26.903  24.574  46.470  1.00  0.00     0.047 A 
ATOM      6  C   UNL     1      27.987  24.785  45.614  1.00  0.00     0.115 A 
ENDROOT
BRANCH   1   7
ATOM      7  C   UNL     1      28.551  24.510  49.869  1.00  0.00     0.010 C 
ATOM      8  C   UNL     1      28.163  23.442  50.583  1.00  0.00     0.025 C 
BRANCH   8   9
ATOM      9  C   UNL     1      28.352  23.362  52.041  1.00  0.00     0.064 C 
ATOM     10  O   UNL     1      29.159  24.124  52.638  1.00  0.00    -0.545 OA
ATOM     11  O   UNL     1      27.624  22.432  52.772  1.00  0.00    -0.545 OA
ENDBRANCH   8   9
ENDBRANCH   1   7
BRANCH   6  12
ATOM     12  O   UNL     1      27.773  24.871  44.240  1.00  0.00    -0.508 OA
ATOM     13  H   UNL     1      26.852  24.742  43.839  1.00  0.00     0.293 HD
ENDBRANCH   6  12
TORSDOF 3
ENDMDL
MODEL 4
REMARK VINA RESULT:    -5.362      1.543      2.318
REMARK INTER + INTRA:          -6.285
REMARK INTER:                  -6.145
REMARK INTRA:                  -0.140
REMARK UNBOUND:                -0.139
REMARK SMILES O=C([O-])C=Cc1ccc(O)cc1
REMARK SMILES IDX 6 1 7 2 12 3 8 4 11 5 9 6 5 7 4 8 2 9 1 10 3 11 10 12
REMARK H PARENT 10 13
REMARK Flexibility Score: inf
ROOT
ATOM      1  C   UNL     1      28.342  23.869  50.086  1.00  0.00    -0.025 A 
ATOM      2  C   UNL     1      29.049  23.973  51.302  1.00  0.00     0.012 A 
ATOM      3  C   UNL     1      27.230  23.011  50.019  1.00  0.00     0.012 A 
ATOM      4  C   UNL     1      28.663  23.214  52.411  1.00  0.00     0.047 A 
ATOM      5  C   UNL     1      26.848  22.254  51.131  1.00  0.00     0.047 A 
ATOM      6  C   UNL     1      27.563  22.351  52.328  1.00  0.00     0.115 A 
ENDROOT
BRANCH   1   7
ATOM      7  C   UNL     1      28.701  24.660  48.883  1.00  0.00     0.010 C 
ATOM      8  C   UNL     1      28.958  24.118  47.683  1.00  0.00     0.025 C 
BRANCH   8   9
ATOM      9  C   UNL     1      29.298  24.936  46.508  1.00  0.00     0.064 C 
ATOM     10  O   UNL     1      30.376  25.588  46.456  1.00  0.00    -0.545 OA
ATOM     11  O   UNL     1      28.417  24.989  45.435  1.00  0.00    -0.545 OA
ENDBRANCH   8   9
ENDBRANCH   1   7
BRANCH   6  12
ATOM     12  O   UNL     1      27.172  21.589  53.427  1.00  0.00    -0.508 OA
ATOM     13  H   UNL     1      26.484  21.930  54.088  1.00  0.00     0.293 HD
ENDBRANCH   6  12
TORSDOF 3
ENDMDL
MODEL 5
REMARK VINA RESULT:    -5.167     11.640     12.686
REMARK INTER + INTRA:          -6.061
REMARK INTER:                  -5.908
REMARK INTRA:                  -0.153
REMARK UNBOUND:                -0.139
REMARK SMILES O=C([O-])C=Cc1ccc(O)cc1
REMARK SMILES IDX 6 1 7 2 12 3 8 4 11 5 9 6 5 7 4 8 2 9 1 10 3 11 10 12
REMARK H PARENT 10 13
REMARK Flexibility Score: inf
ROOT
ATOM      1  C   UNL     1      16.560  19.976  44.067  1.00  0.00    -0.025 A 
ATOM      2  C   UNL     1      17.000  18.694  44.458  1.00  0.00     0.012 A 
ATOM      3  C   UNL     1      15.247  20.367  44.383  1.00  0.00     0.012 A 
ATOM      4  C   UNL     1      16.134  17.823  45.126  1.00  0.00     0.047 A 
ATOM      5  C   UNL     1      14.385  19.492  45.049  1.00  0.00     0.047 A 
ATOM      6  C   UNL     1      14.824  18.218  45.421  1.00  0.00     0.115 A 
ENDROOT
BRANCH   1   7
ATOM      7  C   UNL     1      17.441  20.944  43.368  1.00  0.00     0.010 C 
ATOM      8  C   UNL     1      17.015  22.116  42.872  1.00  0.00     0.025 C 
BRANCH   8   9
ATOM      9  C   UNL     1      17.922  23.058  42.195  1.00  0.00     0.064 C 
ATOM     10  O   UNL     1      19.129  23.163  42.539  1.00  0.00    -0.545 OA
ATOM     11  O   UNL     1      17.438  23.843  41.156  1.00  0.00    -0.545 OA
ENDBRANCH   8   9
ENDBRANCH   1   7
BRANCH   6  12
ATOM     12  O   UNL     1      13.953  17.356  46.085  1.00  0.00    -0.508 OA
ATOM     13  H   UNL     1      14.218  16.404  46.306  1.00  0.00     0.293 HD
ENDBRANCH   6  12
TORSDOF 3
ENDMDL
MODEL 6
REMARK VINA RESULT:    -5.077     11.429     13.268
REMARK INTER + INTRA:          -5.958
REMARK INTER:                  -5.806
REMARK INTRA:                  -0.152
REMARK UNBOUND:                -0.139
REMARK SMILES O=C([O-])C=Cc1ccc(O)cc1
REMARK SMILES IDX 6 1 7 2 12 3 8 4 11 5 9 6 5 7 4 8 2 9 1 10 3 11 10 12
REMARK H PARENT 10 13
REMARK Flexibility Score: inf
ROOT
ATOM      1  C   UNL     1      17.250  21.490  43.138  1.00  0.00    -0.025 A 
ATOM      2  C   UNL     1      18.487  22.043  42.745  1.00  0.00     0.012 A 
ATOM      3  C   UNL     1      16.064  22.125  42.730  1.00  0.00     0.012 A 
ATOM      4  C   UNL     1      18.527  23.216  41.985  1.00  0.00     0.047 A 
ATOM      5  C   UNL     1      16.110  23.297  41.970  1.00  0.00     0.047 A 
ATOM      6  C   UNL     1      17.339  23.848  41.598  1.00  0.00     0.115 A 
ENDROOT
BRANCH   1   7
ATOM      7  C   UNL     1      17.150  20.242  43.933  1.00  0.00     0.010 C 
ATOM      8  C   UNL     1      15.993  19.613  44.192  1.00  0.00     0.025 C 
BRANCH   8   9
ATOM      9  C   UNL     1      15.934  18.368  44.975  1.00  0.00     0.064 C 
ATOM     10  O   UNL     1      16.553  17.334  44.605  1.00  0.00    -0.545 OA
ATOM     11  O   UNL     1      15.186  18.333  46.145  1.00  0.00    -0.545 OA
ENDBRANCH   8   9
ENDBRANCH   1   7
BRANCH   6  12
ATOM     12  O   UNL     1      17.369  25.018  40.842  1.00  0.00    -0.508 OA
ATOM     13  H   UNL     1      17.502  24.995  39.837  1.00  0.00     0.293 HD
ENDBRANCH   6  12
TORSDOF 3
ENDMDL
MODEL 7
REMARK VINA RESULT:    -4.928      1.650      5.818
REMARK INTER + INTRA:          -5.787
REMARK INTER:                  -5.649
REMARK INTRA:                  -0.138
REMARK UNBOUND:                -0.139
REMARK SMILES O=C([O-])C=Cc1ccc(O)cc1
REMARK SMILES IDX 6 1 7 2 12 3 8 4 11 5 9 6 5 7 4 8 2 9 1 10 3 11 10 12
REMARK H PARENT 10 13
REMARK Flexibility Score: inf
ROOT
ATOM      1  C   UNL     1      28.228  24.159  49.401  1.00  0.00    -0.025 A 
ATOM      2  C   UNL     1      27.242  23.194  49.106  1.00  0.00     0.012 A 
ATOM      3  C   UNL     1      28.664  25.017  48.377  1.00  0.00     0.012 A 
ATOM      4  C   UNL     1      26.729  23.082  47.810  1.00  0.00     0.047 A 
ATOM      5  C   UNL     1      28.149  24.900  47.083  1.00  0.00     0.047 A 
ATOM      6  C   UNL     1      27.184  23.932  46.794  1.00  0.00     0.115 A 
ENDROOT
BRANCH   1   7
ATOM      7  C   UNL     1      28.796  24.330  50.761  1.00  0.00     0.010 C 
ATOM      8  C   UNL     1      28.804  23.364  51.692  1.00  0.00     0.025 C 
BRANCH   8   9
ATOM      9  C   UNL     1      29.390  23.566  53.028  1.00  0.00     0.064 C 
ATOM     10  O   UNL     1      30.514  24.115  53.172  1.00  0.00    -0.545 OA
ATOM     11  O   UNL     1      28.687  23.146  54.151  1.00  0.00    -0.545 OA
ENDBRANCH   8   9
ENDBRANCH   1   7
BRANCH   6  12
ATOM     12  O   UNL     1      26.680  23.827  45.499  1.00  0.00    -0.508 OA
ATOM     13  H   UNL     1      26.918  24.503  44.783  1.00  0.00     0.293 HD
ENDBRANCH   6  12
TORSDOF 3
ENDMDL
MODEL 8
REMARK VINA RESULT:    -4.710     13.892     14.896
REMARK INTER + INTRA:          -5.538
REMARK INTER:                  -5.392
REMARK INTRA:                  -0.146
REMARK UNBOUND:                -0.139
REMARK SMILES O=C([O-])C=Cc1ccc(O)cc1
REMARK SMILES IDX 6 1 7 2 12 3 8 4 11 5 9 6 5 7 4 8 2 9 1 10 3 11 10 12
REMARK H PARENT 10 13
REMARK Flexibility Score: inf
ROOT
ATOM      1  C   UNL     1      16.363  30.462  54.259  1.00  0.00    -0.025 A 
ATOM      2  C   UNL     1      17.534  30.466  55.046  1.00  0.00     0.012 A 
ATOM      3  C   UNL     1      16.467  30.755  52.888  1.00  0.00     0.012 A 
ATOM      4  C   UNL     1      18.770  30.780  54.472  1.00  0.00     0.047 A 
ATOM      5  C   UNL     1      17.705  31.069  52.319  1.00  0.00     0.047 A 
ATOM      6  C   UNL     1      18.858  31.085  53.108  1.00  0.00     0.115 A 
ENDROOT
BRANCH   1   7
ATOM      7  C   UNL     1      15.029  30.124  54.813  1.00  0.00     0.010 C 
ATOM      8  C   UNL     1      14.133  29.350  54.182  1.00  0.00     0.025 C 
BRANCH   8   9
ATOM      9  C   UNL     1      12.823  29.025  54.770  1.00  0.00     0.064 C 
ATOM     10  O   UNL     1      12.023  29.932  55.124  1.00  0.00    -0.545 OA
ATOM     11  O   UNL     1      12.461  27.694  54.934  1.00  0.00    -0.545 OA
ENDBRANCH   8   9
ENDBRANCH   1   7
BRANCH   6  12
ATOM     12  O   UNL     1      20.085  31.400  52.528  1.00  0.00    -0.508 OA
ATOM     13  H   UNL     1      20.191  31.474  51.523  1.00  0.00     0.293 HD
ENDBRANCH   6  12
TORSDOF 3
ENDMDL
MODEL 9
REMARK VINA RESULT:    -4.616     12.340     12.799
REMARK INTER + INTRA:          -5.429
REMARK INTER:                  -5.294
REMARK INTRA:                  -0.135
REMARK UNBOUND:                -0.139
REMARK SMILES O=C([O-])C=Cc1ccc(O)cc1
REMARK SMILES IDX 6 1 7 2 12 3 8 4 11 5 9 6 5 7 4 8 2 9 1 10 3 11 10 12
REMARK H PARENT 10 13
REMARK Flexibility Score: inf
ROOT
ATOM      1  C   UNL     1      16.884  29.441  52.692  1.00  0.00    -0.025 A 
ATOM      2  C   UNL     1      17.661  28.534  53.442  1.00  0.00     0.012 A 
ATOM      3  C   UNL     1      17.343  30.761  52.539  1.00  0.00     0.012 A 
ATOM      4  C   UNL     1      18.852  28.952  54.042  1.00  0.00     0.047 A 
ATOM      5  C   UNL     1      18.534  31.174  53.141  1.00  0.00     0.047 A 
ATOM      6  C   UNL     1      19.291  30.273  53.895  1.00  0.00     0.115 A 
ENDROOT
BRANCH   1   7
ATOM      7  C   UNL     1      15.618  29.048  52.024  1.00  0.00     0.010 C 
ATOM      8  C   UNL     1      15.553  28.569  50.773  1.00  0.00     0.025 C 
BRANCH   8   9
ATOM      9  C   UNL     1      14.279  28.176  50.147  1.00  0.00     0.064 C 
ATOM     10  O   UNL     1      13.502  27.359  50.708  1.00  0.00    -0.545 OA
ATOM     11  O   UNL     1      13.927  28.719  48.918  1.00  0.00    -0.545 OA
ENDBRANCH   8   9
ENDBRANCH   1   7
BRANCH   6  12
ATOM     12  O   UNL     1      20.477  30.699  54.490  1.00  0.00    -0.508 OA
ATOM     13  H   UNL     1      20.514  31.542  55.051  1.00  0.00     0.293 HD
ENDBRANCH   6  12
TORSDOF 3
ENDMDL
