MODEL 1
REMARK VINA RESULT:    -7.288      0.000      0.000
REMARK INTER + INTRA:          -9.011
REMARK INTER:                  -8.779
REMARK INTRA:                  -0.232
REMARK UNBOUND:                -0.232
REMARK SMILES O=c1c(O)c(-c2ccc(O)c(O)c2)oc2cc(O)cc(O)c12
REMARK SMILES IDX 5 1 3 2 2 3 1 4 22 5 20 6 19 7 17 8 16 9 15 10 14 11 6 12
REMARK SMILES IDX 7 13 8 14 9 15 13 16 11 17 10 18 12 20 4 22 21 24 18 26
REMARK H PARENT 10 19 12 21 4 23 21 25 18 27
REMARK Flexibility Score: inf
ROOT
ATOM      1  C   UNL     1      33.326  30.603  35.055  1.00  0.00     0.180 A 
ATOM      2  C   UNL     1      34.109  30.492  36.217  1.00  0.00     0.208 A 
ATOM      3  C   UNL     1      34.975  29.395  36.353  1.00  0.00     0.238 A 
ATOM      4  O   UNL     1      35.712  29.330  37.371  1.00  0.00    -0.285 OA
ATOM      5  C   UNL     1      35.034  28.415  35.334  1.00  0.00     0.111 A 
ATOM      6  C   UNL     1      35.845  27.241  35.385  1.00  0.00     0.134 A 
ATOM      7  C   UNL     1      35.924  26.406  34.263  1.00  0.00     0.093 A 
ATOM      8  C   UNL     1      35.170  26.668  33.116  1.00  0.00     0.123 A 
ATOM      9  C   UNL     1      34.331  27.779  33.079  1.00  0.00     0.094 A 
ATOM     10  C   UNL     1      34.258  28.650  34.170  1.00  0.00     0.146 A 
ATOM     11  O   UNL     1      33.453  29.702  34.088  1.00  0.00    -0.452 OA
ENDROOT
BRANCH   1  12
ATOM     12  C   UNL     1      32.372  31.718  34.851  1.00  0.00     0.025 A 
ATOM     13  C   UNL     1      30.983  31.508  34.890  1.00  0.00     0.016 A 
ATOM     14  C   UNL     1      30.102  32.570  34.670  1.00  0.00     0.051 A 
ATOM     15  C   UNL     1      30.591  33.850  34.395  1.00  0.00     0.157 A 
ATOM     16  C   UNL     1      32.860  33.000  34.554  1.00  0.00     0.062 A 
ATOM     17  C   UNL     1      31.978  34.067  34.333  1.00  0.00     0.158 A 
BRANCH  15  18
ATOM     18  O   UNL     1      29.688  34.891  34.182  1.00  0.00    -0.504 OA
ATOM     19  H   UNL     1      29.307  35.093  33.266  1.00  0.00     0.293 HD
ENDBRANCH  15  18
BRANCH  17  20
ATOM     20  O   UNL     1      32.474  35.340  34.053  1.00  0.00    -0.504 OA
ATOM     21  H   UNL     1      32.279  36.130  34.656  1.00  0.00     0.293 HD
ENDBRANCH  17  20
ENDBRANCH   1  12
BRANCH   2  22
ATOM     22  O   UNL     1      34.051  31.483  37.202  1.00  0.00    -0.502 OA
ATOM     23  H   UNL     1      33.643  31.321  38.114  1.00  0.00     0.293 HD
ENDBRANCH   2  22
BRANCH   6  24
ATOM     24  O   UNL     1      36.565  26.839  36.513  1.00  0.00    -0.507 OA
ATOM     25  H   UNL     1      36.338  26.040  37.086  1.00  0.00     0.293 HD
ENDBRANCH   6  24
BRANCH   8  26
ATOM     26  O   UNL     1      35.243  25.825  32.010  1.00  0.00    -0.508 OA
ATOM     27  H   UNL     1      35.875  25.033  31.988  1.00  0.00     0.293 HD
ENDBRANCH   8  26
TORSDOF 6
ENDMDL
MODEL 2
REMARK VINA RESULT:    -7.204      4.218      5.420
REMARK INTER + INTRA:          -8.910
REMARK INTER:                  -8.850
REMARK INTRA:                  -0.060
REMARK UNBOUND:                -0.232
REMARK SMILES O=c1c(O)c(-c2ccc(O)c(O)c2)oc2cc(O)cc(O)c12
REMARK SMILES IDX 5 1 3 2 2 3 1 4 22 5 20 6 19 7 17 8 16 9 15 10 14 11 6 12
REMARK SMILES IDX 7 13 8 14 9 15 13 16 11 17 10 18 12 20 4 22 21 24 18 26
REMARK H PARENT 10 19 12 21 4 23 21 25 18 27
REMARK Flexibility Score: inf
ROOT
ATOM      1  C   UNL     1      36.269  32.997  37.008  1.00  0.00     0.180 A 
ATOM      2  C   UNL     1      36.427  33.691  38.220  1.00  0.00     0.208 A 
ATOM      3  C   UNL     1      37.571  33.452  38.998  1.00  0.00     0.238 A 
ATOM      4  O   UNL     1      37.732  34.116  40.055  1.00  0.00    -0.285 OA
ATOM      5  C   UNL     1      38.533  32.509  38.564  1.00  0.00     0.111 A 
ATOM      6  C   UNL     1      39.710  32.158  39.293  1.00  0.00     0.134 A 
ATOM      7  C   UNL     1      40.658  31.311  38.706  1.00  0.00     0.093 A 
ATOM      8  C   UNL     1      40.441  30.750  37.445  1.00  0.00     0.123 A 
ATOM      9  C   UNL     1      39.268  31.041  36.752  1.00  0.00     0.094 A 
ATOM     10  C   UNL     1      38.321  31.911  37.295  1.00  0.00     0.146 A 
ATOM     11  O   UNL     1      37.222  32.168  36.596  1.00  0.00    -0.452 OA
ENDROOT
BRANCH   1  12
ATOM     12  C   UNL     1      35.079  33.178  36.145  1.00  0.00     0.025 A 
ATOM     13  C   UNL     1      34.281  32.086  35.763  1.00  0.00     0.016 A 
ATOM     14  C   UNL     1      33.176  32.276  34.928  1.00  0.00     0.051 A 
ATOM     15  C   UNL     1      32.860  33.553  34.453  1.00  0.00     0.157 A 
ATOM     16  C   UNL     1      34.771  34.454  35.649  1.00  0.00     0.062 A 
ATOM     17  C   UNL     1      33.664  34.648  34.812  1.00  0.00     0.158 A 
BRANCH  15  18
ATOM     18  O   UNL     1      31.751  33.712  33.623  1.00  0.00    -0.504 OA
ATOM     19  H   UNL     1      31.101  32.957  33.443  1.00  0.00     0.293 HD
ENDBRANCH  15  18
BRANCH  17  20
ATOM     20  O   UNL     1      33.359  35.923  34.336  1.00  0.00    -0.504 OA
ATOM     21  H   UNL     1      33.995  36.430  33.732  1.00  0.00     0.293 HD
ENDBRANCH  17  20
ENDBRANCH   1  12
BRANCH   2  22
ATOM     22  O   UNL     1      35.475  34.634  38.620  1.00  0.00    -0.502 OA
ATOM     23  H   UNL     1      34.523  34.625  38.276  1.00  0.00     0.293 HD
ENDBRANCH   2  22
BRANCH   6  24
ATOM     24  O   UNL     1      39.978  32.589  40.595  1.00  0.00    -0.507 OA
ATOM     25  H   UNL     1      40.234  33.531  40.848  1.00  0.00     0.293 HD
ENDBRANCH   6  24
BRANCH   8  26
ATOM     26  O   UNL     1      41.382  29.896  36.875  1.00  0.00    -0.508 OA
ATOM     27  H   UNL     1      41.962  30.190  36.096  1.00  0.00     0.293 HD
ENDBRANCH   8  26
TORSDOF 6
ENDMDL
MODEL 3
REMARK VINA RESULT:    -7.198     11.633     13.613
REMARK INTER + INTRA:          -8.904
REMARK INTER:                  -8.634
REMARK INTRA:                  -0.270
REMARK UNBOUND:                -0.232
REMARK SMILES O=c1c(O)c(-c2ccc(O)c(O)c2)oc2cc(O)cc(O)c12
REMARK SMILES IDX 5 1 3 2 2 3 1 4 22 5 20 6 19 7 17 8 16 9 15 10 14 11 6 12
REMARK SMILES IDX 7 13 8 14 9 15 13 16 11 17 10 18 12 20 4 22 21 24 18 26
REMARK H PARENT 10 19 12 21 4 23 21 25 18 27
REMARK Flexibility Score: inf
ROOT
ATOM      1  C   UNL     1      38.065  18.818  38.932  1.00  0.00     0.180 A 
ATOM      2  C   UNL     1      38.654  17.541  38.944  1.00  0.00     0.208 A 
ATOM      3  C   UNL     1      40.047  17.434  39.079  1.00  0.00     0.238 A 
ATOM      4  O   UNL     1      40.561  16.286  39.143  1.00  0.00    -0.285 OA
ATOM      5  C   UNL     1      40.836  18.604  39.183  1.00  0.00     0.111 A 
ATOM      6  C   UNL     1      42.261  18.614  39.283  1.00  0.00     0.134 A 
ATOM      7  C   UNL     1      42.928  19.824  39.513  1.00  0.00     0.093 A 
ATOM      8  C   UNL     1      42.228  21.031  39.581  1.00  0.00     0.123 A 
ATOM      9  C   UNL     1      40.844  21.038  39.426  1.00  0.00     0.094 A 
ATOM     10  C   UNL     1      40.147  19.843  39.231  1.00  0.00     0.146 A 
ATOM     11  O   UNL     1      38.827  19.894  39.098  1.00  0.00    -0.452 OA
ENDROOT
BRANCH   1  12
ATOM     12  C   UNL     1      36.607  19.013  38.770  1.00  0.00     0.025 A 
ATOM     13  C   UNL     1      36.061  19.467  37.556  1.00  0.00     0.016 A 
ATOM     14  C   UNL     1      34.683  19.666  37.433  1.00  0.00     0.051 A 
ATOM     15  C   UNL     1      33.834  19.430  38.518  1.00  0.00     0.157 A 
ATOM     16  C   UNL     1      35.753  18.797  39.863  1.00  0.00     0.062 A 
ATOM     17  C   UNL     1      34.371  18.996  39.742  1.00  0.00     0.158 A 
BRANCH  15  18
ATOM     18  O   UNL     1      32.463  19.637  38.365  1.00  0.00    -0.504 OA
ATOM     19  H   UNL     1      31.780  18.949  38.657  1.00  0.00     0.293 HD
ENDBRANCH  15  18
BRANCH  17  20
ATOM     20  O   UNL     1      33.531  18.765  40.831  1.00  0.00    -0.504 OA
ATOM     21  H   UNL     1      32.780  19.402  41.066  1.00  0.00     0.293 HD
ENDBRANCH  17  20
ENDBRANCH   1  12
BRANCH   2  22
ATOM     22  O   UNL     1      37.853  16.398  38.862  1.00  0.00    -0.502 OA
ATOM     23  H   UNL     1      38.239  15.462  38.863  1.00  0.00     0.293 HD
ENDBRANCH   2  22
BRANCH   6  24
ATOM     24  O   UNL     1      43.061  17.478  39.137  1.00  0.00    -0.507 OA
ATOM     25  H   UNL     1      44.027  17.414  39.421  1.00  0.00     0.293 HD
ENDBRANCH   6  24
BRANCH   8  26
ATOM     26  O   UNL     1      42.901  22.232  39.795  1.00  0.00    -0.508 OA
ATOM     27  H   UNL     1      43.115  22.863  39.031  1.00  0.00     0.293 HD
ENDBRANCH   8  26
TORSDOF 6
ENDMDL
MODEL 4
REMARK VINA RESULT:    -7.170      9.042     12.969
REMARK INTER + INTRA:          -8.869
REMARK INTER:                  -8.548
REMARK INTRA:                  -0.321
REMARK UNBOUND:                -0.232
REMARK SMILES O=c1c(O)c(-c2ccc(O)c(O)c2)oc2cc(O)cc(O)c12
REMARK SMILES IDX 5 1 3 2 2 3 1 4 22 5 20 6 19 7 17 8 16 9 15 10 14 11 6 12
REMARK SMILES IDX 7 13 8 14 9 15 13 16 11 17 10 18 12 20 4 22 21 24 18 26
REMARK H PARENT 10 19 12 21 4 23 21 25 18 27
REMARK Flexibility Score: inf
ROOT
ATOM      1  C   UNL     1      39.167  20.423  38.694  1.00  0.00     0.180 A 
ATOM      2  C   UNL     1      40.463  20.432  39.236  1.00  0.00     0.208 A 
ATOM      3  C   UNL     1      41.339  21.474  38.893  1.00  0.00     0.238 A 
ATOM      4  O   UNL     1      42.480  21.504  39.424  1.00  0.00    -0.285 OA
ATOM      5  C   UNL     1      40.914  22.484  37.997  1.00  0.00     0.111 A 
ATOM      6  C   UNL     1      41.732  23.565  37.548  1.00  0.00     0.134 A 
ATOM      7  C   UNL     1      41.166  24.580  36.765  1.00  0.00     0.093 A 
ATOM      8  C   UNL     1      39.830  24.518  36.361  1.00  0.00     0.123 A 
ATOM      9  C   UNL     1      39.041  23.437  36.746  1.00  0.00     0.094 A 
ATOM     10  C   UNL     1      39.566  22.428  37.557  1.00  0.00     0.146 A 
ATOM     11  O   UNL     1      38.776  21.421  37.908  1.00  0.00    -0.452 OA
ENDROOT
BRANCH   1  12
ATOM     12  C   UNL     1      38.195  19.346  38.990  1.00  0.00     0.025 A 
ATOM     13  C   UNL     1      37.289  19.453  40.060  1.00  0.00     0.016 A 
ATOM     14  C   UNL     1      36.396  18.413  40.336  1.00  0.00     0.051 A 
ATOM     15  C   UNL     1      36.404  17.249  39.561  1.00  0.00     0.157 A 
ATOM     16  C   UNL     1      38.214  18.168  38.227  1.00  0.00     0.062 A 
ATOM     17  C   UNL     1      37.320  17.123  38.503  1.00  0.00     0.158 A 
BRANCH  15  18
ATOM     18  O   UNL     1      35.501  16.230  39.859  1.00  0.00    -0.504 OA
ATOM     19  H   UNL     1      35.594  15.299  39.473  1.00  0.00     0.293 HD
ENDBRANCH  15  18
BRANCH  17  20
ATOM     20  O   UNL     1      37.338  15.963  37.730  1.00  0.00    -0.504 OA
ATOM     21  H   UNL     1      38.025  15.823  36.999  1.00  0.00     0.293 HD
ENDBRANCH  17  20
ENDBRANCH   1  12
BRANCH   2  22
ATOM     22  O   UNL     1      40.856  19.436  40.136  1.00  0.00    -0.502 OA
ATOM     23  H   UNL     1      41.816  19.321  40.435  1.00  0.00     0.293 HD
ENDBRANCH   2  22
BRANCH   6  24
ATOM     24  O   UNL     1      43.099  23.673  37.817  1.00  0.00    -0.507 OA
ATOM     25  H   UNL     1      43.492  23.899  38.718  1.00  0.00     0.293 HD
ENDBRANCH   6  24
BRANCH   8  26
ATOM     26  O   UNL     1      39.279  25.524  35.570  1.00  0.00    -0.508 OA
ATOM     27  H   UNL     1      38.588  25.318  34.857  1.00  0.00     0.293 HD
ENDBRANCH   8  26
TORSDOF 6
ENDMDL
MODEL 5
REMARK VINA RESULT:    -6.991     11.678     13.539
REMARK INTER + INTRA:          -8.654
REMARK INTER:                  -8.337
REMARK INTRA:                  -0.317
REMARK UNBOUND:                -0.232
REMARK SMILES O=c1c(O)c(-c2ccc(O)c(O)c2)oc2cc(O)cc(O)c12
REMARK SMILES IDX 5 1 3 2 2 3 1 4 22 5 20 6 19 7 17 8 16 9 15 10 14 11 6 12
REMARK SMILES IDX 7 13 8 14 9 15 13 16 11 17 10 18 12 20 4 22 21 24 18 26
REMARK H PARENT 10 19 12 21 4 23 21 25 18 27
REMARK Flexibility Score: inf
ROOT
ATOM      1  C   UNL     1      38.767  20.048  39.402  1.00  0.00     0.180 A 
ATOM      2  C   UNL     1      38.777  18.708  38.977  1.00  0.00     0.208 A 
ATOM      3  C   UNL     1      37.733  17.858  39.374  1.00  0.00     0.238 A 
ATOM      4  O   UNL     1      37.721  16.675  38.945  1.00  0.00    -0.285 OA
ATOM      5  C   UNL     1      36.701  18.353  40.206  1.00  0.00     0.111 A 
ATOM      6  C   UNL     1      35.615  17.570  40.703  1.00  0.00     0.134 A 
ATOM      7  C   UNL     1      34.580  18.195  41.411  1.00  0.00     0.093 A 
ATOM      8  C   UNL     1      34.626  19.562  41.695  1.00  0.00     0.123 A 
ATOM      9  C   UNL     1      35.711  20.323  41.265  1.00  0.00     0.094 A 
ATOM     10  C   UNL     1      36.740  19.735  40.526  1.00  0.00     0.146 A 
ATOM     11  O   UNL     1      37.750  20.499  40.128  1.00  0.00    -0.452 OA
ENDROOT
BRANCH   1  12
ATOM     12  C   UNL     1      39.845  20.997  39.044  1.00  0.00     0.025 A 
ATOM     13  C   UNL     1      39.743  21.827  37.914  1.00  0.00     0.016 A 
ATOM     14  C   UNL     1      40.783  22.699  37.582  1.00  0.00     0.051 A 
ATOM     15  C   UNL     1      41.943  22.746  38.360  1.00  0.00     0.157 A 
ATOM     16  C   UNL     1      41.020  21.032  39.812  1.00  0.00     0.062 A 
ATOM     17  C   UNL     1      42.065  21.906  39.480  1.00  0.00     0.158 A 
BRANCH  15  18
ATOM     18  O   UNL     1      42.964  23.627  38.005  1.00  0.00    -0.504 OA
ATOM     19  H   UNL     1      43.566  23.459  37.208  1.00  0.00     0.293 HD
ENDBRANCH  15  18
BRANCH  17  20
ATOM     20  O   UNL     1      43.222  21.942  40.257  1.00  0.00    -0.504 OA
ATOM     21  H   UNL     1      44.067  21.461  39.974  1.00  0.00     0.293 HD
ENDBRANCH  17  20
ENDBRANCH   1  12
BRANCH   2  22
ATOM     22  O   UNL     1      39.795  18.245  38.137  1.00  0.00    -0.502 OA
ATOM     23  H   UNL     1      40.725  18.646  38.137  1.00  0.00     0.293 HD
ENDBRANCH   2  22
BRANCH   6  24
ATOM     24  O   UNL     1      35.521  16.184  40.554  1.00  0.00    -0.507 OA
ATOM     25  H   UNL     1      36.218  15.604  40.113  1.00  0.00     0.293 HD
ENDBRANCH   6  24
BRANCH   8  26
ATOM     26  O   UNL     1      33.600  20.173  42.413  1.00  0.00    -0.508 OA
ATOM     27  H   UNL     1      33.049  19.660  43.092  1.00  0.00     0.293 HD
ENDBRANCH   8  26
TORSDOF 6
ENDMDL
MODEL 6
REMARK VINA RESULT:    -6.980     10.494     11.335
REMARK INTER + INTRA:          -8.641
REMARK INTER:                  -8.470
REMARK INTRA:                  -0.171
REMARK UNBOUND:                -0.232
REMARK SMILES O=c1c(O)c(-c2ccc(O)c(O)c2)oc2cc(O)cc(O)c12
REMARK SMILES IDX 5 1 3 2 2 3 1 4 22 5 20 6 19 7 17 8 16 9 15 10 14 11 6 12
REMARK SMILES IDX 7 13 8 14 9 15 13 16 11 17 10 18 12 20 4 22 21 24 18 26
REMARK H PARENT 10 19 12 21 4 23 21 25 18 27
REMARK Flexibility Score: inf
ROOT
ATOM      1  C   UNL     1      28.281  25.916  43.130  1.00  0.00     0.180 A 
ATOM      2  C   UNL     1      28.057  24.866  42.222  1.00  0.00     0.208 A 
ATOM      3  C   UNL     1      29.035  23.869  42.079  1.00  0.00     0.238 A 
ATOM      4  O   UNL     1      28.805  22.904  41.304  1.00  0.00    -0.285 OA
ATOM      5  C   UNL     1      30.231  23.943  42.832  1.00  0.00     0.111 A 
ATOM      6  C   UNL     1      31.307  23.009  42.736  1.00  0.00     0.134 A 
ATOM      7  C   UNL     1      32.387  23.107  43.624  1.00  0.00     0.093 A 
ATOM      8  C   UNL     1      32.459  24.143  44.559  1.00  0.00     0.123 A 
ATOM      9  C   UNL     1      31.442  25.092  44.619  1.00  0.00     0.094 A 
ATOM     10  C   UNL     1      30.335  25.001  43.771  1.00  0.00     0.146 A 
ATOM     11  O   UNL     1      29.384  25.922  43.869  1.00  0.00    -0.452 OA
ENDROOT
BRANCH   1  12
ATOM     12  C   UNL     1      27.308  27.017  43.318  1.00  0.00     0.025 A 
ATOM     13  C   UNL     1      27.628  28.342  42.976  1.00  0.00     0.016 A 
ATOM     14  C   UNL     1      26.703  29.368  43.185  1.00  0.00     0.051 A 
ATOM     15  C   UNL     1      25.454  29.091  43.749  1.00  0.00     0.157 A 
ATOM     16  C   UNL     1      26.061  26.745  43.903  1.00  0.00     0.062 A 
ATOM     17  C   UNL     1      25.132  27.773  44.114  1.00  0.00     0.158 A 
BRANCH  15  18
ATOM     18  O   UNL     1      24.551  30.136  43.944  1.00  0.00    -0.504 OA
ATOM     19  H   UNL     1      23.691  30.013  44.464  1.00  0.00     0.293 HD
ENDBRANCH  15  18
BRANCH  17  20
ATOM     20  O   UNL     1      23.890  27.490  44.683  1.00  0.00    -0.504 OA
ATOM     21  H   UNL     1      23.035  27.535  44.142  1.00  0.00     0.293 HD
ENDBRANCH  17  20
ENDBRANCH   1  12
BRANCH   2  22
ATOM     22  O   UNL     1      26.859  24.801  41.504  1.00  0.00    -0.502 OA
ATOM     23  H   UNL     1      26.082  24.221  41.795  1.00  0.00     0.293 HD
ENDBRANCH   2  22
BRANCH   6  24
ATOM     24  O   UNL     1      31.377  21.994  41.779  1.00  0.00    -0.507 OA
ATOM     25  H   UNL     1      32.077  21.933  41.055  1.00  0.00     0.293 HD
ENDBRANCH   6  24
BRANCH   8  26
ATOM     26  O   UNL     1      33.544  24.241  45.428  1.00  0.00    -0.508 OA
ATOM     27  H   UNL     1      33.652  25.033  46.052  1.00  0.00     0.293 HD
ENDBRANCH   8  26
TORSDOF 6
ENDMDL
MODEL 7
REMARK VINA RESULT:    -6.910     10.266     12.566
REMARK INTER + INTRA:          -8.556
REMARK INTER:                  -8.920
REMARK INTRA:                   0.364
REMARK UNBOUND:                -0.232
REMARK SMILES O=c1c(O)c(-c2ccc(O)c(O)c2)oc2cc(O)cc(O)c12
REMARK SMILES IDX 5 1 3 2 2 3 1 4 22 5 20 6 19 7 17 8 16 9 15 10 14 11 6 12
REMARK SMILES IDX 7 13 8 14 9 15 13 16 11 17 10 18 12 20 4 22 21 24 18 26
REMARK H PARENT 10 19 12 21 4 23 21 25 18 27
REMARK Flexibility Score: inf
ROOT
ATOM      1  C   UNL     1      38.396  34.179  44.685  1.00  0.00     0.180 A 
ATOM      2  C   UNL     1      38.537  34.883  45.893  1.00  0.00     0.208 A 
ATOM      3  C   UNL     1      37.691  34.568  46.968  1.00  0.00     0.238 A 
ATOM      4  O   UNL     1      37.859  35.166  48.064  1.00  0.00    -0.285 OA
ATOM      5  C   UNL     1      36.704  33.566  46.817  1.00  0.00     0.111 A 
ATOM      6  C   UNL     1      35.766  33.194  47.827  1.00  0.00     0.134 A 
ATOM      7  C   UNL     1      34.919  32.099  47.613  1.00  0.00     0.093 A 
ATOM      8  C   UNL     1      34.931  31.405  46.401  1.00  0.00     0.123 A 
ATOM      9  C   UNL     1      35.802  31.798  45.388  1.00  0.00     0.094 A 
ATOM     10  C   UNL     1      36.684  32.864  45.585  1.00  0.00     0.146 A 
ATOM     11  O   UNL     1      37.504  33.199  44.596  1.00  0.00    -0.452 OA
ENDROOT
BRANCH   1  12
ATOM     12  C   UNL     1      39.235  34.470  43.500  1.00  0.00     0.025 A 
ATOM     13  C   UNL     1      39.924  35.688  43.374  1.00  0.00     0.016 A 
ATOM     14  C   UNL     1      40.691  35.952  42.235  1.00  0.00     0.051 A 
ATOM     15  C   UNL     1      40.770  35.013  41.202  1.00  0.00     0.157 A 
ATOM     16  C   UNL     1      39.299  33.538  42.452  1.00  0.00     0.062 A 
ATOM     17  C   UNL     1      40.067  33.801  41.308  1.00  0.00     0.158 A 
BRANCH  15  18
ATOM     18  O   UNL     1      41.544  35.303  40.079  1.00  0.00    -0.504 OA
ATOM     19  H   UNL     1      42.064  36.167  39.994  1.00  0.00     0.293 HD
ENDBRANCH  15  18
BRANCH  17  20
ATOM     20  O   UNL     1      40.135  32.862  40.279  1.00  0.00    -0.504 OA
ATOM     21  H   UNL     1      39.583  32.958  39.436  1.00  0.00     0.293 HD
ENDBRANCH  17  20
ENDBRANCH   1  12
BRANCH   2  22
ATOM     22  O   UNL     1      39.534  35.854  46.028  1.00  0.00    -0.502 OA
ATOM     23  H   UNL     1      40.439  35.653  46.434  1.00  0.00     0.293 HD
ENDBRANCH   2  22
BRANCH   6  24
ATOM     24  O   UNL     1      35.608  33.878  49.035  1.00  0.00    -0.507 OA
ATOM     25  H   UNL     1      34.733  34.245  49.379  1.00  0.00     0.293 HD
ENDBRANCH   6  24
BRANCH   8  26
ATOM     26  O   UNL     1      34.075  30.326  46.190  1.00  0.00    -0.508 OA
ATOM     27  H   UNL     1      33.732  29.764  46.961  1.00  0.00     0.293 HD
ENDBRANCH   8  26
TORSDOF 6
ENDMDL
MODEL 8
REMARK VINA RESULT:    -6.775      2.624      4.288
REMARK INTER + INTRA:          -8.394
REMARK INTER:                  -8.300
REMARK INTRA:                  -0.094
REMARK UNBOUND:                -0.232
REMARK SMILES O=c1c(O)c(-c2ccc(O)c(O)c2)oc2cc(O)cc(O)c12
REMARK SMILES IDX 5 1 3 2 2 3 1 4 22 5 20 6 19 7 17 8 16 9 15 10 14 11 6 12
REMARK SMILES IDX 7 13 8 14 9 15 13 16 11 17 10 18 12 20 4 22 21 24 18 26
REMARK H PARENT 10 19 12 21 4 23 21 25 18 27
REMARK Flexibility Score: inf
ROOT
ATOM      1  C   UNL     1      34.396  31.363  35.656  1.00  0.00     0.180 A 
ATOM      2  C   UNL     1      34.973  30.201  35.115  1.00  0.00     0.208 A 
ATOM      3  C   UNL     1      36.292  29.869  35.463  1.00  0.00     0.238 A 
ATOM      4  O   UNL     1      36.784  28.799  35.018  1.00  0.00    -0.285 OA
ATOM      5  C   UNL     1      37.024  30.712  36.334  1.00  0.00     0.111 A 
ATOM      6  C   UNL     1      38.380  30.494  36.722  1.00  0.00     0.134 A 
ATOM      7  C   UNL     1      38.962  31.321  37.691  1.00  0.00     0.093 A 
ATOM      8  C   UNL     1      38.258  32.397  38.237  1.00  0.00     0.123 A 
ATOM      9  C   UNL     1      36.953  32.652  37.821  1.00  0.00     0.094 A 
ATOM     10  C   UNL     1      36.333  31.823  36.883  1.00  0.00     0.146 A 
ATOM     11  O   UNL     1      35.086  32.098  36.522  1.00  0.00    -0.452 OA
ENDROOT
BRANCH   1  12
ATOM     12  C   UNL     1      33.020  31.791  35.317  1.00  0.00     0.025 A 
ATOM     13  C   UNL     1      31.913  30.961  35.570  1.00  0.00     0.016 A 
ATOM     14  C   UNL     1      30.625  31.376  35.220  1.00  0.00     0.051 A 
ATOM     15  C   UNL     1      30.424  32.614  34.602  1.00  0.00     0.157 A 
ATOM     16  C   UNL     1      32.816  33.024  34.678  1.00  0.00     0.062 A 
ATOM     17  C   UNL     1      31.525  33.442  34.325  1.00  0.00     0.158 A 
BRANCH  15  18
ATOM     18  O   UNL     1      29.127  33.001  34.266  1.00  0.00    -0.504 OA
ATOM     19  H   UNL     1      28.528  33.496  34.915  1.00  0.00     0.293 HD
ENDBRANCH  15  18
BRANCH  17  20
ATOM     20  O   UNL     1      31.333  34.675  33.703  1.00  0.00    -0.504 OA
ATOM     21  H   UNL     1      32.112  35.275  33.462  1.00  0.00     0.293 HD
ENDBRANCH  17  20
ENDBRANCH   1  12
BRANCH   2  22
ATOM     22  O   UNL     1      34.226  29.371  34.274  1.00  0.00    -0.502 OA
ATOM     23  H   UNL     1      33.679  29.729  33.501  1.00  0.00     0.293 HD
ENDBRANCH   2  22
BRANCH   6  24
ATOM     24  O   UNL     1      39.201  29.507  36.170  1.00  0.00    -0.507 OA
ATOM     25  H   UNL     1      39.888  29.667  35.449  1.00  0.00     0.293 HD
ENDBRANCH   6  24
BRANCH   8  26
ATOM     26  O   UNL     1      38.849  33.224  39.190  1.00  0.00    -0.508 OA
ATOM     27  H   UNL     1      38.960  34.219  39.032  1.00  0.00     0.293 HD
ENDBRANCH   8  26
TORSDOF 6
ENDMDL
MODEL 9
REMARK VINA RESULT:    -6.744      9.968     12.351
REMARK INTER + INTRA:          -8.357
REMARK INTER:                  -8.259
REMARK INTRA:                  -0.097
REMARK UNBOUND:                -0.232
REMARK SMILES O=c1c(O)c(-c2ccc(O)c(O)c2)oc2cc(O)cc(O)c12
REMARK SMILES IDX 5 1 3 2 2 3 1 4 22 5 20 6 19 7 17 8 16 9 15 10 14 11 6 12
REMARK SMILES IDX 7 13 8 14 9 15 13 16 11 17 10 18 12 20 4 22 21 24 18 26
REMARK H PARENT 10 19 12 21 4 23 21 25 18 27
REMARK Flexibility Score: inf
ROOT
ATOM      1  C   UNL     1      37.717  33.817  44.344  1.00  0.00     0.180 A 
ATOM      2  C   UNL     1      38.161  34.950  45.047  1.00  0.00     0.208 A 
ATOM      3  C   UNL     1      37.748  35.134  46.376  1.00  0.00     0.238 A 
ATOM      4  O   UNL     1      38.193  36.123  47.016  1.00  0.00    -0.285 OA
ATOM      5  C   UNL     1      36.883  34.191  46.981  1.00  0.00     0.111 A 
ATOM      6  C   UNL     1      36.369  34.298  48.308  1.00  0.00     0.134 A 
ATOM      7  C   UNL     1      35.626  33.240  48.849  1.00  0.00     0.093 A 
ATOM      8  C   UNL     1      35.325  32.109  48.087  1.00  0.00     0.123 A 
ATOM      9  C   UNL     1      35.772  32.022  46.771  1.00  0.00     0.094 A 
ATOM     10  C   UNL     1      36.546  33.045  46.216  1.00  0.00     0.146 A 
ATOM     11  O   UNL     1      36.960  32.916  44.961  1.00  0.00    -0.452 OA
ENDROOT
BRANCH   1  12
ATOM     12  C   UNL     1      38.091  33.567  42.933  1.00  0.00     0.025 A 
ATOM     13  C   UNL     1      38.816  32.422  42.561  1.00  0.00     0.016 A 
ATOM     14  C   UNL     1      39.178  32.219  41.226  1.00  0.00     0.051 A 
ATOM     15  C   UNL     1      38.835  33.158  40.249  1.00  0.00     0.157 A 
ATOM     16  C   UNL     1      37.767  34.518  41.953  1.00  0.00     0.062 A 
ATOM     17  C   UNL     1      38.129  34.316  40.614  1.00  0.00     0.158 A 
BRANCH  15  18
ATOM     18  O   UNL     1      39.209  32.927  38.925  1.00  0.00    -0.504 OA
ATOM     19  H   UNL     1      38.932  32.091  38.427  1.00  0.00     0.293 HD
ENDBRANCH  15  18
BRANCH  17  20
ATOM     20  O   UNL     1      37.790  35.261  39.646  1.00  0.00    -0.504 OA
ATOM     21  H   UNL     1      37.692  35.010  38.670  1.00  0.00     0.293 HD
ENDBRANCH  17  20
ENDBRANCH   1  12
BRANCH   2  22
ATOM     22  O   UNL     1      39.033  35.858  44.438  1.00  0.00    -0.502 OA
ATOM     23  H   UNL     1      39.829  35.562  43.888  1.00  0.00     0.293 HD
ENDBRANCH   2  22
BRANCH   6  24
ATOM     24  O   UNL     1      36.534  35.423  49.121  1.00  0.00    -0.507 OA
ATOM     25  H   UNL     1      36.689  36.360  48.781  1.00  0.00     0.293 HD
ENDBRANCH   6  24
BRANCH   8  26
ATOM     26  O   UNL     1      34.573  31.068  48.627  1.00  0.00    -0.508 OA
ATOM     27  H   UNL     1      35.011  30.221  48.970  1.00  0.00     0.293 HD
ENDBRANCH   8  26
TORSDOF 6
ENDMDL
