MODEL 1
REMARK VINA RESULT:    -4.491      0.000      0.000
REMARK INTER + INTRA:          -5.573
REMARK INTER:                  -5.279
REMARK INTRA:                  -0.294
REMARK UNBOUND:                -0.294
REMARK SMILES O=c1cc(-c2ccc(O)c(O)c2)oc2cc(O)cc(O)c12
REMARK SMILES IDX 4 1 3 2 2 3 1 4 21 5 19 6 18 7 16 8 15 9 14 10 13 11 5 12
REMARK SMILES IDX 6 13 7 14 8 15 12 16 10 17 9 18 11 20 20 22 17 24
REMARK H PARENT 9 19 11 21 20 23 17 25
REMARK Flexibility Score: inf
ROOT
ATOM      1  C   UNL     1       1.197  32.686   6.614  1.00  0.00     0.138 A 
ATOM      2  C   UNL     1       1.892  31.481   6.797  1.00  0.00     0.100 A 
ATOM      3  C   UNL     1       2.457  31.192   8.040  1.00  0.00     0.197 A 
ATOM      4  O   UNL     1       3.126  30.134   8.156  1.00  0.00    -0.289 OA
ATOM      5  C   UNL     1       2.297  32.101   9.113  1.00  0.00     0.107 A 
ATOM      6  C   UNL     1       2.794  31.893  10.434  1.00  0.00     0.134 A 
ATOM      7  C   UNL     1       2.677  32.916  11.385  1.00  0.00     0.093 A 
ATOM      8  C   UNL     1       2.027  34.114  11.078  1.00  0.00     0.123 A 
ATOM      9  C   UNL     1       1.491  34.305   9.807  1.00  0.00     0.094 A 
ATOM     10  C   UNL     1       1.622  33.318   8.827  1.00  0.00     0.146 A 
ATOM     11  O   UNL     1       1.109  33.546   7.623  1.00  0.00    -0.456 OA
ENDROOT
BRANCH   1  12
ATOM     12  C   UNL     1       0.576  33.042   5.313  1.00  0.00     0.021 A 
ATOM     13  C   UNL     1      -0.154  34.234   5.144  1.00  0.00     0.016 A 
ATOM     14  C   UNL     1      -0.720  34.548   3.905  1.00  0.00     0.051 A 
ATOM     15  C   UNL     1      -0.561  33.684   2.815  1.00  0.00     0.157 A 
ATOM     16  C   UNL     1       0.742  32.186   4.209  1.00  0.00     0.062 A 
ATOM     17  C   UNL     1       0.173  32.501   2.967  1.00  0.00     0.158 A 
BRANCH  15  18
ATOM     18  O   UNL     1      -1.124  33.994   1.579  1.00  0.00    -0.504 OA
ATOM     19  H   UNL     1      -1.370  34.945   1.332  1.00  0.00     0.293 HD
ENDBRANCH  15  18
BRANCH  17  20
ATOM     20  O   UNL     1       0.333  31.643   1.880  1.00  0.00    -0.504 OA
ATOM     21  H   UNL     1      -0.463  31.274   1.374  1.00  0.00     0.293 HD
ENDBRANCH  17  20
ENDBRANCH   1  12
BRANCH   6  22
ATOM     22  O   UNL     1       3.385  30.703  10.869  1.00  0.00    -0.507 OA
ATOM     23  H   UNL     1       2.923  29.806  10.895  1.00  0.00     0.293 HD
ENDBRANCH   6  22
BRANCH   8  24
ATOM     24  O   UNL     1       1.902  35.119  12.035  1.00  0.00    -0.508 OA
ATOM     25  H   UNL     1       1.011  35.328  12.471  1.00  0.00     0.293 HD
ENDBRANCH   8  24
TORSDOF 5
ENDMDL
