MODEL 1
REMARK VINA RESULT:    -5.613      0.000      0.000
REMARK INTER + INTRA:         -11.692
REMARK INTER:                  -9.551
REMARK INTRA:                  -2.141
REMARK UNBOUND:                -2.141
REMARK SMILES CCCCCCCCCCCCCC(=O)[O-]
REMARK SMILES IDX 8 1 9 2 10 3 11 4 12 5 13 6 14 7 15 8 16 9 7 10 6 11 5 12
REMARK SMILES IDX 4 13 3 14 2 15 1 16
REMARK H PARENT
REMARK Flexibility Score: inf
ROOT
ATOM      1  C   UNL     1       9.879  70.878  -4.057  1.00  0.00     0.000 C 
ENDROOT
BRANCH   1   2
ATOM      2  C   UNL     1      10.882  71.358  -2.994  1.00  0.00     0.000 C 
BRANCH   2   3
ATOM      3  C   UNL     1      10.210  72.179  -1.879  1.00  0.00     0.000 C 
BRANCH   3   4
ATOM      4  C   UNL     1      10.850  73.565  -1.691  1.00  0.00     0.000 C 
BRANCH   4   5
ATOM      5  C   UNL     1      10.012  74.719  -2.281  1.00  0.00     0.006 C 
BRANCH   5   6
ATOM      6  C   UNL     1       8.518  74.375  -2.348  1.00  0.00     0.053 C 
BRANCH   6   7
ATOM      7  C   UNL     1       7.793  74.960  -1.177  1.00  0.00     0.041 C 
ATOM      8  O   UNL     1       8.380  75.764  -0.405  1.00  0.00    -0.550 OA
ATOM      9  O   UNL     1       6.455  74.654  -0.966  1.00  0.00    -0.550 OA
ENDBRANCH   6   7
ENDBRANCH   5   6
ENDBRANCH   4   5
ENDBRANCH   3   4
ENDBRANCH   2   3
ENDBRANCH   1   2
BRANCH   1  10
ATOM     10  C   UNL     1      10.220  71.398  -5.465  1.00  0.00     0.000 C 
BRANCH  10  11
ATOM     11  C   UNL     1       9.547  72.745  -5.777  1.00  0.00    -0.000 C 
BRANCH  11  12
ATOM     12  C   UNL     1      10.561  73.892  -5.931  1.00  0.00    -0.000 C 
BRANCH  12  13
ATOM     13  C   UNL     1      12.016  73.395  -5.937  1.00  0.00    -0.000 C 
BRANCH  13  14
ATOM     14  C   UNL     1      12.838  73.945  -4.758  1.00  0.00    -0.000 C 
BRANCH  14  15
ATOM     15  C   UNL     1      13.977  73.003  -4.344  1.00  0.00    -0.003 C 
ATOM     16  C   UNL     1      14.192  72.965  -2.831  1.00  0.00     0.004 C 
ENDBRANCH  14  15
ENDBRANCH  13  14
ENDBRANCH  12  13
ENDBRANCH  11  12
ENDBRANCH  10  11
ENDBRANCH   1  10
TORSDOF 12
ENDMDL
MODEL 2
REMARK VINA RESULT:    -5.524      1.231      1.546
REMARK INTER + INTRA:         -11.541
REMARK INTER:                  -9.515
REMARK INTRA:                  -2.026
REMARK UNBOUND:                -2.141
REMARK SMILES CCCCCCCCCCCCCC(=O)[O-]
REMARK SMILES IDX 8 1 9 2 10 3 11 4 12 5 13 6 14 7 15 8 16 9 7 10 6 11 5 12
REMARK SMILES IDX 4 13 3 14 2 15 1 16
REMARK H PARENT
REMARK Flexibility Score: inf
ROOT
ATOM      1  C   UNL     1       9.865  71.052  -4.201  1.00  0.00     0.000 C 
ENDROOT
BRANCH   1   2
ATOM      2  C   UNL     1      10.821  71.101  -2.997  1.00  0.00     0.000 C 
BRANCH   2   3
ATOM      3  C   UNL     1      10.300  72.006  -1.867  1.00  0.00     0.000 C 
BRANCH   3   4
ATOM      4  C   UNL     1      10.530  73.501  -2.148  1.00  0.00     0.000 C 
BRANCH   4   5
ATOM      5  C   UNL     1       9.232  74.282  -2.446  1.00  0.00     0.006 C 
BRANCH   5   6
ATOM      6  C   UNL     1       9.505  75.600  -3.183  1.00  0.00     0.053 C 
BRANCH   6   7
ATOM      7  C   UNL     1       9.609  76.732  -2.211  1.00  0.00     0.041 C 
ATOM      8  O   UNL     1      10.252  77.771  -2.514  1.00  0.00    -0.550 OA
ATOM      9  O   UNL     1       8.956  76.659  -0.987  1.00  0.00    -0.550 OA
ENDBRANCH   6   7
ENDBRANCH   5   6
ENDBRANCH   4   5
ENDBRANCH   3   4
ENDBRANCH   2   3
ENDBRANCH   1   2
BRANCH   1  10
ATOM     10  C   UNL     1      10.549  71.476  -5.513  1.00  0.00     0.000 C 
BRANCH  10  11
ATOM     11  C   UNL     1      10.211  72.920  -5.917  1.00  0.00    -0.000 C 
BRANCH  11  12
ATOM     12  C   UNL     1      11.443  73.842  -5.902  1.00  0.00    -0.000 C 
BRANCH  12  13
ATOM     13  C   UNL     1      12.723  73.109  -5.469  1.00  0.00    -0.000 C 
BRANCH  13  14
ATOM     14  C   UNL     1      13.515  73.878  -4.396  1.00  0.00    -0.000 C 
BRANCH  14  15
ATOM     15  C   UNL     1      14.545  72.994  -3.678  1.00  0.00    -0.003 C 
ATOM     16  C   UNL     1      14.126  72.641  -2.251  1.00  0.00     0.004 C 
ENDBRANCH  14  15
ENDBRANCH  13  14
ENDBRANCH  12  13
ENDBRANCH  11  12
ENDBRANCH  10  11
ENDBRANCH   1  10
TORSDOF 12
ENDMDL
MODEL 3
REMARK VINA RESULT:    -5.519      2.288      4.766
REMARK INTER + INTRA:         -11.532
REMARK INTER:                  -9.292
REMARK INTRA:                  -2.240
REMARK UNBOUND:                -2.141
REMARK SMILES CCCCCCCCCCCCCC(=O)[O-]
REMARK SMILES IDX 8 1 9 2 10 3 11 4 12 5 13 6 14 7 15 8 16 9 7 10 6 11 5 12
REMARK SMILES IDX 4 13 3 14 2 15 1 16
REMARK H PARENT
REMARK Flexibility Score: inf
ROOT
ATOM      1  C   UNL     1      10.498  71.480  -5.511  1.00  0.00     0.000 C 
ENDROOT
BRANCH   1   2
ATOM      2  C   UNL     1      10.329  72.968  -5.861  1.00  0.00     0.000 C 
BRANCH   2   3
ATOM      3  C   UNL     1      11.665  73.731  -5.851  1.00  0.00     0.000 C 
BRANCH   3   4
ATOM      4  C   UNL     1      12.881  72.801  -5.698  1.00  0.00     0.000 C 
BRANCH   4   5
ATOM      5  C   UNL     1      13.749  73.114  -4.460  1.00  0.00     0.006 C 
BRANCH   5   6
ATOM      6  C   UNL     1      13.098  74.158  -3.545  1.00  0.00     0.053 C 
BRANCH   6   7
ATOM      7  C   UNL     1      13.466  73.906  -2.117  1.00  0.00     0.041 C 
ATOM      8  O   UNL     1      14.095  72.862  -1.800  1.00  0.00    -0.550 OA
ATOM      9  O   UNL     1      13.159  74.848  -1.144  1.00  0.00    -0.550 OA
ENDBRANCH   6   7
ENDBRANCH   5   6
ENDBRANCH   4   5
ENDBRANCH   3   4
ENDBRANCH   2   3
ENDBRANCH   1   2
BRANCH   1  10
ATOM     10  C   UNL     1       9.863  71.118  -4.157  1.00  0.00     0.000 C 
BRANCH  10  11
ATOM     11  C   UNL     1      10.845  71.268  -2.984  1.00  0.00    -0.000 C 
BRANCH  11  12
ATOM     12  C   UNL     1      10.292  72.163  -1.860  1.00  0.00    -0.000 C 
BRANCH  12  13
ATOM     13  C   UNL     1       9.301  73.216  -2.379  1.00  0.00    -0.000 C 
BRANCH  13  14
ATOM     14  C   UNL     1       9.772  74.657  -2.114  1.00  0.00    -0.000 C 
BRANCH  14  15
ATOM     15  C   UNL     1       9.370  75.623  -3.239  1.00  0.00    -0.003 C 
ATOM     16  C   UNL     1       8.124  75.161  -3.996  1.00  0.00     0.004 C 
ENDBRANCH  14  15
ENDBRANCH  13  14
ENDBRANCH  12  13
ENDBRANCH  11  12
ENDBRANCH  10  11
ENDBRANCH   1  10
TORSDOF 12
ENDMDL
MODEL 4
REMARK VINA RESULT:    -5.515      1.265      1.711
REMARK INTER + INTRA:         -11.525
REMARK INTER:                  -9.664
REMARK INTRA:                  -1.861
REMARK UNBOUND:                -2.141
REMARK SMILES CCCCCCCCCCCCCC(=O)[O-]
REMARK SMILES IDX 8 1 9 2 10 3 11 4 12 5 13 6 14 7 15 8 16 9 7 10 6 11 5 12
REMARK SMILES IDX 4 13 3 14 2 15 1 16
REMARK H PARENT
REMARK Flexibility Score: inf
ROOT
ATOM      1  C   UNL     1      10.110  71.393  -5.525  1.00  0.00     0.000 C 
ENDROOT
BRANCH   1   2
ATOM      2  C   UNL     1       9.906  70.829  -4.109  1.00  0.00     0.000 C 
BRANCH   2   3
ATOM      3  C   UNL     1      10.828  71.493  -3.071  1.00  0.00     0.000 C 
BRANCH   3   4
ATOM      4  C   UNL     1      10.050  72.204  -1.952  1.00  0.00     0.000 C 
BRANCH   4   5
ATOM      5  C   UNL     1      10.168  73.743  -1.996  1.00  0.00     0.006 C 
BRANCH   5   6
ATOM      6  C   UNL     1       8.801  74.432  -1.901  1.00  0.00     0.053 C 
BRANCH   6   7
ATOM      7  C   UNL     1       8.568  75.299  -3.097  1.00  0.00     0.041 C 
ATOM      8  O   UNL     1       9.440  76.133  -3.456  1.00  0.00    -0.550 OA
ATOM      9  O   UNL     1       7.406  75.153  -3.845  1.00  0.00    -0.550 OA
ENDBRANCH   6   7
ENDBRANCH   5   6
ENDBRANCH   4   5
ENDBRANCH   3   4
ENDBRANCH   2   3
ENDBRANCH   1   2
BRANCH   1  10
ATOM     10  C   UNL     1       9.460  72.776  -5.707  1.00  0.00     0.000 C 
BRANCH  10  11
ATOM     11  C   UNL     1      10.489  73.879  -6.003  1.00  0.00    -0.000 C 
BRANCH  11  12
ATOM     12  C   UNL     1      11.940  73.367  -5.944  1.00  0.00    -0.000 C 
BRANCH  12  13
ATOM     13  C   UNL     1      12.902  74.395  -5.328  1.00  0.00    -0.000 C 
BRANCH  13  14
ATOM     14  C   UNL     1      13.187  74.127  -3.839  1.00  0.00    -0.000 C 
BRANCH  14  15
ATOM     15  C   UNL     1      14.240  73.028  -3.630  1.00  0.00    -0.003 C 
ATOM     16  C   UNL     1      14.324  72.561  -2.177  1.00  0.00     0.004 C 
ENDBRANCH  14  15
ENDBRANCH  13  14
ENDBRANCH  12  13
ENDBRANCH  11  12
ENDBRANCH  10  11
ENDBRANCH   1  10
TORSDOF 12
ENDMDL
MODEL 5
REMARK VINA RESULT:    -5.440      2.326      4.867
REMARK INTER + INTRA:         -11.398
REMARK INTER:                  -9.521
REMARK INTRA:                  -1.877
REMARK UNBOUND:                -2.141
REMARK SMILES CCCCCCCCCCCCCC(=O)[O-]
REMARK SMILES IDX 8 1 9 2 10 3 11 4 12 5 13 6 14 7 15 8 16 9 7 10 6 11 5 12
REMARK SMILES IDX 4 13 3 14 2 15 1 16
REMARK H PARENT
REMARK Flexibility Score: inf
ROOT
ATOM      1  C   UNL     1      10.649  71.513  -5.475  1.00  0.00     0.000 C 
ENDROOT
BRANCH   1   2
ATOM      2  C   UNL     1      10.383  72.978  -5.861  1.00  0.00     0.000 C 
BRANCH   2   3
ATOM      3  C   UNL     1      11.672  73.817  -5.913  1.00  0.00     0.000 C 
BRANCH   3   4
ATOM      4  C   UNL     1      12.904  73.047  -5.409  1.00  0.00     0.000 C 
BRANCH   4   5
ATOM      5  C   UNL     1      13.531  73.648  -4.133  1.00  0.00     0.006 C 
BRANCH   5   6
ATOM      6  C   UNL     1      14.137  75.035  -4.383  1.00  0.00     0.053 C 
BRANCH   6   7
ATOM      7  C   UNL     1      13.493  76.055  -3.498  1.00  0.00     0.041 C 
ATOM      8  O   UNL     1      13.185  77.187  -3.955  1.00  0.00    -0.550 OA
ATOM      9  O   UNL     1      13.189  75.738  -2.180  1.00  0.00    -0.550 OA
ENDBRANCH   6   7
ENDBRANCH   5   6
ENDBRANCH   4   5
ENDBRANCH   3   4
ENDBRANCH   2   3
ENDBRANCH   1   2
BRANCH   1  10
ATOM     10  C   UNL     1       9.885  71.090  -4.208  1.00  0.00     0.000 C 
BRANCH  10  11
ATOM     11  C   UNL     1      10.769  71.111  -2.950  1.00  0.00    -0.000 C 
BRANCH  11  12
ATOM     12  C   UNL     1      10.200  72.015  -1.842  1.00  0.00    -0.000 C 
BRANCH  12  13
ATOM     13  C   UNL     1      10.375  73.510  -2.153  1.00  0.00    -0.000 C 
BRANCH  13  14
ATOM     14  C   UNL     1       9.042  74.212  -2.469  1.00  0.00    -0.000 C 
BRANCH  14  15
ATOM     15  C   UNL     1       9.228  75.462  -3.341  1.00  0.00    -0.003 C 
ATOM     16  C   UNL     1       8.079  75.670  -4.328  1.00  0.00     0.004 C 
ENDBRANCH  14  15
ENDBRANCH  13  14
ENDBRANCH  12  13
ENDBRANCH  11  12
ENDBRANCH  10  11
ENDBRANCH   1  10
TORSDOF 12
ENDMDL
MODEL 6
REMARK VINA RESULT:    -5.372      1.351      2.985
REMARK INTER + INTRA:         -11.281
REMARK INTER:                  -9.241
REMARK INTRA:                  -2.040
REMARK UNBOUND:                -2.141
REMARK SMILES CCCCCCCCCCCCCC(=O)[O-]
REMARK SMILES IDX 8 1 9 2 10 3 11 4 12 5 13 6 14 7 15 8 16 9 7 10 6 11 5 12
REMARK SMILES IDX 4 13 3 14 2 15 1 16
REMARK H PARENT
REMARK Flexibility Score: inf
ROOT
ATOM      1  C   UNL     1       9.907  71.192  -5.067  1.00  0.00     0.000 C 
ENDROOT
BRANCH   1   2
ATOM      2  C   UNL     1      11.003  72.063  -5.706  1.00  0.00     0.000 C 
BRANCH   2   3
ATOM      3  C   UNL     1      10.547  73.516  -5.927  1.00  0.00     0.000 C 
BRANCH   3   4
ATOM      4  C   UNL     1       9.016  73.662  -5.956  1.00  0.00     0.000 C 
BRANCH   4   5
ATOM      5  C   UNL     1       8.465  74.630  -4.887  1.00  0.00     0.006 C 
BRANCH   5   6
ATOM      6  C   UNL     1       9.549  75.078  -3.898  1.00  0.00     0.053 C 
BRANCH   6   7
ATOM      7  C   UNL     1       8.949  75.360  -2.557  1.00  0.00     0.041 C 
ATOM      8  O   UNL     1       8.248  74.488  -1.979  1.00  0.00    -0.550 OA
ATOM      9  O   UNL     1       9.204  76.569  -1.922  1.00  0.00    -0.550 OA
ENDBRANCH   6   7
ENDBRANCH   5   6
ENDBRANCH   4   5
ENDBRANCH   3   4
ENDBRANCH   2   3
ENDBRANCH   1   2
BRANCH   1  10
ATOM     10  C   UNL     1      10.069  71.068  -3.542  1.00  0.00     0.000 C 
BRANCH  10  11
ATOM     11  C   UNL     1      11.475  71.464  -3.062  1.00  0.00    -0.000 C 
BRANCH  11  12
ATOM     12  C   UNL     1      11.454  72.661  -2.094  1.00  0.00    -0.000 C 
BRANCH  12  13
ATOM     13  C   UNL     1      12.675  73.579  -2.265  1.00  0.00    -0.000 C 
BRANCH  13  14
ATOM     14  C   UNL     1      13.704  73.019  -3.264  1.00  0.00    -0.000 C 
BRANCH  14  15
ATOM     15  C   UNL     1      14.105  74.047  -4.332  1.00  0.00    -0.003 C 
ATOM     16  C   UNL     1      13.316  75.352  -4.222  1.00  0.00     0.004 C 
ENDBRANCH  14  15
ENDBRANCH  13  14
ENDBRANCH  12  13
ENDBRANCH  11  12
ENDBRANCH  10  11
ENDBRANCH   1  10
TORSDOF 12
ENDMDL
MODEL 7
REMARK VINA RESULT:    -5.333      1.463      3.221
REMARK INTER + INTRA:         -11.216
REMARK INTER:                  -9.293
REMARK INTRA:                  -1.923
REMARK UNBOUND:                -2.141
REMARK SMILES CCCCCCCCCCCCCC(=O)[O-]
REMARK SMILES IDX 8 1 9 2 10 3 11 4 12 5 13 6 14 7 15 8 16 9 7 10 6 11 5 12
REMARK SMILES IDX 4 13 3 14 2 15 1 16
REMARK H PARENT
REMARK Flexibility Score: inf
ROOT
ATOM      1  C   UNL     1      13.443  73.386  -4.368  1.00  0.00     0.000 C 
ENDROOT
BRANCH   1   2
ATOM      2  C   UNL     1      13.756  74.892  -4.323  1.00  0.00     0.000 C 
BRANCH   2   3
ATOM      3  C   UNL     1      13.292  75.552  -3.014  1.00  0.00     0.000 C 
BRANCH   3   4
ATOM      4  C   UNL     1      12.618  74.559  -2.052  1.00  0.00     0.000 C 
BRANCH   4   5
ATOM      5  C   UNL     1      11.149  74.908  -1.729  1.00  0.00     0.006 C 
BRANCH   5   6
ATOM      6  C   UNL     1      10.307  75.098  -2.997  1.00  0.00     0.053 C 
BRANCH   6   7
ATOM      7  C   UNL     1       8.896  74.663  -2.759  1.00  0.00     0.041 C 
ATOM      8  O   UNL     1       8.629  73.859  -1.827  1.00  0.00    -0.550 OA
ATOM      9  O   UNL     1       7.868  75.184  -3.535  1.00  0.00    -0.550 OA
ENDBRANCH   6   7
ENDBRANCH   5   6
ENDBRANCH   4   5
ENDBRANCH   3   4
ENDBRANCH   2   3
ENDBRANCH   1   2
BRANCH   1  10
ATOM     10  C   UNL     1      12.846  72.949  -5.717  1.00  0.00     0.000 C 
BRANCH  10  11
ATOM     11  C   UNL     1      11.665  73.829  -6.155  1.00  0.00    -0.000 C 
BRANCH  11  12
ATOM     12  C   UNL     1      10.303  73.152  -5.920  1.00  0.00    -0.000 C 
BRANCH  12  13
ATOM     13  C   UNL     1      10.435  71.648  -5.630  1.00  0.00    -0.000 C 
BRANCH  13  14
ATOM     14  C   UNL     1       9.817  71.246  -4.279  1.00  0.00    -0.000 C 
BRANCH  14  15
ATOM     15  C   UNL     1      10.836  71.287  -3.130  1.00  0.00    -0.003 C 
ATOM     16  C   UNL     1      10.342  70.562  -1.878  1.00  0.00     0.004 C 
ENDBRANCH  14  15
ENDBRANCH  13  14
ENDBRANCH  12  13
ENDBRANCH  11  12
ENDBRANCH  10  11
ENDBRANCH   1  10
TORSDOF 12
ENDMDL
MODEL 8
REMARK VINA RESULT:    -5.333      1.120      2.636
REMARK INTER + INTRA:         -11.216
REMARK INTER:                  -9.396
REMARK INTRA:                  -1.820
REMARK UNBOUND:                -2.141
REMARK SMILES CCCCCCCCCCCCCC(=O)[O-]
REMARK SMILES IDX 8 1 9 2 10 3 11 4 12 5 13 6 14 7 15 8 16 9 7 10 6 11 5 12
REMARK SMILES IDX 4 13 3 14 2 15 1 16
REMARK H PARENT
REMARK Flexibility Score: inf
ROOT
ATOM      1  C   UNL     1       9.482  72.075  -5.736  1.00  0.00     0.000 C 
ENDROOT
BRANCH   1   2
ATOM      2  C   UNL     1       9.640  73.578  -6.024  1.00  0.00     0.000 C 
BRANCH   2   3
ATOM      3  C   UNL     1       8.732  74.447  -5.138  1.00  0.00     0.000 C 
BRANCH   3   4
ATOM      4  C   UNL     1       9.411  74.870  -3.824  1.00  0.00     0.000 C 
BRANCH   4   5
ATOM      5  C   UNL     1       8.656  74.408  -2.559  1.00  0.00     0.006 C 
BRANCH   5   6
ATOM      6  C   UNL     1       9.361  74.848  -1.270  1.00  0.00     0.053 C 
BRANCH   6   7
ATOM      7  C   UNL     1       8.589  75.937  -0.597  1.00  0.00     0.041 C 
ATOM      8  O   UNL     1       8.972  77.134  -0.684  1.00  0.00    -0.550 OA
ATOM      9  O   UNL     1       7.418  75.638   0.088  1.00  0.00    -0.550 OA
ENDBRANCH   6   7
ENDBRANCH   5   6
ENDBRANCH   4   5
ENDBRANCH   3   4
ENDBRANCH   2   3
ENDBRANCH   1   2
BRANCH   1  10
ATOM     10  C   UNL     1      10.637  71.513  -4.888  1.00  0.00     0.000 C 
BRANCH  10  11
ATOM     11  C   UNL     1      10.191  71.109  -3.474  1.00  0.00    -0.000 C 
BRANCH  11  12
ATOM     12  C   UNL     1      11.307  71.285  -2.428  1.00  0.00    -0.000 C 
BRANCH  12  13
ATOM     13  C   UNL     1      11.969  72.670  -2.501  1.00  0.00    -0.000 C 
BRANCH  13  14
ATOM     14  C   UNL     1      13.502  72.592  -2.609  1.00  0.00    -0.000 C 
BRANCH  14  15
ATOM     15  C   UNL     1      14.016  73.001  -3.997  1.00  0.00    -0.003 C 
ATOM     16  C   UNL     1      13.176  74.109  -4.634  1.00  0.00     0.004 C 
ENDBRANCH  14  15
ENDBRANCH  13  14
ENDBRANCH  12  13
ENDBRANCH  11  12
ENDBRANCH  10  11
ENDBRANCH   1  10
TORSDOF 12
ENDMDL
MODEL 9
REMARK VINA RESULT:    -5.262      1.995      2.742
REMARK INTER + INTRA:         -11.094
REMARK INTER:                  -9.069
REMARK INTRA:                  -2.025
REMARK UNBOUND:                -2.141
REMARK SMILES CCCCCCCCCCCCCC(=O)[O-]
REMARK SMILES IDX 8 1 9 2 10 3 11 4 12 5 13 6 14 7 15 8 16 9 7 10 6 11 5 12
REMARK SMILES IDX 4 13 3 14 2 15 1 16
REMARK H PARENT
REMARK Flexibility Score: inf
ROOT
ATOM      1  C   UNL     1      10.542  71.038  -2.992  1.00  0.00     0.000 C 
ENDROOT
BRANCH   1   2
ATOM      2  C   UNL     1      10.316  72.075  -1.878  1.00  0.00     0.000 C 
BRANCH   2   3
ATOM      3  C   UNL     1       9.533  73.305  -2.368  1.00  0.00     0.000 C 
BRANCH   3   4
ATOM      4  C   UNL     1      10.286  74.624  -2.127  1.00  0.00     0.000 C 
BRANCH   4   5
ATOM      5  C   UNL     1      10.838  74.771  -0.693  1.00  0.00     0.006 C 
BRANCH   5   6
ATOM      6  C   UNL     1      12.194  75.486  -0.665  1.00  0.00     0.053 C 
BRANCH   6   7
ATOM      7  C   UNL     1      12.025  76.914  -0.254  1.00  0.00     0.041 C 
ATOM      8  O   UNL     1      11.190  77.223   0.636  1.00  0.00    -0.550 OA
ATOM      9  O   UNL     1      12.824  77.900  -0.819  1.00  0.00    -0.550 OA
ENDBRANCH   6   7
ENDBRANCH   5   6
ENDBRANCH   4   5
ENDBRANCH   3   4
ENDBRANCH   2   3
ENDBRANCH   1   2
BRANCH   1  10
ATOM     10  C   UNL     1       9.743  71.361  -4.267  1.00  0.00     0.000 C 
BRANCH  10  11
ATOM     11  C   UNL     1      10.649  71.635  -5.479  1.00  0.00    -0.000 C 
BRANCH  11  12
ATOM     12  C   UNL     1      10.671  73.122  -5.877  1.00  0.00    -0.000 C 
BRANCH  12  13
ATOM     13  C   UNL     1      12.095  73.698  -5.921  1.00  0.00    -0.000 C 
BRANCH  13  14
ATOM     14  C   UNL     1      13.083  72.913  -5.040  1.00  0.00    -0.000 C 
BRANCH  14  15
ATOM     15  C   UNL     1      13.400  73.636  -3.723  1.00  0.00    -0.003 C 
ATOM     16  C   UNL     1      13.905  72.687  -2.635  1.00  0.00     0.004 C 
ENDBRANCH  14  15
ENDBRANCH  13  14
ENDBRANCH  12  13
ENDBRANCH  11  12
ENDBRANCH  10  11
ENDBRANCH   1  10
TORSDOF 12
ENDMDL
