MODEL 1
REMARK VINA RESULT:    -5.817      0.000      0.000
REMARK INTER + INTRA:          -6.536
REMARK INTER:                  -7.007
REMARK INTRA:                   0.471
REMARK UNBOUND:                 0.471
REMARK SMILES O=c1c(O)c(-c2ccc(O)cc2O)oc2cc(O)cc(O)c12
REMARK SMILES IDX 5 1 3 2 2 3 1 4 22 5 20 6 19 7 17 8 16 9 15 10 14 11 6 12
REMARK SMILES IDX 8 13 7 14 9 15 11 16 12 17 10 18 13 20 4 22 21 24 18 26
REMARK H PARENT 10 19 13 21 4 23 21 25 18 27
REMARK Flexibility Score: inf
ROOT
ATOM      1  C   UNL     1      13.278  15.404  15.180  1.00  0.00     0.184 A 
ATOM      2  C   UNL     1      13.606  16.384  16.130  1.00  0.00     0.208 A 
ATOM      3  C   UNL     1      12.659  16.730  17.105  1.00  0.00     0.238 A 
ATOM      4  O   UNL     1      12.978  17.569  17.988  1.00  0.00    -0.285 OA
ATOM      5  C   UNL     1      11.389  16.104  17.107  1.00  0.00     0.111 A 
ATOM      6  C   UNL     1      10.337  16.405  18.023  1.00  0.00     0.134 A 
ATOM      7  C   UNL     1       9.169  15.633  18.013  1.00  0.00     0.093 A 
ATOM      8  C   UNL     1       8.988  14.613  17.080  1.00  0.00     0.123 A 
ATOM      9  C   UNL     1       9.985  14.348  16.141  1.00  0.00     0.094 A 
ATOM     10  C   UNL     1      11.177  15.078  16.148  1.00  0.00     0.146 A 
ATOM     11  O   UNL     1      12.105  14.787  15.244  1.00  0.00    -0.451 OA
ENDROOT
BRANCH   1  12
ATOM     12  C   UNL     1      14.224  15.005  14.117  1.00  0.00     0.063 A 
ATOM     13  C   UNL     1      16.505  14.956  13.278  1.00  0.00     0.047 A 
ATOM     14  C   UNL     1      15.583  15.324  14.261  1.00  0.00     0.020 A 
ATOM     15  C   UNL     1      16.081  14.253  12.144  1.00  0.00     0.119 A 
ATOM     16  C   UNL     1      14.733  13.911  12.003  1.00  0.00     0.093 A 
ATOM     17  C   UNL     1      13.801  14.271  12.988  1.00  0.00     0.130 A 
BRANCH  15  18
ATOM     18  O   UNL     1      16.991  13.885  11.155  1.00  0.00    -0.508 OA
ATOM     19  H   UNL     1      16.792  13.133  10.505  1.00  0.00     0.293 HD
ENDBRANCH  15  18
BRANCH  17  20
ATOM     20  O   UNL     1      12.468  13.881  12.858  1.00  0.00    -0.507 OA
ATOM     21  H   UNL     1      11.716  14.560  12.821  1.00  0.00     0.293 HD
ENDBRANCH  17  20
ENDBRANCH   1  12
BRANCH   2  22
ATOM     22  O   UNL     1      14.874  16.973  16.117  1.00  0.00    -0.502 OA
ATOM     23  H   UNL     1      15.726  16.426  16.095  1.00  0.00     0.293 HD
ENDBRANCH   2  22
BRANCH   6  24
ATOM     24  O   UNL     1      10.377  17.463  18.937  1.00  0.00    -0.507 OA
ATOM     25  H   UNL     1      10.073  18.405  18.740  1.00  0.00     0.293 HD
ENDBRANCH   6  24
BRANCH   8  26
ATOM     26  O   UNL     1       7.806  13.875  17.089  1.00  0.00    -0.508 OA
ATOM     27  H   UNL     1       7.793  12.900  17.365  1.00  0.00     0.293 HD
ENDBRANCH   8  26
TORSDOF 6
ENDMDL
MODEL 2
REMARK VINA RESULT:    -4.315      1.644      2.264
REMARK INTER + INTRA:          -4.727
REMARK INTER:                  -4.632
REMARK INTRA:                  -0.094
REMARK UNBOUND:                 0.471
REMARK SMILES O=c1c(O)c(-c2ccc(O)cc2O)oc2cc(O)cc(O)c12
REMARK SMILES IDX 5 1 3 2 2 3 1 4 22 5 20 6 19 7 17 8 16 9 15 10 14 11 6 12
REMARK SMILES IDX 8 13 7 14 9 15 11 16 12 17 10 18 13 20 4 22 21 24 18 26
REMARK H PARENT 10 19 13 21 4 23 21 25 18 27
REMARK Flexibility Score: inf
ROOT
ATOM      1  C   UNL     1      13.031  14.588  15.644  1.00  0.00     0.184 A 
ATOM      2  C   UNL     1      13.286  14.485  17.021  1.00  0.00     0.208 A 
ATOM      3  C   UNL     1      12.206  14.332  17.903  1.00  0.00     0.238 A 
ATOM      4  O   UNL     1      12.443  14.186  19.131  1.00  0.00    -0.285 OA
ATOM      5  C   UNL     1      10.883  14.299  17.398  1.00  0.00     0.111 A 
ATOM      6  C   UNL     1       9.710  14.187  18.203  1.00  0.00     0.134 A 
ATOM      7  C   UNL     1       8.462  14.035  17.588  1.00  0.00     0.093 A 
ATOM      8  C   UNL     1       8.335  14.055  16.199  1.00  0.00     0.123 A 
ATOM      9  C   UNL     1       9.469  14.223  15.403  1.00  0.00     0.094 A 
ATOM     10  C   UNL     1      10.733  14.342  15.986  1.00  0.00     0.146 A 
ATOM     11  O   UNL     1      11.787  14.489  15.192  1.00  0.00    -0.451 OA
ENDROOT
BRANCH   1  12
ATOM     12  C   UNL     1      14.122  14.768  14.664  1.00  0.00     0.063 A 
ATOM     13  C   UNL     1      15.234  14.021  12.634  1.00  0.00     0.047 A 
ATOM     14  C   UNL     1      14.219  13.877  13.583  1.00  0.00     0.020 A 
ATOM     15  C   UNL     1      16.158  15.069  12.747  1.00  0.00     0.119 A 
ATOM     16  C   UNL     1      16.054  15.974  13.807  1.00  0.00     0.093 A 
ATOM     17  C   UNL     1      15.034  15.839  14.761  1.00  0.00     0.130 A 
BRANCH  15  18
ATOM     18  O   UNL     1      17.177  15.220  11.810  1.00  0.00    -0.508 OA
ATOM     19  H   UNL     1      17.415  14.478  11.162  1.00  0.00     0.293 HD
ENDBRANCH  15  18
BRANCH  17  20
ATOM     20  O   UNL     1      14.914  16.778  15.785  1.00  0.00    -0.507 OA
ATOM     21  H   UNL     1      15.092  16.536  16.753  1.00  0.00     0.293 HD
ENDBRANCH  17  20
ENDBRANCH   1  12
BRANCH   2  22
ATOM     22  O   UNL     1      14.602  14.502  17.491  1.00  0.00    -0.502 OA
ATOM     23  H   UNL     1      15.345  14.991  17.007  1.00  0.00     0.293 HD
ENDBRANCH   2  22
BRANCH   6  24
ATOM     24  O   UNL     1       9.714  14.249  19.600  1.00  0.00    -0.507 OA
ATOM     25  H   UNL     1      10.348  14.809  20.149  1.00  0.00     0.293 HD
ENDBRANCH   6  24
BRANCH   8  26
ATOM     26  O   UNL     1       7.075  13.916  15.622  1.00  0.00    -0.508 OA
ATOM     27  H   UNL     1       6.417  14.686  15.596  1.00  0.00     0.293 HD
ENDBRANCH   8  26
TORSDOF 6
ENDMDL
MODEL 3
REMARK VINA RESULT:    -3.345      1.089      6.250
REMARK INTER + INTRA:          -3.557
REMARK INTER:                  -3.974
REMARK INTRA:                   0.416
REMARK UNBOUND:                 0.471
REMARK SMILES O=c1c(O)c(-c2ccc(O)cc2O)oc2cc(O)cc(O)c12
REMARK SMILES IDX 5 1 3 2 2 3 1 4 22 5 20 6 19 7 17 8 16 9 15 10 14 11 6 12
REMARK SMILES IDX 8 13 7 14 9 15 11 16 12 17 10 18 13 20 4 22 21 24 18 26
REMARK H PARENT 10 19 13 21 4 23 21 25 18 27
REMARK Flexibility Score: inf
ROOT
ATOM      1  C   UNL     1      12.300  15.430  15.756  1.00  0.00     0.184 A 
ATOM      2  C   UNL     1      12.993  16.507  16.331  1.00  0.00     0.208 A 
ATOM      3  C   UNL     1      14.260  16.845  15.832  1.00  0.00     0.238 A 
ATOM      4  O   UNL     1      14.854  17.845  16.315  1.00  0.00    -0.285 OA
ATOM      5  C   UNL     1      14.825  16.091  14.775  1.00  0.00     0.111 A 
ATOM      6  C   UNL     1      16.118  16.319  14.216  1.00  0.00     0.134 A 
ATOM      7  C   UNL     1      16.521  15.595  13.088  1.00  0.00     0.093 A 
ATOM      8  C   UNL     1      15.706  14.607  12.536  1.00  0.00     0.123 A 
ATOM      9  C   UNL     1      14.464  14.335  13.110  1.00  0.00     0.094 A 
ATOM     10  C   UNL     1      14.018  15.065  14.215  1.00  0.00     0.146 A 
ATOM     11  O   UNL     1      12.825  14.782  14.723  1.00  0.00    -0.451 OA
ENDROOT
BRANCH   1  12
ATOM     12  C   UNL     1      10.970  15.012  16.246  1.00  0.00     0.063 A 
ATOM     13  C   UNL     1       9.299  15.055  18.011  1.00  0.00     0.047 A 
ATOM     14  C   UNL     1      10.553  15.427  17.520  1.00  0.00     0.020 A 
ATOM     15  C   UNL     1       8.441  14.273  17.227  1.00  0.00     0.119 A 
ATOM     16  C   UNL     1       8.838  13.875  15.948  1.00  0.00     0.093 A 
ATOM     17  C   UNL     1      10.094  14.249  15.445  1.00  0.00     0.130 A 
BRANCH  15  18
ATOM     18  O   UNL     1       7.190  13.892  17.709  1.00  0.00    -0.508 OA
ATOM     19  H   UNL     1       6.930  12.917  17.794  1.00  0.00     0.293 HD
ENDBRANCH  15  18
BRANCH  17  20
ATOM     20  O   UNL     1      10.458  13.886  14.149  1.00  0.00    -0.507 OA
ATOM     21  H   UNL     1      10.564  14.574  13.413  1.00  0.00     0.293 HD
ENDBRANCH  17  20
ENDBRANCH   1  12
BRANCH   2  22
ATOM     22  O   UNL     1      12.405  17.246  17.362  1.00  0.00    -0.502 OA
ATOM     23  H   UNL     1      12.753  18.153  17.646  1.00  0.00     0.293 HD
ENDBRANCH   2  22
BRANCH   6  24
ATOM     24  O   UNL     1      17.049  17.218  14.746  1.00  0.00    -0.507 OA
ATOM     25  H   UNL     1      18.050  17.138  14.642  1.00  0.00     0.293 HD
ENDBRANCH   6  24
BRANCH   8  26
ATOM     26  O   UNL     1      16.146  13.896  11.422  1.00  0.00    -0.508 OA
ATOM     27  H   UNL     1      17.015  13.374  11.437  1.00  0.00     0.293 HD
ENDBRANCH   8  26
TORSDOF 6
ENDMDL
