MODEL 1
REMARK VINA RESULT:    -5.423      0.000      0.000
REMARK INTER + INTRA:          -6.848
REMARK INTER:                  -6.533
REMARK INTRA:                  -0.315
REMARK UNBOUND:                -0.315
REMARK SMILES O=c1c(O)c(-c2ccc(O)c(O)c2)oc2cc(O)cc(O)c12
REMARK SMILES IDX 5 1 3 2 2 3 1 4 22 5 20 6 19 7 17 8 16 9 15 10 14 11 6 12
REMARK SMILES IDX 7 13 8 14 9 15 13 16 11 17 10 18 12 20 4 22 21 24 18 26
REMARK H PARENT 10 19 12 21 4 23 21 25 18 27
REMARK Flexibility Score: inf
ROOT
ATOM      1  C   UNL     1      13.686  55.758  20.047  1.00  0.00     0.180 A 
ATOM      2  C   UNL     1      13.337  55.450  21.373  1.00  0.00     0.208 A 
ATOM      3  C   UNL     1      14.211  54.665  22.143  1.00  0.00     0.238 A 
ATOM      4  O   UNL     1      13.918  54.439  23.346  1.00  0.00    -0.285 OA
ATOM      5  C   UNL     1      15.414  54.185  21.572  1.00  0.00     0.111 A 
ATOM      6  C   UNL     1      16.353  53.348  22.246  1.00  0.00     0.134 A 
ATOM      7  C   UNL     1      17.571  53.040  21.628  1.00  0.00     0.093 A 
ATOM      8  C   UNL     1      17.856  53.485  20.335  1.00  0.00     0.123 A 
ATOM      9  C   UNL     1      16.920  54.252  19.646  1.00  0.00     0.094 A 
ATOM     10  C   UNL     1      15.710  54.607  20.250  1.00  0.00     0.146 A 
ATOM     11  O   UNL     1      14.852  55.347  19.561  1.00  0.00    -0.452 OA
ENDROOT
BRANCH   1  12
ATOM     12  C   UNL     1      12.804  56.560  19.166  1.00  0.00     0.025 A 
ATOM     13  C   UNL     1      13.100  57.913  18.941  1.00  0.00     0.016 A 
ATOM     14  C   UNL     1      12.294  58.682  18.097  1.00  0.00     0.051 A 
ATOM     15  C   UNL     1      11.193  58.109  17.455  1.00  0.00     0.157 A 
ATOM     16  C   UNL     1      11.709  55.979  18.502  1.00  0.00     0.062 A 
ATOM     17  C   UNL     1      10.901  56.749  17.653  1.00  0.00     0.158 A 
BRANCH  15  18
ATOM     18  O   UNL     1      10.407  58.902  16.620  1.00  0.00    -0.504 OA
ATOM     19  H   UNL     1       9.428  58.702  16.454  1.00  0.00     0.293 HD
ENDBRANCH  15  18
BRANCH  17  20
ATOM     20  O   UNL     1       9.812  56.167  17.005  1.00  0.00    -0.504 OA
ATOM     21  H   UNL     1       9.917  55.339  16.431  1.00  0.00     0.293 HD
ENDBRANCH  17  20
ENDBRANCH   1  12
BRANCH   2  22
ATOM     22  O   UNL     1      12.155  55.954  21.924  1.00  0.00    -0.502 OA
ATOM     23  H   UNL     1      12.151  56.631  22.676  1.00  0.00     0.293 HD
ENDBRANCH   2  22
BRANCH   6  24
ATOM     24  O   UNL     1      16.127  52.776  23.502  1.00  0.00    -0.507 OA
ATOM     25  H   UNL     1      16.060  51.785  23.678  1.00  0.00     0.293 HD
ENDBRANCH   6  24
BRANCH   8  26
ATOM     26  O   UNL     1      19.064  53.161  19.722  1.00  0.00    -0.508 OA
ATOM     27  H   UNL     1      19.724  53.877  19.441  1.00  0.00     0.293 HD
ENDBRANCH   8  26
TORSDOF 6
ENDMDL
MODEL 2
REMARK VINA RESULT:    -5.059      3.937      7.297
REMARK INTER + INTRA:          -6.410
REMARK INTER:                  -6.092
REMARK INTRA:                  -0.318
REMARK UNBOUND:                -0.315
REMARK SMILES O=c1c(O)c(-c2ccc(O)c(O)c2)oc2cc(O)cc(O)c12
REMARK SMILES IDX 5 1 3 2 2 3 1 4 22 5 20 6 19 7 17 8 16 9 15 10 14 11 6 12
REMARK SMILES IDX 7 13 8 14 9 15 13 16 11 17 10 18 12 20 4 22 21 24 18 26
REMARK H PARENT 10 19 12 21 4 23 21 25 18 27
REMARK Flexibility Score: inf
ROOT
ATOM      1  C   UNL     1      14.696  57.921  17.551  1.00  0.00     0.180 A 
ATOM      2  C   UNL     1      15.103  59.242  17.806  1.00  0.00     0.208 A 
ATOM      3  C   UNL     1      15.335  60.105  16.722  1.00  0.00     0.238 A 
ATOM      4  O   UNL     1      15.646  61.302  16.959  1.00  0.00    -0.285 OA
ATOM      5  C   UNL     1      15.172  59.632  15.398  1.00  0.00     0.111 A 
ATOM      6  C   UNL     1      15.418  60.407  14.225  1.00  0.00     0.134 A 
ATOM      7  C   UNL     1      15.100  59.878  12.969  1.00  0.00     0.093 A 
ATOM      8  C   UNL     1      14.604  58.579  12.839  1.00  0.00     0.123 A 
ATOM      9  C   UNL     1      14.417  57.793  13.973  1.00  0.00     0.094 A 
ATOM     10  C   UNL     1      14.691  58.306  15.244  1.00  0.00     0.146 A 
ATOM     11  O   UNL     1      14.489  57.527  16.299  1.00  0.00    -0.452 OA
ENDROOT
BRANCH   1  12
ATOM     12  C   UNL     1      14.456  56.947  18.640  1.00  0.00     0.025 A 
ATOM     13  C   UNL     1      15.538  56.229  19.174  1.00  0.00     0.016 A 
ATOM     14  C   UNL     1      15.339  55.320  20.216  1.00  0.00     0.051 A 
ATOM     15  C   UNL     1      14.061  55.125  20.750  1.00  0.00     0.157 A 
ATOM     16  C   UNL     1      13.176  56.766  19.193  1.00  0.00     0.062 A 
ATOM     17  C   UNL     1      12.975  55.855  20.240  1.00  0.00     0.158 A 
BRANCH  15  18
ATOM     18  O   UNL     1      13.893  54.211  21.788  1.00  0.00    -0.504 OA
ATOM     19  H   UNL     1      13.157  53.516  21.779  1.00  0.00     0.293 HD
ENDBRANCH  15  18
BRANCH  17  20
ATOM     20  O   UNL     1      11.700  55.676  20.777  1.00  0.00    -0.504 OA
ATOM     21  H   UNL     1      10.889  55.544  20.186  1.00  0.00     0.293 HD
ENDBRANCH  17  20
ENDBRANCH   1  12
BRANCH   2  22
ATOM     22  O   UNL     1      15.236  59.695  19.122  1.00  0.00    -0.502 OA
ATOM     23  H   UNL     1      16.130  59.948  19.522  1.00  0.00     0.293 HD
ENDBRANCH   2  22
BRANCH   6  24
ATOM     24  O   UNL     1      15.996  61.681  14.238  1.00  0.00    -0.507 OA
ATOM     25  H   UNL     1      16.749  61.964  14.846  1.00  0.00     0.293 HD
ENDBRANCH   6  24
BRANCH   8  26
ATOM     26  O   UNL     1      14.304  58.054  11.584  1.00  0.00    -0.508 OA
ATOM     27  H   UNL     1      13.346  57.947  11.270  1.00  0.00     0.293 HD
ENDBRANCH   8  26
TORSDOF 6
ENDMDL
MODEL 3
REMARK VINA RESULT:    -5.059      3.749      5.015
REMARK INTER + INTRA:          -6.409
REMARK INTER:                  -6.089
REMARK INTRA:                  -0.319
REMARK UNBOUND:                -0.315
REMARK SMILES O=c1c(O)c(-c2ccc(O)c(O)c2)oc2cc(O)cc(O)c12
REMARK SMILES IDX 5 1 3 2 2 3 1 4 22 5 20 6 19 7 17 8 16 9 15 10 14 11 6 12
REMARK SMILES IDX 7 13 8 14 9 15 13 16 11 17 10 18 12 20 4 22 21 24 18 26
REMARK H PARENT 10 19 12 21 4 23 21 25 18 27
REMARK Flexibility Score: inf
ROOT
ATOM      1  C   UNL     1      14.224  58.043  16.499  1.00  0.00     0.180 A 
ATOM      2  C   UNL     1      12.939  57.736  16.979  1.00  0.00     0.208 A 
ATOM      3  C   UNL     1      12.814  57.038  18.192  1.00  0.00     0.238 A 
ATOM      4  O   UNL     1      11.660  56.815  18.644  1.00  0.00    -0.285 OA
ATOM      5  C   UNL     1      13.974  56.643  18.900  1.00  0.00     0.111 A 
ATOM      6  C   UNL     1      13.966  55.898  20.118  1.00  0.00     0.134 A 
ATOM      7  C   UNL     1      15.169  55.675  20.799  1.00  0.00     0.093 A 
ATOM      8  C   UNL     1      16.386  56.115  20.273  1.00  0.00     0.123 A 
ATOM      9  C   UNL     1      16.411  56.791  19.056  1.00  0.00     0.094 A 
ATOM     10  C   UNL     1      15.223  57.060  18.371  1.00  0.00     0.146 A 
ATOM     11  O   UNL     1      15.291  57.716  17.219  1.00  0.00    -0.452 OA
ENDROOT
BRANCH   1  12
ATOM     12  C   UNL     1      14.436  58.753  15.217  1.00  0.00     0.025 A 
ATOM     13  C   UNL     1      14.448  60.156  15.199  1.00  0.00     0.016 A 
ATOM     14  C   UNL     1      14.668  60.847  14.004  1.00  0.00     0.051 A 
ATOM     15  C   UNL     1      14.894  60.148  12.814  1.00  0.00     0.157 A 
ATOM     16  C   UNL     1      14.685  58.052  14.023  1.00  0.00     0.062 A 
ATOM     17  C   UNL     1      14.907  58.743  12.824  1.00  0.00     0.158 A 
BRANCH  15  18
ATOM     18  O   UNL     1      15.108  60.864  11.638  1.00  0.00    -0.504 OA
ATOM     19  H   UNL     1      15.741  61.654  11.597  1.00  0.00     0.293 HD
ENDBRANCH  15  18
BRANCH  17  20
ATOM     20  O   UNL     1      15.146  58.040  11.644  1.00  0.00    -0.504 OA
ATOM     21  H   UNL     1      15.593  57.131  11.648  1.00  0.00     0.293 HD
ENDBRANCH  17  20
ENDBRANCH   1  12
BRANCH   2  22
ATOM     22  O   UNL     1      11.806  58.155  16.276  1.00  0.00    -0.502 OA
ATOM     23  H   UNL     1      11.477  59.112  16.295  1.00  0.00     0.293 HD
ENDBRANCH   2  22
BRANCH   6  24
ATOM     24  O   UNL     1      12.816  55.336  20.681  1.00  0.00    -0.507 OA
ATOM     25  H   UNL     1      12.811  54.554  21.317  1.00  0.00     0.293 HD
ENDBRANCH   6  24
BRANCH   8  26
ATOM     26  O   UNL     1      17.580  55.875  20.950  1.00  0.00    -0.508 OA
ATOM     27  H   UNL     1      17.691  55.077  21.565  1.00  0.00     0.293 HD
ENDBRANCH   8  26
TORSDOF 6
ENDMDL
MODEL 4
REMARK VINA RESULT:    -4.952      4.255      5.882
REMARK INTER + INTRA:          -6.280
REMARK INTER:                  -5.958
REMARK INTRA:                  -0.322
REMARK UNBOUND:                -0.315
REMARK SMILES O=c1c(O)c(-c2ccc(O)c(O)c2)oc2cc(O)cc(O)c12
REMARK SMILES IDX 5 1 3 2 2 3 1 4 22 5 20 6 19 7 17 8 16 9 15 10 14 11 6 12
REMARK SMILES IDX 7 13 8 14 9 15 13 16 11 17 10 18 12 20 4 22 21 24 18 26
REMARK H PARENT 10 19 12 21 4 23 21 25 18 27
REMARK Flexibility Score: inf
ROOT
ATOM      1  C   UNL     1      15.290  58.298  16.188  1.00  0.00     0.180 A 
ATOM      2  C   UNL     1      16.555  57.985  16.715  1.00  0.00     0.208 A 
ATOM      3  C   UNL     1      16.632  57.304  17.941  1.00  0.00     0.238 A 
ATOM      4  O   UNL     1      17.766  56.979  18.381  1.00  0.00    -0.285 OA
ATOM      5  C   UNL     1      15.446  56.959  18.631  1.00  0.00     0.111 A 
ATOM      6  C   UNL     1      15.407  56.304  19.899  1.00  0.00     0.134 A 
ATOM      7  C   UNL     1      14.177  55.895  20.428  1.00  0.00     0.093 A 
ATOM      8  C   UNL     1      12.979  56.174  19.765  1.00  0.00     0.123 A 
ATOM      9  C   UNL     1      13.002  56.865  18.556  1.00  0.00     0.094 A 
ATOM     10  C   UNL     1      14.218  57.255  17.985  1.00  0.00     0.146 A 
ATOM     11  O   UNL     1      14.194  57.902  16.827  1.00  0.00    -0.452 OA
ENDROOT
BRANCH   1  12
ATOM     12  C   UNL     1      15.128  59.036  14.914  1.00  0.00     0.025 A 
ATOM     13  C   UNL     1      15.135  60.439  14.924  1.00  0.00     0.016 A 
ATOM     14  C   UNL     1      15.006  61.156  13.731  1.00  0.00     0.051 A 
ATOM     15  C   UNL     1      14.883  60.483  12.511  1.00  0.00     0.157 A 
ATOM     16  C   UNL     1      15.027  58.361  13.684  1.00  0.00     0.062 A 
ATOM     17  C   UNL     1      14.899  59.078  12.486  1.00  0.00     0.158 A 
BRANCH  15  18
ATOM     18  O   UNL     1      14.754  61.225  11.339  1.00  0.00    -0.504 OA
ATOM     19  H   UNL     1      13.993  61.073  10.687  1.00  0.00     0.293 HD
ENDBRANCH  15  18
BRANCH  17  20
ATOM     20  O   UNL     1      14.792  58.401  11.272  1.00  0.00    -0.504 OA
ATOM     21  H   UNL     1      14.097  58.656  10.581  1.00  0.00     0.293 HD
ENDBRANCH  17  20
ENDBRANCH   1  12
BRANCH   2  22
ATOM     22  O   UNL     1      17.714  58.316  16.007  1.00  0.00    -0.502 OA
ATOM     23  H   UNL     1      17.710  58.489  15.010  1.00  0.00     0.293 HD
ENDBRANCH   2  22
BRANCH   6  24
ATOM     24  O   UNL     1      16.537  56.060  20.686  1.00  0.00    -0.507 OA
ATOM     25  H   UNL     1      16.542  55.505  21.527  1.00  0.00     0.293 HD
ENDBRANCH   6  24
BRANCH   8  26
ATOM     26  O   UNL     1      11.758  55.776  20.305  1.00  0.00    -0.508 OA
ATOM     27  H   UNL     1      11.686  55.429  21.254  1.00  0.00     0.293 HD
ENDBRANCH   8  26
TORSDOF 6
ENDMDL
MODEL 5
REMARK VINA RESULT:    -4.919      1.600      7.052
REMARK INTER + INTRA:          -6.241
REMARK INTER:                  -5.916
REMARK INTRA:                  -0.324
REMARK UNBOUND:                -0.315
REMARK SMILES O=c1c(O)c(-c2ccc(O)c(O)c2)oc2cc(O)cc(O)c12
REMARK SMILES IDX 5 1 3 2 2 3 1 4 22 5 20 6 19 7 17 8 16 9 15 10 14 11 6 12
REMARK SMILES IDX 7 13 8 14 9 15 13 16 11 17 10 18 12 20 4 22 21 24 18 26
REMARK H PARENT 10 19 12 21 4 23 21 25 18 27
REMARK Flexibility Score: inf
ROOT
ATOM      1  C   UNL     1      14.219  56.176  20.466  1.00  0.00     0.180 A 
ATOM      2  C   UNL     1      14.830  57.373  20.052  1.00  0.00     0.208 A 
ATOM      3  C   UNL     1      14.254  58.103  19.000  1.00  0.00     0.238 A 
ATOM      4  O   UNL     1      14.774  59.201  18.671  1.00  0.00    -0.285 OA
ATOM      5  C   UNL     1      13.085  57.620  18.363  1.00  0.00     0.111 A 
ATOM      6  C   UNL     1      12.440  58.256  17.261  1.00  0.00     0.134 A 
ATOM      7  C   UNL     1      11.218  57.759  16.795  1.00  0.00     0.093 A 
ATOM      8  C   UNL     1      10.650  56.609  17.349  1.00  0.00     0.123 A 
ATOM      9  C   UNL     1      11.301  55.946  18.386  1.00  0.00     0.094 A 
ATOM     10  C   UNL     1      12.505  56.440  18.897  1.00  0.00     0.146 A 
ATOM     11  O   UNL     1      13.087  55.782  19.892  1.00  0.00    -0.452 OA
ENDROOT
BRANCH   1  12
ATOM     12  C   UNL     1      14.781  55.339  21.551  1.00  0.00     0.025 A 
ATOM     13  C   UNL     1      14.242  55.432  22.843  1.00  0.00     0.016 A 
ATOM     14  C   UNL     1      14.742  54.636  23.877  1.00  0.00     0.051 A 
ATOM     15  C   UNL     1      15.776  53.727  23.633  1.00  0.00     0.157 A 
ATOM     16  C   UNL     1      15.806  54.409  21.302  1.00  0.00     0.062 A 
ATOM     17  C   UNL     1      16.308  53.608  22.339  1.00  0.00     0.158 A 
BRANCH  15  18
ATOM     18  O   UNL     1      16.256  52.949  24.685  1.00  0.00    -0.504 OA
ATOM     19  H   UNL     1      15.742  52.840  25.551  1.00  0.00     0.293 HD
ENDBRANCH  15  18
BRANCH  17  20
ATOM     20  O   UNL     1      17.329  52.694  22.085  1.00  0.00    -0.504 OA
ATOM     21  H   UNL     1      17.863  52.271  22.835  1.00  0.00     0.293 HD
ENDBRANCH  17  20
ENDBRANCH   1  12
BRANCH   2  22
ATOM     22  O   UNL     1      15.970  57.844  20.709  1.00  0.00    -0.502 OA
ATOM     23  H   UNL     1      16.292  58.800  20.621  1.00  0.00     0.293 HD
ENDBRANCH   2  22
BRANCH   6  24
ATOM     24  O   UNL     1      12.969  59.355  16.576  1.00  0.00    -0.507 OA
ATOM     25  H   UNL     1      12.748  59.599  15.624  1.00  0.00     0.293 HD
ENDBRANCH   6  24
BRANCH   8  26
ATOM     26  O   UNL     1       9.440  56.111  16.869  1.00  0.00    -0.508 OA
ATOM     27  H   UNL     1       8.878  56.633  16.206  1.00  0.00     0.293 HD
ENDBRANCH   8  26
TORSDOF 6
ENDMDL
MODEL 6
REMARK VINA RESULT:    -4.831      2.179      6.469
REMARK INTER + INTRA:          -6.135
REMARK INTER:                  -5.839
REMARK INTRA:                  -0.296
REMARK UNBOUND:                -0.315
REMARK SMILES O=c1c(O)c(-c2ccc(O)c(O)c2)oc2cc(O)cc(O)c12
REMARK SMILES IDX 5 1 3 2 2 3 1 4 22 5 20 6 19 7 17 8 16 9 15 10 14 11 6 12
REMARK SMILES IDX 7 13 8 14 9 15 13 16 11 17 10 18 12 20 4 22 21 24 18 26
REMARK H PARENT 10 19 12 21 4 23 21 25 18 27
REMARK Flexibility Score: inf
ROOT
ATOM      1  C   UNL     1      14.269  55.951  19.945  1.00  0.00     0.180 A 
ATOM      2  C   UNL     1      12.897  56.087  19.673  1.00  0.00     0.208 A 
ATOM      3  C   UNL     1      12.495  56.852  18.566  1.00  0.00     0.238 A 
ATOM      4  O   UNL     1      11.268  56.925  18.296  1.00  0.00    -0.285 OA
ATOM      5  C   UNL     1      13.468  57.484  17.755  1.00  0.00     0.111 A 
ATOM      6  C   UNL     1      13.173  58.315  16.633  1.00  0.00     0.134 A 
ATOM      7  C   UNL     1      14.217  58.782  15.826  1.00  0.00     0.093 A 
ATOM      8  C   UNL     1      15.550  58.502  16.138  1.00  0.00     0.123 A 
ATOM      9  C   UNL     1      15.851  57.742  17.265  1.00  0.00     0.094 A 
ATOM     10  C   UNL     1      14.829  57.231  18.070  1.00  0.00     0.146 A 
ATOM     11  O   UNL     1      15.160  56.503  19.128  1.00  0.00    -0.452 OA
ENDROOT
BRANCH   1  12
ATOM     12  C   UNL     1      14.769  55.182  21.108  1.00  0.00     0.025 A 
ATOM     13  C   UNL     1      15.093  55.858  22.295  1.00  0.00     0.016 A 
ATOM     14  C   UNL     1      15.545  55.150  23.412  1.00  0.00     0.051 A 
ATOM     15  C   UNL     1      15.667  53.757  23.364  1.00  0.00     0.157 A 
ATOM     16  C   UNL     1      14.871  53.780  21.070  1.00  0.00     0.062 A 
ATOM     17  C   UNL     1      15.323  53.068  22.190  1.00  0.00     0.158 A 
BRANCH  15  18
ATOM     18  O   UNL     1      16.123  53.079  24.494  1.00  0.00    -0.504 OA
ATOM     19  H   UNL     1      15.649  52.261  24.857  1.00  0.00     0.293 HD
ENDBRANCH  15  18
BRANCH  17  20
ATOM     20  O   UNL     1      15.428  51.678  22.141  1.00  0.00    -0.504 OA
ATOM     21  H   UNL     1      15.636  51.131  22.967  1.00  0.00     0.293 HD
ENDBRANCH  17  20
ENDBRANCH   1  12
BRANCH   2  22
ATOM     22  O   UNL     1      11.953  55.437  20.473  1.00  0.00    -0.502 OA
ATOM     23  H   UNL     1      11.199  55.929  20.934  1.00  0.00     0.293 HD
ENDBRANCH   2  22
BRANCH   6  24
ATOM     24  O   UNL     1      11.883  58.730  16.288  1.00  0.00    -0.507 OA
ATOM     25  H   UNL     1      11.300  59.325  16.855  1.00  0.00     0.293 HD
ENDBRANCH   6  24
BRANCH   8  26
ATOM     26  O   UNL     1      16.584  58.983  15.338  1.00  0.00    -0.508 OA
ATOM     27  H   UNL     1      16.404  59.598  14.552  1.00  0.00     0.293 HD
ENDBRANCH   8  26
TORSDOF 6
ENDMDL
MODEL 7
REMARK VINA RESULT:    -4.768      2.094      7.027
REMARK INTER + INTRA:          -6.058
REMARK INTER:                  -5.773
REMARK INTRA:                  -0.285
REMARK UNBOUND:                -0.315
REMARK SMILES O=c1c(O)c(-c2ccc(O)c(O)c2)oc2cc(O)cc(O)c12
REMARK SMILES IDX 5 1 3 2 2 3 1 4 22 5 20 6 19 7 17 8 16 9 15 10 14 11 6 12
REMARK SMILES IDX 7 13 8 14 9 15 13 16 11 17 10 18 12 20 4 22 21 24 18 26
REMARK H PARENT 10 19 12 21 4 23 21 25 18 27
REMARK Flexibility Score: inf
ROOT
ATOM      1  C   UNL     1      15.059  56.056  19.832  1.00  0.00     0.180 A 
ATOM      2  C   UNL     1      16.090  56.661  19.092  1.00  0.00     0.208 A 
ATOM      3  C   UNL     1      15.761  57.402  17.945  1.00  0.00     0.238 A 
ATOM      4  O   UNL     1      16.683  57.987  17.319  1.00  0.00    -0.285 OA
ATOM      5  C   UNL     1      14.408  57.515  17.544  1.00  0.00     0.111 A 
ATOM      6  C   UNL     1      13.964  58.208  16.377  1.00  0.00     0.134 A 
ATOM      7  C   UNL     1      12.592  58.365  16.148  1.00  0.00     0.093 A 
ATOM      8  C   UNL     1      11.648  57.800  17.009  1.00  0.00     0.123 A 
ATOM      9  C   UNL     1      12.071  57.072  18.118  1.00  0.00     0.094 A 
ATOM     10  C   UNL     1      13.434  56.928  18.393  1.00  0.00     0.146 A 
ATOM     11  O   UNL     1      13.794  56.235  19.466  1.00  0.00    -0.452 OA
ENDROOT
BRANCH   1  12
ATOM     12  C   UNL     1      15.329  55.239  21.037  1.00  0.00     0.025 A 
ATOM     13  C   UNL     1      15.574  55.877  22.263  1.00  0.00     0.016 A 
ATOM     14  C   UNL     1      15.810  55.125  23.417  1.00  0.00     0.051 A 
ATOM     15  C   UNL     1      15.791  53.728  23.367  1.00  0.00     0.157 A 
ATOM     16  C   UNL     1      15.288  53.834  20.993  1.00  0.00     0.062 A 
ATOM     17  C   UNL     1      15.524  53.078  22.151  1.00  0.00     0.158 A 
BRANCH  15  18
ATOM     18  O   UNL     1      16.032  53.006  24.535  1.00  0.00    -0.504 OA
ATOM     19  H   UNL     1      16.967  52.738  24.818  1.00  0.00     0.293 HD
ENDBRANCH  15  18
BRANCH  17  20
ATOM     20  O   UNL     1      15.489  51.685  22.097  1.00  0.00    -0.504 OA
ATOM     21  H   UNL     1      14.673  51.162  22.393  1.00  0.00     0.293 HD
ENDBRANCH  17  20
ENDBRANCH   1  12
BRANCH   2  22
ATOM     22  O   UNL     1      17.416  56.556  19.519  1.00  0.00    -0.502 OA
ATOM     23  H   UNL     1      18.161  57.114  19.121  1.00  0.00     0.293 HD
ENDBRANCH   2  22
BRANCH   6  24
ATOM     24  O   UNL     1      14.823  58.730  15.405  1.00  0.00    -0.507 OA
ATOM     25  H   UNL     1      15.826  58.626  15.409  1.00  0.00     0.293 HD
ENDBRANCH   6  24
BRANCH   8  26
ATOM     26  O   UNL     1      10.284  57.949  16.765  1.00  0.00    -0.508 OA
ATOM     27  H   UNL     1       9.887  58.844  16.506  1.00  0.00     0.293 HD
ENDBRANCH   8  26
TORSDOF 6
ENDMDL
MODEL 8
REMARK VINA RESULT:    -4.553      1.607      3.107
REMARK INTER + INTRA:          -5.799
REMARK INTER:                  -5.549
REMARK INTRA:                  -0.251
REMARK UNBOUND:                -0.315
REMARK SMILES O=c1c(O)c(-c2ccc(O)c(O)c2)oc2cc(O)cc(O)c12
REMARK SMILES IDX 5 1 3 2 2 3 1 4 22 5 20 6 19 7 17 8 16 9 15 10 14 11 6 12
REMARK SMILES IDX 7 13 8 14 9 15 13 16 11 17 10 18 12 20 4 22 21 24 18 26
REMARK H PARENT 10 19 12 21 4 23 21 25 18 27
REMARK Flexibility Score: inf
ROOT
ATOM      1  C   UNL     1      14.735  56.679  19.096  1.00  0.00     0.180 A 
ATOM      2  C   UNL     1      16.036  56.831  18.585  1.00  0.00     0.208 A 
ATOM      3  C   UNL     1      17.024  55.902  18.952  1.00  0.00     0.238 A 
ATOM      4  O   UNL     1      18.173  56.013  18.448  1.00  0.00    -0.285 OA
ATOM      5  C   UNL     1      16.704  54.844  19.835  1.00  0.00     0.111 A 
ATOM      6  C   UNL     1      17.635  53.870  20.305  1.00  0.00     0.134 A 
ATOM      7  C   UNL     1      17.180  52.793  21.074  1.00  0.00     0.093 A 
ATOM      8  C   UNL     1      15.836  52.689  21.443  1.00  0.00     0.123 A 
ATOM      9  C   UNL     1      14.930  53.666  21.040  1.00  0.00     0.094 A 
ATOM     10  C   UNL     1      15.349  54.735  20.242  1.00  0.00     0.146 A 
ATOM     11  O   UNL     1      14.450  55.638  19.871  1.00  0.00    -0.452 OA
ENDROOT
BRANCH   1  12
ATOM     12  C   UNL     1      13.647  57.631  18.775  1.00  0.00     0.025 A 
ATOM     13  C   UNL     1      13.660  58.912  19.348  1.00  0.00     0.016 A 
ATOM     14  C   UNL     1      12.656  59.834  19.042  1.00  0.00     0.051 A 
ATOM     15  C   UNL     1      11.633  59.496  18.151  1.00  0.00     0.157 A 
ATOM     16  C   UNL     1      12.630  57.300  17.863  1.00  0.00     0.062 A 
ATOM     17  C   UNL     1      11.621  58.225  17.554  1.00  0.00     0.158 A 
BRANCH  15  18
ATOM     18  O   UNL     1      10.643  60.436  17.868  1.00  0.00    -0.504 OA
ATOM     19  H   UNL     1      10.731  61.095  17.103  1.00  0.00     0.293 HD
ENDBRANCH  15  18
BRANCH  17  20
ATOM     20  O   UNL     1      10.612  57.886  16.653  1.00  0.00    -0.504 OA
ATOM     21  H   UNL     1      10.822  57.571  15.714  1.00  0.00     0.293 HD
ENDBRANCH  17  20
ENDBRANCH   1  12
BRANCH   2  22
ATOM     22  O   UNL     1      16.326  57.869  17.696  1.00  0.00    -0.502 OA
ATOM     23  H   UNL     1      16.709  58.756  18.001  1.00  0.00     0.293 HD
ENDBRANCH   2  22
BRANCH   6  24
ATOM     24  O   UNL     1      19.013  53.931  20.070  1.00  0.00    -0.507 OA
ATOM     25  H   UNL     1      19.596  53.136  19.862  1.00  0.00     0.293 HD
ENDBRANCH   6  24
BRANCH   8  26
ATOM     26  O   UNL     1      15.393  51.621  22.221  1.00  0.00    -0.508 OA
ATOM     27  H   UNL     1      15.009  50.783  21.800  1.00  0.00     0.293 HD
ENDBRANCH   8  26
TORSDOF 6
ENDMDL
MODEL 9
REMARK VINA RESULT:    -4.308      2.933      3.448
REMARK INTER + INTRA:          -5.505
REMARK INTER:                  -5.193
REMARK INTRA:                  -0.312
REMARK UNBOUND:                -0.315
REMARK SMILES O=c1c(O)c(-c2ccc(O)c(O)c2)oc2cc(O)cc(O)c12
REMARK SMILES IDX 5 1 3 2 2 3 1 4 22 5 20 6 19 7 17 8 16 9 15 10 14 11 6 12
REMARK SMILES IDX 7 13 8 14 9 15 13 16 11 17 10 18 12 20 4 22 21 24 18 26
REMARK H PARENT 10 19 12 21 4 23 21 25 18 27
REMARK Flexibility Score: inf
ROOT
ATOM      1  C   UNL     1      15.450  56.818  18.772  1.00  0.00     0.180 A 
ATOM      2  C   UNL     1      14.353  56.916  19.645  1.00  0.00     0.208 A 
ATOM      3  C   UNL     1      14.181  55.935  20.636  1.00  0.00     0.238 A 
ATOM      4  O   UNL     1      13.228  56.059  21.449  1.00  0.00    -0.285 OA
ATOM      5  C   UNL     1      15.098  54.860  20.730  1.00  0.00     0.111 A 
ATOM      6  C   UNL     1      14.998  53.789  21.668  1.00  0.00     0.134 A 
ATOM      7  C   UNL     1      16.032  52.850  21.756  1.00  0.00     0.093 A 
ATOM      8  C   UNL     1      17.132  52.906  20.897  1.00  0.00     0.123 A 
ATOM      9  C   UNL     1      17.210  53.913  19.937  1.00  0.00     0.094 A 
ATOM     10  C   UNL     1      16.210  54.886  19.849  1.00  0.00     0.146 A 
ATOM     11  O   UNL     1      16.329  55.833  18.927  1.00  0.00    -0.452 OA
ENDROOT
BRANCH   1  12
ATOM     12  C   UNL     1      15.684  57.799  17.687  1.00  0.00     0.025 A 
ATOM     13  C   UNL     1      16.664  58.790  17.853  1.00  0.00     0.016 A 
ATOM     14  C   UNL     1      16.916  59.713  16.834  1.00  0.00     0.051 A 
ATOM     15  C   UNL     1      16.205  59.651  15.632  1.00  0.00     0.157 A 
ATOM     16  C   UNL     1      14.986  57.725  16.469  1.00  0.00     0.062 A 
ATOM     17  C   UNL     1      15.239  58.649  15.445  1.00  0.00     0.158 A 
BRANCH  15  18
ATOM     18  O   UNL     1      16.478  60.586  14.635  1.00  0.00    -0.504 OA
ATOM     19  H   UNL     1      15.744  61.012  14.082  1.00  0.00     0.293 HD
ENDBRANCH  15  18
BRANCH  17  20
ATOM     20  O   UNL     1      14.536  58.572  14.243  1.00  0.00    -0.504 OA
ATOM     21  H   UNL     1      14.759  59.172  13.458  1.00  0.00     0.293 HD
ENDBRANCH  17  20
ENDBRANCH   1  12
BRANCH   2  22
ATOM     22  O   UNL     1      13.473  57.997  19.550  1.00  0.00    -0.502 OA
ATOM     23  H   UNL     1      13.206  58.554  20.352  1.00  0.00     0.293 HD
ENDBRANCH   2  22
BRANCH   6  24
ATOM     24  O   UNL     1      13.899  53.589  22.509  1.00  0.00    -0.507 OA
ATOM     25  H   UNL     1      12.997  54.025  22.390  1.00  0.00     0.293 HD
ENDBRANCH   6  24
BRANCH   8  26
ATOM     26  O   UNL     1      18.149  51.959  20.981  1.00  0.00    -0.508 OA
ATOM     27  H   UNL     1      19.125  52.231  21.016  1.00  0.00     0.293 HD
ENDBRANCH   8  26
TORSDOF 6
ENDMDL
