MODEL 1
REMARK VINA RESULT:    -3.959      0.000      0.000
REMARK INTER + INTRA:         -12.923
REMARK INTER:                  -9.051
REMARK INTRA:                  -3.872
REMARK UNBOUND:                -3.872
REMARK SMILES CCCCCCCCCCCCCCCCCCCCCCCC(=O)[O-]
REMARK SMILES IDX 13 1 14 2 15 3 16 4 17 5 18 6 19 7 20 8 21 9 22 10 23 11
REMARK SMILES IDX 24 12 25 13 26 14 12 15 11 16 10 17 9 18 8 19 7 20 6 21 5 22
REMARK SMILES IDX 4 23 3 24 2 25 1 26
REMARK H PARENT
REMARK Flexibility Score: inf
ROOT
ATOM      1  C   UNL     1     129.542 142.537 106.750  1.00  0.00     0.000 C 
ENDROOT
BRANCH   1   2
ATOM      2  C   UNL     1     130.545 143.600 107.239  1.00  0.00     0.000 C 
BRANCH   2   3
ATOM      3  C   UNL     1     131.223 144.410 106.121  1.00  0.00     0.000 C 
BRANCH   3   4
ATOM      4  C   UNL     1     130.818 145.892 106.129  1.00  0.00     0.000 C 
BRANCH   4   5
ATOM      5  C   UNL     1     132.043 146.792 106.351  1.00  0.00     0.000 C 
BRANCH   5   6
ATOM      6  C   UNL     1     133.311 145.978 106.687  1.00  0.00     0.000 C 
BRANCH   6   7
ATOM      7  C   UNL     1     133.949 146.361 108.034  1.00  0.00     0.000 C 
BRANCH   7   8
ATOM      8  C   UNL     1     133.347 145.585 109.218  1.00  0.00     0.000 C 
BRANCH   8   9
ATOM      9  C   UNL     1     132.163 146.336 109.865  1.00  0.00     0.000 C 
BRANCH   9  10
ATOM     10  C   UNL     1     132.005 146.057 111.369  1.00  0.00     0.006 C 
BRANCH  10  11
ATOM     11  C   UNL     1     132.874 146.971 112.240  1.00  0.00     0.053 C 
BRANCH  11  12
ATOM     12  C   UNL     1     132.769 146.573 113.678  1.00  0.00     0.041 C 
ATOM     13  O   UNL     1     131.643 146.523 114.242  1.00  0.00    -0.550 OA
ATOM     14  O   UNL     1     133.919 146.344 114.420  1.00  0.00    -0.550 OA
ENDBRANCH  11  12
ENDBRANCH  10  11
ENDBRANCH   9  10
ENDBRANCH   8   9
ENDBRANCH   7   8
ENDBRANCH   6   7
ENDBRANCH   5   6
ENDBRANCH   4   5
ENDBRANCH   3   4
ENDBRANCH   2   3
ENDBRANCH   1   2
BRANCH   1  15
ATOM     15  C   UNL     1     128.905 142.868 105.383  1.00  0.00     0.000 C 
BRANCH  15  16
ATOM     16  C   UNL     1     127.517 143.514 105.531  1.00  0.00     0.000 C 
BRANCH  16  17
ATOM     17  C   UNL     1     127.455 144.929 104.939  1.00  0.00     0.000 C 
BRANCH  17  18
ATOM     18  C   UNL     1     127.085 145.996 105.984  1.00  0.00    -0.000 C 
BRANCH  18  19
ATOM     19  C   UNL     1     126.982 145.402 107.406  1.00  0.00    -0.000 C 
BRANCH  19  20
ATOM     20  C   UNL     1     127.692 146.240 108.484  1.00  0.00    -0.000 C 
BRANCH  20  21
ATOM     21  C   UNL     1     128.507 145.385 109.469  1.00  0.00    -0.000 C 
BRANCH  21  22
ATOM     22  C   UNL     1     127.836 144.033 109.764  1.00  0.00    -0.000 C 
BRANCH  22  23
ATOM     23  C   UNL     1     127.840 143.692 111.265  1.00  0.00    -0.000 C 
BRANCH  23  24
ATOM     24  C   UNL     1     128.778 144.598 112.084  1.00  0.00    -0.000 C 
BRANCH  24  25
ATOM     25  C   UNL     1     129.223 144.017 113.438  1.00  0.00    -0.003 C 
ATOM     26  C   UNL     1     130.565 143.289 113.367  1.00  0.00     0.004 C 
ENDBRANCH  24  25
ENDBRANCH  23  24
ENDBRANCH  22  23
ENDBRANCH  21  22
ENDBRANCH  20  21
ENDBRANCH  19  20
ENDBRANCH  18  19
ENDBRANCH  17  18
ENDBRANCH  16  17
ENDBRANCH  15  16
ENDBRANCH   1  15
TORSDOF 22
ENDMDL
MODEL 2
REMARK VINA RESULT:    -3.942      3.579      7.189
REMARK INTER + INTRA:         -12.884
REMARK INTER:                  -8.696
REMARK INTRA:                  -4.188
REMARK UNBOUND:                -3.872
REMARK SMILES CCCCCCCCCCCCCCCCCCCCCCCC(=O)[O-]
REMARK SMILES IDX 13 1 14 2 15 3 16 4 17 5 18 6 19 7 20 8 21 9 22 10 23 11
REMARK SMILES IDX 24 12 25 13 26 14 12 15 11 16 10 17 9 18 8 19 7 20 6 21 5 22
REMARK SMILES IDX 4 23 3 24 2 25 1 26
REMARK H PARENT
REMARK Flexibility Score: inf
ROOT
ATOM      1  C   UNL     1     129.094 145.001 109.014  1.00  0.00     0.000 C 
ENDROOT
BRANCH   1   2
ATOM      2  C   UNL     1     127.889 145.843 108.554  1.00  0.00     0.000 C 
BRANCH   2   3
ATOM      3  C   UNL     1     127.011 145.179 107.480  1.00  0.00     0.000 C 
BRANCH   3   4
ATOM      4  C   UNL     1     126.909 146.011 106.193  1.00  0.00     0.000 C 
BRANCH   4   5
ATOM      5  C   UNL     1     127.568 145.280 105.015  1.00  0.00     0.000 C 
BRANCH   5   6
ATOM      6  C   UNL     1     127.539 143.746 105.191  1.00  0.00     0.000 C 
BRANCH   6   7
ATOM      7  C   UNL     1     128.919 143.083 105.045  1.00  0.00     0.000 C 
BRANCH   7   8
ATOM      8  C   UNL     1     129.418 142.453 106.356  1.00  0.00     0.000 C 
BRANCH   8   9
ATOM      9  C   UNL     1     128.317 141.638 107.067  1.00  0.00     0.000 C 
BRANCH   9  10
ATOM     10  C   UNL     1     128.108 140.235 106.473  1.00  0.00     0.006 C 
BRANCH  10  11
ATOM     11  C   UNL     1     127.709 139.195 107.526  1.00  0.00     0.053 C 
BRANCH  11  12
ATOM     12  C   UNL     1     128.910 138.753 108.301  1.00  0.00     0.041 C 
ATOM     13  O   UNL     1     129.847 138.139 107.725  1.00  0.00    -0.550 OA
ATOM     14  O   UNL     1     128.955 138.940 109.676  1.00  0.00    -0.550 OA
ENDBRANCH  11  12
ENDBRANCH  10  11
ENDBRANCH   9  10
ENDBRANCH   8   9
ENDBRANCH   7   8
ENDBRANCH   6   7
ENDBRANCH   5   6
ENDBRANCH   4   5
ENDBRANCH   3   4
ENDBRANCH   2   3
ENDBRANCH   1   2
BRANCH   1  15
ATOM     15  C   UNL     1     130.458 145.677 108.757  1.00  0.00     0.000 C 
BRANCH  15  16
ATOM     16  C   UNL     1     131.179 145.082 107.535  1.00  0.00     0.000 C 
BRANCH  16  17
ATOM     17  C   UNL     1     131.015 145.941 106.273  1.00  0.00     0.000 C 
BRANCH  17  18
ATOM     18  C   UNL     1     132.319 146.645 105.859  1.00  0.00    -0.000 C 
BRANCH  18  19
ATOM     19  C   UNL     1     133.518 146.196 106.722  1.00  0.00    -0.000 C 
BRANCH  19  20
ATOM     20  C   UNL     1     134.805 145.946 105.916  1.00  0.00    -0.000 C 
BRANCH  20  21
ATOM     21  C   UNL     1     134.530 145.509 104.467  1.00  0.00    -0.000 C 
BRANCH  21  22
ATOM     22  C   UNL     1     134.770 144.005 104.253  1.00  0.00    -0.000 C 
BRANCH  22  23
ATOM     23  C   UNL     1     133.458 143.204 104.199  1.00  0.00    -0.000 C 
BRANCH  23  24
ATOM     24  C   UNL     1     133.057 142.615 105.564  1.00  0.00    -0.000 C 
BRANCH  24  25
ATOM     25  C   UNL     1     134.234 142.294 106.503  1.00  0.00    -0.003 C 
ATOM     26  C   UNL     1     134.001 142.763 107.939  1.00  0.00     0.004 C 
ENDBRANCH  24  25
ENDBRANCH  23  24
ENDBRANCH  22  23
ENDBRANCH  21  22
ENDBRANCH  20  21
ENDBRANCH  19  20
ENDBRANCH  18  19
ENDBRANCH  17  18
ENDBRANCH  16  17
ENDBRANCH  15  16
ENDBRANCH   1  15
TORSDOF 22
ENDMDL
MODEL 3
REMARK VINA RESULT:    -3.887      2.046      6.315
REMARK INTER + INTRA:         -12.758
REMARK INTER:                  -8.661
REMARK INTRA:                  -4.096
REMARK UNBOUND:                -3.872
REMARK SMILES CCCCCCCCCCCCCCCCCCCCCCCC(=O)[O-]
REMARK SMILES IDX 13 1 14 2 15 3 16 4 17 5 18 6 19 7 20 8 21 9 22 10 23 11
REMARK SMILES IDX 24 12 25 13 26 14 12 15 11 16 10 17 9 18 8 19 7 20 6 21 5 22
REMARK SMILES IDX 4 23 3 24 2 25 1 26
REMARK H PARENT
REMARK Flexibility Score: inf
ROOT
ATOM      1  C   UNL     1     130.593 142.946 105.454  1.00  0.00     0.000 C 
ENDROOT
BRANCH   1   2
ATOM      2  C   UNL     1     129.528 142.214 106.292  1.00  0.00     0.000 C 
BRANCH   2   3
ATOM      3  C   UNL     1     128.075 142.598 105.967  1.00  0.00     0.000 C 
BRANCH   3   4
ATOM      4  C   UNL     1     127.974 143.708 104.909  1.00  0.00     0.000 C 
BRANCH   4   5
ATOM      5  C   UNL     1     126.957 144.778 105.334  1.00  0.00     0.000 C 
BRANCH   5   6
ATOM      6  C   UNL     1     127.586 145.848 106.252  1.00  0.00     0.000 C 
BRANCH   6   7
ATOM      7  C   UNL     1     127.028 145.836 107.686  1.00  0.00     0.000 C 
BRANCH   7   8
ATOM      8  C   UNL     1     128.124 145.992 108.753  1.00  0.00     0.000 C 
BRANCH   8   9
ATOM      9  C   UNL     1     128.886 144.672 109.003  1.00  0.00     0.000 C 
BRANCH   9  10
ATOM     10  C   UNL     1     127.999 143.546 109.560  1.00  0.00     0.006 C 
BRANCH  10  11
ATOM     11  C   UNL     1     127.707 143.703 111.057  1.00  0.00     0.053 C 
BRANCH  11  12
ATOM     12  C   UNL     1     128.985 143.758 111.833  1.00  0.00     0.041 C 
ATOM     13  O   UNL     1     129.756 142.762 111.858  1.00  0.00    -0.550 OA
ATOM     14  O   UNL     1     129.283 144.876 112.599  1.00  0.00    -0.550 OA
ENDBRANCH  11  12
ENDBRANCH  10  11
ENDBRANCH   9  10
ENDBRANCH   8   9
ENDBRANCH   7   8
ENDBRANCH   6   7
ENDBRANCH   5   6
ENDBRANCH   4   5
ENDBRANCH   3   4
ENDBRANCH   2   3
ENDBRANCH   1   2
BRANCH   1  15
ATOM     15  C   UNL     1     131.459 143.928 106.271  1.00  0.00     0.000 C 
BRANCH  15  16
ATOM     16  C   UNL     1     131.002 145.387 106.096  1.00  0.00     0.000 C 
BRANCH  16  17
ATOM     17  C   UNL     1     131.995 146.395 106.690  1.00  0.00     0.000 C 
BRANCH  17  18
ATOM     18  C   UNL     1     132.112 146.285 108.221  1.00  0.00    -0.000 C 
BRANCH  18  19
ATOM     19  C   UNL     1     133.584 146.281 108.689  1.00  0.00    -0.000 C 
BRANCH  19  20
ATOM     20  C   UNL     1     134.200 144.874 108.790  1.00  0.00    -0.000 C 
BRANCH  20  21
ATOM     21  C   UNL     1     135.598 144.785 108.154  1.00  0.00    -0.000 C 
BRANCH  21  22
ATOM     22  C   UNL     1     136.000 146.085 107.439  1.00  0.00    -0.000 C 
BRANCH  22  23
ATOM     23  C   UNL     1     136.326 145.860 105.952  1.00  0.00    -0.000 C 
BRANCH  23  24
ATOM     24  C   UNL     1     135.147 146.198 105.021  1.00  0.00    -0.000 C 
BRANCH  24  25
ATOM     25  C   UNL     1     134.515 144.988 104.310  1.00  0.00    -0.003 C 
ATOM     26  C   UNL     1     135.223 143.670 104.624  1.00  0.00     0.004 C 
ENDBRANCH  24  25
ENDBRANCH  23  24
ENDBRANCH  22  23
ENDBRANCH  21  22
ENDBRANCH  20  21
ENDBRANCH  19  20
ENDBRANCH  18  19
ENDBRANCH  17  18
ENDBRANCH  16  17
ENDBRANCH  15  16
ENDBRANCH   1  15
TORSDOF 22
ENDMDL
MODEL 4
REMARK VINA RESULT:    -3.846      2.552      3.742
REMARK INTER + INTRA:         -12.665
REMARK INTER:                  -8.166
REMARK INTRA:                  -4.499
REMARK UNBOUND:                -3.872
REMARK SMILES CCCCCCCCCCCCCCCCCCCCCCCC(=O)[O-]
REMARK SMILES IDX 13 1 14 2 15 3 16 4 17 5 18 6 19 7 20 8 21 9 22 10 23 11
REMARK SMILES IDX 24 12 25 13 26 14 12 15 11 16 10 17 9 18 8 19 7 20 6 21 5 22
REMARK SMILES IDX 4 23 3 24 2 25 1 26
REMARK H PARENT
REMARK Flexibility Score: inf
ROOT
ATOM      1  C   UNL     1     130.020 143.403 105.694  1.00  0.00     0.000 C 
ENDROOT
BRANCH   1   2
ATOM      2  C   UNL     1     130.709 143.606 107.057  1.00  0.00     0.000 C 
BRANCH   2   3
ATOM      3  C   UNL     1     131.270 145.018 107.292  1.00  0.00     0.000 C 
BRANCH   3   4
ATOM      4  C   UNL     1     130.908 145.999 106.166  1.00  0.00     0.000 C 
BRANCH   4   5
ATOM      5  C   UNL     1     132.139 146.807 105.729  1.00  0.00     0.000 C 
BRANCH   5   6
ATOM      6  C   UNL     1     133.458 146.046 105.985  1.00  0.00     0.000 C 
BRANCH   6   7
ATOM      7  C   UNL     1     134.375 145.972 104.753  1.00  0.00     0.000 C 
BRANCH   7   8
ATOM      8  C   UNL     1     134.745 144.528 104.373  1.00  0.00     0.000 C 
BRANCH   8   9
ATOM      9  C   UNL     1     133.574 143.548 104.601  1.00  0.00     0.000 C 
BRANCH   9  10
ATOM     10  C   UNL     1     133.939 142.350 105.493  1.00  0.00     0.006 C 
BRANCH  10  11
ATOM     11  C   UNL     1     135.079 142.661 106.471  1.00  0.00     0.053 C 
BRANCH  11  12
ATOM     12  C   UNL     1     134.530 142.941 107.835  1.00  0.00     0.041 C 
ATOM     13  O   UNL     1     133.673 142.171 108.345  1.00  0.00    -0.550 OA
ATOM     14  O   UNL     1     134.898 144.099 108.505  1.00  0.00    -0.550 OA
ENDBRANCH  11  12
ENDBRANCH  10  11
ENDBRANCH   9  10
ENDBRANCH   8   9
ENDBRANCH   7   8
ENDBRANCH   6   7
ENDBRANCH   5   6
ENDBRANCH   4   5
ENDBRANCH   3   4
ENDBRANCH   2   3
ENDBRANCH   1   2
BRANCH   1  15
ATOM     15  C   UNL     1     128.740 142.542 105.768  1.00  0.00     0.000 C 
BRANCH  15  16
ATOM     16  C   UNL     1     127.462 143.396 105.694  1.00  0.00     0.000 C 
BRANCH  16  17
ATOM     17  C   UNL     1     127.689 144.743 104.993  1.00  0.00     0.000 C 
BRANCH  17  18
ATOM     18  C   UNL     1     127.274 145.944 105.862  1.00  0.00    -0.000 C 
BRANCH  18  19
ATOM     19  C   UNL     1     126.875 145.513 107.291  1.00  0.00    -0.000 C 
BRANCH  19  20
ATOM     20  C   UNL     1     127.917 145.877 108.364  1.00  0.00    -0.000 C 
BRANCH  20  21
ATOM     21  C   UNL     1     127.665 145.171 109.707  1.00  0.00    -0.000 C 
BRANCH  21  22
ATOM     22  C   UNL     1     128.476 143.872 109.847  1.00  0.00    -0.000 C 
BRANCH  22  23
ATOM     23  C   UNL     1     129.313 143.841 111.138  1.00  0.00    -0.000 C 
BRANCH  23  24
ATOM     24  C   UNL     1     129.841 145.229 111.545  1.00  0.00    -0.000 C 
BRANCH  24  25
ATOM     25  C   UNL     1     131.372 145.380 111.500  1.00  0.00    -0.003 C 
ATOM     26  C   UNL     1     132.067 144.231 110.769  1.00  0.00     0.004 C 
ENDBRANCH  24  25
ENDBRANCH  23  24
ENDBRANCH  22  23
ENDBRANCH  21  22
ENDBRANCH  20  21
ENDBRANCH  19  20
ENDBRANCH  18  19
ENDBRANCH  17  18
ENDBRANCH  16  17
ENDBRANCH  15  16
ENDBRANCH   1  15
TORSDOF 22
ENDMDL
MODEL 5
REMARK VINA RESULT:    -3.800      3.660      5.116
REMARK INTER + INTRA:         -12.560
REMARK INTER:                  -8.121
REMARK INTRA:                  -4.439
REMARK UNBOUND:                -3.872
REMARK SMILES CCCCCCCCCCCCCCCCCCCCCCCC(=O)[O-]
REMARK SMILES IDX 13 1 14 2 15 3 16 4 17 5 18 6 19 7 20 8 21 9 22 10 23 11
REMARK SMILES IDX 24 12 25 13 26 14 12 15 11 16 10 17 9 18 8 19 7 20 6 21 5 22
REMARK SMILES IDX 4 23 3 24 2 25 1 26
REMARK H PARENT
REMARK Flexibility Score: inf
ROOT
ATOM      1  C   UNL     1     129.612 141.789 108.558  1.00  0.00     0.000 C 
ENDROOT
BRANCH   1   2
ATOM      2  C   UNL     1     130.671 142.756 107.994  1.00  0.00     0.000 C 
BRANCH   2   3
ATOM      3  C   UNL     1     131.110 142.460 106.550  1.00  0.00     0.000 C 
BRANCH   3   4
ATOM      4  C   UNL     1     131.153 143.719 105.669  1.00  0.00     0.000 C 
BRANCH   4   5
ATOM      5  C   UNL     1     130.734 144.961 106.470  1.00  0.00     0.000 C 
BRANCH   5   6
ATOM      6  C   UNL     1     131.799 146.078 106.412  1.00  0.00     0.000 C 
BRANCH   6   7
ATOM      7  C   UNL     1     133.020 145.812 107.309  1.00  0.00     0.000 C 
BRANCH   7   8
ATOM      8  C   UNL     1     134.346 145.827 106.529  1.00  0.00     0.000 C 
BRANCH   8   9
ATOM      9  C   UNL     1     134.129 146.041 105.016  1.00  0.00     0.000 C 
BRANCH   9  10
ATOM     10  C   UNL     1     134.693 144.904 104.147  1.00  0.00     0.006 C 
BRANCH  10  11
ATOM     11  C   UNL     1     135.340 143.786 104.973  1.00  0.00     0.053 C 
BRANCH  11  12
ATOM     12  C   UNL     1     135.121 142.461 104.316  1.00  0.00     0.041 C 
ATOM     13  O   UNL     1     133.960 141.979 104.229  1.00  0.00    -0.550 OA
ATOM     14  O   UNL     1     136.208 141.716 103.879  1.00  0.00    -0.550 OA
ENDBRANCH  11  12
ENDBRANCH  10  11
ENDBRANCH   9  10
ENDBRANCH   8   9
ENDBRANCH   7   8
ENDBRANCH   6   7
ENDBRANCH   5   6
ENDBRANCH   4   5
ENDBRANCH   3   4
ENDBRANCH   2   3
ENDBRANCH   1   2
BRANCH   1  15
ATOM     15  C   UNL     1     129.516 140.455 107.787  1.00  0.00     0.000 C 
BRANCH  15  16
ATOM     16  C   UNL     1     128.096 140.195 107.253  1.00  0.00     0.000 C 
BRANCH  16  17
ATOM     17  C   UNL     1     127.258 141.477 107.147  1.00  0.00     0.000 C 
BRANCH  17  18
ATOM     18  C   UNL     1     127.325 142.119 105.750  1.00  0.00    -0.000 C 
BRANCH  18  19
ATOM     19  C   UNL     1     127.371 143.661 105.825  1.00  0.00    -0.000 C 
BRANCH  19  20
ATOM     20  C   UNL     1     127.215 144.220 107.250  1.00  0.00    -0.000 C 
BRANCH  20  21
ATOM     21  C   UNL     1     127.078 145.752 107.282  1.00  0.00    -0.000 C 
BRANCH  21  22
ATOM     22  C   UNL     1     127.541 146.353 108.619  1.00  0.00    -0.000 C 
BRANCH  22  23
ATOM     23  C   UNL     1     128.425 145.384 109.424  1.00  0.00    -0.000 C 
BRANCH  23  24
ATOM     24  C   UNL     1     129.754 146.018 109.875  1.00  0.00    -0.000 C 
BRANCH  24  25
ATOM     25  C   UNL     1     130.430 145.324 111.071  1.00  0.00    -0.003 C 
ATOM     26  C   UNL     1     131.845 144.836 110.760  1.00  0.00     0.004 C 
ENDBRANCH  24  25
ENDBRANCH  23  24
ENDBRANCH  22  23
ENDBRANCH  21  22
ENDBRANCH  20  21
ENDBRANCH  19  20
ENDBRANCH  18  19
ENDBRANCH  17  18
ENDBRANCH  16  17
ENDBRANCH  15  16
ENDBRANCH   1  15
TORSDOF 22
ENDMDL
MODEL 6
REMARK VINA RESULT:    -3.797      2.566      5.355
REMARK INTER + INTRA:         -12.552
REMARK INTER:                  -7.957
REMARK INTRA:                  -4.596
REMARK UNBOUND:                -3.872
REMARK SMILES CCCCCCCCCCCCCCCCCCCCCCCC(=O)[O-]
REMARK SMILES IDX 13 1 14 2 15 3 16 4 17 5 18 6 19 7 20 8 21 9 22 10 23 11
REMARK SMILES IDX 24 12 25 13 26 14 12 15 11 16 10 17 9 18 8 19 7 20 6 21 5 22
REMARK SMILES IDX 4 23 3 24 2 25 1 26
REMARK H PARENT
REMARK Flexibility Score: inf
ROOT
ATOM      1  C   UNL     1     133.817 142.321 105.539  1.00  0.00     0.000 C 
ENDROOT
BRANCH   1   2
ATOM      2  C   UNL     1     132.364 141.979 105.922  1.00  0.00     0.000 C 
BRANCH   2   3
ATOM      3  C   UNL     1     131.929 142.475 107.310  1.00  0.00     0.000 C 
BRANCH   3   4
ATOM      4  C   UNL     1     133.062 143.177 108.075  1.00  0.00     0.000 C 
BRANCH   4   5
ATOM      5  C   UNL     1     132.572 143.672 109.444  1.00  0.00     0.000 C 
BRANCH   5   6
ATOM      6  C   UNL     1     133.212 145.020 109.841  1.00  0.00     0.000 C 
BRANCH   6   7
ATOM      7  C   UNL     1     132.201 146.174 109.946  1.00  0.00     0.000 C 
BRANCH   7   8
ATOM      8  C   UNL     1     130.882 145.750 110.613  1.00  0.00     0.000 C 
BRANCH   8   9
ATOM      9  C   UNL     1     129.648 146.300 109.867  1.00  0.00     0.000 C 
BRANCH   9  10
ATOM     10  C   UNL     1     128.515 145.272 109.708  1.00  0.00     0.006 C 
BRANCH  10  11
ATOM     11  C   UNL     1     129.002 143.931 109.146  1.00  0.00     0.053 C 
BRANCH  11  12
ATOM     12  C   UNL     1     128.551 142.806 110.024  1.00  0.00     0.041 C 
ATOM     13  O   UNL     1     127.332 142.495 110.082  1.00  0.00    -0.550 OA
ATOM     14  O   UNL     1     129.465 142.160 110.845  1.00  0.00    -0.550 OA
ENDBRANCH  11  12
ENDBRANCH  10  11
ENDBRANCH   9  10
ENDBRANCH   8   9
ENDBRANCH   7   8
ENDBRANCH   6   7
ENDBRANCH   5   6
ENDBRANCH   4   5
ENDBRANCH   3   4
ENDBRANCH   2   3
ENDBRANCH   1   2
BRANCH   1  15
ATOM     15  C   UNL     1     133.937 143.482 104.529  1.00  0.00     0.000 C 
BRANCH  15  16
ATOM     16  C   UNL     1     134.948 144.547 104.987  1.00  0.00     0.000 C 
BRANCH  16  17
ATOM     17  C   UNL     1     134.361 145.965 104.978  1.00  0.00     0.000 C 
BRANCH  17  18
ATOM     18  C   UNL     1     133.447 146.239 106.186  1.00  0.00    -0.000 C 
BRANCH  18  19
ATOM     19  C   UNL     1     132.012 146.608 105.752  1.00  0.00    -0.000 C 
BRANCH  19  20
ATOM     20  C   UNL     1     130.916 145.979 106.630  1.00  0.00    -0.000 C 
BRANCH  20  21
ATOM     21  C   UNL     1     129.930 145.112 105.829  1.00  0.00    -0.000 C 
BRANCH  21  22
ATOM     22  C   UNL     1     128.514 145.709 105.800  1.00  0.00    -0.000 C 
BRANCH  22  23
ATOM     23  C   UNL     1     127.445 144.665 105.429  1.00  0.00    -0.000 C 
BRANCH  23  24
ATOM     24  C   UNL     1     128.023 143.247 105.265  1.00  0.00    -0.000 C 
BRANCH  24  25
ATOM     25  C   UNL     1     127.485 142.208 106.264  1.00  0.00    -0.003 C 
ATOM     26  C   UNL     1     128.476 141.078 106.547  1.00  0.00     0.004 C 
ENDBRANCH  24  25
ENDBRANCH  23  24
ENDBRANCH  22  23
ENDBRANCH  21  22
ENDBRANCH  20  21
ENDBRANCH  19  20
ENDBRANCH  18  19
ENDBRANCH  17  18
ENDBRANCH  16  17
ENDBRANCH  15  16
ENDBRANCH   1  15
TORSDOF 22
ENDMDL
MODEL 7
REMARK VINA RESULT:    -3.781      4.400      7.140
REMARK INTER + INTRA:         -12.516
REMARK INTER:                  -9.086
REMARK INTRA:                  -3.430
REMARK UNBOUND:                -3.872
REMARK SMILES CCCCCCCCCCCCCCCCCCCCCCCC(=O)[O-]
REMARK SMILES IDX 13 1 14 2 15 3 16 4 17 5 18 6 19 7 20 8 21 9 22 10 23 11
REMARK SMILES IDX 24 12 25 13 26 14 12 15 11 16 10 17 9 18 8 19 7 20 6 21 5 22
REMARK SMILES IDX 4 23 3 24 2 25 1 26
REMARK H PARENT
REMARK Flexibility Score: inf
ROOT
ATOM      1  C   UNL     1     129.461 142.314 105.745  1.00  0.00     0.000 C 
ENDROOT
BRANCH   1   2
ATOM      2  C   UNL     1     128.775 143.370 104.858  1.00  0.00     0.000 C 
BRANCH   2   3
ATOM      3  C   UNL     1     127.413 143.862 105.377  1.00  0.00     0.000 C 
BRANCH   3   4
ATOM      4  C   UNL     1     127.205 145.370 105.173  1.00  0.00     0.000 C 
BRANCH   4   5
ATOM      5  C   UNL     1     126.894 146.065 106.506  1.00  0.00     0.000 C 
BRANCH   5   6
ATOM      6  C   UNL     1     127.008 145.101 107.707  1.00  0.00     0.000 C 
BRANCH   6   7
ATOM      7  C   UNL     1     128.104 145.494 108.712  1.00  0.00     0.000 C 
BRANCH   7   8
ATOM      8  C   UNL     1     129.476 144.896 108.360  1.00  0.00     0.000 C 
BRANCH   8   9
ATOM      9  C   UNL     1     130.467 145.967 107.857  1.00  0.00     0.000 C 
BRANCH   9  10
ATOM     10  C   UNL     1     130.933 145.744 106.409  1.00  0.00     0.006 C 
BRANCH  10  11
ATOM     11  C   UNL     1     132.077 146.680 106.000  1.00  0.00     0.053 C 
BRANCH  11  12
ATOM     12  C   UNL     1     133.372 145.931 105.962  1.00  0.00     0.041 C 
ATOM     13  O   UNL     1     133.446 144.820 105.372  1.00  0.00    -0.550 OA
ATOM     14  O   UNL     1     134.473 146.416 106.653  1.00  0.00    -0.550 OA
ENDBRANCH  11  12
ENDBRANCH  10  11
ENDBRANCH   9  10
ENDBRANCH   8   9
ENDBRANCH   7   8
ENDBRANCH   6   7
ENDBRANCH   5   6
ENDBRANCH   4   5
ENDBRANCH   3   4
ENDBRANCH   2   3
ENDBRANCH   1   2
BRANCH   1  15
ATOM     15  C   UNL     1     128.552 141.754 106.860  1.00  0.00     0.000 C 
BRANCH  15  16
ATOM     16  C   UNL     1     128.184 140.279 106.623  1.00  0.00     0.000 C 
BRANCH  16  17
ATOM     17  C   UNL     1     127.729 139.567 107.904  1.00  0.00     0.000 C 
BRANCH  17  18
ATOM     18  C   UNL     1     128.883 138.850 108.629  1.00  0.00    -0.000 C 
BRANCH  18  19
ATOM     19  C   UNL     1     128.692 137.318 108.644  1.00  0.00    -0.000 C 
BRANCH  19  20
ATOM     20  C   UNL     1     127.361 136.850 108.028  1.00  0.00    -0.000 C 
BRANCH  20  21
ATOM     21  C   UNL     1     127.463 135.469 107.360  1.00  0.00    -0.000 C 
BRANCH  21  22
ATOM     22  C   UNL     1     127.510 135.561 105.826  1.00  0.00    -0.000 C 
BRANCH  22  23
ATOM     23  C   UNL     1     127.252 136.991 105.317  1.00  0.00    -0.000 C 
BRANCH  23  24
ATOM     24  C   UNL     1     128.184 137.392 104.158  1.00  0.00    -0.000 C 
BRANCH  24  25
ATOM     25  C   UNL     1     129.652 136.961 104.327  1.00  0.00    -0.003 C 
ATOM     26  C   UNL     1     130.426 137.837 105.312  1.00  0.00     0.004 C 
ENDBRANCH  24  25
ENDBRANCH  23  24
ENDBRANCH  22  23
ENDBRANCH  21  22
ENDBRANCH  20  21
ENDBRANCH  19  20
ENDBRANCH  18  19
ENDBRANCH  17  18
ENDBRANCH  16  17
ENDBRANCH  15  16
ENDBRANCH   1  15
TORSDOF 22
ENDMDL
MODEL 8
REMARK VINA RESULT:    -3.777      1.964      5.079
REMARK INTER + INTRA:         -12.506
REMARK INTER:                  -7.782
REMARK INTRA:                  -4.724
REMARK UNBOUND:                -3.872
REMARK SMILES CCCCCCCCCCCCCCCCCCCCCCCC(=O)[O-]
REMARK SMILES IDX 13 1 14 2 15 3 16 4 17 5 18 6 19 7 20 8 21 9 22 10 23 11
REMARK SMILES IDX 24 12 25 13 26 14 12 15 11 16 10 17 9 18 8 19 7 20 6 21 5 22
REMARK SMILES IDX 4 23 3 24 2 25 1 26
REMARK H PARENT
REMARK Flexibility Score: inf
ROOT
ATOM      1  C   UNL     1     127.687 141.830 107.922  1.00  0.00     0.000 C 
ENDROOT
BRANCH   1   2
ATOM      2  C   UNL     1     127.182 143.005 107.063  1.00  0.00     0.000 C 
BRANCH   2   3
ATOM      3  C   UNL     1     127.444 142.860 105.555  1.00  0.00     0.000 C 
BRANCH   3   4
ATOM      4  C   UNL     1     127.870 144.180 104.893  1.00  0.00     0.000 C 
BRANCH   4   5
ATOM      5  C   UNL     1     128.035 145.289 105.943  1.00  0.00     0.000 C 
BRANCH   5   6
ATOM      6  C   UNL     1     129.519 145.573 106.262  1.00  0.00     0.000 C 
BRANCH   6   7
ATOM      7  C   UNL     1     129.823 145.635 107.769  1.00  0.00     0.000 C 
BRANCH   7   8
ATOM      8  C   UNL     1     128.602 146.056 108.605  1.00  0.00     0.000 C 
BRANCH   8   9
ATOM      9  C   UNL     1     128.445 145.199 109.879  1.00  0.00     0.000 C 
BRANCH   9  10
ATOM     10  C   UNL     1     129.784 144.793 110.517  1.00  0.00     0.006 C 
BRANCH  10  11
ATOM     11  C   UNL     1     129.807 144.999 112.037  1.00  0.00     0.053 C 
BRANCH  11  12
ATOM     12  C   UNL     1     129.933 143.682 112.737  1.00  0.00     0.041 C 
ATOM     13  O   UNL     1     130.152 142.631 112.078  1.00  0.00    -0.550 OA
ATOM     14  O   UNL     1     129.719 143.602 114.105  1.00  0.00    -0.550 OA
ENDBRANCH  11  12
ENDBRANCH  10  11
ENDBRANCH   9  10
ENDBRANCH   8   9
ENDBRANCH   7   8
ENDBRANCH   6   7
ENDBRANCH   5   6
ENDBRANCH   4   5
ENDBRANCH   3   4
ENDBRANCH   2   3
ENDBRANCH   1   2
BRANCH   1  15
ATOM     15  C   UNL     1     129.073 141.300 107.497  1.00  0.00     0.000 C 
BRANCH  15  16
ATOM     16  C   UNL     1     130.215 141.977 108.275  1.00  0.00     0.000 C 
BRANCH  16  17
ATOM     17  C   UNL     1     131.375 142.412 107.367  1.00  0.00     0.000 C 
BRANCH  17  18
ATOM     18  C   UNL     1     131.079 142.188 105.874  1.00  0.00    -0.000 C 
BRANCH  18  19
ATOM     19  C   UNL     1     131.998 143.036 104.969  1.00  0.00    -0.000 C 
BRANCH  19  20
ATOM     20  C   UNL     1     133.309 143.472 105.648  1.00  0.00    -0.000 C 
BRANCH  20  21
ATOM     21  C   UNL     1     134.116 144.474 104.805  1.00  0.00    -0.000 C 
BRANCH  21  22
ATOM     22  C   UNL     1     134.392 145.785 105.559  1.00  0.00    -0.000 C 
BRANCH  22  23
ATOM     23  C   UNL     1     133.326 146.083 106.627  1.00  0.00    -0.000 C 
BRANCH  23  24
ATOM     24  C   UNL     1     133.932 146.466 107.990  1.00  0.00    -0.000 C 
BRANCH  24  25
ATOM     25  C   UNL     1     133.140 145.971 109.214  1.00  0.00    -0.003 C 
ATOM     26  C   UNL     1     133.397 144.499 109.539  1.00  0.00     0.004 C 
ENDBRANCH  24  25
ENDBRANCH  23  24
ENDBRANCH  22  23
ENDBRANCH  21  22
ENDBRANCH  20  21
ENDBRANCH  19  20
ENDBRANCH  18  19
ENDBRANCH  17  18
ENDBRANCH  16  17
ENDBRANCH  15  16
ENDBRANCH   1  15
TORSDOF 22
ENDMDL
