MODEL 1
REMARK VINA RESULT:    -5.925      0.000      0.000
REMARK INTER + INTRA:         -17.168
REMARK INTER:                 -13.544
REMARK INTRA:                  -3.624
REMARK UNBOUND:                -3.624
REMARK SMILES CCCCCCCCCCCCCCCCCCCCCCCC(=O)[O-]
REMARK SMILES IDX 13 1 14 2 15 3 16 4 17 5 18 6 19 7 20 8 21 9 22 10 23 11
REMARK SMILES IDX 24 12 25 13 26 14 12 15 11 16 10 17 9 18 8 19 7 20 6 21 5 22
REMARK SMILES IDX 4 23 3 24 2 25 1 26
REMARK H PARENT
REMARK Flexibility Score: inf
ROOT
ATOM      1  C   UNL     1       4.731   7.465   5.324  1.00  0.00     0.000 C 
ENDROOT
BRANCH   1   2
ATOM      2  C   UNL     1       6.143   6.891   5.067  1.00  0.00     0.000 C 
BRANCH   2   3
ATOM      3  C   UNL     1       7.261   7.932   5.262  1.00  0.00     0.000 C 
BRANCH   3   4
ATOM      4  C   UNL     1       8.379   7.431   6.190  1.00  0.00     0.000 C 
BRANCH   4   5
ATOM      5  C   UNL     1       7.876   7.096   7.601  1.00  0.00     0.000 C 
BRANCH   5   6
ATOM      6  C   UNL     1       8.492   5.785   8.105  1.00  0.00     0.000 C 
BRANCH   6   7
ATOM      7  C   UNL     1       7.413   4.833   8.635  1.00  0.00     0.000 C 
BRANCH   7   8
ATOM      8  C   UNL     1       6.689   4.127   7.482  1.00  0.00     0.000 C 
BRANCH   8   9
ATOM      9  C   UNL     1       5.167   4.221   7.645  1.00  0.00     0.000 C 
BRANCH   9  10
ATOM     10  C   UNL     1       4.776   5.489   8.417  1.00  0.00     0.006 C 
BRANCH  10  11
ATOM     11  C   UNL     1       3.463   5.315   9.195  1.00  0.00     0.053 C 
BRANCH  11  12
ATOM     12  C   UNL     1       2.352   4.821   8.318  1.00  0.00     0.041 C 
ATOM     13  O   UNL     1       1.952   5.518   7.346  1.00  0.00    -0.550 OA
ATOM     14  O   UNL     1       1.767   3.587   8.567  1.00  0.00    -0.550 OA
ENDBRANCH  11  12
ENDBRANCH  10  11
ENDBRANCH   9  10
ENDBRANCH   8   9
ENDBRANCH   7   8
ENDBRANCH   6   7
ENDBRANCH   5   6
ENDBRANCH   4   5
ENDBRANCH   3   4
ENDBRANCH   2   3
ENDBRANCH   1   2
BRANCH   1  15
ATOM     15  C   UNL     1       4.648   8.395   6.550  1.00  0.00     0.000 C 
BRANCH  15  16
ATOM     16  C   UNL     1       3.219   8.784   6.966  1.00  0.00     0.000 C 
BRANCH  16  17
ATOM     17  C   UNL     1       3.098   9.183   8.454  1.00  0.00     0.000 C 
BRANCH  17  18
ATOM     18  C   UNL     1       1.782   8.698   9.089  1.00  0.00    -0.000 C 
BRANCH  18  19
ATOM     19  C   UNL     1       1.648   9.136  10.558  1.00  0.00    -0.000 C 
BRANCH  19  20
ATOM     20  C   UNL     1       2.015   8.022  11.565  1.00  0.00    -0.000 C 
BRANCH  20  21
ATOM     21  C   UNL     1       1.242   8.118  12.891  1.00  0.00    -0.000 C 
BRANCH  21  22
ATOM     22  C   UNL     1       0.159   7.034  13.025  1.00  0.00    -0.000 C 
BRANCH  22  23
ATOM     23  C   UNL     1       0.330   5.908  11.986  1.00  0.00    -0.000 C 
BRANCH  23  24
ATOM     24  C   UNL     1      -0.976   5.508  11.274  1.00  0.00    -0.000 C 
BRANCH  24  25
ATOM     25  C   UNL     1      -0.914   5.611   9.737  1.00  0.00    -0.003 C 
ATOM     26  C   UNL     1      -1.378   6.972   9.218  1.00  0.00     0.004 C 
ENDBRANCH  24  25
ENDBRANCH  23  24
ENDBRANCH  22  23
ENDBRANCH  21  22
ENDBRANCH  20  21
ENDBRANCH  19  20
ENDBRANCH  18  19
ENDBRANCH  17  18
ENDBRANCH  16  17
ENDBRANCH  15  16
ENDBRANCH   1  15
TORSDOF 22
ENDMDL
MODEL 2
REMARK VINA RESULT:    -5.914      0.968      6.997
REMARK INTER + INTRA:         -17.145
REMARK INTER:                 -13.529
REMARK INTRA:                  -3.616
REMARK UNBOUND:                -3.624
REMARK SMILES CCCCCCCCCCCCCCCCCCCCCCCC(=O)[O-]
REMARK SMILES IDX 13 1 14 2 15 3 16 4 17 5 18 6 19 7 20 8 21 9 22 10 23 11
REMARK SMILES IDX 24 12 25 13 26 14 12 15 11 16 10 17 9 18 8 19 7 20 6 21 5 22
REMARK SMILES IDX 4 23 3 24 2 25 1 26
REMARK H PARENT
REMARK Flexibility Score: inf
ROOT
ATOM      1  C   UNL     1       2.342   9.440   9.233  1.00  0.00     0.000 C 
ENDROOT
BRANCH   1   2
ATOM      2  C   UNL     1       1.623   9.550  10.597  1.00  0.00     0.000 C 
BRANCH   2   3
ATOM      3  C   UNL     1       2.024   8.435  11.581  1.00  0.00     0.000 C 
BRANCH   3   4
ATOM      4  C   UNL     1       1.108   8.379  12.815  1.00  0.00     0.000 C 
BRANCH   4   5
ATOM      5  C   UNL     1       0.517   6.983  13.055  1.00  0.00     0.000 C 
BRANCH   5   6
ATOM      6  C   UNL     1       0.502   6.165  11.758  1.00  0.00     0.000 C 
BRANCH   6   7
ATOM      7  C   UNL     1      -0.885   5.565  11.498  1.00  0.00     0.000 C 
BRANCH   7   8
ATOM      8  C   UNL     1      -1.301   5.754  10.034  1.00  0.00     0.000 C 
BRANCH   8   9
ATOM      9  C   UNL     1      -0.263   6.584   9.268  1.00  0.00     0.000 C 
BRANCH   9  10
ATOM     10  C   UNL     1       0.185   5.858   7.991  1.00  0.00     0.006 C 
BRANCH  10  11
ATOM     11  C   UNL     1       1.712   5.704   7.914  1.00  0.00     0.053 C 
BRANCH  11  12
ATOM     12  C   UNL     1       2.200   4.539   8.721  1.00  0.00     0.041 C 
ATOM     13  O   UNL     1       1.899   3.362   8.384  1.00  0.00    -0.550 OA
ATOM     14  O   UNL     1       2.999   4.753   9.836  1.00  0.00    -0.550 OA
ENDBRANCH  11  12
ENDBRANCH  10  11
ENDBRANCH   9  10
ENDBRANCH   8   9
ENDBRANCH   7   8
ENDBRANCH   6   7
ENDBRANCH   5   6
ENDBRANCH   4   5
ENDBRANCH   3   4
ENDBRANCH   2   3
ENDBRANCH   1   2
BRANCH   1  15
ATOM     15  C   UNL     1       3.277   8.221   9.116  1.00  0.00     0.000 C 
BRANCH  15  16
ATOM     16  C   UNL     1       4.639   8.515   8.465  1.00  0.00     0.000 C 
BRANCH  16  17
ATOM     17  C   UNL     1       4.541   8.873   6.965  1.00  0.00     0.000 C 
BRANCH  17  18
ATOM     18  C   UNL     1       4.300   7.636   6.080  1.00  0.00    -0.000 C 
BRANCH  18  19
ATOM     19  C   UNL     1       5.471   7.371   5.118  1.00  0.00    -0.000 C 
BRANCH  19  20
ATOM     20  C   UNL     1       6.609   8.411   5.235  1.00  0.00    -0.000 C 
BRANCH  20  21
ATOM     21  C   UNL     1       7.944   7.807   5.699  1.00  0.00    -0.000 C 
BRANCH  21  22
ATOM     22  C   UNL     1       7.967   7.506   7.208  1.00  0.00    -0.000 C 
BRANCH  22  23
ATOM     23  C   UNL     1       8.846   6.286   7.545  1.00  0.00    -0.000 C 
BRANCH  23  24
ATOM     24  C   UNL     1       8.095   5.151   8.266  1.00  0.00    -0.000 C 
BRANCH  24  25
ATOM     25  C   UNL     1       6.564   5.330   8.302  1.00  0.00    -0.003 C 
ATOM     26  C   UNL     1       5.838   4.399   7.332  1.00  0.00     0.004 C 
ENDBRANCH  24  25
ENDBRANCH  23  24
ENDBRANCH  22  23
ENDBRANCH  21  22
ENDBRANCH  20  21
ENDBRANCH  19  20
ENDBRANCH  18  19
ENDBRANCH  17  18
ENDBRANCH  16  17
ENDBRANCH  15  16
ENDBRANCH   1  15
TORSDOF 22
ENDMDL
MODEL 3
REMARK VINA RESULT:    -5.883      1.819      3.629
REMARK INTER + INTRA:         -17.074
REMARK INTER:                 -13.302
REMARK INTRA:                  -3.772
REMARK UNBOUND:                -3.624
REMARK SMILES CCCCCCCCCCCCCCCCCCCCCCCC(=O)[O-]
REMARK SMILES IDX 13 1 14 2 15 3 16 4 17 5 18 6 19 7 20 8 21 9 22 10 23 11
REMARK SMILES IDX 24 12 25 13 26 14 12 15 11 16 10 17 9 18 8 19 7 20 6 21 5 22
REMARK SMILES IDX 4 23 3 24 2 25 1 26
REMARK H PARENT
REMARK Flexibility Score: inf
ROOT
ATOM      1  C   UNL     1       3.020   4.792   9.494  1.00  0.00     0.000 C 
ENDROOT
BRANCH   1   2
ATOM      2  C   UNL     1       2.598   4.250   8.109  1.00  0.00     0.000 C 
BRANCH   2   3
ATOM      3  C   UNL     1       3.796   3.940   7.192  1.00  0.00     0.000 C 
BRANCH   3   4
ATOM      4  C   UNL     1       5.088   3.670   7.980  1.00  0.00     0.000 C 
BRANCH   4   5
ATOM      5  C   UNL     1       6.318   4.345   7.357  1.00  0.00     0.000 C 
BRANCH   5   6
ATOM      6  C   UNL     1       6.946   5.347   8.333  1.00  0.00     0.000 C 
BRANCH   6   7
ATOM      7  C   UNL     1       8.424   5.587   8.006  1.00  0.00     0.000 C 
BRANCH   7   8
ATOM      8  C   UNL     1       8.655   7.024   7.522  1.00  0.00     0.000 C 
BRANCH   8   9
ATOM      9  C   UNL     1       8.210   7.193   6.064  1.00  0.00     0.000 C 
BRANCH   9  10
ATOM     10  C   UNL     1       7.425   8.500   5.878  1.00  0.00     0.006 C 
BRANCH  10  11
ATOM     11  C   UNL     1       5.906   8.276   5.913  1.00  0.00     0.053 C 
BRANCH  11  12
ATOM     12  C   UNL     1       5.271   8.921   7.108  1.00  0.00     0.041 C 
ATOM     13  O   UNL     1       5.550   8.520   8.270  1.00  0.00    -0.550 OA
ATOM     14  O   UNL     1       4.382   9.974   6.938  1.00  0.00    -0.550 OA
ENDBRANCH  11  12
ENDBRANCH  10  11
ENDBRANCH   9  10
ENDBRANCH   8   9
ENDBRANCH   7   8
ENDBRANCH   6   7
ENDBRANCH   5   6
ENDBRANCH   4   5
ENDBRANCH   3   4
ENDBRANCH   2   3
ENDBRANCH   1   2
BRANCH   1  15
ATOM     15  C   UNL     1       3.108   6.329   9.563  1.00  0.00     0.000 C 
BRANCH  15  16
ATOM     16  C   UNL     1       2.368   7.067   8.435  1.00  0.00     0.000 C 
BRANCH  16  17
ATOM     17  C   UNL     1       1.618   8.330   8.913  1.00  0.00     0.000 C 
BRANCH  17  18
ATOM     18  C   UNL     1       2.543   9.327   9.634  1.00  0.00    -0.000 C 
BRANCH  18  19
ATOM     19  C   UNL     1       2.101   9.588  11.084  1.00  0.00    -0.000 C 
BRANCH  19  20
ATOM     20  C   UNL     1       0.940   8.677  11.545  1.00  0.00    -0.000 C 
BRANCH  20  21
ATOM     21  C   UNL     1       1.263   7.870  12.814  1.00  0.00    -0.000 C 
BRANCH  21  22
ATOM     22  C   UNL     1       0.673   6.450  12.780  1.00  0.00    -0.000 C 
BRANCH  22  23
ATOM     23  C   UNL     1      -0.456   6.312  11.740  1.00  0.00    -0.000 C 
BRANCH  23  24
ATOM     24  C   UNL     1      -0.310   5.091  10.812  1.00  0.00    -0.000 C 
BRANCH  24  25
ATOM     25  C   UNL     1      -0.773   5.340   9.363  1.00  0.00    -0.003 C 
ATOM     26  C   UNL     1      -1.368   6.734   9.165  1.00  0.00     0.004 C 
ENDBRANCH  24  25
ENDBRANCH  23  24
ENDBRANCH  22  23
ENDBRANCH  21  22
ENDBRANCH  20  21
ENDBRANCH  19  20
ENDBRANCH  18  19
ENDBRANCH  17  18
ENDBRANCH  16  17
ENDBRANCH  15  16
ENDBRANCH   1  15
TORSDOF 22
ENDMDL
MODEL 4
REMARK VINA RESULT:    -5.877      1.152      6.878
REMARK INTER + INTRA:         -17.059
REMARK INTER:                 -13.527
REMARK INTRA:                  -3.532
REMARK UNBOUND:                -3.624
REMARK SMILES CCCCCCCCCCCCCCCCCCCCCCCC(=O)[O-]
REMARK SMILES IDX 13 1 14 2 15 3 16 4 17 5 18 6 19 7 20 8 21 9 22 10 23 11
REMARK SMILES IDX 24 12 25 13 26 14 12 15 11 16 10 17 9 18 8 19 7 20 6 21 5 22
REMARK SMILES IDX 4 23 3 24 2 25 1 26
REMARK H PARENT
REMARK Flexibility Score: inf
ROOT
ATOM      1  C   UNL     1       4.593   8.582   8.393  1.00  0.00     0.000 C 
ENDROOT
BRANCH   1   2
ATOM      2  C   UNL     1       3.210   9.025   7.864  1.00  0.00     0.000 C 
BRANCH   2   3
ATOM      3  C   UNL     1       2.309   9.624   8.960  1.00  0.00     0.000 C 
BRANCH   3   4
ATOM      4  C   UNL     1       1.409   8.570   9.625  1.00  0.00     0.000 C 
BRANCH   4   5
ATOM      5  C   UNL     1       2.004   8.014  10.926  1.00  0.00     0.000 C 
BRANCH   5   6
ATOM      6  C   UNL     1       1.360   8.677  12.150  1.00  0.00     0.000 C 
BRANCH   6   7
ATOM      7  C   UNL     1       0.499   7.679  12.932  1.00  0.00     0.000 C 
BRANCH   7   8
ATOM      8  C   UNL     1       0.581   6.278  12.312  1.00  0.00     0.000 C 
BRANCH   8   9
ATOM      9  C   UNL     1      -0.757   5.874  11.681  1.00  0.00     0.000 C 
BRANCH   9  10
ATOM     10  C   UNL     1      -0.569   4.716  10.691  1.00  0.00     0.006 C 
BRANCH  10  11
ATOM     11  C   UNL     1       0.272   5.123   9.472  1.00  0.00     0.053 C 
BRANCH  11  12
ATOM     12  C   UNL     1       1.574   4.382   9.416  1.00  0.00     0.041 C 
ATOM     13  O   UNL     1       2.497   4.656  10.229  1.00  0.00    -0.550 OA
ATOM     14  O   UNL     1       1.762   3.379   8.473  1.00  0.00    -0.550 OA
ENDBRANCH  11  12
ENDBRANCH  10  11
ENDBRANCH   9  10
ENDBRANCH   8   9
ENDBRANCH   7   8
ENDBRANCH   6   7
ENDBRANCH   5   6
ENDBRANCH   4   5
ENDBRANCH   3   4
ENDBRANCH   2   3
ENDBRANCH   1   2
BRANCH   1  15
ATOM     15  C   UNL     1       4.781   7.054   8.448  1.00  0.00     0.000 C 
BRANCH  15  16
ATOM     16  C   UNL     1       3.839   6.257   7.528  1.00  0.00     0.000 C 
BRANCH  16  17
ATOM     17  C   UNL     1       4.488   4.987   6.933  1.00  0.00     0.000 C 
BRANCH  17  18
ATOM     18  C   UNL     1       5.298   4.196   7.976  1.00  0.00    -0.000 C 
BRANCH  18  19
ATOM     19  C   UNL     1       6.796   4.142   7.632  1.00  0.00    -0.000 C 
BRANCH  19  20
ATOM     20  C   UNL     1       7.652   5.129   8.459  1.00  0.00    -0.000 C 
BRANCH  20  21
ATOM     21  C   UNL     1       8.709   5.869   7.624  1.00  0.00    -0.000 C 
BRANCH  21  22
ATOM     22  C   UNL     1       8.359   7.350   7.400  1.00  0.00    -0.000 C 
BRANCH  22  23
ATOM     23  C   UNL     1       8.125   7.675   5.912  1.00  0.00    -0.000 C 
BRANCH  23  24
ATOM     24  C   UNL     1       6.929   8.611   5.654  1.00  0.00    -0.000 C 
BRANCH  24  25
ATOM     25  C   UNL     1       5.741   7.937   4.940  1.00  0.00    -0.003 C 
ATOM     26  C   UNL     1       6.129   6.621   4.264  1.00  0.00     0.004 C 
ENDBRANCH  24  25
ENDBRANCH  23  24
ENDBRANCH  22  23
ENDBRANCH  21  22
ENDBRANCH  20  21
ENDBRANCH  19  20
ENDBRANCH  18  19
ENDBRANCH  17  18
ENDBRANCH  16  17
ENDBRANCH  15  16
ENDBRANCH   1  15
TORSDOF 22
ENDMDL
MODEL 5
REMARK VINA RESULT:    -5.865      1.476      3.673
REMARK INTER + INTRA:         -17.033
REMARK INTER:                 -13.597
REMARK INTRA:                  -3.436
REMARK UNBOUND:                -3.624
REMARK SMILES CCCCCCCCCCCCCCCCCCCCCCCC(=O)[O-]
REMARK SMILES IDX 13 1 14 2 15 3 16 4 17 5 18 6 19 7 20 8 21 9 22 10 23 11
REMARK SMILES IDX 24 12 25 13 26 14 12 15 11 16 10 17 9 18 8 19 7 20 6 21 5 22
REMARK SMILES IDX 4 23 3 24 2 25 1 26
REMARK H PARENT
REMARK Flexibility Score: inf
ROOT
ATOM      1  C   UNL     1       7.997   7.595   6.133  1.00  0.00     0.000 C 
ENDROOT
BRANCH   1   2
ATOM      2  C   UNL     1       7.620   7.054   7.532  1.00  0.00     0.000 C 
BRANCH   2   3
ATOM      3  C   UNL     1       8.431   5.809   7.936  1.00  0.00     0.000 C 
BRANCH   3   4
ATOM      4  C   UNL     1       7.537   4.639   8.378  1.00  0.00     0.000 C 
BRANCH   4   5
ATOM      5  C   UNL     1       6.331   4.429   7.453  1.00  0.00     0.000 C 
BRANCH   5   6
ATOM      6  C   UNL     1       5.027   4.831   8.154  1.00  0.00     0.000 C 
BRANCH   6   7
ATOM      7  C   UNL     1       3.812   4.562   7.259  1.00  0.00     0.000 C 
BRANCH   7   8
ATOM      8  C   UNL     1       2.533   4.424   8.095  1.00  0.00     0.000 C 
BRANCH   8   9
ATOM      9  C   UNL     1       2.801   4.740   9.572  1.00  0.00     0.000 C 
BRANCH   9  10
ATOM     10  C   UNL     1       1.491   5.036  10.316  1.00  0.00     0.006 C 
BRANCH  10  11
ATOM     11  C   UNL     1       0.284   5.093   9.368  1.00  0.00     0.053 C 
BRANCH  11  12
ATOM     12  C   UNL     1      -0.941   5.625  10.050  1.00  0.00     0.041 C 
ATOM     13  O   UNL     1      -1.597   6.568   9.532  1.00  0.00    -0.550 OA
ATOM     14  O   UNL     1      -1.364   5.069  11.250  1.00  0.00    -0.550 OA
ENDBRANCH  11  12
ENDBRANCH  10  11
ENDBRANCH   9  10
ENDBRANCH   8   9
ENDBRANCH   7   8
ENDBRANCH   6   7
ENDBRANCH   5   6
ENDBRANCH   4   5
ENDBRANCH   3   4
ENDBRANCH   2   3
ENDBRANCH   1   2
BRANCH   1  15
ATOM     15  C   UNL     1       6.859   8.360   5.432  1.00  0.00     0.000 C 
BRANCH  15  16
ATOM     16  C   UNL     1       5.584   7.535   5.188  1.00  0.00     0.000 C 
BRANCH  16  17
ATOM     17  C   UNL     1       4.423   7.898   6.141  1.00  0.00     0.000 C 
BRANCH  17  18
ATOM     18  C   UNL     1       4.685   9.200   6.919  1.00  0.00    -0.000 C 
BRANCH  18  19
ATOM     19  C   UNL     1       3.491   9.600   7.803  1.00  0.00    -0.000 C 
BRANCH  19  20
ATOM     20  C   UNL     1       3.120   8.530   8.855  1.00  0.00    -0.000 C 
BRANCH  20  21
ATOM     21  C   UNL     1       1.606   8.292   8.976  1.00  0.00    -0.000 C 
BRANCH  21  22
ATOM     22  C   UNL     1       1.002   8.936  10.236  1.00  0.00    -0.000 C 
BRANCH  22  23
ATOM     23  C   UNL     1       2.080   9.306  11.274  1.00  0.00    -0.000 C 
BRANCH  23  24
ATOM     24  C   UNL     1       1.907   8.605  12.635  1.00  0.00    -0.000 C 
BRANCH  24  25
ATOM     25  C   UNL     1       0.718   7.626  12.694  1.00  0.00    -0.003 C 
ATOM     26  C   UNL     1       0.810   6.656  13.873  1.00  0.00     0.004 C 
ENDBRANCH  24  25
ENDBRANCH  23  24
ENDBRANCH  22  23
ENDBRANCH  21  22
ENDBRANCH  20  21
ENDBRANCH  19  20
ENDBRANCH  18  19
ENDBRANCH  17  18
ENDBRANCH  16  17
ENDBRANCH  15  16
ENDBRANCH   1  15
TORSDOF 22
ENDMDL
MODEL 6
REMARK VINA RESULT:    -5.847      1.881      4.985
REMARK INTER + INTRA:         -16.991
REMARK INTER:                 -13.535
REMARK INTRA:                  -3.456
REMARK UNBOUND:                -3.624
REMARK SMILES CCCCCCCCCCCCCCCCCCCCCCCC(=O)[O-]
REMARK SMILES IDX 13 1 14 2 15 3 16 4 17 5 18 6 19 7 20 8 21 9 22 10 23 11
REMARK SMILES IDX 24 12 25 13 26 14 12 15 11 16 10 17 9 18 8 19 7 20 6 21 5 22
REMARK SMILES IDX 4 23 3 24 2 25 1 26
REMARK H PARENT
REMARK Flexibility Score: inf
ROOT
ATOM      1  C   UNL     1       1.219   4.362   9.740  1.00  0.00     0.000 C 
ENDROOT
BRANCH   1   2
ATOM      2  C   UNL     1       2.589   4.798   9.172  1.00  0.00     0.000 C 
BRANCH   2   3
ATOM      3  C   UNL     1       2.921   4.136   7.823  1.00  0.00     0.000 C 
BRANCH   3   4
ATOM      4  C   UNL     1       4.131   4.782   7.129  1.00  0.00     0.000 C 
BRANCH   4   5
ATOM      5  C   UNL     1       5.239   5.181   8.114  1.00  0.00     0.000 C 
BRANCH   5   6
ATOM      6  C   UNL     1       6.222   4.025   8.331  1.00  0.00     0.000 C 
BRANCH   6   7
ATOM      7  C   UNL     1       7.608   4.364   7.773  1.00  0.00     0.000 C 
BRANCH   7   8
ATOM      8  C   UNL     1       8.352   5.335   8.698  1.00  0.00     0.000 C 
BRANCH   8   9
ATOM      9  C   UNL     1       8.904   6.532   7.914  1.00  0.00     0.000 C 
BRANCH   9  10
ATOM     10  C   UNL     1       7.764   7.388   7.345  1.00  0.00     0.006 C 
BRANCH  10  11
ATOM     11  C   UNL     1       8.002   7.773   5.877  1.00  0.00     0.053 C 
BRANCH  11  12
ATOM     12  C   UNL     1       6.727   7.808   5.091  1.00  0.00     0.041 C 
ATOM     13  O   UNL     1       6.205   8.911   4.776  1.00  0.00    -0.550 OA
ATOM     14  O   UNL     1       6.122   6.622   4.696  1.00  0.00    -0.550 OA
ENDBRANCH  11  12
ENDBRANCH  10  11
ENDBRANCH   9  10
ENDBRANCH   8   9
ENDBRANCH   7   8
ENDBRANCH   6   7
ENDBRANCH   5   6
ENDBRANCH   4   5
ENDBRANCH   3   4
ENDBRANCH   2   3
ENDBRANCH   1   2
BRANCH   1  15
ATOM     15  C   UNL     1       0.023   5.131   9.148  1.00  0.00     0.000 C 
BRANCH  15  16
ATOM     16  C   UNL     1      -0.659   6.108  10.121  1.00  0.00     0.000 C 
BRANCH  16  17
ATOM     17  C   UNL     1      -0.834   5.537  11.546  1.00  0.00     0.000 C 
BRANCH  17  18
ATOM     18  C   UNL     1      -0.278   6.479  12.630  1.00  0.00    -0.000 C 
BRANCH  18  19
ATOM     19  C   UNL     1       1.120   7.015  12.274  1.00  0.00    -0.000 C 
BRANCH  19  20
ATOM     20  C   UNL     1       1.259   8.542  12.469  1.00  0.00    -0.000 C 
BRANCH  20  21
ATOM     21  C   UNL     1       1.679   9.285  11.190  1.00  0.00    -0.000 C 
BRANCH  21  22
ATOM     22  C   UNL     1       2.233   8.340  10.110  1.00  0.00    -0.000 C 
BRANCH  22  23
ATOM     23  C   UNL     1       1.692   8.678   8.707  1.00  0.00    -0.000 C 
BRANCH  23  24
ATOM     24  C   UNL     1       2.464   8.005   7.556  1.00  0.00    -0.000 C 
BRANCH  24  25
ATOM     25  C   UNL     1       3.890   8.551   7.349  1.00  0.00    -0.003 C 
ATOM     26  C   UNL     1       3.928  10.075   7.233  1.00  0.00     0.004 C 
ENDBRANCH  24  25
ENDBRANCH  23  24
ENDBRANCH  22  23
ENDBRANCH  21  22
ENDBRANCH  20  21
ENDBRANCH  19  20
ENDBRANCH  18  19
ENDBRANCH  17  18
ENDBRANCH  16  17
ENDBRANCH  15  16
ENDBRANCH   1  15
TORSDOF 22
ENDMDL
MODEL 7
REMARK VINA RESULT:    -5.846      1.462      7.538
REMARK INTER + INTRA:         -16.987
REMARK INTER:                 -13.702
REMARK INTRA:                  -3.285
REMARK UNBOUND:                -3.624
REMARK SMILES CCCCCCCCCCCCCCCCCCCCCCCC(=O)[O-]
REMARK SMILES IDX 13 1 14 2 15 3 16 4 17 5 18 6 19 7 20 8 21 9 22 10 23 11
REMARK SMILES IDX 24 12 25 13 26 14 12 15 11 16 10 17 9 18 8 19 7 20 6 21 5 22
REMARK SMILES IDX 4 23 3 24 2 25 1 26
REMARK H PARENT
REMARK Flexibility Score: inf
ROOT
ATOM      1  C   UNL     1       1.153   4.445   9.315  1.00  0.00     0.000 C 
ENDROOT
BRANCH   1   2
ATOM      2  C   UNL     1       0.133   5.413   8.672  1.00  0.00     0.000 C 
BRANCH   2   3
ATOM      3  C   UNL     1      -0.922   5.927   9.668  1.00  0.00     0.000 C 
BRANCH   3   4
ATOM      4  C   UNL     1      -0.843   5.217  11.030  1.00  0.00     0.000 C 
BRANCH   4   5
ATOM      5  C   UNL     1      -0.623   6.191  12.196  1.00  0.00     0.000 C 
BRANCH   5   6
ATOM      6  C   UNL     1       0.870   6.487  12.387  1.00  0.00     0.000 C 
BRANCH   6   7
ATOM      7  C   UNL     1       1.093   7.929  12.859  1.00  0.00     0.000 C 
BRANCH   7   8
ATOM      8  C   UNL     1       1.897   8.727  11.826  1.00  0.00     0.000 C 
BRANCH   8   9
ATOM      9  C   UNL     1       1.009   9.171  10.657  1.00  0.00     0.000 C 
BRANCH   9  10
ATOM     10  C   UNL     1       1.487   8.547   9.338  1.00  0.00     0.006 C 
BRANCH  10  11
ATOM     11  C   UNL     1       2.982   8.792   9.086  1.00  0.00     0.053 C 
BRANCH  11  12
ATOM     12  C   UNL     1       3.272   9.064   7.641  1.00  0.00     0.041 C 
ATOM     13  O   UNL     1       2.586   8.509   6.740  1.00  0.00    -0.550 OA
ATOM     14  O   UNL     1       4.289   9.940   7.289  1.00  0.00    -0.550 OA
ENDBRANCH  11  12
ENDBRANCH  10  11
ENDBRANCH   9  10
ENDBRANCH   8   9
ENDBRANCH   7   8
ENDBRANCH   6   7
ENDBRANCH   5   6
ENDBRANCH   4   5
ENDBRANCH   3   4
ENDBRANCH   2   3
ENDBRANCH   1   2
BRANCH   1  15
ATOM     15  C   UNL     1       2.302   4.034   8.375  1.00  0.00     0.000 C 
BRANCH  15  16
ATOM     16  C   UNL     1       2.766   5.135   7.407  1.00  0.00     0.000 C 
BRANCH  16  17
ATOM     17  C   UNL     1       4.255   5.513   7.572  1.00  0.00     0.000 C 
BRANCH  17  18
ATOM     18  C   UNL     1       5.120   4.321   8.017  1.00  0.00    -0.000 C 
BRANCH  18  19
ATOM     19  C   UNL     1       6.527   4.357   7.394  1.00  0.00    -0.000 C 
BRANCH  19  20
ATOM     20  C   UNL     1       7.647   4.628   8.425  1.00  0.00    -0.000 C 
BRANCH  20  21
ATOM     21  C   UNL     1       8.627   5.728   7.987  1.00  0.00    -0.000 C 
BRANCH  21  22
ATOM     22  C   UNL     1       7.922   7.056   7.661  1.00  0.00    -0.000 C 
BRANCH  22  23
ATOM     23  C   UNL     1       8.021   7.416   6.166  1.00  0.00    -0.000 C 
BRANCH  23  24
ATOM     24  C   UNL     1       6.939   8.402   5.685  1.00  0.00    -0.000 C 
BRANCH  24  25
ATOM     25  C   UNL     1       5.745   7.733   4.977  1.00  0.00    -0.003 C 
ATOM     26  C   UNL     1       6.117   6.405   4.318  1.00  0.00     0.004 C 
ENDBRANCH  24  25
ENDBRANCH  23  24
ENDBRANCH  22  23
ENDBRANCH  21  22
ENDBRANCH  20  21
ENDBRANCH  19  20
ENDBRANCH  18  19
ENDBRANCH  17  18
ENDBRANCH  16  17
ENDBRANCH  15  16
ENDBRANCH   1  15
TORSDOF 22
ENDMDL
MODEL 8
REMARK VINA RESULT:    -5.837      2.134      3.984
REMARK INTER + INTRA:         -16.969
REMARK INTER:                 -13.789
REMARK INTRA:                  -3.179
REMARK UNBOUND:                -3.624
REMARK SMILES CCCCCCCCCCCCCCCCCCCCCCCC(=O)[O-]
REMARK SMILES IDX 13 1 14 2 15 3 16 4 17 5 18 6 19 7 20 8 21 9 22 10 23 11
REMARK SMILES IDX 24 12 25 13 26 14 12 15 11 16 10 17 9 18 8 19 7 20 6 21 5 22
REMARK SMILES IDX 4 23 3 24 2 25 1 26
REMARK H PARENT
REMARK Flexibility Score: inf
ROOT
ATOM      1  C   UNL     1       2.433   6.997   6.340  1.00  0.00     0.000 C 
ENDROOT
BRANCH   1   2
ATOM      2  C   UNL     1       1.652   6.260   7.452  1.00  0.00     0.000 C 
BRANCH   2   3
ATOM      3  C   UNL     1       2.487   5.177   8.158  1.00  0.00     0.000 C 
BRANCH   3   4
ATOM      4  C   UNL     1       2.719   3.940   7.274  1.00  0.00     0.000 C 
BRANCH   4   5
ATOM      5  C   UNL     1       4.065   3.255   7.551  1.00  0.00     0.000 C 
BRANCH   5   6
ATOM      6  C   UNL     1       5.041   4.221   8.232  1.00  0.00     0.000 C 
BRANCH   6   7
ATOM      7  C   UNL     1       6.247   4.516   7.333  1.00  0.00     0.000 C 
BRANCH   7   8
ATOM      8  C   UNL     1       7.564   4.307   8.091  1.00  0.00     0.000 C 
BRANCH   8   9
ATOM      9  C   UNL     1       8.356   5.616   8.194  1.00  0.00     0.000 C 
BRANCH   9  10
ATOM     10  C   UNL     1       7.630   6.755   7.463  1.00  0.00     0.006 C 
BRANCH  10  11
ATOM     11  C   UNL     1       8.567   7.536   6.528  1.00  0.00     0.053 C 
BRANCH  11  12
ATOM     12  C   UNL     1       7.824   8.174   5.395  1.00  0.00     0.041 C 
ATOM     13  O   UNL     1       6.814   7.606   4.896  1.00  0.00    -0.550 OA
ATOM     14  O   UNL     1       8.238   9.403   4.897  1.00  0.00    -0.550 OA
ENDBRANCH  11  12
ENDBRANCH  10  11
ENDBRANCH   9  10
ENDBRANCH   8   9
ENDBRANCH   7   8
ENDBRANCH   6   7
ENDBRANCH   5   6
ENDBRANCH   4   5
ENDBRANCH   3   4
ENDBRANCH   2   3
ENDBRANCH   1   2
BRANCH   1  15
ATOM     15  C   UNL     1       3.904   7.287   6.696  1.00  0.00     0.000 C 
BRANCH  15  16
ATOM     16  C   UNL     1       4.102   8.349   7.791  1.00  0.00     0.000 C 
BRANCH  16  17
ATOM     17  C   UNL     1       3.356   9.673   7.509  1.00  0.00     0.000 C 
BRANCH  17  18
ATOM     18  C   UNL     1       2.368  10.041   8.630  1.00  0.00    -0.000 C 
BRANCH  18  19
ATOM     19  C   UNL     1       2.342   8.990   9.753  1.00  0.00    -0.000 C 
BRANCH  19  20
ATOM     20  C   UNL     1       1.273   9.272  10.833  1.00  0.00    -0.000 C 
BRANCH  20  21
ATOM     21  C   UNL     1       1.635   8.704  12.215  1.00  0.00    -0.000 C 
BRANCH  21  22
ATOM     22  C   UNL     1       0.827   7.444  12.570  1.00  0.00    -0.000 C 
BRANCH  22  23
ATOM     23  C   UNL     1       0.861   6.394  11.442  1.00  0.00    -0.000 C 
BRANCH  23  24
ATOM     24  C   UNL     1      -0.440   5.581  11.302  1.00  0.00    -0.000 C 
BRANCH  24  25
ATOM     25  C   UNL     1      -1.048   5.602   9.886  1.00  0.00    -0.003 C 
ATOM     26  C   UNL     1      -1.298   7.019   9.371  1.00  0.00     0.004 C 
ENDBRANCH  24  25
ENDBRANCH  23  24
ENDBRANCH  22  23
ENDBRANCH  21  22
ENDBRANCH  20  21
ENDBRANCH  19  20
ENDBRANCH  18  19
ENDBRANCH  17  18
ENDBRANCH  16  17
ENDBRANCH  15  16
ENDBRANCH   1  15
TORSDOF 22
ENDMDL
MODEL 9
REMARK VINA RESULT:    -5.768      1.887      4.959
REMARK INTER + INTRA:         -16.811
REMARK INTER:                 -12.982
REMARK INTRA:                  -3.829
REMARK UNBOUND:                -3.624
REMARK SMILES CCCCCCCCCCCCCCCCCCCCCCCC(=O)[O-]
REMARK SMILES IDX 13 1 14 2 15 3 16 4 17 5 18 6 19 7 20 8 21 9 22 10 23 11
REMARK SMILES IDX 24 12 25 13 26 14 12 15 11 16 10 17 9 18 8 19 7 20 6 21 5 22
REMARK SMILES IDX 4 23 3 24 2 25 1 26
REMARK H PARENT
REMARK Flexibility Score: inf
ROOT
ATOM      1  C   UNL     1       8.001   8.028   5.746  1.00  0.00     0.000 C 
ENDROOT
BRANCH   1   2
ATOM      2  C   UNL     1       6.778   7.438   5.007  1.00  0.00     0.000 C 
BRANCH   2   3
ATOM      3  C   UNL     1       5.434   7.932   5.574  1.00  0.00     0.000 C 
BRANCH   3   4
ATOM      4  C   UNL     1       5.595   9.153   6.494  1.00  0.00     0.000 C 
BRANCH   4   5
ATOM      5  C   UNL     1       4.678   9.095   7.724  1.00  0.00     0.000 C 
BRANCH   5   6
ATOM      6  C   UNL     1       3.210   9.281   7.323  1.00  0.00     0.000 C 
BRANCH   6   7
ATOM      7  C   UNL     1       2.319   8.218   7.974  1.00  0.00     0.000 C 
BRANCH   7   8
ATOM      8  C   UNL     1       2.643   8.065   9.465  1.00  0.00     0.000 C 
BRANCH   8   9
ATOM      9  C   UNL     1       2.060   9.228  10.279  1.00  0.00     0.000 C 
BRANCH   9  10
ATOM     10  C   UNL     1       1.232   8.708  11.463  1.00  0.00     0.006 C 
BRANCH  10  11
ATOM     11  C   UNL     1       1.433   7.203  11.697  1.00  0.00     0.053 C 
BRANCH  11  12
ATOM     12  C   UNL     1       0.548   6.682  12.789  1.00  0.00     0.041 C 
ATOM     13  O   UNL     1      -0.572   6.175  12.512  1.00  0.00    -0.550 OA
ATOM     14  O   UNL     1       0.967   6.744  14.112  1.00  0.00    -0.550 OA
ENDBRANCH  11  12
ENDBRANCH  10  11
ENDBRANCH   9  10
ENDBRANCH   8   9
ENDBRANCH   7   8
ENDBRANCH   6   7
ENDBRANCH   5   6
ENDBRANCH   4   5
ENDBRANCH   3   4
ENDBRANCH   2   3
ENDBRANCH   1   2
BRANCH   1  15
ATOM     15  C   UNL     1       8.795   6.992   6.565  1.00  0.00     0.000 C 
BRANCH  15  16
ATOM     16  C   UNL     1       8.207   6.679   7.951  1.00  0.00     0.000 C 
BRANCH  16  17
ATOM     17  C   UNL     1       8.110   5.167   8.253  1.00  0.00     0.000 C 
BRANCH  17  18
ATOM     18  C   UNL     1       6.751   4.571   7.847  1.00  0.00    -0.000 C 
BRANCH  18  19
ATOM     19  C   UNL     1       5.587   5.541   8.111  1.00  0.00    -0.000 C 
BRANCH  19  20
ATOM     20  C   UNL     1       4.308   4.841   8.623  1.00  0.00    -0.000 C 
BRANCH  20  21
ATOM     21  C   UNL     1       3.315   4.488   7.504  1.00  0.00    -0.000 C 
BRANCH  21  22
ATOM     22  C   UNL     1       2.037   3.814   8.034  1.00  0.00    -0.000 C 
BRANCH  22  23
ATOM     23  C   UNL     1       1.628   4.351   9.420  1.00  0.00    -0.000 C 
BRANCH  23  24
ATOM     24  C   UNL     1       0.154   4.790   9.513  1.00  0.00    -0.000 C 
BRANCH  24  25
ATOM     25  C   UNL     1      -0.231   5.919   8.537  1.00  0.00    -0.003 C 
ATOM     26  C   UNL     1      -1.308   6.846   9.101  1.00  0.00     0.004 C 
ENDBRANCH  24  25
ENDBRANCH  23  24
ENDBRANCH  22  23
ENDBRANCH  21  22
ENDBRANCH  20  21
ENDBRANCH  19  20
ENDBRANCH  18  19
ENDBRANCH  17  18
ENDBRANCH  16  17
ENDBRANCH  15  16
ENDBRANCH   1  15
TORSDOF 22
ENDMDL
