MODEL 1
REMARK VINA RESULT:    -3.951      0.000      0.000
REMARK INTER + INTRA:         -11.484
REMARK INTER:                  -8.571
REMARK INTRA:                  -2.913
REMARK UNBOUND:                -2.913
REMARK SMILES CCCCCCCCCCCCCCCCCCCCCC(=O)[O-]
REMARK SMILES IDX 12 1 11 2 10 3 9 4 8 5 7 6 6 7 5 8 4 9 3 10 2 11 1 12 13 13
REMARK SMILES IDX 14 14 15 15 16 16 17 17 18 18 19 19 20 20 21 21 22 22 23 23
REMARK SMILES IDX 24 24
REMARK H PARENT
REMARK Flexibility Score: inf
ROOT
ATOM      1  C   UNL     1      30.076  -2.707  -3.546  1.00  0.00     0.000 C 
ENDROOT
BRANCH   1   2
ATOM      2  C   UNL     1      29.702  -2.530  -2.066  1.00  0.00     0.000 C 
BRANCH   2   3
ATOM      3  C   UNL     1      28.382  -3.226  -1.677  1.00  0.00     0.000 C 
BRANCH   3   4
ATOM      4  C   UNL     1      27.196  -2.286  -1.373  1.00  0.00    -0.000 C 
BRANCH   4   5
ATOM      5  C   UNL     1      27.537  -0.779  -1.409  1.00  0.00    -0.000 C 
BRANCH   5   6
ATOM      6  C   UNL     1      26.650   0.083  -0.494  1.00  0.00    -0.000 C 
BRANCH   6   7
ATOM      7  C   UNL     1      27.367   0.527   0.794  1.00  0.00    -0.000 C 
BRANCH   7   8
ATOM      8  C   UNL     1      26.399   0.666   1.990  1.00  0.00    -0.000 C 
BRANCH   8   9
ATOM      9  C   UNL     1      27.011   0.231   3.338  1.00  0.00    -0.000 C 
BRANCH   9  10
ATOM     10  C   UNL     1      28.332  -0.551   3.221  1.00  0.00    -0.000 C 
BRANCH  10  11
ATOM     11  C   UNL     1      28.147  -2.063   3.419  1.00  0.00    -0.003 C 
ATOM     12  C   UNL     1      28.354  -2.817   2.108  1.00  0.00     0.004 C 
ENDBRANCH  10  11
ENDBRANCH   9  10
ENDBRANCH   8   9
ENDBRANCH   7   8
ENDBRANCH   6   7
ENDBRANCH   5   6
ENDBRANCH   4   5
ENDBRANCH   3   4
ENDBRANCH   2   3
ENDBRANCH   1   2
BRANCH   1  13
ATOM     13  C   UNL     1      29.783  -1.425  -4.338  1.00  0.00     0.000 C 
BRANCH  13  14
ATOM     14  C   UNL     1      28.505  -1.530  -5.184  1.00  0.00     0.000 C 
BRANCH  14  15
ATOM     15  C   UNL     1      28.110  -2.988  -5.480  1.00  0.00     0.000 C 
BRANCH  15  16
ATOM     16  C   UNL     1      26.727  -3.347  -4.909  1.00  0.00     0.000 C 
BRANCH  16  17
ATOM     17  C   UNL     1      26.366  -4.828  -5.122  1.00  0.00     0.000 C 
BRANCH  17  18
ATOM     18  C   UNL     1      26.276  -5.605  -3.798  1.00  0.00     0.000 C 
BRANCH  18  19
ATOM     19  C   UNL     1      27.167  -6.861  -3.793  1.00  0.00     0.000 C 
BRANCH  19  20
ATOM     20  C   UNL     1      28.669  -6.526  -3.755  1.00  0.00     0.006 C 
BRANCH  20  21
ATOM     21  C   UNL     1      29.405  -6.788  -5.079  1.00  0.00     0.053 C 
BRANCH  21  22
ATOM     22  C   UNL     1      28.818  -7.947  -5.826  1.00  0.00     0.041 C 
ATOM     23  O   UNL     1      29.302  -9.102  -5.684  1.00  0.00    -0.550 OA
ATOM     24  O   UNL     1      27.757  -7.748  -6.702  1.00  0.00    -0.550 OA
ENDBRANCH  21  22
ENDBRANCH  20  21
ENDBRANCH  19  20
ENDBRANCH  18  19
ENDBRANCH  17  18
ENDBRANCH  16  17
ENDBRANCH  15  16
ENDBRANCH  14  15
ENDBRANCH  13  14
ENDBRANCH   1  13
TORSDOF 20
ENDMDL
MODEL 2
REMARK VINA RESULT:    -3.921      4.106      8.589
REMARK INTER + INTRA:         -11.419
REMARK INTER:                  -8.837
REMARK INTRA:                  -2.582
REMARK UNBOUND:                -2.913
REMARK SMILES CCCCCCCCCCCCCCCCCCCCCC(=O)[O-]
REMARK SMILES IDX 12 1 11 2 10 3 9 4 8 5 7 6 6 7 5 8 4 9 3 10 2 11 1 12 13 13
REMARK SMILES IDX 14 14 15 15 16 16 17 17 18 18 19 19 20 20 21 21 22 22 23 23
REMARK SMILES IDX 24 24
REMARK H PARENT
REMARK Flexibility Score: inf
ROOT
ATOM      1  C   UNL     1      27.938  -1.865  -3.955  1.00  0.00     0.000 C 
ENDROOT
BRANCH   1   2
ATOM      2  C   UNL     1      27.947  -2.275  -5.436  1.00  0.00     0.000 C 
BRANCH   2   3
ATOM      3  C   UNL     1      28.937  -3.414  -5.754  1.00  0.00     0.000 C 
BRANCH   3   4
ATOM      4  C   UNL     1      30.118  -3.566  -4.771  1.00  0.00    -0.000 C 
BRANCH   4   5
ATOM      5  C   UNL     1      30.006  -4.765  -3.803  1.00  0.00    -0.000 C 
BRANCH   5   6
ATOM      6  C   UNL     1      29.767  -6.113  -4.506  1.00  0.00    -0.000 C 
BRANCH   6   7
ATOM      7  C   UNL     1      28.737  -6.996  -3.779  1.00  0.00    -0.000 C 
BRANCH   7   8
ATOM      8  C   UNL     1      27.321  -6.378  -3.784  1.00  0.00    -0.000 C 
BRANCH   8   9
ATOM      9  C   UNL     1      26.484  -6.752  -5.024  1.00  0.00    -0.000 C 
BRANCH   9  10
ATOM     10  C   UNL     1      26.638  -5.792  -6.217  1.00  0.00    -0.000 C 
BRANCH  10  11
ATOM     11  C   UNL     1      27.033  -6.515  -7.514  1.00  0.00    -0.003 C 
ATOM     12  C   UNL     1      27.872  -7.756  -7.216  1.00  0.00     0.004 C 
ENDBRANCH  10  11
ENDBRANCH   9  10
ENDBRANCH   8   9
ENDBRANCH   7   8
ENDBRANCH   6   7
ENDBRANCH   5   6
ENDBRANCH   4   5
ENDBRANCH   3   4
ENDBRANCH   2   3
ENDBRANCH   1   2
BRANCH   1  13
ATOM     13  C   UNL     1      27.079  -2.831  -3.128  1.00  0.00     0.000 C 
BRANCH  13  14
ATOM     14  C   UNL     1      27.381  -2.753  -1.624  1.00  0.00     0.000 C 
BRANCH  14  15
ATOM     15  C   UNL     1      27.921  -1.375  -1.200  1.00  0.00     0.000 C 
BRANCH  15  16
ATOM     16  C   UNL     1      26.828  -0.479  -0.593  1.00  0.00     0.000 C 
BRANCH  16  17
ATOM     17  C   UNL     1      27.402   0.610   0.329  1.00  0.00     0.000 C 
BRANCH  17  18
ATOM     18  C   UNL     1      28.931   0.520   0.462  1.00  0.00     0.000 C 
BRANCH  18  19
ATOM     19  C   UNL     1      29.381   0.291   1.917  1.00  0.00     0.000 C 
BRANCH  19  20
ATOM     20  C   UNL     1      29.422  -1.200   2.301  1.00  0.00     0.006 C 
BRANCH  20  21
ATOM     21  C   UNL     1      28.140  -1.709   2.979  1.00  0.00     0.053 C 
BRANCH  21  22
ATOM     22  C   UNL     1      27.649  -0.762   4.031  1.00  0.00     0.041 C 
ATOM     23  O   UNL     1      26.518  -0.220   3.916  1.00  0.00    -0.550 OA
ATOM     24  O   UNL     1      28.453  -0.453   5.122  1.00  0.00    -0.550 OA
ENDBRANCH  21  22
ENDBRANCH  20  21
ENDBRANCH  19  20
ENDBRANCH  18  19
ENDBRANCH  17  18
ENDBRANCH  16  17
ENDBRANCH  15  16
ENDBRANCH  14  15
ENDBRANCH  13  14
ENDBRANCH   1  13
TORSDOF 20
ENDMDL
MODEL 3
REMARK VINA RESULT:    -3.820      3.587      7.299
REMARK INTER + INTRA:         -11.199
REMARK INTER:                  -8.668
REMARK INTRA:                  -2.532
REMARK UNBOUND:                -2.913
REMARK SMILES CCCCCCCCCCCCCCCCCCCCCC(=O)[O-]
REMARK SMILES IDX 12 1 11 2 10 3 9 4 8 5 7 6 6 7 5 8 4 9 3 10 2 11 1 12 13 13
REMARK SMILES IDX 14 14 15 15 16 16 17 17 18 18 19 19 20 20 21 21 22 22 23 23
REMARK SMILES IDX 24 24
REMARK H PARENT
REMARK Flexibility Score: inf
ROOT
ATOM      1  C   UNL     1      27.005  -7.620  -6.842  1.00  0.00     0.000 C 
ENDROOT
BRANCH   1   2
ATOM      2  C   UNL     1      28.527  -7.724  -6.650  1.00  0.00     0.000 C 
BRANCH   2   3
ATOM      3  C   UNL     1      28.935  -8.375  -5.313  1.00  0.00     0.000 C 
BRANCH   3   4
ATOM      4  C   UNL     1      30.085  -7.677  -4.554  1.00  0.00    -0.000 C 
BRANCH   4   5
ATOM      5  C   UNL     1      29.650  -6.903  -3.289  1.00  0.00    -0.000 C 
BRANCH   5   6
ATOM      6  C   UNL     1      30.122  -5.439  -3.262  1.00  0.00    -0.000 C 
BRANCH   6   7
ATOM      7  C   UNL     1      29.973  -4.734  -4.622  1.00  0.00    -0.000 C 
BRANCH   7   8
ATOM      8  C   UNL     1      30.025  -3.195  -4.497  1.00  0.00    -0.000 C 
BRANCH   8   9
ATOM      9  C   UNL     1      29.295  -2.454  -5.637  1.00  0.00    -0.000 C 
BRANCH   9  10
ATOM     10  C   UNL     1      28.154  -1.530  -5.176  1.00  0.00    -0.000 C 
BRANCH  10  11
ATOM     11  C   UNL     1      28.373  -0.066  -5.583  1.00  0.00    -0.003 C 
ATOM     12  C   UNL     1      27.044   0.674  -5.708  1.00  0.00     0.004 C 
ENDBRANCH  10  11
ENDBRANCH   9  10
ENDBRANCH   8   9
ENDBRANCH   7   8
ENDBRANCH   6   7
ENDBRANCH   5   6
ENDBRANCH   4   5
ENDBRANCH   3   4
ENDBRANCH   2   3
ENDBRANCH   1   2
BRANCH   1  13
ATOM     13  C   UNL     1      26.567  -6.152  -6.933  1.00  0.00     0.000 C 
BRANCH  13  14
ATOM     14  C   UNL     1      26.876  -5.361  -5.653  1.00  0.00     0.000 C 
BRANCH  14  15
ATOM     15  C   UNL     1      26.489  -6.128  -4.375  1.00  0.00     0.000 C 
BRANCH  15  16
ATOM     16  C   UNL     1      25.959  -5.196  -3.272  1.00  0.00     0.000 C 
BRANCH  16  17
ATOM     17  C   UNL     1      26.946  -4.067  -2.928  1.00  0.00     0.000 C 
BRANCH  17  18
ATOM     18  C   UNL     1      26.578  -3.346  -1.620  1.00  0.00     0.000 C 
BRANCH  18  19
ATOM     19  C   UNL     1      27.374  -2.042  -1.425  1.00  0.00     0.000 C 
BRANCH  19  20
ATOM     20  C   UNL     1      28.587  -2.218  -0.494  1.00  0.00     0.006 C 
BRANCH  20  21
ATOM     21  C   UNL     1      28.270  -2.957   0.817  1.00  0.00     0.053 C 
BRANCH  21  22
ATOM     22  C   UNL     1      28.182  -2.018   1.981  1.00  0.00     0.041 C 
ATOM     23  O   UNL     1      28.507  -2.407   3.134  1.00  0.00    -0.550 OA
ATOM     24  O   UNL     1      27.712  -0.722   1.799  1.00  0.00    -0.550 OA
ENDBRANCH  21  22
ENDBRANCH  20  21
ENDBRANCH  19  20
ENDBRANCH  18  19
ENDBRANCH  17  18
ENDBRANCH  16  17
ENDBRANCH  15  16
ENDBRANCH  14  15
ENDBRANCH  13  14
ENDBRANCH   1  13
TORSDOF 20
ENDMDL
MODEL 4
REMARK VINA RESULT:    -3.807      4.287      9.004
REMARK INTER + INTRA:         -11.171
REMARK INTER:                  -9.237
REMARK INTRA:                  -1.934
REMARK UNBOUND:                -2.913
REMARK SMILES CCCCCCCCCCCCCCCCCCCCCC(=O)[O-]
REMARK SMILES IDX 12 1 11 2 10 3 9 4 8 5 7 6 6 7 5 8 4 9 3 10 2 11 1 12 13 13
REMARK SMILES IDX 14 14 15 15 16 16 17 17 18 18 19 19 20 20 21 21 22 22 23 23
REMARK SMILES IDX 24 24
REMARK H PARENT
REMARK Flexibility Score: inf
ROOT
ATOM      1  C   UNL     1      27.021  -3.644  -2.459  1.00  0.00     0.000 C 
ENDROOT
BRANCH   1   2
ATOM      2  C   UNL     1      26.934  -3.047  -3.872  1.00  0.00     0.000 C 
BRANCH   2   3
ATOM      3  C   UNL     1      28.081  -2.069  -4.199  1.00  0.00     0.000 C 
BRANCH   3   4
ATOM      4  C   UNL     1      29.506  -2.654  -4.100  1.00  0.00    -0.000 C 
BRANCH   4   5
ATOM      5  C   UNL     1      29.737  -3.939  -4.928  1.00  0.00    -0.000 C 
BRANCH   5   6
ATOM      6  C   UNL     1      29.918  -5.206  -4.073  1.00  0.00    -0.000 C 
BRANCH   6   7
ATOM      7  C   UNL     1      29.410  -6.480  -4.772  1.00  0.00    -0.000 C 
BRANCH   7   8
ATOM      8  C   UNL     1      28.430  -7.287  -3.891  1.00  0.00    -0.000 C 
BRANCH   8   9
ATOM      9  C   UNL     1      26.990  -6.734  -3.897  1.00  0.00    -0.000 C 
BRANCH   9  10
ATOM     10  C   UNL     1      26.500  -6.232  -5.266  1.00  0.00    -0.000 C 
BRANCH  10  11
ATOM     11  C   UNL     1      26.686  -7.271  -6.382  1.00  0.00    -0.003 C 
ATOM     12  C   UNL     1      27.201  -6.616  -7.661  1.00  0.00     0.004 C 
ENDBRANCH  10  11
ENDBRANCH   9  10
ENDBRANCH   8   9
ENDBRANCH   7   8
ENDBRANCH   6   7
ENDBRANCH   5   6
ENDBRANCH   4   5
ENDBRANCH   3   4
ENDBRANCH   2   3
ENDBRANCH   1   2
BRANCH   1  13
ATOM     13  C   UNL     1      26.824  -2.556  -1.395  1.00  0.00     0.000 C 
BRANCH  13  14
ATOM     14  C   UNL     1      27.933  -2.558  -0.332  1.00  0.00     0.000 C 
BRANCH  14  15
ATOM     15  C   UNL     1      29.050  -1.544  -0.641  1.00  0.00     0.000 C 
BRANCH  15  16
ATOM     16  C   UNL     1      29.847  -1.152   0.615  1.00  0.00     0.000 C 
BRANCH  16  17
ATOM     17  C   UNL     1      29.028  -0.287   1.588  1.00  0.00     0.000 C 
BRANCH  17  18
ATOM     18  C   UNL     1      29.191  -0.735   3.050  1.00  0.00     0.000 C 
BRANCH  18  19
ATOM     19  C   UNL     1      28.044  -1.652   3.514  1.00  0.00     0.000 C 
BRANCH  19  20
ATOM     20  C   UNL     1      27.552  -1.319   4.935  1.00  0.00     0.006 C 
BRANCH  20  21
ATOM     21  C   UNL     1      27.087   0.134   5.114  1.00  0.00     0.053 C 
BRANCH  21  22
ATOM     22  C   UNL     1      25.808   0.407   4.381  1.00  0.00     0.041 C 
ATOM     23  O   UNL     1      25.830   0.692   3.154  1.00  0.00    -0.550 OA
ATOM     24  O   UNL     1      24.595   0.378   5.060  1.00  0.00    -0.550 OA
ENDBRANCH  21  22
ENDBRANCH  20  21
ENDBRANCH  19  20
ENDBRANCH  18  19
ENDBRANCH  17  18
ENDBRANCH  16  17
ENDBRANCH  15  16
ENDBRANCH  14  15
ENDBRANCH  13  14
ENDBRANCH   1  13
TORSDOF 20
ENDMDL
MODEL 5
REMARK VINA RESULT:    -3.762      6.789      9.267
REMARK INTER + INTRA:         -11.074
REMARK INTER:                  -9.729
REMARK INTRA:                  -1.345
REMARK UNBOUND:                -2.913
REMARK SMILES CCCCCCCCCCCCCCCCCCCCCC(=O)[O-]
REMARK SMILES IDX 12 1 11 2 10 3 9 4 8 5 7 6 6 7 5 8 4 9 3 10 2 11 1 12 13 13
REMARK SMILES IDX 14 14 15 15 16 16 17 17 18 18 19 19 20 20 21 21 22 22 23 23
REMARK SMILES IDX 24 24
REMARK H PARENT
REMARK Flexibility Score: inf
ROOT
ATOM      1  C   UNL     1      24.135   1.124  -4.623  1.00  0.00     0.000 C 
ENDROOT
BRANCH   1   2
ATOM      2  C   UNL     1      25.493   0.687  -5.197  1.00  0.00     0.000 C 
BRANCH   2   3
ATOM      3  C   UNL     1      26.649   0.779  -4.181  1.00  0.00     0.000 C 
BRANCH   3   4
ATOM      4  C   UNL     1      27.701  -0.348  -4.261  1.00  0.00    -0.000 C 
BRANCH   4   5
ATOM      5  C   UNL     1      28.336  -0.739  -2.907  1.00  0.00    -0.000 C 
BRANCH   5   6
ATOM      6  C   UNL     1      27.974  -2.159  -2.437  1.00  0.00    -0.000 C 
BRANCH   6   7
ATOM      7  C   UNL     1      27.041  -2.896  -3.414  1.00  0.00    -0.000 C 
BRANCH   7   8
ATOM      8  C   UNL     1      27.550  -4.313  -3.760  1.00  0.00    -0.000 C 
BRANCH   8   9
ATOM      9  C   UNL     1      26.468  -5.232  -4.364  1.00  0.00    -0.000 C 
BRANCH   9  10
ATOM     10  C   UNL     1      26.542  -5.394  -5.893  1.00  0.00    -0.000 C 
BRANCH  10  11
ATOM     11  C   UNL     1      26.456  -6.862  -6.339  1.00  0.00    -0.003 C 
ATOM     12  C   UNL     1      27.592  -7.210  -7.297  1.00  0.00     0.004 C 
ENDBRANCH  10  11
ENDBRANCH   9  10
ENDBRANCH   8   9
ENDBRANCH   7   8
ENDBRANCH   6   7
ENDBRANCH   5   6
ENDBRANCH   4   5
ENDBRANCH   3   4
ENDBRANCH   2   3
ENDBRANCH   1   2
BRANCH   1  13
ATOM     13  C   UNL     1      22.997   0.770  -5.589  1.00  0.00     0.000 C 
BRANCH  13  14
ATOM     14  C   UNL     1      21.610   1.100  -5.017  1.00  0.00     0.000 C 
BRANCH  14  15
ATOM     15  C   UNL     1      20.496   1.007  -6.076  1.00  0.00     0.000 C 
BRANCH  15  16
ATOM     16  C   UNL     1      20.460  -0.366  -6.767  1.00  0.00     0.000 C 
BRANCH  16  17
ATOM     17  C   UNL     1      19.082  -1.043  -6.664  1.00  0.00     0.000 C 
BRANCH  17  18
ATOM     18  C   UNL     1      19.143  -2.383  -5.912  1.00  0.00     0.000 C 
BRANCH  18  19
ATOM     19  C   UNL     1      19.749  -2.239  -4.504  1.00  0.00     0.000 C 
BRANCH  19  20
ATOM     20  C   UNL     1      18.929  -1.307  -3.594  1.00  0.00     0.006 C 
BRANCH  20  21
ATOM     21  C   UNL     1      17.452  -1.708  -3.453  1.00  0.00     0.053 C 
BRANCH  21  22
ATOM     22  C   UNL     1      16.530  -0.632  -3.941  1.00  0.00     0.041 C 
ATOM     23  O   UNL     1      15.284  -0.754  -3.802  1.00  0.00    -0.550 OA
ATOM     24  O   UNL     1      17.045   0.492  -4.578  1.00  0.00    -0.550 OA
ENDBRANCH  21  22
ENDBRANCH  20  21
ENDBRANCH  19  20
ENDBRANCH  18  19
ENDBRANCH  17  18
ENDBRANCH  16  17
ENDBRANCH  15  16
ENDBRANCH  14  15
ENDBRANCH  13  14
ENDBRANCH   1  13
TORSDOF 20
ENDMDL
MODEL 6
REMARK VINA RESULT:    -3.752      3.405      7.257
REMARK INTER + INTRA:         -11.051
REMARK INTER:                  -8.022
REMARK INTRA:                  -3.029
REMARK UNBOUND:                -2.913
REMARK SMILES CCCCCCCCCCCCCCCCCCCCCC(=O)[O-]
REMARK SMILES IDX 12 1 11 2 10 3 9 4 8 5 7 6 6 7 5 8 4 9 3 10 2 11 1 12 13 13
REMARK SMILES IDX 14 14 15 15 16 16 17 17 18 18 19 19 20 20 21 21 22 22 23 23
REMARK SMILES IDX 24 24
REMARK H PARENT
REMARK Flexibility Score: inf
ROOT
ATOM      1  C   UNL     1      29.767  -1.114  -6.239  1.00  0.00     0.000 C 
ENDROOT
BRANCH   1   2
ATOM      2  C   UNL     1      30.121  -2.604  -6.372  1.00  0.00     0.000 C 
BRANCH   2   3
ATOM      3  C   UNL     1      30.066  -3.371  -5.036  1.00  0.00     0.000 C 
BRANCH   3   4
ATOM      4  C   UNL     1      29.249  -2.699  -3.912  1.00  0.00    -0.000 C 
BRANCH   4   5
ATOM      5  C   UNL     1      28.064  -3.537  -3.382  1.00  0.00    -0.000 C 
BRANCH   5   6
ATOM      6  C   UNL     1      26.766  -3.360  -4.190  1.00  0.00    -0.000 C 
BRANCH   6   7
ATOM      7  C   UNL     1      26.266  -4.672  -4.819  1.00  0.00    -0.000 C 
BRANCH   7   8
ATOM      8  C   UNL     1      27.049  -5.051  -6.096  1.00  0.00    -0.000 C 
BRANCH   8   9
ATOM      9  C   UNL     1      26.720  -6.459  -6.632  1.00  0.00    -0.000 C 
BRANCH   9  10
ATOM     10  C   UNL     1      27.771  -7.534  -6.302  1.00  0.00    -0.000 C 
BRANCH  10  11
ATOM     11  C   UNL     1      28.846  -7.034  -5.326  1.00  0.00    -0.003 C 
ATOM     12  C   UNL     1      28.510  -7.433  -3.890  1.00  0.00     0.004 C 
ENDBRANCH  10  11
ENDBRANCH   9  10
ENDBRANCH   8   9
ENDBRANCH   7   8
ENDBRANCH   6   7
ENDBRANCH   5   6
ENDBRANCH   4   5
ENDBRANCH   3   4
ENDBRANCH   2   3
ENDBRANCH   1   2
BRANCH   1  13
ATOM     13  C   UNL     1      28.656  -0.728  -7.225  1.00  0.00     0.000 C 
BRANCH  13  14
ATOM     14  C   UNL     1      27.496   0.018  -6.548  1.00  0.00     0.000 C 
BRANCH  14  15
ATOM     15  C   UNL     1      27.891   0.613  -5.185  1.00  0.00     0.000 C 
BRANCH  15  16
ATOM     16  C   UNL     1      26.855   0.306  -4.090  1.00  0.00     0.000 C 
BRANCH  16  17
ATOM     17  C   UNL     1      27.356   0.674  -2.683  1.00  0.00     0.000 C 
BRANCH  17  18
ATOM     18  C   UNL     1      27.346  -0.528  -1.724  1.00  0.00     0.000 C 
BRANCH  18  19
ATOM     19  C   UNL     1      27.927  -0.181  -0.341  1.00  0.00     0.000 C 
BRANCH  19  20
ATOM     20  C   UNL     1      28.993  -1.188   0.127  1.00  0.00     0.006 C 
BRANCH  20  21
ATOM     21  C   UNL     1      28.434  -2.575   0.482  1.00  0.00     0.053 C 
BRANCH  21  22
ATOM     22  C   UNL     1      28.345  -2.782   1.963  1.00  0.00     0.041 C 
ATOM     23  O   UNL     1      28.526  -1.814   2.749  1.00  0.00    -0.550 OA
ATOM     24  O   UNL     1      28.093  -4.049   2.477  1.00  0.00    -0.550 OA
ENDBRANCH  21  22
ENDBRANCH  20  21
ENDBRANCH  19  20
ENDBRANCH  18  19
ENDBRANCH  17  18
ENDBRANCH  16  17
ENDBRANCH  15  16
ENDBRANCH  14  15
ENDBRANCH  13  14
ENDBRANCH   1  13
TORSDOF 20
ENDMDL
MODEL 7
REMARK VINA RESULT:    -3.727      3.781      7.714
REMARK INTER + INTRA:         -10.998
REMARK INTER:                  -8.165
REMARK INTRA:                  -2.833
REMARK UNBOUND:                -2.913
REMARK SMILES CCCCCCCCCCCCCCCCCCCCCC(=O)[O-]
REMARK SMILES IDX 12 1 11 2 10 3 9 4 8 5 7 6 6 7 5 8 4 9 3 10 2 11 1 12 13 13
REMARK SMILES IDX 14 14 15 15 16 16 17 17 18 18 19 19 20 20 21 21 22 22 23 23
REMARK SMILES IDX 24 24
REMARK H PARENT
REMARK Flexibility Score: inf
ROOT
ATOM      1  C   UNL     1      30.124  -1.238  -3.973  1.00  0.00     0.000 C 
ENDROOT
BRANCH   1   2
ATOM      2  C   UNL     1      29.772  -1.813  -5.355  1.00  0.00     0.000 C 
BRANCH   2   3
ATOM      3  C   UNL     1      29.703  -3.353  -5.382  1.00  0.00     0.000 C 
BRANCH   3   4
ATOM      4  C   UNL     1      29.771  -4.049  -4.005  1.00  0.00    -0.000 C 
BRANCH   4   5
ATOM      5  C   UNL     1      28.404  -4.255  -3.315  1.00  0.00    -0.000 C 
BRANCH   5   6
ATOM      6  C   UNL     1      27.209  -4.245  -4.285  1.00  0.00    -0.000 C 
BRANCH   6   7
ATOM      7  C   UNL     1      26.393  -5.549  -4.247  1.00  0.00    -0.000 C 
BRANCH   7   8
ATOM      8  C   UNL     1      26.451  -6.323  -5.583  1.00  0.00    -0.000 C 
BRANCH   8   9
ATOM      9  C   UNL     1      27.878  -6.477  -6.150  1.00  0.00    -0.000 C 
BRANCH   9  10
ATOM     10  C   UNL     1      28.254  -7.911  -6.564  1.00  0.00    -0.000 C 
BRANCH  10  11
ATOM     11  C   UNL     1      29.189  -8.594  -5.555  1.00  0.00    -0.003 C 
ATOM     12  C   UNL     1      29.845  -7.568  -4.633  1.00  0.00     0.004 C 
ENDBRANCH  10  11
ENDBRANCH   9  10
ENDBRANCH   8   9
ENDBRANCH   7   8
ENDBRANCH   6   7
ENDBRANCH   5   6
ENDBRANCH   4   5
ENDBRANCH   3   4
ENDBRANCH   2   3
ENDBRANCH   1   2
BRANCH   1  13
ATOM     13  C   UNL     1      29.394   0.090  -3.734  1.00  0.00     0.000 C 
BRANCH  13  14
ATOM     14  C   UNL     1      27.872  -0.083  -3.614  1.00  0.00     0.000 C 
BRANCH  14  15
ATOM     15  C   UNL     1      27.294   0.609  -2.366  1.00  0.00     0.000 C 
BRANCH  15  16
ATOM     16  C   UNL     1      27.435  -0.254  -1.101  1.00  0.00     0.000 C 
BRANCH  16  17
ATOM     17  C   UNL     1      26.853  -1.667  -1.282  1.00  0.00     0.000 C 
BRANCH  17  18
ATOM     18  C   UNL     1      27.518  -2.698  -0.355  1.00  0.00     0.000 C 
BRANCH  18  19
ATOM     19  C   UNL     1      28.983  -2.344  -0.039  1.00  0.00     0.000 C 
BRANCH  19  20
ATOM     20  C   UNL     1      29.414  -2.791   1.370  1.00  0.00     0.006 C 
BRANCH  20  21
ATOM     21  C   UNL     1      28.282  -2.772   2.409  1.00  0.00     0.053 C 
BRANCH  21  22
ATOM     22  C   UNL     1      28.310  -1.528   3.245  1.00  0.00     0.041 C 
ATOM     23  O   UNL     1      28.196  -1.605   4.497  1.00  0.00    -0.550 OA
ATOM     24  O   UNL     1      28.430  -0.283   2.639  1.00  0.00    -0.550 OA
ENDBRANCH  21  22
ENDBRANCH  20  21
ENDBRANCH  19  20
ENDBRANCH  18  19
ENDBRANCH  17  18
ENDBRANCH  16  17
ENDBRANCH  15  16
ENDBRANCH  14  15
ENDBRANCH  13  14
ENDBRANCH   1  13
TORSDOF 20
ENDMDL
MODEL 8
REMARK VINA RESULT:    -3.717      1.681      3.161
REMARK INTER + INTRA:         -10.976
REMARK INTER:                  -8.131
REMARK INTRA:                  -2.845
REMARK UNBOUND:                -2.913
REMARK SMILES CCCCCCCCCCCCCCCCCCCCCC(=O)[O-]
REMARK SMILES IDX 12 1 11 2 10 3 9 4 8 5 7 6 6 7 5 8 4 9 3 10 2 11 1 12 13 13
REMARK SMILES IDX 14 14 15 15 16 16 17 17 18 18 19 19 20 20 21 21 22 22 23 23
REMARK SMILES IDX 24 24
REMARK H PARENT
REMARK Flexibility Score: inf
ROOT
ATOM      1  C   UNL     1      27.556  -2.747  -5.396  1.00  0.00     0.000 C 
ENDROOT
BRANCH   1   2
ATOM      2  C   UNL     1      28.077  -1.496  -6.121  1.00  0.00     0.000 C 
BRANCH   2   3
ATOM      3  C   UNL     1      27.812  -0.185  -5.354  1.00  0.00     0.000 C 
BRANCH   3   4
ATOM      4  C   UNL     1      28.980   0.824  -5.331  1.00  0.00    -0.000 C 
BRANCH   4   5
ATOM      5  C   UNL     1      29.549   1.125  -3.926  1.00  0.00    -0.000 C 
BRANCH   5   6
ATOM      6  C   UNL     1      28.587   0.777  -2.777  1.00  0.00    -0.000 C 
BRANCH   6   7
ATOM      7  C   UNL     1      29.307   0.209  -1.541  1.00  0.00    -0.000 C 
BRANCH   7   8
ATOM      8  C   UNL     1      28.396   0.166  -0.294  1.00  0.00    -0.000 C 
BRANCH   8   9
ATOM      9  C   UNL     1      27.884  -1.247   0.052  1.00  0.00    -0.000 C 
BRANCH   9  10
ATOM     10  C   UNL     1      28.238  -1.730   1.471  1.00  0.00    -0.000 C 
BRANCH  10  11
ATOM     11  C   UNL     1      28.954  -3.089   1.474  1.00  0.00    -0.003 C 
ATOM     12  C   UNL     1      30.101  -3.106   0.466  1.00  0.00     0.004 C 
ENDBRANCH  10  11
ENDBRANCH   9  10
ENDBRANCH   8   9
ENDBRANCH   7   8
ENDBRANCH   6   7
ENDBRANCH   5   6
ENDBRANCH   4   5
ENDBRANCH   3   4
ENDBRANCH   2   3
ENDBRANCH   1   2
BRANCH   1  13
ATOM     13  C   UNL     1      27.502  -2.515  -3.880  1.00  0.00     0.000 C 
BRANCH  13  14
ATOM     14  C   UNL     1      28.781  -2.975  -3.164  1.00  0.00     0.000 C 
BRANCH  14  15
ATOM     15  C   UNL     1      29.685  -3.837  -4.065  1.00  0.00     0.000 C 
BRANCH  15  16
ATOM     16  C   UNL     1      30.011  -5.200  -3.432  1.00  0.00     0.000 C 
BRANCH  16  17
ATOM     17  C   UNL     1      29.736  -6.375  -4.386  1.00  0.00     0.000 C 
BRANCH  17  18
ATOM     18  C   UNL     1      28.587  -7.272  -3.895  1.00  0.00     0.000 C 
BRANCH  18  19
ATOM     19  C   UNL     1      27.242  -6.524  -3.838  1.00  0.00     0.000 C 
BRANCH  19  20
ATOM     20  C   UNL     1      26.705  -6.156  -5.233  1.00  0.00     0.006 C 
BRANCH  20  21
ATOM     21  C   UNL     1      26.535  -7.356  -6.178  1.00  0.00     0.053 C 
BRANCH  21  22
ATOM     22  C   UNL     1      27.506  -7.314  -7.317  1.00  0.00     0.041 C 
ATOM     23  O   UNL     1      28.441  -8.156  -7.383  1.00  0.00    -0.550 OA
ATOM     24  O   UNL     1      27.399  -6.326  -8.290  1.00  0.00    -0.550 OA
ENDBRANCH  21  22
ENDBRANCH  20  21
ENDBRANCH  19  20
ENDBRANCH  18  19
ENDBRANCH  17  18
ENDBRANCH  16  17
ENDBRANCH  15  16
ENDBRANCH  14  15
ENDBRANCH  13  14
ENDBRANCH   1  13
TORSDOF 20
ENDMDL
MODEL 9
REMARK VINA RESULT:    -3.664      6.841      8.519
REMARK INTER + INTRA:         -10.860
REMARK INTER:                  -9.256
REMARK INTRA:                  -1.604
REMARK UNBOUND:                -2.913
REMARK SMILES CCCCCCCCCCCCCCCCCCCCCC(=O)[O-]
REMARK SMILES IDX 12 1 11 2 10 3 9 4 8 5 7 6 6 7 5 8 4 9 3 10 2 11 1 12 13 13
REMARK SMILES IDX 14 14 15 15 16 16 17 17 18 18 19 19 20 20 21 21 22 22 23 23
REMARK SMILES IDX 24 24
REMARK H PARENT
REMARK Flexibility Score: inf
ROOT
ATOM      1  C   UNL     1      21.801   0.308  -4.945  1.00  0.00     0.000 C 
ENDROOT
BRANCH   1   2
ATOM      2  C   UNL     1      20.507   0.948  -5.472  1.00  0.00     0.000 C 
BRANCH   2   3
ATOM      3  C   UNL     1      20.488   1.125  -7.004  1.00  0.00     0.000 C 
BRANCH   3   4
ATOM      4  C   UNL     1      19.264   0.526  -7.730  1.00  0.00    -0.000 C 
BRANCH   4   5
ATOM      5  C   UNL     1      18.336  -0.329  -6.838  1.00  0.00    -0.000 C 
BRANCH   5   6
ATOM      6  C   UNL     1      16.885   0.181  -6.780  1.00  0.00    -0.000 C 
BRANCH   6   7
ATOM      7  C   UNL     1      16.531   0.833  -5.432  1.00  0.00    -0.000 C 
BRANCH   7   8
ATOM      8  C   UNL     1      15.539  -0.018  -4.607  1.00  0.00    -0.000 C 
BRANCH   8   9
ATOM      9  C   UNL     1      16.222  -1.072  -3.710  1.00  0.00    -0.000 C 
BRANCH   9  10
ATOM     10  C   UNL     1      17.696  -0.777  -3.379  1.00  0.00    -0.000 C 
BRANCH  10  11
ATOM     11  C   UNL     1      18.494  -2.045  -3.043  1.00  0.00    -0.003 C 
ATOM     12  C   UNL     1      19.132  -2.639  -4.296  1.00  0.00     0.004 C 
ENDBRANCH  10  11
ENDBRANCH   9  10
ENDBRANCH   8   9
ENDBRANCH   7   8
ENDBRANCH   6   7
ENDBRANCH   5   6
ENDBRANCH   4   5
ENDBRANCH   3   4
ENDBRANCH   2   3
ENDBRANCH   1   2
BRANCH   1  13
ATOM     13  C   UNL     1      23.030   1.096  -5.417  1.00  0.00     0.000 C 
BRANCH  13  14
ATOM     14  C   UNL     1      24.243   0.913  -4.493  1.00  0.00     0.000 C 
BRANCH  14  15
ATOM     15  C   UNL     1      25.582   1.108  -5.228  1.00  0.00     0.000 C 
BRANCH  15  16
ATOM     16  C   UNL     1      26.756   0.440  -4.493  1.00  0.00     0.000 C 
BRANCH  16  17
ATOM     17  C   UNL     1      27.105  -0.943  -5.070  1.00  0.00     0.000 C 
BRANCH  17  18
ATOM     18  C   UNL     1      26.689  -2.091  -4.135  1.00  0.00     0.000 C 
BRANCH  18  19
ATOM     19  C   UNL     1      27.617  -3.313  -4.257  1.00  0.00     0.000 C 
BRANCH  19  20
ATOM     20  C   UNL     1      26.901  -4.551  -4.828  1.00  0.00     0.006 C 
BRANCH  20  21
ATOM     21  C   UNL     1      27.650  -5.232  -5.985  1.00  0.00     0.053 C 
BRANCH  21  22
ATOM     22  C   UNL     1      27.777  -6.710  -5.777  1.00  0.00     0.041 C 
ATOM     23  O   UNL     1      28.132  -7.163  -4.657  1.00  0.00    -0.550 OA
ATOM     24  O   UNL     1      27.534  -7.586  -6.829  1.00  0.00    -0.550 OA
ENDBRANCH  21  22
ENDBRANCH  20  21
ENDBRANCH  19  20
ENDBRANCH  18  19
ENDBRANCH  17  18
ENDBRANCH  16  17
ENDBRANCH  15  16
ENDBRANCH  14  15
ENDBRANCH  13  14
ENDBRANCH   1  13
TORSDOF 20
ENDMDL
