MODEL 1
REMARK VINA RESULT:    -3.086      0.000      0.000
REMARK INTER + INTRA:          -7.305
REMARK INTER:                  -5.613
REMARK INTRA:                  -1.692
REMARK UNBOUND:                -1.692
REMARK SMILES CCCCCCCCCCCCCCCC(=O)[O-]
REMARK SMILES IDX 9 1 10 2 11 3 12 4 13 5 14 6 15 7 16 8 17 9 18 10 8 11 7 12
REMARK SMILES IDX 6 13 5 14 4 15 3 16 2 17 1 18
REMARK H PARENT
REMARK Flexibility Score: inf
ROOT
ATOM      1  C   UNL     1     -26.939  59.323  34.763  1.00  0.00     0.000 C 
ENDROOT
BRANCH   1   2
ATOM      2  C   UNL     1     -28.429  59.698  34.757  1.00  0.00     0.000 C 
BRANCH   2   3
ATOM      3  C   UNL     1     -29.022  59.792  36.172  1.00  0.00     0.000 C 
BRANCH   3   4
ATOM      4  C   UNL     1     -27.968  59.565  37.270  1.00  0.00     0.000 C 
BRANCH   4   5
ATOM      5  C   UNL     1     -28.331  58.409  38.220  1.00  0.00     0.000 C 
BRANCH   5   6
ATOM      6  C   UNL     1     -27.702  57.050  37.864  1.00  0.00     0.006 C 
BRANCH   6   7
ATOM      7  C   UNL     1     -26.195  57.140  37.592  1.00  0.00     0.053 C 
BRANCH   7   8
ATOM      8  C   UNL     1     -25.444  57.336  38.870  1.00  0.00     0.041 C 
ATOM      9  O   UNL     1     -24.923  58.451  39.134  1.00  0.00    -0.550 OA
ATOM     10  O   UNL     1     -25.277  56.273  39.748  1.00  0.00    -0.550 OA
ENDBRANCH   7   8
ENDBRANCH   6   7
ENDBRANCH   5   6
ENDBRANCH   4   5
ENDBRANCH   3   4
ENDBRANCH   2   3
ENDBRANCH   1   2
BRANCH   1  11
ATOM     11  C   UNL     1     -26.647  58.220  33.735  1.00  0.00     0.000 C 
BRANCH  11  12
ATOM     12  C   UNL     1     -27.925  57.644  33.097  1.00  0.00    -0.000 C 
BRANCH  12  13
ATOM     13  C   UNL     1     -28.072  56.114  33.204  1.00  0.00    -0.000 C 
BRANCH  13  14
ATOM     14  C   UNL     1     -27.443  55.480  34.460  1.00  0.00    -0.000 C 
BRANCH  14  15
ATOM     15  C   UNL     1     -26.873  54.064  34.262  1.00  0.00    -0.000 C 
BRANCH  15  16
ATOM     16  C   UNL     1     -27.721  53.208  33.306  1.00  0.00    -0.000 C 
BRANCH  16  17
ATOM     17  C   UNL     1     -28.100  51.849  33.912  1.00  0.00    -0.003 C 
ATOM     18  C   UNL     1     -29.476  51.360  33.460  1.00  0.00     0.004 C 
ENDBRANCH  16  17
ENDBRANCH  15  16
ENDBRANCH  14  15
ENDBRANCH  13  14
ENDBRANCH  12  13
ENDBRANCH  11  12
ENDBRANCH   1  11
TORSDOF 14
ENDMDL
MODEL 2
REMARK VINA RESULT:    -2.943      2.840      5.821
REMARK INTER + INTRA:          -7.043
REMARK INTER:                  -4.758
REMARK INTRA:                  -2.285
REMARK UNBOUND:                -1.692
REMARK SMILES CCCCCCCCCCCCCCCC(=O)[O-]
REMARK SMILES IDX 9 1 10 2 11 3 12 4 13 5 14 6 15 7 16 8 17 9 18 10 8 11 7 12
REMARK SMILES IDX 6 13 5 14 4 15 3 16 2 17 1 18
REMARK H PARENT
REMARK Flexibility Score: inf
ROOT
ATOM      1  C   UNL     1     -27.615  59.723  35.386  1.00  0.00     0.000 C 
ENDROOT
BRANCH   1   2
ATOM      2  C   UNL     1     -28.223  59.515  33.990  1.00  0.00     0.000 C 
BRANCH   2   3
ATOM      3  C   UNL     1     -27.976  58.100  33.442  1.00  0.00     0.000 C 
BRANCH   3   4
ATOM      4  C   UNL     1     -26.931  57.323  34.260  1.00  0.00     0.000 C 
BRANCH   4   5
ATOM      5  C   UNL     1     -27.447  55.957  34.749  1.00  0.00     0.000 C 
BRANCH   5   6
ATOM      6  C   UNL     1     -26.365  54.875  34.922  1.00  0.00     0.006 C 
BRANCH   6   7
ATOM      7  C   UNL     1     -26.122  54.060  33.646  1.00  0.00     0.053 C 
BRANCH   7   8
ATOM      8  C   UNL     1     -27.305  53.198  33.343  1.00  0.00     0.041 C 
ATOM      9  O   UNL     1     -27.919  53.326  32.251  1.00  0.00    -0.550 OA
ATOM     10  O   UNL     1     -27.760  52.285  34.286  1.00  0.00    -0.550 OA
ENDBRANCH   7   8
ENDBRANCH   6   7
ENDBRANCH   5   6
ENDBRANCH   4   5
ENDBRANCH   3   4
ENDBRANCH   2   3
ENDBRANCH   1   2
BRANCH   1  11
ATOM     11  C   UNL     1     -28.710  59.747  36.462  1.00  0.00     0.000 C 
BRANCH  11  12
ATOM     12  C   UNL     1     -28.189  59.347  37.856  1.00  0.00    -0.000 C 
BRANCH  12  13
ATOM     13  C   UNL     1     -28.573  57.925  38.310  1.00  0.00    -0.000 C 
BRANCH  13  14
ATOM     14  C   UNL     1     -27.450  56.875  38.203  1.00  0.00    -0.000 C 
BRANCH  14  15
ATOM     15  C   UNL     1     -26.039  57.390  38.542  1.00  0.00    -0.000 C 
BRANCH  15  16
ATOM     16  C   UNL     1     -25.053  57.242  37.371  1.00  0.00    -0.000 C 
BRANCH  16  17
ATOM     17  C   UNL     1     -24.473  58.590  36.916  1.00  0.00    -0.003 C 
ATOM     18  C   UNL     1     -24.520  59.656  38.010  1.00  0.00     0.004 C 
ENDBRANCH  16  17
ENDBRANCH  15  16
ENDBRANCH  14  15
ENDBRANCH  13  14
ENDBRANCH  12  13
ENDBRANCH  11  12
ENDBRANCH   1  11
TORSDOF 14
ENDMDL
MODEL 3
REMARK VINA RESULT:    -2.927      1.971      4.514
REMARK INTER + INTRA:          -7.014
REMARK INTER:                  -4.216
REMARK INTRA:                  -2.799
REMARK UNBOUND:                -1.692
REMARK SMILES CCCCCCCCCCCCCCCC(=O)[O-]
REMARK SMILES IDX 9 1 10 2 11 3 12 4 13 5 14 6 15 7 16 8 17 9 18 10 8 11 7 12
REMARK SMILES IDX 6 13 5 14 4 15 3 16 2 17 1 18
REMARK H PARENT
REMARK Flexibility Score: inf
ROOT
ATOM      1  C   UNL     1     -26.990  56.210  31.600  1.00  0.00     0.000 C 
ENDROOT
BRANCH   1   2
ATOM      2  C   UNL     1     -26.797  57.730  31.711  1.00  0.00     0.000 C 
BRANCH   2   3
ATOM      3  C   UNL     1     -27.950  58.420  32.458  1.00  0.00     0.000 C 
BRANCH   3   4
ATOM      4  C   UNL     1     -27.460  59.285  33.633  1.00  0.00     0.000 C 
BRANCH   4   5
ATOM      5  C   UNL     1     -28.489  59.383  34.774  1.00  0.00     0.000 C 
BRANCH   5   6
ATOM      6  C   UNL     1     -27.944  59.954  36.096  1.00  0.00     0.006 C 
BRANCH   6   7
ATOM      7  C   UNL     1     -28.744  59.497  37.322  1.00  0.00     0.053 C 
BRANCH   7   8
ATOM      8  C   UNL     1     -27.979  58.466  38.090  1.00  0.00     0.041 C 
ATOM      9  O   UNL     1     -26.765  58.654  38.366  1.00  0.00    -0.550 OA
ATOM     10  O   UNL     1     -28.594  57.277  38.460  1.00  0.00    -0.550 OA
ENDBRANCH   7   8
ENDBRANCH   6   7
ENDBRANCH   5   6
ENDBRANCH   4   5
ENDBRANCH   3   4
ENDBRANCH   2   3
ENDBRANCH   1   2
BRANCH   1  11
ATOM     11  C   UNL     1     -28.005  55.709  32.638  1.00  0.00     0.000 C 
BRANCH  11  12
ATOM     12  C   UNL     1     -27.338  55.025  33.846  1.00  0.00    -0.000 C 
BRANCH  12  13
ATOM     13  C   UNL     1     -27.408  55.821  35.164  1.00  0.00    -0.000 C 
BRANCH  13  14
ATOM     14  C   UNL     1     -26.059  56.363  35.677  1.00  0.00    -0.000 C 
BRANCH  14  15
ATOM     15  C   UNL     1     -24.902  56.299  34.664  1.00  0.00    -0.000 C 
BRANCH  15  16
ATOM     16  C   UNL     1     -24.185  57.649  34.493  1.00  0.00    -0.000 C 
BRANCH  16  17
ATOM     17  C   UNL     1     -24.480  58.622  35.645  1.00  0.00    -0.003 C 
ATOM     18  C   UNL     1     -24.129  60.070  35.303  1.00  0.00     0.004 C 
ENDBRANCH  16  17
ENDBRANCH  15  16
ENDBRANCH  14  15
ENDBRANCH  13  14
ENDBRANCH  12  13
ENDBRANCH  11  12
ENDBRANCH   1  11
TORSDOF 14
ENDMDL
MODEL 4
REMARK VINA RESULT:    -2.868      3.413      6.514
REMARK INTER + INTRA:          -6.907
REMARK INTER:                  -5.262
REMARK INTRA:                  -1.645
REMARK UNBOUND:                -1.692
REMARK SMILES CCCCCCCCCCCCCCCC(=O)[O-]
REMARK SMILES IDX 9 1 10 2 11 3 12 4 13 5 14 6 15 7 16 8 17 9 18 10 8 11 7 12
REMARK SMILES IDX 6 13 5 14 4 15 3 16 2 17 1 18
REMARK H PARENT
REMARK Flexibility Score: inf
ROOT
ATOM      1  C   UNL     1     -26.637  57.815  34.408  1.00  0.00     0.000 C 
ENDROOT
BRANCH   1   2
ATOM      2  C   UNL     1     -27.879  56.933  34.205  1.00  0.00     0.000 C 
BRANCH   2   3
ATOM      3  C   UNL     1     -28.055  56.485  32.746  1.00  0.00     0.000 C 
BRANCH   3   4
ATOM      4  C   UNL     1     -27.231  55.230  32.409  1.00  0.00     0.000 C 
BRANCH   4   5
ATOM      5  C   UNL     1     -28.033  53.925  32.570  1.00  0.00     0.000 C 
BRANCH   5   6
ATOM      6  C   UNL     1     -27.799  53.174  33.893  1.00  0.00     0.006 C 
BRANCH   6   7
ATOM      7  C   UNL     1     -27.539  51.676  33.694  1.00  0.00     0.053 C 
BRANCH   7   8
ATOM      8  C   UNL     1     -28.701  51.030  33.009  1.00  0.00     0.041 C 
ATOM      9  O   UNL     1     -28.593  50.630  31.820  1.00  0.00    -0.550 OA
ATOM     10  O   UNL     1     -29.919  50.913  33.668  1.00  0.00    -0.550 OA
ENDBRANCH   7   8
ENDBRANCH   6   7
ENDBRANCH   5   6
ENDBRANCH   4   5
ENDBRANCH   3   4
ENDBRANCH   2   3
ENDBRANCH   1   2
BRANCH   1  11
ATOM     11  C   UNL     1     -27.034  59.210  34.914  1.00  0.00     0.000 C 
BRANCH  11  12
ATOM     12  C   UNL     1     -28.546  59.345  35.174  1.00  0.00    -0.000 C 
BRANCH  12  13
ATOM     13  C   UNL     1     -28.918  59.972  36.532  1.00  0.00    -0.000 C 
BRANCH  13  14
ATOM     14  C   UNL     1     -28.146  59.418  37.746  1.00  0.00    -0.000 C 
BRANCH  14  15
ATOM     15  C   UNL     1     -28.587  58.020  38.218  1.00  0.00    -0.000 C 
BRANCH  15  16
ATOM     16  C   UNL     1     -27.489  56.958  38.041  1.00  0.00    -0.000 C 
BRANCH  16  17
ATOM     17  C   UNL     1     -26.088  57.502  38.354  1.00  0.00    -0.003 C 
ATOM     18  C   UNL     1     -24.985  56.783  37.578  1.00  0.00     0.004 C 
ENDBRANCH  16  17
ENDBRANCH  15  16
ENDBRANCH  14  15
ENDBRANCH  13  14
ENDBRANCH  12  13
ENDBRANCH  11  12
ENDBRANCH   1  11
TORSDOF 14
ENDMDL
MODEL 5
REMARK VINA RESULT:    -2.809      3.635      6.610
REMARK INTER + INTRA:          -6.801
REMARK INTER:                  -4.920
REMARK INTRA:                  -1.881
REMARK UNBOUND:                -1.692
REMARK SMILES CCCCCCCCCCCCCCCC(=O)[O-]
REMARK SMILES IDX 9 1 10 2 11 3 12 4 13 5 14 6 15 7 16 8 17 9 18 10 8 11 7 12
REMARK SMILES IDX 6 13 5 14 4 15 3 16 2 17 1 18
REMARK H PARENT
REMARK Flexibility Score: inf
ROOT
ATOM      1  C   UNL     1     -26.158  55.111  31.471  1.00  0.00     0.000 C 
ENDROOT
BRANCH   1   2
ATOM      2  C   UNL     1     -25.117  55.562  32.506  1.00  0.00     0.000 C 
BRANCH   2   3
ATOM      3  C   UNL     1     -24.529  54.388  33.306  1.00  0.00     0.000 C 
BRANCH   3   4
ATOM      4  C   UNL     1     -25.442  53.947  34.464  1.00  0.00     0.000 C 
BRANCH   4   5
ATOM      5  C   UNL     1     -26.188  52.632  34.171  1.00  0.00     0.000 C 
BRANCH   5   6
ATOM      6  C   UNL     1     -27.717  52.763  34.045  1.00  0.00     0.006 C 
BRANCH   6   7
ATOM      7  C   UNL     1     -28.245  52.327  32.673  1.00  0.00     0.053 C 
BRANCH   7   8
ATOM      8  C   UNL     1     -29.175  51.165  32.817  1.00  0.00     0.041 C 
ATOM      9  O   UNL     1     -30.124  51.212  33.643  1.00  0.00    -0.550 OA
ATOM     10  O   UNL     1     -28.967  50.011  32.072  1.00  0.00    -0.550 OA
ENDBRANCH   7   8
ENDBRANCH   6   7
ENDBRANCH   5   6
ENDBRANCH   4   5
ENDBRANCH   3   4
ENDBRANCH   2   3
ENDBRANCH   1   2
BRANCH   1  11
ATOM     11  C   UNL     1     -27.351  56.079  31.436  1.00  0.00     0.000 C 
BRANCH  11  12
ATOM     12  C   UNL     1     -27.949  56.341  32.831  1.00  0.00    -0.000 C 
BRANCH  12  13
ATOM     13  C   UNL     1     -27.893  57.809  33.297  1.00  0.00    -0.000 C 
BRANCH  13  14
ATOM     14  C   UNL     1     -27.532  58.014  34.781  1.00  0.00    -0.000 C 
BRANCH  14  15
ATOM     15  C   UNL     1     -27.420  56.722  35.611  1.00  0.00    -0.000 C 
BRANCH  15  16
ATOM     16  C   UNL     1     -26.639  56.920  36.920  1.00  0.00    -0.000 C 
BRANCH  16  17
ATOM     17  C   UNL     1     -27.543  56.859  38.160  1.00  0.00    -0.003 C 
ATOM     18  C   UNL     1     -28.452  58.080  38.293  1.00  0.00     0.004 C 
ENDBRANCH  16  17
ENDBRANCH  15  16
ENDBRANCH  14  15
ENDBRANCH  13  14
ENDBRANCH  12  13
ENDBRANCH  11  12
ENDBRANCH   1  11
TORSDOF 14
ENDMDL
MODEL 6
REMARK VINA RESULT:    -2.777      1.330      2.337
REMARK INTER + INTRA:          -6.743
REMARK INTER:                  -4.660
REMARK INTRA:                  -2.082
REMARK UNBOUND:                -1.692
REMARK SMILES CCCCCCCCCCCCCCCC(=O)[O-]
REMARK SMILES IDX 9 1 10 2 11 3 12 4 13 5 14 6 15 7 16 8 17 9 18 10 8 11 7 12
REMARK SMILES IDX 6 13 5 14 4 15 3 16 2 17 1 18
REMARK H PARENT
REMARK Flexibility Score: inf
ROOT
ATOM      1  C   UNL     1     -27.157  59.430  34.522  1.00  0.00     0.000 C 
ENDROOT
BRANCH   1   2
ATOM      2  C   UNL     1     -28.648  59.752  34.701  1.00  0.00     0.000 C 
BRANCH   2   3
ATOM      3  C   UNL     1     -29.016  60.063  36.161  1.00  0.00     0.000 C 
BRANCH   3   4
ATOM      4  C   UNL     1     -27.784  60.125  37.080  1.00  0.00     0.000 C 
BRANCH   4   5
ATOM      5  C   UNL     1     -27.948  59.283  38.359  1.00  0.00     0.000 C 
BRANCH   5   6
ATOM      6  C   UNL     1     -28.250  57.792  38.125  1.00  0.00     0.006 C 
BRANCH   6   7
ATOM      7  C   UNL     1     -27.121  57.059  37.390  1.00  0.00     0.053 C 
BRANCH   7   8
ATOM      8  C   UNL     1     -25.835  57.192  38.141  1.00  0.00     0.041 C 
ATOM      9  O   UNL     1     -24.936  57.968  37.725  1.00  0.00    -0.550 OA
ATOM     10  O   UNL     1     -25.610  56.424  39.277  1.00  0.00    -0.550 OA
ENDBRANCH   7   8
ENDBRANCH   6   7
ENDBRANCH   5   6
ENDBRANCH   4   5
ENDBRANCH   3   4
ENDBRANCH   2   3
ENDBRANCH   1   2
BRANCH   1  11
ATOM     11  C   UNL     1     -26.956  58.336  33.462  1.00  0.00     0.000 C 
BRANCH  11  12
ATOM     12  C   UNL     1     -28.012  57.219  33.548  1.00  0.00    -0.000 C 
BRANCH  12  13
ATOM     13  C   UNL     1     -27.916  56.148  32.444  1.00  0.00    -0.000 C 
BRANCH  13  14
ATOM     14  C   UNL     1     -27.921  54.689  32.941  1.00  0.00    -0.000 C 
BRANCH  14  15
ATOM     15  C   UNL     1     -27.113  54.434  34.227  1.00  0.00    -0.000 C 
BRANCH  15  16
ATOM     16  C   UNL     1     -25.594  54.515  34.002  1.00  0.00    -0.000 C 
BRANCH  16  17
ATOM     17  C   UNL     1     -24.870  55.250  35.139  1.00  0.00    -0.003 C 
ATOM     18  C   UNL     1     -23.988  56.394  34.639  1.00  0.00     0.004 C 
ENDBRANCH  16  17
ENDBRANCH  15  16
ENDBRANCH  14  15
ENDBRANCH  13  14
ENDBRANCH  12  13
ENDBRANCH  11  12
ENDBRANCH   1  11
TORSDOF 14
ENDMDL
MODEL 7
REMARK VINA RESULT:    -2.746      3.330      7.009
REMARK INTER + INTRA:          -6.686
REMARK INTER:                  -5.239
REMARK INTRA:                  -1.448
REMARK UNBOUND:                -1.692
REMARK SMILES CCCCCCCCCCCCCCCC(=O)[O-]
REMARK SMILES IDX 9 1 10 2 11 3 12 4 13 5 14 6 15 7 16 8 17 9 18 10 8 11 7 12
REMARK SMILES IDX 6 13 5 14 4 15 3 16 2 17 1 18
REMARK H PARENT
REMARK Flexibility Score: inf
ROOT
ATOM      1  C   UNL     1     -28.184  56.504  33.527  1.00  0.00     0.000 C 
ENDROOT
BRANCH   1   2
ATOM      2  C   UNL     1     -27.422  55.859  34.694  1.00  0.00     0.000 C 
BRANCH   2   3
ATOM      3  C   UNL     1     -26.926  54.441  34.367  1.00  0.00     0.000 C 
BRANCH   3   4
ATOM      4  C   UNL     1     -27.494  53.909  33.040  1.00  0.00     0.000 C 
BRANCH   4   5
ATOM      5  C   UNL     1     -26.868  52.567  32.615  1.00  0.00     0.000 C 
BRANCH   5   6
ATOM      6  C   UNL     1     -27.856  51.543  32.027  1.00  0.00     0.006 C 
BRANCH   6   7
ATOM      7  C   UNL     1     -29.167  51.452  32.817  1.00  0.00     0.053 C 
BRANCH   7   8
ATOM      8  C   UNL     1     -29.235  50.162  33.570  1.00  0.00     0.041 C 
ATOM      9  O   UNL     1     -30.113  49.306  33.282  1.00  0.00    -0.550 OA
ATOM     10  O   UNL     1     -28.359  49.923  34.621  1.00  0.00    -0.550 OA
ENDBRANCH   7   8
ENDBRANCH   6   7
ENDBRANCH   5   6
ENDBRANCH   4   5
ENDBRANCH   3   4
ENDBRANCH   2   3
ENDBRANCH   1   2
BRANCH   1  11
ATOM     11  C   UNL     1     -27.598  57.881  33.184  1.00  0.00     0.000 C 
BRANCH  11  12
ATOM     12  C   UNL     1     -26.529  58.344  34.192  1.00  0.00    -0.000 C 
BRANCH  12  13
ATOM     13  C   UNL     1     -26.889  59.619  34.981  1.00  0.00    -0.000 C 
BRANCH  13  14
ATOM     14  C   UNL     1     -28.389  59.971  35.011  1.00  0.00    -0.000 C 
BRANCH  14  15
ATOM     15  C   UNL     1     -29.071  59.807  36.381  1.00  0.00    -0.000 C 
BRANCH  15  16
ATOM     16  C   UNL     1     -28.077  59.474  37.506  1.00  0.00    -0.000 C 
BRANCH  16  17
ATOM     17  C   UNL     1     -28.389  58.135  38.191  1.00  0.00    -0.003 C 
ATOM     18  C   UNL     1     -27.237  57.135  38.091  1.00  0.00     0.004 C 
ENDBRANCH  16  17
ENDBRANCH  15  16
ENDBRANCH  14  15
ENDBRANCH  13  14
ENDBRANCH  12  13
ENDBRANCH  11  12
ENDBRANCH   1  11
TORSDOF 14
ENDMDL
MODEL 8
REMARK VINA RESULT:    -2.737      8.368     11.371
REMARK INTER + INTRA:          -6.669
REMARK INTER:                  -4.158
REMARK INTRA:                  -2.511
REMARK UNBOUND:                -1.692
REMARK SMILES CCCCCCCCCCCCCCCC(=O)[O-]
REMARK SMILES IDX 9 1 10 2 11 3 12 4 13 5 14 6 15 7 16 8 17 9 18 10 8 11 7 12
REMARK SMILES IDX 6 13 5 14 4 15 3 16 2 17 1 18
REMARK H PARENT
REMARK Flexibility Score: inf
ROOT
ATOM      1  C   UNL     1     -23.600  51.667  45.338  1.00  0.00     0.000 C 
ENDROOT
BRANCH   1   2
ATOM      2  C   UNL     1     -24.608  50.991  46.280  1.00  0.00     0.000 C 
BRANCH   2   3
ATOM      3  C   UNL     1     -25.394  49.862  45.595  1.00  0.00     0.000 C 
BRANCH   3   4
ATOM      4  C   UNL     1     -24.906  49.588  44.161  1.00  0.00     0.000 C 
BRANCH   4   5
ATOM      5  C   UNL     1     -26.050  49.220  43.198  1.00  0.00     0.000 C 
BRANCH   5   6
ATOM      6  C   UNL     1     -25.689  49.277  41.703  1.00  0.00     0.006 C 
BRANCH   6   7
ATOM      7  C   UNL     1     -26.827  49.821  40.831  1.00  0.00     0.053 C 
BRANCH   7   8
ATOM      8  C   UNL     1     -27.191  48.832  39.770  1.00  0.00     0.041 C 
ATOM      9  O   UNL     1     -26.290  48.211  39.148  1.00  0.00    -0.550 OA
ATOM     10  O   UNL     1     -28.524  48.631  39.434  1.00  0.00    -0.550 OA
ENDBRANCH   7   8
ENDBRANCH   6   7
ENDBRANCH   5   6
ENDBRANCH   4   5
ENDBRANCH   3   4
ENDBRANCH   2   3
ENDBRANCH   1   2
BRANCH   1  11
ATOM     11  C   UNL     1     -23.556  53.183  45.582  1.00  0.00     0.000 C 
BRANCH  11  12
ATOM     12  C   UNL     1     -24.671  53.670  46.527  1.00  0.00    -0.000 C 
BRANCH  12  13
ATOM     13  C   UNL     1     -25.422  54.929  46.051  1.00  0.00    -0.000 C 
BRANCH  13  14
ATOM     14  C   UNL     1     -26.323  54.729  44.816  1.00  0.00    -0.000 C 
BRANCH  14  15
ATOM     15  C   UNL     1     -27.047  53.372  44.748  1.00  0.00    -0.000 C 
BRANCH  15  16
ATOM     16  C   UNL     1     -26.788  52.624  43.430  1.00  0.00    -0.000 C 
BRANCH  16  17
ATOM     17  C   UNL     1     -26.006  53.473  42.416  1.00  0.00    -0.003 C 
ATOM     18  C   UNL     1     -24.698  52.816  41.975  1.00  0.00     0.004 C 
ENDBRANCH  16  17
ENDBRANCH  15  16
ENDBRANCH  14  15
ENDBRANCH  13  14
ENDBRANCH  12  13
ENDBRANCH  11  12
ENDBRANCH   1  11
TORSDOF 14
ENDMDL
MODEL 9
REMARK VINA RESULT:    -2.707      1.594      2.668
REMARK INTER + INTRA:          -6.615
REMARK INTER:                  -4.730
REMARK INTRA:                  -1.885
REMARK UNBOUND:                -1.692
REMARK SMILES CCCCCCCCCCCCCCCC(=O)[O-]
REMARK SMILES IDX 9 1 10 2 11 3 12 4 13 5 14 6 15 7 16 8 17 9 18 10 8 11 7 12
REMARK SMILES IDX 6 13 5 14 4 15 3 16 2 17 1 18
REMARK H PARENT
REMARK Flexibility Score: inf
ROOT
ATOM      1  C   UNL     1     -26.015  56.885  35.828  1.00  0.00     0.000 C 
ENDROOT
BRANCH   1   2
ATOM      2  C   UNL     1     -27.346  56.542  36.516  1.00  0.00     0.000 C 
BRANCH   2   3
ATOM      3  C   UNL     1     -27.404  57.033  37.971  1.00  0.00     0.000 C 
BRANCH   3   4
ATOM      4  C   UNL     1     -28.329  58.250  38.147  1.00  0.00     0.000 C 
BRANCH   4   5
ATOM      5  C   UNL     1     -27.564  59.534  38.518  1.00  0.00     0.000 C 
BRANCH   5   6
ATOM      6  C   UNL     1     -26.030  59.407  38.507  1.00  0.00     0.006 C 
BRANCH   6   7
ATOM      7  C   UNL     1     -25.378  59.902  39.803  1.00  0.00     0.053 C 
BRANCH   7   8
ATOM      8  C   UNL     1     -24.465  58.857  40.361  1.00  0.00     0.041 C 
ATOM      9  O   UNL     1     -24.692  57.638  40.145  1.00  0.00    -0.550 OA
ATOM     10  O   UNL     1     -23.391  59.227  41.160  1.00  0.00    -0.550 OA
ENDBRANCH   7   8
ENDBRANCH   6   7
ENDBRANCH   5   6
ENDBRANCH   4   5
ENDBRANCH   3   4
ENDBRANCH   2   3
ENDBRANCH   1   2
BRANCH   1  11
ATOM     11  C   UNL     1     -26.160  58.134  34.947  1.00  0.00     0.000 C 
BRANCH  11  12
ATOM     12  C   UNL     1     -27.615  58.394  34.512  1.00  0.00    -0.000 C 
BRANCH  12  13
ATOM     13  C   UNL     1     -27.866  58.304  32.994  1.00  0.00    -0.000 C 
BRANCH  13  14
ATOM     14  C   UNL     1     -27.395  56.997  32.327  1.00  0.00    -0.000 C 
BRANCH  14  15
ATOM     15  C   UNL     1     -28.230  55.750  32.670  1.00  0.00    -0.000 C 
BRANCH  15  16
ATOM     16  C   UNL     1     -27.397  54.458  32.679  1.00  0.00    -0.000 C 
BRANCH  16  17
ATOM     17  C   UNL     1     -27.269  53.850  34.084  1.00  0.00    -0.003 C 
ATOM     18  C   UNL     1     -26.093  52.882  34.208  1.00  0.00     0.004 C 
ENDBRANCH  16  17
ENDBRANCH  15  16
ENDBRANCH  14  15
ENDBRANCH  13  14
ENDBRANCH  12  13
ENDBRANCH  11  12
ENDBRANCH   1  11
TORSDOF 14
ENDMDL
