MODEL 1
REMARK VINA RESULT:    -3.759      0.000      0.000
REMARK INTER + INTRA:          -4.454
REMARK INTER:                  -4.309
REMARK INTRA:                  -0.146
REMARK UNBOUND:                -0.146
REMARK SMILES O=C([O-])C=Cc1ccc(O)cc1
REMARK SMILES IDX 6 1 7 2 12 3 8 4 11 5 9 6 5 7 4 8 2 9 1 10 3 11 10 12
REMARK H PARENT 10 13
REMARK Flexibility Score: inf
ROOT
ATOM      1  C   UNL     1      12.991  -2.621  11.566  1.00  0.00    -0.025 A 
ATOM      2  C   UNL     1      14.062  -3.266  12.218  1.00  0.00     0.012 A 
ATOM      3  C   UNL     1      12.961  -1.216  11.540  1.00  0.00     0.012 A 
ATOM      4  C   UNL     1      15.087  -2.516  12.804  1.00  0.00     0.047 A 
ATOM      5  C   UNL     1      13.988  -0.471  12.125  1.00  0.00     0.047 A 
ATOM      6  C   UNL     1      15.055  -1.120  12.758  1.00  0.00     0.115 A 
ENDROOT
BRANCH   1   7
ATOM      7  C   UNL     1      11.871  -3.367  10.939  1.00  0.00     0.010 C 
ATOM      8  C   UNL     1      11.290  -3.007   9.785  1.00  0.00     0.025 C 
BRANCH   8   9
ATOM      9  C   UNL     1      10.173  -3.767   9.198  1.00  0.00     0.064 C 
ATOM     10  O   UNL     1       9.189  -4.125   9.897  1.00  0.00    -0.545 OA
ATOM     11  O   UNL     1      10.206  -4.094   7.849  1.00  0.00    -0.545 OA
ENDBRANCH   8   9
ENDBRANCH   1   7
BRANCH   6  12
ATOM     12  O   UNL     1      16.085  -0.388  13.345  1.00  0.00    -0.508 OA
ATOM     13  H   UNL     1      15.919   0.522  13.757  1.00  0.00     0.293 HD
ENDBRANCH   6  12
TORSDOF 3
ENDMDL
MODEL 2
REMARK VINA RESULT:    -3.701      0.233      1.409
REMARK INTER + INTRA:          -4.387
REMARK INTER:                  -4.249
REMARK INTRA:                  -0.138
REMARK UNBOUND:                -0.146
REMARK SMILES O=C([O-])C=Cc1ccc(O)cc1
REMARK SMILES IDX 6 1 7 2 12 3 8 4 11 5 9 6 5 7 4 8 2 9 1 10 3 11 10 12
REMARK H PARENT 10 13
REMARK Flexibility Score: inf
ROOT
ATOM      1  C   UNL     1      12.812  -2.531  11.551  1.00  0.00    -0.025 A 
ATOM      2  C   UNL     1      12.996  -1.135  11.472  1.00  0.00     0.012 A 
ATOM      3  C   UNL     1      13.762  -3.302  12.243  1.00  0.00     0.012 A 
ATOM      4  C   UNL     1      14.093  -0.530  12.095  1.00  0.00     0.047 A 
ATOM      5  C   UNL     1      14.855  -2.693  12.866  1.00  0.00     0.047 A 
ATOM      6  C   UNL     1      15.022  -1.305  12.794  1.00  0.00     0.115 A 
ENDROOT
BRANCH   1   7
ATOM      7  C   UNL     1      11.673  -3.225  10.899  1.00  0.00     0.010 C 
ATOM      8  C   UNL     1      11.381  -3.115   9.595  1.00  0.00     0.025 C 
BRANCH   8   9
ATOM      9  C   UNL     1      10.235  -3.810   8.985  1.00  0.00     0.064 C 
ATOM     10  O   UNL     1       9.225  -4.125   9.667  1.00  0.00    -0.545 OA
ATOM     11  O   UNL     1      10.271  -4.125   7.633  1.00  0.00    -0.545 OA
ENDBRANCH   8   9
ENDBRANCH   1   7
BRANCH   6  12
ATOM     12  O   UNL     1      16.108  -0.687  13.411  1.00  0.00    -0.508 OA
ATOM     13  H   UNL     1      17.056  -1.013  13.265  1.00  0.00     0.293 HD
ENDBRANCH   6  12
TORSDOF 3
ENDMDL
MODEL 3
REMARK VINA RESULT:    -2.380      1.171      1.551
REMARK INTER + INTRA:          -2.873
REMARK INTER:                  -2.735
REMARK INTRA:                  -0.138
REMARK UNBOUND:                -0.146
REMARK SMILES O=C([O-])C=Cc1ccc(O)cc1
REMARK SMILES IDX 6 1 7 2 12 3 8 4 11 5 9 6 5 7 4 8 2 9 1 10 3 11 10 12
REMARK H PARENT 10 13
REMARK Flexibility Score: inf
ROOT
ATOM      1  C   UNL     1      13.018  -2.570  11.732  1.00  0.00    -0.025 A 
ATOM      2  C   UNL     1      13.196  -3.701  12.555  1.00  0.00     0.012 A 
ATOM      3  C   UNL     1      13.883  -1.473  11.892  1.00  0.00     0.012 A 
ATOM      4  C   UNL     1      14.232  -3.737  13.494  1.00  0.00     0.047 A 
ATOM      5  C   UNL     1      14.918  -1.514  12.830  1.00  0.00     0.047 A 
ATOM      6  C   UNL     1      15.096  -2.647  13.633  1.00  0.00     0.115 A 
ENDROOT
BRANCH   1   7
ATOM      7  C   UNL     1      11.929  -2.475  10.729  1.00  0.00     0.010 C 
ATOM      8  C   UNL     1      11.197  -3.522  10.322  1.00  0.00     0.025 C 
BRANCH   8   9
ATOM      9  C   UNL     1      10.130  -3.391   9.315  1.00  0.00     0.064 C 
ATOM     10  O   UNL     1      10.115  -4.113   8.283  1.00  0.00    -0.545 OA
ATOM     11  O   UNL     1       9.124  -2.454   9.507  1.00  0.00    -0.545 OA
ENDBRANCH   8   9
ENDBRANCH   1   7
BRANCH   6  12
ATOM     12  O   UNL     1      16.124  -2.699  14.571  1.00  0.00    -0.508 OA
ATOM     13  H   UNL     1      17.098  -2.694  14.291  1.00  0.00     0.293 HD
ENDBRANCH   6  12
TORSDOF 3
ENDMDL
