MODEL 1
REMARK VINA RESULT:    -7.351      0.000      0.000
REMARK INTER + INTRA:          -9.261
REMARK INTER:                  -8.856
REMARK INTRA:                  -0.405
REMARK UNBOUND:                -0.405
REMARK SMILES O=c1c(O)c(-c2ccc(O)cc2O)oc2cc(O)cc(O)c12
REMARK SMILES IDX 5 1 3 2 2 3 1 4 22 5 20 6 19 7 17 8 16 9 15 10 14 11 6 12
REMARK SMILES IDX 8 13 7 14 9 15 11 16 12 17 10 18 13 20 4 22 21 24 18 26
REMARK H PARENT 10 19 13 21 4 23 21 25 18 27
REMARK Flexibility Score: inf
ROOT
ATOM      1  C   UNL     1       3.197 -11.833 -40.232  1.00  0.00     0.184 A 
ATOM      2  C   UNL     1       2.941 -11.492 -41.569  1.00  0.00     0.208 A 
ATOM      3  C   UNL     1       4.013 -11.426 -42.472  1.00  0.00     0.238 A 
ATOM      4  O   UNL     1       3.769 -11.179 -43.682  1.00  0.00    -0.285 OA
ATOM      5  C   UNL     1       5.331 -11.672 -42.019  1.00  0.00     0.111 A 
ATOM      6  C   UNL     1       6.499 -11.593 -42.837  1.00  0.00     0.134 A 
ATOM      7  C   UNL     1       7.738 -11.978 -42.311  1.00  0.00     0.093 A 
ATOM      8  C   UNL     1       7.863 -12.375 -40.978  1.00  0.00     0.123 A 
ATOM      9  C   UNL     1       6.740 -12.399 -40.155  1.00  0.00     0.094 A 
ATOM     10  C   UNL     1       5.483 -12.058 -40.660  1.00  0.00     0.146 A 
ATOM     11  O   UNL     1       4.437 -12.108 -39.846  1.00  0.00    -0.451 OA
ENDROOT
BRANCH   1  12
ATOM     12  C   UNL     1       2.111 -11.896 -39.232  1.00  0.00     0.063 A 
ATOM     13  C   UNL     1       0.599 -10.732 -37.720  1.00  0.00     0.047 A 
ATOM     14  C   UNL     1       1.588 -10.701 -38.706  1.00  0.00     0.020 A 
ATOM     15  C   UNL     1       0.126 -11.957 -37.237  1.00  0.00     0.119 A 
ATOM     16  C   UNL     1       0.641 -13.150 -37.751  1.00  0.00     0.093 A 
ATOM     17  C   UNL     1       1.625 -13.133 -38.748  1.00  0.00     0.130 A 
BRANCH  15  18
ATOM     18  O   UNL     1      -0.855 -12.000 -36.250  1.00  0.00    -0.508 OA
ATOM     19  H   UNL     1      -1.701 -12.546 -36.367  1.00  0.00     0.293 HD
ENDBRANCH  15  18
BRANCH  17  20
ATOM     20  O   UNL     1       2.076 -14.356 -39.250  1.00  0.00    -0.507 OA
ATOM     21  H   UNL     1       3.053 -14.617 -39.271  1.00  0.00     0.293 HD
ENDBRANCH  17  20
ENDBRANCH   1  12
BRANCH   2  22
ATOM     22  O   UNL     1       1.629 -11.250 -41.987  1.00  0.00    -0.502 OA
ATOM     23  H   UNL     1       0.834 -11.734 -41.588  1.00  0.00     0.293 HD
ENDBRANCH   2  22
BRANCH   6  24
ATOM     24  O   UNL     1       6.500 -11.123 -44.154  1.00  0.00    -0.507 OA
ATOM     25  H   UNL     1       7.329 -10.903 -44.686  1.00  0.00     0.293 HD
ENDBRANCH   6  24
BRANCH   8  26
ATOM     26  O   UNL     1       9.103 -12.740 -40.458  1.00  0.00    -0.508 OA
ATOM     27  H   UNL     1       9.548 -13.615 -40.713  1.00  0.00     0.293 HD
ENDBRANCH   8  26
TORSDOF 6
ENDMDL
MODEL 2
REMARK VINA RESULT:    -7.088      3.862      5.965
REMARK INTER + INTRA:          -8.943
REMARK INTER:                  -8.531
REMARK INTRA:                  -0.413
REMARK UNBOUND:                -0.405
REMARK SMILES O=c1c(O)c(-c2ccc(O)cc2O)oc2cc(O)cc(O)c12
REMARK SMILES IDX 5 1 3 2 2 3 1 4 22 5 20 6 19 7 17 8 16 9 15 10 14 11 6 12
REMARK SMILES IDX 8 13 7 14 9 15 11 16 12 17 10 18 13 20 4 22 21 24 18 26
REMARK H PARENT 10 19 13 21 4 23 21 25 18 27
REMARK Flexibility Score: inf
ROOT
ATOM      1  C   UNL     1       0.545 -10.166 -40.646  1.00  0.00     0.184 A 
ATOM      2  C   UNL     1      -0.431 -10.044 -41.646  1.00  0.00     0.208 A 
ATOM      3  C   UNL     1      -0.718  -8.773 -42.166  1.00  0.00     0.238 A 
ATOM      4  O   UNL     1      -1.551  -8.679 -43.106  1.00  0.00    -0.285 OA
ATOM      5  C   UNL     1      -0.045  -7.636 -41.658  1.00  0.00     0.111 A 
ATOM      6  C   UNL     1      -0.284  -6.294 -42.084  1.00  0.00     0.134 A 
ATOM      7  C   UNL     1       0.528  -5.261 -41.599  1.00  0.00     0.093 A 
ATOM      8  C   UNL     1       1.528  -5.512 -40.656  1.00  0.00     0.123 A 
ATOM      9  C   UNL     1       1.730  -6.809 -40.191  1.00  0.00     0.094 A 
ATOM     10  C   UNL     1       0.962  -7.867 -40.683  1.00  0.00     0.146 A 
ATOM     11  O   UNL     1       1.197  -9.089 -40.224  1.00  0.00    -0.451 OA
ENDROOT
BRANCH   1  12
ATOM     12  C   UNL     1       0.873 -11.476 -40.044  1.00  0.00     0.063 A 
ATOM     13  C   UNL     1       0.476 -13.126 -38.300  1.00  0.00     0.047 A 
ATOM     14  C   UNL     1       0.151 -11.918 -38.922  1.00  0.00     0.020 A 
ATOM     15  C   UNL     1       1.532 -13.905 -38.785  1.00  0.00     0.119 A 
ATOM     16  C   UNL     1       2.257 -13.472 -39.898  1.00  0.00     0.093 A 
ATOM     17  C   UNL     1       1.935 -12.269 -40.538  1.00  0.00     0.130 A 
BRANCH  15  18
ATOM     18  O   UNL     1       1.868 -15.108 -38.170  1.00  0.00    -0.508 OA
ATOM     19  H   UNL     1       2.801 -15.277 -37.811  1.00  0.00     0.293 HD
ENDBRANCH  15  18
BRANCH  17  20
ATOM     20  O   UNL     1       2.670 -11.905 -41.668  1.00  0.00    -0.507 OA
ATOM     21  H   UNL     1       2.295 -11.324 -42.407  1.00  0.00     0.293 HD
ENDBRANCH  17  20
ENDBRANCH   1  12
BRANCH   2  22
ATOM     22  O   UNL     1      -1.084 -11.184 -42.125  1.00  0.00    -0.502 OA
ATOM     23  H   UNL     1      -0.847 -11.611 -43.013  1.00  0.00     0.293 HD
ENDBRANCH   2  22
BRANCH   6  24
ATOM     24  O   UNL     1      -1.314  -5.921 -42.952  1.00  0.00    -0.507 OA
ATOM     25  H   UNL     1      -1.179  -5.488 -43.853  1.00  0.00     0.293 HD
ENDBRANCH   6  24
BRANCH   8  26
ATOM     26  O   UNL     1       2.320  -4.476 -40.168  1.00  0.00    -0.508 OA
ATOM     27  H   UNL     1       2.964  -3.973 -40.768  1.00  0.00     0.293 HD
ENDBRANCH   8  26
TORSDOF 6
ENDMDL
MODEL 3
REMARK VINA RESULT:    -6.837      3.356      6.509
REMARK INTER + INTRA:          -8.641
REMARK INTER:                  -8.236
REMARK INTRA:                  -0.405
REMARK UNBOUND:                -0.405
REMARK SMILES O=c1c(O)c(-c2ccc(O)cc2O)oc2cc(O)cc(O)c12
REMARK SMILES IDX 5 1 3 2 2 3 1 4 22 5 20 6 19 7 17 8 16 9 15 10 14 11 6 12
REMARK SMILES IDX 8 13 7 14 9 15 11 16 12 17 10 18 13 20 4 22 21 24 18 26
REMARK H PARENT 10 19 13 21 4 23 21 25 18 27
REMARK Flexibility Score: inf
ROOT
ATOM      1  C   UNL     1       2.209  -9.279 -40.759  1.00  0.00     0.184 A 
ATOM      2  C   UNL     1       2.813 -10.385 -41.377  1.00  0.00     0.208 A 
ATOM      3  C   UNL     1       2.633 -11.660 -40.820  1.00  0.00     0.238 A 
ATOM      4  O   UNL     1       3.126 -12.654 -41.414  1.00  0.00    -0.285 OA
ATOM      5  C   UNL     1       1.875 -11.808 -39.633  1.00  0.00     0.111 A 
ATOM      6  C   UNL     1       1.661 -13.047 -38.957  1.00  0.00     0.134 A 
ATOM      7  C   UNL     1       0.793 -13.094 -37.859  1.00  0.00     0.093 A 
ATOM      8  C   UNL     1       0.183 -11.935 -37.372  1.00  0.00     0.123 A 
ATOM      9  C   UNL     1       0.432 -10.712 -37.989  1.00  0.00     0.094 A 
ATOM     10  C   UNL     1       1.263 -10.638 -39.110  1.00  0.00     0.146 A 
ATOM     11  O   UNL     1       1.463  -9.454 -39.675  1.00  0.00    -0.451 OA
ENDROOT
BRANCH   1  12
ATOM     12  C   UNL     1       2.383  -7.910 -41.288  1.00  0.00     0.063 A 
ATOM     13  C   UNL     1       3.515  -5.759 -41.173  1.00  0.00     0.047 A 
ATOM     14  C   UNL     1       3.366  -7.075 -40.730  1.00  0.00     0.020 A 
ATOM     15  C   UNL     1       2.679  -5.255 -42.174  1.00  0.00     0.119 A 
ATOM     16  C   UNL     1       1.696  -6.077 -42.734  1.00  0.00     0.093 A 
ATOM     17  C   UNL     1       1.543  -7.402 -42.307  1.00  0.00     0.130 A 
BRANCH  15  18
ATOM     18  O   UNL     1       2.814  -3.944 -42.620  1.00  0.00    -0.508 OA
ATOM     19  H   UNL     1       3.251  -3.729 -43.509  1.00  0.00     0.293 HD
ENDBRANCH  15  18
BRANCH  17  20
ATOM     20  O   UNL     1       0.570  -8.187 -42.928  1.00  0.00    -0.507 OA
ATOM     21  H   UNL     1      -0.321  -8.403 -42.499  1.00  0.00     0.293 HD
ENDBRANCH  17  20
ENDBRANCH   1  12
BRANCH   2  22
ATOM     22  O   UNL     1       3.559 -10.208 -42.547  1.00  0.00    -0.502 OA
ATOM     23  H   UNL     1       4.256  -9.480 -42.640  1.00  0.00     0.293 HD
ENDBRANCH   2  22
BRANCH   6  24
ATOM     24  O   UNL     1       2.290 -14.246 -39.304  1.00  0.00    -0.507 OA
ATOM     25  H   UNL     1       2.956 -14.736 -38.724  1.00  0.00     0.293 HD
ENDBRANCH   6  24
BRANCH   8  26
ATOM     26  O   UNL     1      -0.666 -11.988 -36.270  1.00  0.00    -0.508 OA
ATOM     27  H   UNL     1      -1.051 -11.146 -35.857  1.00  0.00     0.293 HD
ENDBRANCH   8  26
TORSDOF 6
ENDMDL
MODEL 4
REMARK VINA RESULT:    -6.674      1.875      3.832
REMARK INTER + INTRA:          -8.445
REMARK INTER:                  -8.038
REMARK INTRA:                  -0.407
REMARK UNBOUND:                -0.405
REMARK SMILES O=c1c(O)c(-c2ccc(O)cc2O)oc2cc(O)cc(O)c12
REMARK SMILES IDX 5 1 3 2 2 3 1 4 22 5 20 6 19 7 17 8 16 9 15 10 14 11 6 12
REMARK SMILES IDX 8 13 7 14 9 15 11 16 12 17 10 18 13 20 4 22 21 24 18 26
REMARK H PARENT 10 19 13 21 4 23 21 25 18 27
REMARK Flexibility Score: inf
ROOT
ATOM      1  C   UNL     1       3.001 -11.767 -40.952  1.00  0.00     0.184 A 
ATOM      2  C   UNL     1       4.348 -12.140 -41.082  1.00  0.00     0.208 A 
ATOM      3  C   UNL     1       5.047 -11.777 -42.243  1.00  0.00     0.238 A 
ATOM      4  O   UNL     1       6.270 -12.062 -42.326  1.00  0.00    -0.285 OA
ATOM      5  C   UNL     1       4.380 -11.070 -43.273  1.00  0.00     0.111 A 
ATOM      6  C   UNL     1       4.979 -10.684 -44.511  1.00  0.00     0.134 A 
ATOM      7  C   UNL     1       4.260  -9.881 -45.404  1.00  0.00     0.093 A 
ATOM      8  C   UNL     1       2.943  -9.504 -45.135  1.00  0.00     0.123 A 
ATOM      9  C   UNL     1       2.330  -9.923 -43.957  1.00  0.00     0.094 A 
ATOM     10  C   UNL     1       3.033 -10.694 -43.028  1.00  0.00     0.146 A 
ATOM     11  O   UNL     1       2.416 -11.061 -41.912  1.00  0.00    -0.451 OA
ENDROOT
BRANCH   1  12
ATOM     12  C   UNL     1       2.209 -12.142 -39.762  1.00  0.00     0.063 A 
ATOM     13  C   UNL     1       0.966 -13.837 -38.535  1.00  0.00     0.047 A 
ATOM     14  C   UNL     1       1.763 -13.468 -39.621  1.00  0.00     0.020 A 
ATOM     15  C   UNL     1       0.597 -12.886 -37.578  1.00  0.00     0.119 A 
ATOM     16  C   UNL     1       1.033 -11.565 -37.711  1.00  0.00     0.093 A 
ATOM     17  C   UNL     1       1.842 -11.183 -38.789  1.00  0.00     0.130 A 
BRANCH  15  18
ATOM     18  O   UNL     1      -0.201 -13.241 -36.494  1.00  0.00    -0.508 OA
ATOM     19  H   UNL     1      -0.127 -14.153 -36.058  1.00  0.00     0.293 HD
ENDBRANCH  15  18
BRANCH  17  20
ATOM     20  O   UNL     1       2.278  -9.858 -38.850  1.00  0.00    -0.507 OA
ATOM     21  H   UNL     1       1.651  -9.076 -38.988  1.00  0.00     0.293 HD
ENDBRANCH  17  20
ENDBRANCH   1  12
BRANCH   2  22
ATOM     22  O   UNL     1       4.979 -12.842 -40.050  1.00  0.00    -0.502 OA
ATOM     23  H   UNL     1       4.926 -13.850 -39.968  1.00  0.00     0.293 HD
ENDBRANCH   2  22
BRANCH   6  24
ATOM     24  O   UNL     1       6.255 -11.082 -44.919  1.00  0.00    -0.507 OA
ATOM     25  H   UNL     1       6.682 -10.832 -45.799  1.00  0.00     0.293 HD
ENDBRANCH   6  24
BRANCH   8  26
ATOM     26  O   UNL     1       2.230  -8.718 -46.037  1.00  0.00    -0.508 OA
ATOM     27  H   UNL     1       2.613  -7.856 -46.408  1.00  0.00     0.293 HD
ENDBRANCH   8  26
TORSDOF 6
ENDMDL
MODEL 5
REMARK VINA RESULT:    -6.661      5.964      8.334
REMARK INTER + INTRA:          -8.429
REMARK INTER:                  -8.022
REMARK INTRA:                  -0.407
REMARK UNBOUND:                -0.405
REMARK SMILES O=c1c(O)c(-c2ccc(O)cc2O)oc2cc(O)cc(O)c12
REMARK SMILES IDX 5 1 3 2 2 3 1 4 22 5 20 6 19 7 17 8 16 9 15 10 14 11 6 12
REMARK SMILES IDX 8 13 7 14 9 15 11 16 12 17 10 18 13 20 4 22 21 24 18 26
REMARK H PARENT 10 19 13 21 4 23 21 25 18 27
REMARK Flexibility Score: inf
ROOT
ATOM      1  C   UNL     1       5.954  -6.319 -40.921  1.00  0.00     0.184 A 
ATOM      2  C   UNL     1       6.228  -7.053 -42.085  1.00  0.00     0.208 A 
ATOM      3  C   UNL     1       5.176  -7.359 -42.961  1.00  0.00     0.238 A 
ATOM      4  O   UNL     1       5.439  -7.965 -44.033  1.00  0.00    -0.285 OA
ATOM      5  C   UNL     1       3.857  -6.951 -42.646  1.00  0.00     0.111 A 
ATOM      6  C   UNL     1       2.707  -7.241 -43.442  1.00  0.00     0.134 A 
ATOM      7  C   UNL     1       1.471  -6.682 -43.096  1.00  0.00     0.093 A 
ATOM      8  C   UNL     1       1.329  -5.898 -41.948  1.00  0.00     0.123 A 
ATOM      9  C   UNL     1       2.433  -5.658 -41.134  1.00  0.00     0.094 A 
ATOM     10  C   UNL     1       3.688  -6.170 -41.472  1.00  0.00     0.146 A 
ATOM     11  O   UNL     1       4.717  -5.906 -40.676  1.00  0.00    -0.451 OA
ENDROOT
BRANCH   1  12
ATOM     12  C   UNL     1       7.019  -5.988 -39.951  1.00  0.00     0.063 A 
ATOM     13  C   UNL     1       8.475  -6.693 -38.132  1.00  0.00     0.047 A 
ATOM     14  C   UNL     1       7.509  -6.991 -39.096  1.00  0.00     0.020 A 
ATOM     15  C   UNL     1       8.959  -5.388 -38.002  1.00  0.00     0.119 A 
ATOM     16  C   UNL     1       8.477  -4.383 -38.845  1.00  0.00     0.093 A 
ATOM     17  C   UNL     1       7.516  -4.670 -39.823  1.00  0.00     0.130 A 
BRANCH  15  18
ATOM     18  O   UNL     1       9.918  -5.078 -37.042  1.00  0.00    -0.508 OA
ATOM     19  H   UNL     1       9.936  -4.174 -36.583  1.00  0.00     0.293 HD
ENDBRANCH  15  18
BRANCH  17  20
ATOM     20  O   UNL     1       7.098  -3.634 -40.661  1.00  0.00    -0.507 OA
ATOM     21  H   UNL     1       6.381  -2.969 -40.401  1.00  0.00     0.293 HD
ENDBRANCH  17  20
ENDBRANCH   1  12
BRANCH   2  22
ATOM     22  O   UNL     1       7.540  -7.446 -42.368  1.00  0.00    -0.502 OA
ATOM     23  H   UNL     1       8.311  -6.790 -42.390  1.00  0.00     0.293 HD
ENDBRANCH   2  22
BRANCH   6  24
ATOM     24  O   UNL     1       2.719  -8.085 -44.555  1.00  0.00    -0.507 OA
ATOM     25  H   UNL     1       2.094  -8.865 -44.693  1.00  0.00     0.293 HD
ENDBRANCH   6  24
BRANCH   8  26
ATOM     26  O   UNL     1       0.092  -5.360 -41.603  1.00  0.00    -0.508 OA
ATOM     27  H   UNL     1      -0.399  -5.653 -40.766  1.00  0.00     0.293 HD
ENDBRANCH   8  26
TORSDOF 6
ENDMDL
MODEL 6
REMARK VINA RESULT:    -6.639      4.987      8.586
REMARK INTER + INTRA:          -8.402
REMARK INTER:                  -8.107
REMARK INTRA:                  -0.295
REMARK UNBOUND:                -0.405
REMARK SMILES O=c1c(O)c(-c2ccc(O)cc2O)oc2cc(O)cc(O)c12
REMARK SMILES IDX 5 1 3 2 2 3 1 4 22 5 20 6 19 7 17 8 16 9 15 10 14 11 6 12
REMARK SMILES IDX 8 13 7 14 9 15 11 16 12 17 10 18 13 20 4 22 21 24 18 26
REMARK H PARENT 10 19 13 21 4 23 21 25 18 27
REMARK Flexibility Score: inf
ROOT
ATOM      1  C   UNL     1       2.002  -8.085 -43.573  1.00  0.00     0.184 A 
ATOM      2  C   UNL     1       1.812  -6.762 -43.148  1.00  0.00     0.208 A 
ATOM      3  C   UNL     1       0.626  -6.425 -42.478  1.00  0.00     0.238 A 
ATOM      4  O   UNL     1       0.489  -5.250 -42.046  1.00  0.00    -0.285 OA
ATOM      5  C   UNL     1      -0.369  -7.411 -42.269  1.00  0.00     0.111 A 
ATOM      6  C   UNL     1      -1.627  -7.172 -41.638  1.00  0.00     0.134 A 
ATOM      7  C   UNL     1      -2.482  -8.250 -41.375  1.00  0.00     0.093 A 
ATOM      8  C   UNL     1      -2.155  -9.546 -41.779  1.00  0.00     0.123 A 
ATOM      9  C   UNL     1      -0.956  -9.779 -42.448  1.00  0.00     0.094 A 
ATOM     10  C   UNL     1      -0.064  -8.732 -42.691  1.00  0.00     0.146 A 
ATOM     11  O   UNL     1       1.074  -9.000 -43.319  1.00  0.00    -0.451 OA
ENDROOT
BRANCH   1  12
ATOM     12  C   UNL     1       3.221  -8.493 -44.303  1.00  0.00     0.063 A 
ATOM     13  C   UNL     1       5.647  -8.676 -44.370  1.00  0.00     0.047 A 
ATOM     14  C   UNL     1       4.474  -8.350 -43.683  1.00  0.00     0.020 A 
ATOM     15  C   UNL     1       5.584  -9.139 -45.688  1.00  0.00     0.119 A 
ATOM     16  C   UNL     1       4.343  -9.281 -46.314  1.00  0.00     0.093 A 
ATOM     17  C   UNL     1       3.159  -8.969 -45.634  1.00  0.00     0.130 A 
BRANCH  15  18
ATOM     18  O   UNL     1       6.746  -9.460 -46.384  1.00  0.00    -0.508 OA
ATOM     19  H   UNL     1       6.888  -9.167 -47.344  1.00  0.00     0.293 HD
ENDBRANCH  15  18
BRANCH  17  20
ATOM     20  O   UNL     1       1.946  -9.166 -46.297  1.00  0.00    -0.507 OA
ATOM     21  H   UNL     1       1.211  -8.471 -46.320  1.00  0.00     0.293 HD
ENDBRANCH  17  20
ENDBRANCH   1  12
BRANCH   2  22
ATOM     22  O   UNL     1       2.810  -5.808 -43.371  1.00  0.00    -0.502 OA
ATOM     23  H   UNL     1       3.604  -5.698 -42.752  1.00  0.00     0.293 HD
ENDBRANCH   2  22
BRANCH   6  24
ATOM     24  O   UNL     1      -2.092  -5.905 -41.276  1.00  0.00    -0.507 OA
ATOM     25  H   UNL     1      -2.690  -5.326 -41.847  1.00  0.00     0.293 HD
ENDBRANCH   6  24
BRANCH   8  26
ATOM     26  O   UNL     1      -3.019 -10.608 -41.529  1.00  0.00    -0.508 OA
ATOM     27  H   UNL     1      -3.852 -10.757 -42.086  1.00  0.00     0.293 HD
ENDBRANCH   8  26
TORSDOF 6
ENDMDL
MODEL 7
REMARK VINA RESULT:    -6.626      5.335      7.041
REMARK INTER + INTRA:          -8.387
REMARK INTER:                  -8.041
REMARK INTRA:                  -0.345
REMARK UNBOUND:                -0.405
REMARK SMILES O=c1c(O)c(-c2ccc(O)cc2O)oc2cc(O)cc(O)c12
REMARK SMILES IDX 5 1 3 2 2 3 1 4 22 5 20 6 19 7 17 8 16 9 15 10 14 11 6 12
REMARK SMILES IDX 8 13 7 14 9 15 11 16 12 17 10 18 13 20 4 22 21 24 18 26
REMARK H PARENT 10 19 13 21 4 23 21 25 18 27
REMARK Flexibility Score: inf
ROOT
ATOM      1  C   UNL     1       7.021  -8.445 -40.952  1.00  0.00     0.184 A 
ATOM      2  C   UNL     1       6.327  -7.466 -41.680  1.00  0.00     0.208 A 
ATOM      3  C   UNL     1       6.515  -6.114 -41.354  1.00  0.00     0.238 A 
ATOM      4  O   UNL     1       5.936  -5.239 -42.050  1.00  0.00    -0.285 OA
ATOM      5  C   UNL     1       7.371  -5.761 -40.283  1.00  0.00     0.111 A 
ATOM      6  C   UNL     1       7.605  -4.424 -39.839  1.00  0.00     0.134 A 
ATOM      7  C   UNL     1       8.567  -4.184 -38.850  1.00  0.00     0.093 A 
ATOM      8  C   UNL     1       9.257  -5.236 -38.244  1.00  0.00     0.123 A 
ATOM      9  C   UNL     1       8.994  -6.548 -38.630  1.00  0.00     0.094 A 
ATOM     10  C   UNL     1       8.067  -6.819 -39.640  1.00  0.00     0.146 A 
ATOM     11  O   UNL     1       7.857  -8.082 -39.986  1.00  0.00    -0.451 OA
ENDROOT
BRANCH   1  12
ATOM     12  C   UNL     1       6.845  -9.885 -41.236  1.00  0.00     0.063 A 
ATOM     13  C   UNL     1       6.036 -12.067 -40.522  1.00  0.00     0.047 A 
ATOM     14  C   UNL     1       6.168 -10.693 -40.306  1.00  0.00     0.020 A 
ATOM     15  C   UNL     1       6.586 -12.654 -41.666  1.00  0.00     0.119 A 
ATOM     16  C   UNL     1       7.263 -11.860 -42.596  1.00  0.00     0.093 A 
ATOM     17  C   UNL     1       7.394 -10.479 -42.396  1.00  0.00     0.130 A 
BRANCH  15  18
ATOM     18  O   UNL     1       6.466 -14.023 -41.890  1.00  0.00    -0.508 OA
ATOM     19  H   UNL     1       6.608 -14.424 -42.810  1.00  0.00     0.293 HD
ENDBRANCH  15  18
BRANCH  17  20
ATOM     20  O   UNL     1       8.048  -9.730 -43.377  1.00  0.00    -0.507 OA
ATOM     21  H   UNL     1       9.031  -9.841 -43.591  1.00  0.00     0.293 HD
ENDBRANCH  17  20
ENDBRANCH   1  12
BRANCH   2  22
ATOM     22  O   UNL     1       5.484  -7.845 -42.729  1.00  0.00    -0.502 OA
ATOM     23  H   UNL     1       5.811  -7.932 -43.684  1.00  0.00     0.293 HD
ENDBRANCH   2  22
BRANCH   6  24
ATOM     24  O   UNL     1       6.907  -3.310 -40.312  1.00  0.00    -0.507 OA
ATOM     25  H   UNL     1       6.150  -2.854 -39.824  1.00  0.00     0.293 HD
ENDBRANCH   6  24
BRANCH   8  26
ATOM     26  O   UNL     1      10.201  -4.989 -37.251  1.00  0.00    -0.508 OA
ATOM     27  H   UNL     1      10.482  -5.710 -36.596  1.00  0.00     0.293 HD
ENDBRANCH   8  26
TORSDOF 6
ENDMDL
MODEL 8
REMARK VINA RESULT:    -6.615      5.959      7.398
REMARK INTER + INTRA:          -8.373
REMARK INTER:                  -7.978
REMARK INTRA:                  -0.395
REMARK UNBOUND:                -0.405
REMARK SMILES O=c1c(O)c(-c2ccc(O)cc2O)oc2cc(O)cc(O)c12
REMARK SMILES IDX 5 1 3 2 2 3 1 4 22 5 20 6 19 7 17 8 16 9 15 10 14 11 6 12
REMARK SMILES IDX 8 13 7 14 9 15 11 16 12 17 10 18 13 20 4 22 21 24 18 26
REMARK H PARENT 10 19 13 21 4 23 21 25 18 27
REMARK Flexibility Score: inf
ROOT
ATOM      1  C   UNL     1       6.005  -6.391 -41.707  1.00  0.00     0.184 A 
ATOM      2  C   UNL     1       4.702  -5.953 -41.987  1.00  0.00     0.208 A 
ATOM      3  C   UNL     1       3.983  -6.572 -43.021  1.00  0.00     0.238 A 
ATOM      4  O   UNL     1       2.793  -6.216 -43.227  1.00  0.00    -0.285 OA
ATOM      5  C   UNL     1       4.589  -7.601 -43.781  1.00  0.00     0.111 A 
ATOM      6  C   UNL     1       3.968  -8.272 -44.879  1.00  0.00     0.134 A 
ATOM      7  C   UNL     1       4.616  -9.359 -45.479  1.00  0.00     0.093 A 
ATOM      8  C   UNL     1       5.889  -9.758 -45.065  1.00  0.00     0.123 A 
ATOM      9  C   UNL     1       6.527  -9.073 -44.034  1.00  0.00     0.094 A 
ATOM     10  C   UNL     1       5.892  -8.009 -43.390  1.00  0.00     0.146 A 
ATOM     11  O   UNL     1       6.530  -7.392 -42.403  1.00  0.00    -0.451 OA
ENDROOT
BRANCH   1  12
ATOM     12  C   UNL     1       6.818  -5.761 -40.645  1.00  0.00     0.063 A 
ATOM     13  C   UNL     1       8.127  -3.860 -39.873  1.00  0.00     0.047 A 
ATOM     14  C   UNL     1       7.311  -4.458 -40.836  1.00  0.00     0.020 A 
ATOM     15  C   UNL     1       8.469  -4.557 -38.710  1.00  0.00     0.119 A 
ATOM     16  C   UNL     1       7.987  -5.853 -38.512  1.00  0.00     0.093 A 
ATOM     17  C   UNL     1       7.158  -6.461 -39.464  1.00  0.00     0.130 A 
BRANCH  15  18
ATOM     18  O   UNL     1       9.286  -3.973 -37.746  1.00  0.00    -0.508 OA
ATOM     19  H   UNL     1      10.122  -3.458 -38.001  1.00  0.00     0.293 HD
ENDBRANCH  15  18
BRANCH  17  20
ATOM     20  O   UNL     1       6.676  -7.744 -39.196  1.00  0.00    -0.507 OA
ATOM     21  H   UNL     1       6.861  -8.233 -38.329  1.00  0.00     0.293 HD
ENDBRANCH  17  20
ENDBRANCH   1  12
BRANCH   2  22
ATOM     22  O   UNL     1       4.130  -4.931 -41.223  1.00  0.00    -0.502 OA
ATOM     23  H   UNL     1       3.149  -4.927 -40.970  1.00  0.00     0.293 HD
ENDBRANCH   2  22
BRANCH   6  24
ATOM     24  O   UNL     1       2.740  -7.897 -45.430  1.00  0.00    -0.507 OA
ATOM     25  H   UNL     1       2.627  -7.263 -46.207  1.00  0.00     0.293 HD
ENDBRANCH   6  24
BRANCH   8  26
ATOM     26  O   UNL     1       6.533 -10.829 -45.679  1.00  0.00    -0.508 OA
ATOM     27  H   UNL     1       7.219 -10.687 -46.412  1.00  0.00     0.293 HD
ENDBRANCH   8  26
TORSDOF 6
ENDMDL
MODEL 9
REMARK VINA RESULT:    -6.582      5.438      8.071
REMARK INTER + INTRA:          -8.334
REMARK INTER:                  -7.964
REMARK INTRA:                  -0.370
REMARK UNBOUND:                -0.405
REMARK SMILES O=c1c(O)c(-c2ccc(O)cc2O)oc2cc(O)cc(O)c12
REMARK SMILES IDX 5 1 3 2 2 3 1 4 22 5 20 6 19 7 17 8 16 9 15 10 14 11 6 12
REMARK SMILES IDX 8 13 7 14 9 15 11 16 12 17 10 18 13 20 4 22 21 24 18 26
REMARK H PARENT 10 19 13 21 4 23 21 25 18 27
REMARK Flexibility Score: inf
ROOT
ATOM      1  C   UNL     1       8.826  -8.778 -40.766  1.00  0.00     0.184 A 
ATOM      2  C   UNL     1      10.210  -8.684 -40.561  1.00  0.00     0.208 A 
ATOM      3  C   UNL     1      10.776  -7.428 -40.294  1.00  0.00     0.238 A 
ATOM      4  O   UNL     1      12.009  -7.359 -40.051  1.00  0.00    -0.285 OA
ATOM      5  C   UNL     1       9.951  -6.277 -40.266  1.00  0.00     0.111 A 
ATOM      6  C   UNL     1      10.422  -4.947 -40.045  1.00  0.00     0.134 A 
ATOM      7  C   UNL     1       9.500  -3.901 -39.917  1.00  0.00     0.093 A 
ATOM      8  C   UNL     1       8.130  -4.125 -40.066  1.00  0.00     0.123 A 
ATOM      9  C   UNL     1       7.665  -5.409 -40.340  1.00  0.00     0.094 A 
ATOM     10  C   UNL     1       8.556  -6.480 -40.436  1.00  0.00     0.146 A 
ATOM     11  O   UNL     1       8.070  -7.690 -40.684  1.00  0.00    -0.451 OA
ENDROOT
BRANCH   1  12
ATOM     12  C   UNL     1       8.179 -10.071 -41.073  1.00  0.00     0.063 A 
ATOM     13  C   UNL     1       7.439 -12.263 -40.316  1.00  0.00     0.047 A 
ATOM     14  C   UNL     1       7.997 -11.012 -40.044  1.00  0.00     0.020 A 
ATOM     15  C   UNL     1       7.063 -12.596 -41.621  1.00  0.00     0.119 A 
ATOM     16  C   UNL     1       7.242 -11.669 -42.652  1.00  0.00     0.093 A 
ATOM     17  C   UNL     1       7.790 -10.407 -42.391  1.00  0.00     0.130 A 
BRANCH  15  18
ATOM     18  O   UNL     1       6.511 -13.842 -41.906  1.00  0.00    -0.508 OA
ATOM     19  H   UNL     1       6.206 -14.086 -42.841  1.00  0.00     0.293 HD
ENDBRANCH  15  18
BRANCH  17  20
ATOM     20  O   UNL     1       7.911  -9.508 -43.453  1.00  0.00    -0.507 OA
ATOM     21  H   UNL     1       7.113  -9.102 -43.926  1.00  0.00     0.293 HD
ENDBRANCH  17  20
ENDBRANCH   1  12
BRANCH   2  22
ATOM     22  O   UNL     1      11.001  -9.837 -40.598  1.00  0.00    -0.502 OA
ATOM     23  H   UNL     1      11.847  -9.897 -41.151  1.00  0.00     0.293 HD
ENDBRANCH   2  22
BRANCH   6  24
ATOM     24  O   UNL     1      11.774  -4.598 -39.972  1.00  0.00    -0.507 OA
ATOM     25  H   UNL     1      12.153  -3.705 -40.248  1.00  0.00     0.293 HD
ENDBRANCH   6  24
BRANCH   8  26
ATOM     26  O   UNL     1       7.221  -3.076 -39.953  1.00  0.00    -0.508 OA
ATOM     27  H   UNL     1       6.591  -2.836 -40.710  1.00  0.00     0.293 HD
ENDBRANCH   8  26
TORSDOF 6
ENDMDL
