MODEL 1
REMARK VINA RESULT:    -7.098      0.000      0.000
REMARK INTER + INTRA:          -8.022
REMARK INTER:                  -7.720
REMARK INTRA:                  -0.302
REMARK UNBOUND:                -0.302
REMARK SMILES CC1(C)CC[C@]2(C(=O)[O-])CC[C@@]3(C)C(=CC[C@@H]4[C@@]5(C)CC[C@H](O)C(C)(C)[C@H]5CC[C@]43C)[C@@H]2C1
REMARK SMILES IDX 6 1 5 2 10 3 32 4 4 5 11 6 14 7 33 8 2 9 12 10 15 11 1 12
REMARK SMILES IDX 3 13 13 14 30 15 16 16 17 17 29 18 31 19 18 20 28 21 27 22
REMARK SMILES IDX 20 23 19 24 24 25 21 26 22 27 25 28 26 29 7 30 8 31 9 32
REMARK SMILES IDX 23 33
REMARK H PARENT 23 34
REMARK Flexibility Score: inf
ROOT
ATOM      1  C   UNL     1       7.252   8.380 -14.793  1.00  0.00     0.017 C 
ATOM      2  C   UNL     1       5.877   7.704 -15.064  1.00  0.00     0.014 C 
ATOM      3  C   UNL     1       6.966   9.912 -14.628  1.00  0.00     0.014 C 
ATOM      4  C   UNL     1       8.261   8.112 -15.981  1.00  0.00     0.028 C 
ATOM      5  C   UNL     1       6.000   6.227 -15.439  1.00  0.00     0.007 C 
ATOM      6  C   UNL     1       8.191  10.841 -14.803  1.00  0.00     0.013 C 
ATOM      7  C   UNL     1       8.430   9.372 -16.839  1.00  0.00    -0.064 C 
ATOM      8  C   UNL     1       8.138   6.742 -16.737  1.00  0.00     0.015 C 
ATOM      9  C   UNL     1       6.751   6.023 -16.770  1.00  0.00    -0.035 C 
ATOM     10  C   UNL     1       9.045  10.599 -16.118  1.00  0.00    -0.006 C 
ATOM     11  C   UNL     1       7.740   9.500 -17.996  1.00  0.00    -0.027 C 
ATOM     12  C   UNL     1       6.988   4.505 -16.957  1.00  0.00     0.011 C 
ATOM     13  C   UNL     1       5.882   6.484 -17.966  1.00  0.00     0.011 C 
ATOM     14  C   UNL     1      10.502  10.227 -15.669  1.00  0.00     0.017 C 
ATOM     15  C   UNL     1       9.110  11.864 -17.121  1.00  0.00    -0.020 C 
ATOM     16  C   UNL     1       7.430  10.809 -18.675  1.00  0.00     0.032 C 
ATOM     17  C   UNL     1       7.701  12.049 -17.777  1.00  0.00     0.006 C 
ATOM     18  C   UNL     1       9.468  13.184 -16.398  1.00  0.00     0.008 C 
ATOM     19  C   UNL     1      10.211  11.587 -18.209  1.00  0.00     0.012 C 
ATOM     20  C   UNL     1       7.356  13.510 -18.399  1.00  0.00    -0.025 C 
ATOM     21  C   UNL     1       9.602  14.382 -17.338  1.00  0.00     0.005 C 
ATOM     22  C   UNL     1       8.633  14.448 -18.570  1.00  0.00     0.003 C 
ATOM     23  C   UNL     1       6.353  14.235 -17.442  1.00  0.00     0.010 C 
ATOM     24  C   UNL     1       6.634  13.308 -19.767  1.00  0.00     0.012 C 
ATOM     25  C   UNL     1       8.329  15.973 -18.961  1.00  0.00    -0.006 C 
ATOM     26  C   UNL     1       6.012  15.683 -17.837  1.00  0.00     0.033 C 
ATOM     27  C   UNL     1       7.272  16.561 -17.971  1.00  0.00     0.120 C 
ATOM     28  C   UNL     1       7.861  16.117 -20.448  1.00  0.00     0.014 C 
ATOM     29  C   UNL     1       9.628  16.837 -18.867  1.00  0.00     0.014 C 
ENDROOT
BRANCH   1  30
ATOM     30  C   UNL     1       7.834   7.872 -13.470  1.00  0.00     0.048 C 
ATOM     31  O   UNL     1       9.043   7.529 -13.380  1.00  0.00    -0.550 OA
ATOM     32  O   UNL     1       7.012   7.680 -12.365  1.00  0.00    -0.550 OA
ENDBRANCH   1  30
BRANCH  27  33
ATOM     33  O   UNL     1       6.935  17.891 -18.295  1.00  0.00    -0.393 OA
ATOM     34  H   UNL     1       7.659  18.487 -17.971  1.00  0.00     0.210 HD
ENDBRANCH  27  33
TORSDOF 2
ENDMDL
MODEL 2
REMARK VINA RESULT:    -6.070      1.842      3.533
REMARK INTER + INTRA:          -6.904
REMARK INTER:                  -7.255
REMARK INTRA:                   0.351
REMARK UNBOUND:                -0.302
REMARK SMILES CC1(C)CC[C@]2(C(=O)[O-])CC[C@@]3(C)C(=CC[C@@H]4[C@@]5(C)CC[C@H](O)C(C)(C)[C@H]5CC[C@]43C)[C@@H]2C1
REMARK SMILES IDX 6 1 5 2 10 3 32 4 4 5 11 6 14 7 33 8 2 9 12 10 15 11 1 12
REMARK SMILES IDX 3 13 13 14 30 15 16 16 17 17 29 18 31 19 18 20 28 21 27 22
REMARK SMILES IDX 20 23 19 24 24 25 21 26 22 27 25 28 26 29 7 30 8 31 9 32
REMARK SMILES IDX 23 33
REMARK H PARENT 23 34
REMARK Flexibility Score: inf
ROOT
ATOM      1  C   UNL     1       8.531   8.171 -15.165  1.00  0.00     0.017 C 
ATOM      2  C   UNL     1       9.101   8.199 -13.718  1.00  0.00     0.014 C 
ATOM      3  C   UNL     1       9.473   9.078 -16.030  1.00  0.00     0.014 C 
ATOM      4  C   UNL     1       7.040   8.698 -15.199  1.00  0.00     0.028 C 
ATOM      5  C   UNL     1       8.188   7.514 -12.701  1.00  0.00     0.007 C 
ATOM      6  C   UNL     1       8.876   9.572 -17.369  1.00  0.00     0.013 C 
ATOM      7  C   UNL     1       6.983  10.112 -15.793  1.00  0.00    -0.064 C 
ATOM      8  C   UNL     1       6.145   8.412 -13.942  1.00  0.00     0.015 C 
ATOM      9  C   UNL     1       6.835   8.238 -12.551  1.00  0.00    -0.035 C 
ATOM     10  C   UNL     1       7.440  10.240 -17.268  1.00  0.00    -0.006 C 
ATOM     11  C   UNL     1       6.913  11.186 -14.974  1.00  0.00    -0.027 C 
ATOM     12  C   UNL     1       5.922   7.365 -11.655  1.00  0.00     0.011 C 
ATOM     13  C   UNL     1       7.014   9.589 -11.814  1.00  0.00     0.011 C 
ATOM     14  C   UNL     1       6.466   9.395 -18.162  1.00  0.00     0.017 C 
ATOM     15  C   UNL     1       7.383  11.784 -17.740  1.00  0.00    -0.020 C 
ATOM     16  C   UNL     1       7.322  12.587 -15.352  1.00  0.00     0.032 C 
ATOM     17  C   UNL     1       8.131  12.656 -16.678  1.00  0.00     0.006 C 
ATOM     18  C   UNL     1       8.068  12.019 -19.108  1.00  0.00     0.008 C 
ATOM     19  C   UNL     1       5.875  12.214 -17.868  1.00  0.00     0.012 C 
ATOM     20  C   UNL     1       8.661  14.117 -17.154  1.00  0.00    -0.025 C 
ATOM     21  C   UNL     1       7.966  13.460 -19.606  1.00  0.00     0.005 C 
ATOM     22  C   UNL     1       8.033  14.604 -18.535  1.00  0.00     0.003 C 
ATOM     23  C   UNL     1      10.214  14.052 -17.330  1.00  0.00     0.010 C 
ATOM     24  C   UNL     1       8.360  15.145 -16.019  1.00  0.00     0.012 C 
ATOM     25  C   UNL     1       8.684  15.926 -19.168  1.00  0.00    -0.006 C 
ATOM     26  C   UNL     1      10.857  15.334 -17.888  1.00  0.00     0.033 C 
ATOM     27  C   UNL     1      10.236  15.758 -19.233  1.00  0.00     0.120 C 
ATOM     28  C   UNL     1       8.280  17.216 -18.379  1.00  0.00     0.014 C 
ATOM     29  C   UNL     1       8.151  16.164 -20.618  1.00  0.00     0.014 C 
ENDROOT
BRANCH   1  30
ATOM     30  C   UNL     1       8.609   6.749 -15.731  1.00  0.00     0.048 C 
ATOM     31  O   UNL     1       8.471   6.531 -16.965  1.00  0.00    -0.550 OA
ATOM     32  O   UNL     1       8.733   5.656 -14.881  1.00  0.00    -0.550 OA
ENDBRANCH   1  30
BRANCH  27  33
ATOM     33  O   UNL     1      10.865  16.912 -19.744  1.00  0.00    -0.393 OA
ATOM     34  H   UNL     1      10.705  17.662 -19.114  1.00  0.00     0.210 HD
ENDBRANCH  27  33
TORSDOF 2
ENDMDL
MODEL 3
REMARK VINA RESULT:    -5.420      1.905      3.665
REMARK INTER + INTRA:          -6.197
REMARK INTER:                  -5.941
REMARK INTRA:                  -0.256
REMARK UNBOUND:                -0.302
REMARK SMILES CC1(C)CC[C@]2(C(=O)[O-])CC[C@@]3(C)C(=CC[C@@H]4[C@@]5(C)CC[C@H](O)C(C)(C)[C@H]5CC[C@]43C)[C@@H]2C1
REMARK SMILES IDX 6 1 5 2 10 3 32 4 4 5 11 6 14 7 33 8 2 9 12 10 15 11 1 12
REMARK SMILES IDX 3 13 13 14 30 15 16 16 17 17 29 18 31 19 18 20 28 21 27 22
REMARK SMILES IDX 20 23 19 24 24 25 21 26 22 27 25 28 26 29 7 30 8 31 9 32
REMARK SMILES IDX 23 33
REMARK H PARENT 23 34
REMARK Flexibility Score: inf
ROOT
ATOM      1  C   UNL     1       7.643   9.114 -16.828  1.00  0.00     0.017 C 
ATOM      2  C   UNL     1       8.850   8.227 -17.248  1.00  0.00     0.014 C 
ATOM      3  C   UNL     1       7.336  10.049 -18.047  1.00  0.00     0.014 C 
ATOM      4  C   UNL     1       7.982   9.956 -15.532  1.00  0.00     0.028 C 
ATOM      5  C   UNL     1       9.403   7.384 -16.098  1.00  0.00     0.007 C 
ATOM      6  C   UNL     1       6.499  11.310 -17.725  1.00  0.00     0.013 C 
ATOM      7  C   UNL     1       8.229  11.426 -15.895  1.00  0.00    -0.064 C 
ATOM      8  C   UNL     1       8.947   9.305 -14.480  1.00  0.00     0.015 C 
ATOM      9  C   UNL     1       9.992   8.252 -14.969  1.00  0.00    -0.035 C 
ATOM     10  C   UNL     1       7.021  12.181 -16.506  1.00  0.00    -0.006 C 
ATOM     11  C   UNL     1       9.495  11.885 -16.026  1.00  0.00    -0.027 C 
ATOM     12  C   UNL     1      10.342   7.320 -13.783  1.00  0.00     0.011 C 
ATOM     13  C   UNL     1      11.320   8.910 -15.418  1.00  0.00     0.011 C 
ATOM     14  C   UNL     1       5.875  12.225 -15.436  1.00  0.00     0.017 C 
ATOM     15  C   UNL     1       7.442  13.692 -16.891  1.00  0.00    -0.020 C 
ATOM     16  C   UNL     1       9.892  13.107 -16.814  1.00  0.00     0.032 C 
ATOM     17  C   UNL     1       8.758  13.642 -17.735  1.00  0.00     0.006 C 
ATOM     18  C   UNL     1       6.368  14.415 -17.738  1.00  0.00     0.008 C 
ATOM     19  C   UNL     1       7.649  14.510 -15.563  1.00  0.00     0.012 C 
ATOM     20  C   UNL     1       9.097  14.931 -18.664  1.00  0.00    -0.025 C 
ATOM     21  C   UNL     1       6.714  15.870 -18.056  1.00  0.00     0.005 C 
ATOM     22  C   UNL     1       8.222  16.217 -18.314  1.00  0.00     0.003 C 
ATOM     23  C   UNL     1       8.822  14.557 -20.157  1.00  0.00     0.010 C 
ATOM     24  C   UNL     1      10.619  15.249 -18.532  1.00  0.00     0.012 C 
ATOM     25  C   UNL     1       8.347  17.444 -19.338  1.00  0.00    -0.006 C 
ATOM     26  C   UNL     1       8.991  15.715 -21.157  1.00  0.00     0.033 C 
ATOM     27  C   UNL     1       8.113  16.929 -20.795  1.00  0.00     0.120 C 
ATOM     28  C   UNL     1       9.722  18.182 -19.207  1.00  0.00     0.014 C 
ATOM     29  C   UNL     1       7.276  18.538 -19.023  1.00  0.00     0.014 C 
ENDROOT
BRANCH   1  30
ATOM     30  C   UNL     1       6.408   8.239 -16.591  1.00  0.00     0.048 C 
ATOM     31  O   UNL     1       5.876   8.158 -15.451  1.00  0.00    -0.550 OA
ATOM     32  O   UNL     1       5.907   7.434 -17.608  1.00  0.00    -0.550 OA
ENDBRANCH   1  30
BRANCH  27  33
ATOM     33  O   UNL     1       8.253  17.962 -21.743  1.00  0.00    -0.393 OA
ATOM     34  H   UNL     1       8.472  18.802 -21.263  1.00  0.00     0.210 HD
ENDBRANCH  27  33
TORSDOF 2
ENDMDL
MODEL 4
REMARK VINA RESULT:    -5.002      1.528      8.254
REMARK INTER + INTRA:          -5.742
REMARK INTER:                  -5.565
REMARK INTRA:                  -0.178
REMARK UNBOUND:                -0.302
REMARK SMILES CC1(C)CC[C@]2(C(=O)[O-])CC[C@@]3(C)C(=CC[C@@H]4[C@@]5(C)CC[C@H](O)C(C)(C)[C@H]5CC[C@]43C)[C@@H]2C1
REMARK SMILES IDX 6 1 5 2 10 3 32 4 4 5 11 6 14 7 33 8 2 9 12 10 15 11 1 12
REMARK SMILES IDX 3 13 13 14 30 15 16 16 17 17 29 18 31 19 18 20 28 21 27 22
REMARK SMILES IDX 20 23 19 24 24 25 21 26 22 27 25 28 26 29 7 30 8 31 9 32
REMARK SMILES IDX 23 33
REMARK H PARENT 23 34
REMARK Flexibility Score: inf
ROOT
ATOM      1  C   UNL     1       8.902  16.067 -19.036  1.00  0.00     0.017 C 
ATOM      2  C   UNL     1      10.078  16.175 -20.049  1.00  0.00     0.014 C 
ATOM      3  C   UNL     1       9.450  15.266 -17.805  1.00  0.00     0.014 C 
ATOM      4  C   UNL     1       7.658  15.336 -19.686  1.00  0.00     0.028 C 
ATOM      5  C   UNL     1       9.657  16.766 -21.394  1.00  0.00     0.007 C 
ATOM      6  C   UNL     1       8.374  14.641 -16.885  1.00  0.00     0.013 C 
ATOM      7  C   UNL     1       7.531  13.906 -19.145  1.00  0.00    -0.064 C 
ATOM      8  C   UNL     1       7.421  15.544 -21.223  1.00  0.00     0.015 C 
ATOM      9  C   UNL     1       8.648  15.867 -22.137  1.00  0.00    -0.035 C 
ATOM     10  C   UNL     1       7.262  13.784 -17.623  1.00  0.00    -0.006 C 
ATOM     11  C   UNL     1       8.003  12.865 -19.869  1.00  0.00    -0.027 C 
ATOM     12  C   UNL     1       8.144  16.639 -23.380  1.00  0.00     0.011 C 
ATOM     13  C   UNL     1       9.338  14.585 -22.664  1.00  0.00     0.011 C 
ATOM     14  C   UNL     1       5.875  14.449 -17.314  1.00  0.00     0.017 C 
ATOM     15  C   UNL     1       7.210  12.230 -17.186  1.00  0.00    -0.020 C 
ATOM     16  C   UNL     1       8.382  11.521 -19.302  1.00  0.00     0.032 C 
ATOM     17  C   UNL     1       8.481  11.513 -17.749  1.00  0.00     0.006 C 
ATOM     18  C   UNL     1       7.205  12.039 -15.651  1.00  0.00     0.008 C 
ATOM     19  C   UNL     1       5.894  11.589 -17.763  1.00  0.00     0.012 C 
ATOM     20  C   UNL     1       8.929  10.122 -17.038  1.00  0.00    -0.025 C 
ATOM     21  C   UNL     1       7.087  10.579 -15.214  1.00  0.00     0.005 C 
ATOM     22  C   UNL     1       7.806   9.498 -16.096  1.00  0.00     0.003 C 
ATOM     23  C   UNL     1      10.194  10.396 -16.160  1.00  0.00     0.010 C 
ATOM     24  C   UNL     1       9.340   9.108 -18.150  1.00  0.00     0.012 C 
ATOM     25  C   UNL     1       8.266   8.256 -15.192  1.00  0.00    -0.006 C 
ATOM     26  C   UNL     1      10.677   9.194 -15.328  1.00  0.00     0.033 C 
ATOM     27  C   UNL     1       9.568   8.635 -14.416  1.00  0.00     0.120 C 
ATOM     28  C   UNL     1       8.464   6.954 -16.039  1.00  0.00     0.014 C 
ATOM     29  C   UNL     1       7.159   7.889 -14.151  1.00  0.00     0.014 C 
ENDROOT
BRANCH   1  30
ATOM     30  C   UNL     1       8.506  17.462 -18.542  1.00  0.00     0.048 C 
ATOM     31  O   UNL     1       7.342  17.696 -18.117  1.00  0.00    -0.550 OA
ATOM     32  O   UNL     1       9.393  18.527 -18.649  1.00  0.00    -0.550 OA
ENDBRANCH   1  30
BRANCH  27  33
ATOM     33  O   UNL     1      10.043   7.561 -13.636  1.00  0.00    -0.393 OA
ATOM     34  H   UNL     1      10.005   6.734 -14.183  1.00  0.00     0.210 HD
ENDBRANCH  27  33
TORSDOF 2
ENDMDL
MODEL 5
REMARK VINA RESULT:    -4.289      1.897      8.332
REMARK INTER + INTRA:          -4.967
REMARK INTER:                  -4.691
REMARK INTRA:                  -0.276
REMARK UNBOUND:                -0.302
REMARK SMILES CC1(C)CC[C@]2(C(=O)[O-])CC[C@@]3(C)C(=CC[C@@H]4[C@@]5(C)CC[C@H](O)C(C)(C)[C@H]5CC[C@]43C)[C@@H]2C1
REMARK SMILES IDX 6 1 5 2 10 3 32 4 4 5 11 6 14 7 33 8 2 9 12 10 15 11 1 12
REMARK SMILES IDX 3 13 13 14 30 15 16 16 17 17 29 18 31 19 18 20 28 21 27 22
REMARK SMILES IDX 20 23 19 24 24 25 21 26 22 27 25 28 26 29 7 30 8 31 9 32
REMARK SMILES IDX 23 33
REMARK H PARENT 23 34
REMARK Flexibility Score: inf
ROOT
ATOM      1  C   UNL     1       8.724  15.491 -19.441  1.00  0.00     0.017 C 
ATOM      2  C   UNL     1       7.375  16.061 -19.966  1.00  0.00     0.014 C 
ATOM      3  C   UNL     1       8.617  13.931 -19.551  1.00  0.00     0.014 C 
ATOM      4  C   UNL     1       8.989  15.942 -17.948  1.00  0.00     0.028 C 
ATOM      5  C   UNL     1       7.237  17.568 -19.750  1.00  0.00     0.007 C 
ATOM      6  C   UNL     1       9.622  13.133 -18.687  1.00  0.00     0.013 C 
ATOM      7  C   UNL     1       8.751  14.774 -16.983  1.00  0.00    -0.064 C 
ATOM      8  C   UNL     1       8.451  17.352 -17.514  1.00  0.00     0.015 C 
ATOM      9  C   UNL     1       7.210  17.944 -18.255  1.00  0.00    -0.035 C 
ATOM     10  C   UNL     1       9.690  13.554 -17.159  1.00  0.00    -0.006 C 
ATOM     11  C   UNL     1       7.578  14.678 -16.314  1.00  0.00    -0.027 C 
ATOM     12  C   UNL     1       7.264  19.488 -18.149  1.00  0.00     0.011 C 
ATOM     13  C   UNL     1       5.875  17.504 -17.604  1.00  0.00     0.011 C 
ATOM     14  C   UNL     1      11.160  14.017 -16.865  1.00  0.00     0.017 C 
ATOM     15  C   UNL     1       9.289  12.384 -16.119  1.00  0.00    -0.020 C 
ATOM     16  C   UNL     1       7.018  13.405 -15.734  1.00  0.00     0.032 C 
ATOM     17  C   UNL     1       7.750  12.126 -16.232  1.00  0.00     0.006 C 
ATOM     18  C   UNL     1      10.011  11.047 -16.415  1.00  0.00     0.008 C 
ATOM     19  C   UNL     1       9.684  12.843 -14.668  1.00  0.00     0.012 C 
ATOM     20  C   UNL     1       7.194  10.694 -15.702  1.00  0.00    -0.025 C 
ATOM     21  C   UNL     1       9.699   9.945 -15.403  1.00  0.00     0.005 C 
ATOM     22  C   UNL     1       8.246   9.891 -14.815  1.00  0.00     0.003 C 
ATOM     23  C   UNL     1       6.835   9.809 -16.941  1.00  0.00     0.010 C 
ATOM     24  C   UNL     1       5.876  10.940 -14.904  1.00  0.00     0.012 C 
ATOM     25  C   UNL     1       7.844   8.381 -14.455  1.00  0.00    -0.006 C 
ATOM     26  C   UNL     1       6.397   8.372 -16.605  1.00  0.00     0.033 C 
ATOM     27  C   UNL     1       7.451   7.624 -15.765  1.00  0.00     0.120 C 
ATOM     28  C   UNL     1       6.698   8.315 -13.391  1.00  0.00     0.014 C 
ATOM     29  C   UNL     1       9.046   7.631 -13.794  1.00  0.00     0.014 C 
ENDROOT
BRANCH   1  30
ATOM     30  C   UNL     1       9.872  15.942 -20.349  1.00  0.00     0.048 C 
ATOM     31  O   UNL     1      11.004  16.230 -19.874  1.00  0.00    -0.550 OA
ATOM     32  O   UNL     1       9.660  16.144 -21.709  1.00  0.00    -0.550 OA
ENDBRANCH   1  30
BRANCH  27  33
ATOM     33  O   UNL     1       7.046   6.300 -15.501  1.00  0.00    -0.393 OA
ATOM     34  H   UNL     1       6.250   6.097 -16.058  1.00  0.00     0.210 HD
ENDBRANCH  27  33
TORSDOF 2
ENDMDL
