MODEL 1
REMARK VINA RESULT:    -6.254      0.000      0.000
REMARK INTER + INTRA:          -6.847
REMARK INTER:                  -6.802
REMARK INTRA:                  -0.045
REMARK UNBOUND:                -0.045
REMARK SMILES COc1cc2ccc(=O)oc2cc1O
REMARK SMILES IDX 3 1 13 2 12 3 11 4 5 5 4 6 6 7 7 8 8 9 9 10 10 11 2 12 1 13
REMARK SMILES IDX 14 14
REMARK H PARENT 14 15
REMARK Flexibility Score: inf
ROOT
ATOM      1  C   UNL     1       9.943  70.768  -0.948  1.00  0.00     0.161 A 
ATOM      2  C   UNL     1       9.445  69.749  -1.777  1.00  0.00     0.161 A 
ATOM      3  C   UNL     1       9.070  68.513  -1.230  1.00  0.00     0.098 A 
ATOM      4  C   UNL     1       9.188  68.284   0.142  1.00  0.00     0.142 A 
ATOM      5  C   UNL     1       9.689  69.301   0.982  1.00  0.00     0.022 A 
ATOM      6  C   UNL     1      10.064  70.537   0.438  1.00  0.00     0.062 A 
ATOM      7  C   UNL     1       9.796  69.042   2.351  1.00  0.00     0.019 A 
ATOM      8  C   UNL     1       9.409  67.796   2.845  1.00  0.00     0.094 A 
ATOM      9  C   UNL     1       8.923  66.835   1.953  1.00  0.00     0.336 A 
ATOM     10  O   UNL     1       8.569  65.704   2.377  1.00  0.00    -0.246 OA
ATOM     11  O   UNL     1       8.831  67.108   0.653  1.00  0.00    -0.423 OA
ENDROOT
BRANCH   1  12
ATOM     12  O   UNL     1      10.307  71.989  -1.536  1.00  0.00    -0.493 OA
ATOM     13  C   UNL     1      10.772  73.125  -0.816  1.00  0.00     0.278 C 
ENDBRANCH   1  12
BRANCH   2  14
ATOM     14  O   UNL     1       9.325  69.976  -3.147  1.00  0.00    -0.504 OA
ATOM     15  H   UNL     1       8.667  69.455  -3.714  1.00  0.00     0.293 HD
ENDBRANCH   2  14
TORSDOF 2
ENDMDL
MODEL 2
REMARK VINA RESULT:    -6.115      1.480      2.369
REMARK INTER + INTRA:          -6.696
REMARK INTER:                  -6.680
REMARK INTRA:                  -0.016
REMARK UNBOUND:                -0.045
REMARK SMILES COc1cc2ccc(=O)oc2cc1O
REMARK SMILES IDX 3 1 13 2 12 3 11 4 5 5 4 6 6 7 7 8 8 9 9 10 10 11 2 12 1 13
REMARK SMILES IDX 14 14
REMARK H PARENT 14 15
REMARK Flexibility Score: inf
ROOT
ATOM      1  C   UNL     1      10.169  70.383  -2.007  1.00  0.00     0.161 A 
ATOM      2  C   UNL     1       9.996  71.305  -0.961  1.00  0.00     0.161 A 
ATOM      3  C   UNL     1       9.766  70.855   0.348  1.00  0.00     0.098 A 
ATOM      4  C   UNL     1       9.707  69.487   0.622  1.00  0.00     0.142 A 
ATOM      5  C   UNL     1       9.878  68.554  -0.422  1.00  0.00     0.022 A 
ATOM      6  C   UNL     1      10.108  69.002  -1.731  1.00  0.00     0.062 A 
ATOM      7  C   UNL     1       9.814  67.192  -0.116  1.00  0.00     0.019 A 
ATOM      8  C   UNL     1       9.582  66.795   1.201  1.00  0.00     0.094 A 
ATOM      9  C   UNL     1       9.421  67.777   2.185  1.00  0.00     0.336 A 
ATOM     10  O   UNL     1       9.211  67.441   3.380  1.00  0.00    -0.246 OA
ATOM     11  O   UNL     1       9.488  69.067   1.866  1.00  0.00    -0.423 OA
ENDROOT
BRANCH   1  12
ATOM     12  O   UNL     1      10.396  70.877  -3.301  1.00  0.00    -0.493 OA
ATOM     13  C   UNL     1      11.675  71.229  -3.816  1.00  0.00     0.278 C 
ENDBRANCH   1  12
BRANCH   2  14
ATOM     14  O   UNL     1      10.056  72.670  -1.232  1.00  0.00    -0.504 OA
ATOM     15  H   UNL     1       9.270  73.165  -1.637  1.00  0.00     0.293 HD
ENDBRANCH   2  14
TORSDOF 2
ENDMDL
MODEL 3
REMARK VINA RESULT:    -6.100      2.291      3.831
REMARK INTER + INTRA:          -6.680
REMARK INTER:                  -6.645
REMARK INTRA:                  -0.036
REMARK UNBOUND:                -0.045
REMARK SMILES COc1cc2ccc(=O)oc2cc1O
REMARK SMILES IDX 3 1 13 2 12 3 11 4 5 5 4 6 6 7 7 8 8 9 9 10 10 11 2 12 1 13
REMARK SMILES IDX 14 14
REMARK H PARENT 14 15
REMARK Flexibility Score: inf
ROOT
ATOM      1  C   UNL     1       9.481  70.751   2.329  1.00  0.00     0.161 A 
ATOM      2  C   UNL     1       9.987  71.509   1.261  1.00  0.00     0.161 A 
ATOM      3  C   UNL     1      10.081  70.950  -0.022  1.00  0.00     0.098 A 
ATOM      4  C   UNL     1       9.673  69.634  -0.249  1.00  0.00     0.142 A 
ATOM      5  C   UNL     1       9.164  68.865   0.818  1.00  0.00     0.022 A 
ATOM      6  C   UNL     1       9.069  69.422   2.101  1.00  0.00     0.062 A 
ATOM      7  C   UNL     1       8.764  67.550   0.560  1.00  0.00     0.019 A 
ATOM      8  C   UNL     1       8.878  67.040  -0.733  1.00  0.00     0.094 A 
ATOM      9  C   UNL     1       9.392  67.862  -1.742  1.00  0.00     0.336 A 
ATOM     10  O   UNL     1       9.504  67.422  -2.916  1.00  0.00    -0.246 OA
ATOM     11  O   UNL     1       9.766  69.110  -1.468  1.00  0.00    -0.423 OA
ENDROOT
BRANCH   1  12
ATOM     12  O   UNL     1       9.404  71.350   3.596  1.00  0.00    -0.493 OA
ATOM     13  C   UNL     1       8.282  72.083   4.075  1.00  0.00     0.278 C 
ENDBRANCH   1  12
BRANCH   2  14
ATOM     14  O   UNL     1      10.394  72.824   1.484  1.00  0.00    -0.504 OA
ATOM     15  H   UNL     1      11.333  73.042   1.797  1.00  0.00     0.293 HD
ENDBRANCH   2  14
TORSDOF 2
ENDMDL
MODEL 4
REMARK VINA RESULT:    -6.091      1.420      2.597
REMARK INTER + INTRA:          -6.670
REMARK INTER:                  -6.612
REMARK INTRA:                  -0.059
REMARK UNBOUND:                -0.045
REMARK SMILES COc1cc2ccc(=O)oc2cc1O
REMARK SMILES IDX 3 1 13 2 12 3 11 4 5 5 4 6 6 7 7 8 8 9 9 10 10 11 2 12 1 13
REMARK SMILES IDX 14 14
REMARK H PARENT 14 15
REMARK Flexibility Score: inf
ROOT
ATOM      1  C   UNL     1      10.090  71.714  -0.319  1.00  0.00     0.161 A 
ATOM      2  C   UNL     1      10.167  71.854   1.076  1.00  0.00     0.161 A 
ATOM      3  C   UNL     1       9.911  70.757   1.912  1.00  0.00     0.098 A 
ATOM      4  C   UNL     1       9.576  69.517   1.365  1.00  0.00     0.142 A 
ATOM      5  C   UNL     1       9.496  69.368  -0.036  1.00  0.00     0.022 A 
ATOM      6  C   UNL     1       9.752  70.463  -0.873  1.00  0.00     0.062 A 
ATOM      7  C   UNL     1       9.159  68.114  -0.554  1.00  0.00     0.019 A 
ATOM      8  C   UNL     1       8.913  67.054   0.320  1.00  0.00     0.094 A 
ATOM      9  C   UNL     1       9.011  67.276   1.697  1.00  0.00     0.336 A 
ATOM     10  O   UNL     1       8.792  66.334   2.503  1.00  0.00    -0.246 OA
ATOM     11  O   UNL     1       9.333  68.481   2.164  1.00  0.00    -0.423 OA
ENDROOT
BRANCH   1  12
ATOM     12  O   UNL     1      10.355  72.838  -1.118  1.00  0.00    -0.493 OA
ATOM     13  C   UNL     1      11.614  73.125  -1.714  1.00  0.00     0.278 C 
ENDBRANCH   1  12
BRANCH   2  14
ATOM     14  O   UNL     1      10.502  73.090   1.625  1.00  0.00    -0.504 OA
ATOM     15  H   UNL     1      11.333  73.591   1.335  1.00  0.00     0.293 HD
ENDBRANCH   2  14
TORSDOF 2
ENDMDL
MODEL 5
REMARK VINA RESULT:    -5.952      2.067      4.231
REMARK INTER + INTRA:          -6.519
REMARK INTER:                  -6.461
REMARK INTRA:                  -0.058
REMARK UNBOUND:                -0.045
REMARK SMILES COc1cc2ccc(=O)oc2cc1O
REMARK SMILES IDX 3 1 13 2 12 3 11 4 5 5 4 6 6 7 7 8 8 9 9 10 10 11 2 12 1 13
REMARK SMILES IDX 14 14
REMARK H PARENT 14 15
REMARK Flexibility Score: inf
ROOT
ATOM      1  C   UNL     1       9.562  69.773   2.294  1.00  0.00     0.161 A 
ATOM      2  C   UNL     1       9.497  68.377   2.425  1.00  0.00     0.161 A 
ATOM      3  C   UNL     1       9.428  67.561   1.285  1.00  0.00     0.098 A 
ATOM      4  C   UNL     1       9.423  68.131   0.010  1.00  0.00     0.142 A 
ATOM      5  C   UNL     1       9.488  69.533  -0.131  1.00  0.00     0.022 A 
ATOM      6  C   UNL     1       9.557  70.350   1.007  1.00  0.00     0.062 A 
ATOM      7  C   UNL     1       9.481  70.074  -1.420  1.00  0.00     0.019 A 
ATOM      8  C   UNL     1       9.411  69.221  -2.521  1.00  0.00     0.094 A 
ATOM      9  C   UNL     1       9.349  67.840  -2.304  1.00  0.00     0.336 A 
ATOM     10  O   UNL     1       9.285  67.052  -3.284  1.00  0.00    -0.246 OA
ATOM     11  O   UNL     1       9.357  67.352  -1.066  1.00  0.00    -0.423 OA
ENDROOT
BRANCH   1  12
ATOM     12  O   UNL     1       9.630  70.551   3.460  1.00  0.00    -0.493 OA
ATOM     13  C   UNL     1       8.718  71.593   3.789  1.00  0.00     0.278 C 
ENDBRANCH   1  12
BRANCH   2  14
ATOM     14  O   UNL     1       9.503  67.806   3.696  1.00  0.00    -0.504 OA
ATOM     15  H   UNL     1       9.458  66.802   3.826  1.00  0.00     0.293 HD
ENDBRANCH   2  14
TORSDOF 2
ENDMDL
MODEL 6
REMARK VINA RESULT:    -5.948      1.378      1.781
REMARK INTER + INTRA:          -6.514
REMARK INTER:                  -6.453
REMARK INTRA:                  -0.061
REMARK UNBOUND:                -0.045
REMARK SMILES COc1cc2ccc(=O)oc2cc1O
REMARK SMILES IDX 3 1 13 2 12 3 11 4 5 5 4 6 6 7 7 8 8 9 9 10 10 11 2 12 1 13
REMARK SMILES IDX 14 14
REMARK H PARENT 14 15
REMARK Flexibility Score: inf
ROOT
ATOM      1  C   UNL     1       9.873  69.615  -1.899  1.00  0.00     0.161 A 
ATOM      2  C   UNL     1       9.528  68.255  -1.947  1.00  0.00     0.161 A 
ATOM      3  C   UNL     1       9.380  67.519  -0.761  1.00  0.00     0.098 A 
ATOM      4  C   UNL     1       9.575  68.133   0.477  1.00  0.00     0.142 A 
ATOM      5  C   UNL     1       9.923  69.499   0.536  1.00  0.00     0.022 A 
ATOM      6  C   UNL     1      10.071  70.236  -0.648  1.00  0.00     0.062 A 
ATOM      7  C   UNL     1      10.112  70.086   1.790  1.00  0.00     0.019 A 
ATOM      8  C   UNL     1       9.953  69.312   2.940  1.00  0.00     0.094 A 
ATOM      9  C   UNL     1       9.607  67.964   2.805  1.00  0.00     0.336 A 
ATOM     10  O   UNL     1       9.460  67.247   3.830  1.00  0.00    -0.246 OA
ATOM     11  O   UNL     1       9.434  67.430   1.598  1.00  0.00    -0.423 OA
ENDROOT
BRANCH   1  12
ATOM     12  O   UNL     1      10.011  70.312  -3.109  1.00  0.00    -0.493 OA
ATOM     13  C   UNL     1      11.222  70.905  -3.565  1.00  0.00     0.278 C 
ENDBRANCH   1  12
BRANCH   2  14
ATOM     14  O   UNL     1       9.332  67.640  -3.182  1.00  0.00    -0.504 OA
ATOM     15  H   UNL     1       9.998  67.744  -3.938  1.00  0.00     0.293 HD
ENDBRANCH   2  14
TORSDOF 2
ENDMDL
MODEL 7
REMARK VINA RESULT:    -5.851      1.747      5.045
REMARK INTER + INTRA:          -6.409
REMARK INTER:                  -6.361
REMARK INTRA:                  -0.048
REMARK UNBOUND:                -0.045
REMARK SMILES COc1cc2ccc(=O)oc2cc1O
REMARK SMILES IDX 3 1 13 2 12 3 11 4 5 5 4 6 6 7 7 8 8 9 9 10 10 11 2 12 1 13
REMARK SMILES IDX 14 14
REMARK H PARENT 14 15
REMARK Flexibility Score: inf
ROOT
ATOM      1  C   UNL     1       9.638  69.204   1.889  1.00  0.00     0.161 A 
ATOM      2  C   UNL     1       9.980  70.560   1.763  1.00  0.00     0.161 A 
ATOM      3  C   UNL     1      10.154  71.131   0.494  1.00  0.00     0.098 A 
ATOM      4  C   UNL     1       9.989  70.356  -0.656  1.00  0.00     0.142 A 
ATOM      5  C   UNL     1       9.646  68.992  -0.539  1.00  0.00     0.022 A 
ATOM      6  C   UNL     1       9.472  68.420   0.729  1.00  0.00     0.062 A 
ATOM      7  C   UNL     1       9.488  68.242  -1.708  1.00  0.00     0.019 A 
ATOM      8  C   UNL     1       9.673  68.856  -2.947  1.00  0.00     0.094 A 
ATOM      9  C   UNL     1      10.012  70.213  -2.986  1.00  0.00     0.336 A 
ATOM     10  O   UNL     1      10.184  70.787  -4.093  1.00  0.00    -0.246 OA
ATOM     11  O   UNL     1      10.156  70.904  -1.857  1.00  0.00    -0.423 OA
ENDROOT
BRANCH   1  12
ATOM     12  O   UNL     1       9.473  68.674   3.178  1.00  0.00    -0.493 OA
ATOM     13  C   UNL     1       9.761  67.327   3.540  1.00  0.00     0.278 C 
ENDBRANCH   1  12
BRANCH   2  14
ATOM     14  O   UNL     1      10.144  71.336   2.909  1.00  0.00    -0.504 OA
ATOM     15  H   UNL     1       9.349  71.693   3.425  1.00  0.00     0.293 HD
ENDBRANCH   2  14
TORSDOF 2
ENDMDL
MODEL 8
REMARK VINA RESULT:    -5.849      2.108      3.332
REMARK INTER + INTRA:          -6.407
REMARK INTER:                  -6.359
REMARK INTRA:                  -0.048
REMARK UNBOUND:                -0.045
REMARK SMILES COc1cc2ccc(=O)oc2cc1O
REMARK SMILES IDX 3 1 13 2 12 3 11 4 5 5 4 6 6 7 7 8 8 9 9 10 10 11 2 12 1 13
REMARK SMILES IDX 14 14
REMARK H PARENT 14 15
REMARK Flexibility Score: inf
ROOT
ATOM      1  C   UNL     1       9.687  69.112  -1.492  1.00  0.00     0.161 A 
ATOM      2  C   UNL     1       9.773  70.513  -1.463  1.00  0.00     0.161 A 
ATOM      3  C   UNL     1       9.773  71.197  -0.238  1.00  0.00     0.098 A 
ATOM      4  C   UNL     1       9.687  70.491   0.963  1.00  0.00     0.142 A 
ATOM      5  C   UNL     1       9.600  69.083   0.944  1.00  0.00     0.022 A 
ATOM      6  C   UNL     1       9.600  68.398  -0.279  1.00  0.00     0.062 A 
ATOM      7  C   UNL     1       9.516  68.404   2.163  1.00  0.00     0.019 A 
ATOM      8  C   UNL     1       9.519  69.131   3.354  1.00  0.00     0.094 A 
ATOM      9  C   UNL     1       9.608  70.525   3.296  1.00  0.00     0.336 A 
ATOM     10  O   UNL     1       9.612  71.200   4.358  1.00  0.00    -0.246 OA
ATOM     11  O   UNL     1       9.687  71.147   2.121  1.00  0.00    -0.423 OA
ENDROOT
BRANCH   1  12
ATOM     12  O   UNL     1       9.690  68.468  -2.739  1.00  0.00    -0.493 OA
ATOM     13  C   UNL     1       9.029  67.238  -3.013  1.00  0.00     0.278 C 
ENDBRANCH   1  12
BRANCH   2  14
ATOM     14  O   UNL     1       9.859  71.220  -2.661  1.00  0.00    -0.504 OA
ATOM     15  H   UNL     1      10.203  72.173  -2.690  1.00  0.00     0.293 HD
ENDBRANCH   2  14
TORSDOF 2
ENDMDL
