MODEL 1
REMARK VINA RESULT:    -5.964      0.000      0.000
REMARK INTER + INTRA:          -6.312
REMARK INTER:                  -6.312
REMARK INTRA:                   0.000
REMARK UNBOUND:                 0.000
REMARK SMILES O=c1ccc2cc(O)c(O)cc2o1
REMARK SMILES IDX 4 1 3 2 2 3 1 4 13 5 12 6 11 7 9 8 7 9 6 10 5 11 8 12 10 14
REMARK H PARENT 8 13 10 15
REMARK Flexibility Score: inf
ROOT
ATOM      1  C   UNL     1     137.807 140.559 140.574  1.00  0.00     0.019 A 
ATOM      2  C   UNL     1     137.376 139.454 139.840  1.00  0.00     0.094 A 
ATOM      3  C   UNL     1     136.164 139.533 139.146  1.00  0.00     0.336 A 
ATOM      4  O   UNL     1     135.757 138.547 138.477  1.00  0.00    -0.246 OA
ATOM      5  O   UNL     1     135.435 140.646 139.187  1.00  0.00    -0.423 OA
ATOM      6  C   UNL     1     135.810 141.722 139.875  1.00  0.00     0.142 A 
ATOM      7  C   UNL     1     135.003 142.864 139.882  1.00  0.00     0.098 A 
ATOM      8  C   UNL     1     135.390 144.000 140.602  1.00  0.00     0.161 A 
ATOM      9  C   UNL     1     136.598 143.995 141.327  1.00  0.00     0.158 A 
ATOM     10  C   UNL     1     137.410 142.851 141.323  1.00  0.00     0.062 A 
ATOM     11  C   UNL     1     137.021 141.715 140.600  1.00  0.00     0.022 A 
ENDROOT
BRANCH   9  12
ATOM     12  O   UNL     1     136.984 145.125 142.044  1.00  0.00    -0.504 OA
ATOM     13  H   UNL     1     137.803 145.664 141.785  1.00  0.00     0.293 HD
ENDBRANCH   9  12
BRANCH   8  14
ATOM     14  O   UNL     1     134.565 145.123 140.590  1.00  0.00    -0.504 OA
ATOM     15  H   UNL     1     133.643 145.110 140.168  1.00  0.00     0.293 HD
ENDBRANCH   8  14
TORSDOF 2
ENDMDL
MODEL 2
REMARK VINA RESULT:    -5.877      1.840      3.086
REMARK INTER + INTRA:          -6.221
REMARK INTER:                  -6.221
REMARK INTRA:                   0.000
REMARK UNBOUND:                 0.000
REMARK SMILES O=c1ccc2cc(O)c(O)cc2o1
REMARK SMILES IDX 4 1 3 2 2 3 1 4 13 5 12 6 11 7 9 8 7 9 6 10 5 11 8 12 10 14
REMARK H PARENT 8 13 10 15
REMARK Flexibility Score: inf
ROOT
ATOM      1  C   UNL     1     135.533 141.362 139.082  1.00  0.00     0.019 A 
ATOM      2  C   UNL     1     135.380 140.266 138.234  1.00  0.00     0.094 A 
ATOM      3  C   UNL     1     136.343 139.251 138.258  1.00  0.00     0.336 A 
ATOM      4  O   UNL     1     136.223 138.252 137.500  1.00  0.00    -0.246 OA
ATOM      5  O   UNL     1     137.388 139.333 139.078  1.00  0.00    -0.423 OA
ATOM      6  C   UNL     1     137.570 140.361 139.903  1.00  0.00     0.142 A 
ATOM      7  C   UNL     1     138.688 140.394 140.743  1.00  0.00     0.098 A 
ATOM      8  C   UNL     1     138.888 141.471 141.614  1.00  0.00     0.161 A 
ATOM      9  C   UNL     1     137.961 142.531 141.645  1.00  0.00     0.158 A 
ATOM     10  C   UNL     1     136.839 142.503 140.803  1.00  0.00     0.062 A 
ATOM     11  C   UNL     1     136.640 141.423 139.933  1.00  0.00     0.022 A 
ENDROOT
BRANCH   9  12
ATOM     12  O   UNL     1     138.159 143.604 142.511  1.00  0.00    -0.504 OA
ATOM     13  H   UNL     1     137.910 144.551 142.249  1.00  0.00     0.293 HD
ENDBRANCH   9  12
BRANCH   8  14
ATOM     14  O   UNL     1     140.012 141.475 142.439  1.00  0.00    -0.504 OA
ATOM     15  H   UNL     1     140.351 142.319 142.884  1.00  0.00     0.293 HD
ENDBRANCH   8  14
TORSDOF 2
ENDMDL
MODEL 3
REMARK VINA RESULT:    -5.589      8.326      9.110
REMARK INTER + INTRA:          -5.915
REMARK INTER:                  -5.915
REMARK INTRA:                   0.000
REMARK UNBOUND:                 0.000
REMARK SMILES O=c1ccc2cc(O)c(O)cc2o1
REMARK SMILES IDX 4 1 3 2 2 3 1 4 13 5 12 6 11 7 9 8 7 9 6 10 5 11 8 12 10 14
REMARK H PARENT 8 13 10 15
REMARK Flexibility Score: inf
ROOT
ATOM      1  C   UNL     1     134.129 137.633 148.485  1.00  0.00     0.019 A 
ATOM      2  C   UNL     1     133.514 136.501 149.020  1.00  0.00     0.094 A 
ATOM      3  C   UNL     1     133.821 135.246 148.484  1.00  0.00     0.336 A 
ATOM      4  O   UNL     1     133.277 134.211 148.953  1.00  0.00    -0.246 OA
ATOM      5  O   UNL     1     134.686 135.135 147.478  1.00  0.00    -0.423 OA
ATOM      6  C   UNL     1     135.294 136.189 146.939  1.00  0.00     0.142 A 
ATOM      7  C   UNL     1     136.194 136.013 145.883  1.00  0.00     0.098 A 
ATOM      8  C   UNL     1     136.838 137.116 145.311  1.00  0.00     0.161 A 
ATOM      9  C   UNL     1     136.579 138.412 145.798  1.00  0.00     0.158 A 
ATOM     10  C   UNL     1     135.676 138.593 146.856  1.00  0.00     0.062 A 
ATOM     11  C   UNL     1     135.033 137.488 147.428  1.00  0.00     0.022 A 
ENDROOT
BRANCH   9  12
ATOM     12  O   UNL     1     137.220 139.511 145.229  1.00  0.00    -0.504 OA
ATOM     13  H   UNL     1     138.077 139.409 144.698  1.00  0.00     0.293 HD
ENDBRANCH   9  12
BRANCH   8  14
ATOM     14  O   UNL     1     137.730 136.908 144.260  1.00  0.00    -0.504 OA
ATOM     15  H   UNL     1     138.729 136.825 144.409  1.00  0.00     0.293 HD
ENDBRANCH   8  14
TORSDOF 2
ENDMDL
MODEL 4
REMARK VINA RESULT:    -5.491      9.187      9.719
REMARK INTER + INTRA:          -5.812
REMARK INTER:                  -5.812
REMARK INTRA:                   0.000
REMARK UNBOUND:                 0.000
REMARK SMILES O=c1ccc2cc(O)c(O)cc2o1
REMARK SMILES IDX 4 1 3 2 2 3 1 4 13 5 12 6 11 7 9 8 7 9 6 10 5 11 8 12 10 14
REMARK H PARENT 8 13 10 15
REMARK Flexibility Score: inf
ROOT
ATOM      1  C   UNL     1     135.159 134.287 146.307  1.00  0.00     0.019 A 
ATOM      2  C   UNL     1     134.462 133.260 146.942  1.00  0.00     0.094 A 
ATOM      3  C   UNL     1     133.701 133.559 148.078  1.00  0.00     0.336 A 
ATOM      4  O   UNL     1     133.063 132.645 148.666  1.00  0.00    -0.246 OA
ATOM      5  O   UNL     1     133.644 134.805 148.543  1.00  0.00    -0.423 OA
ATOM      6  C   UNL     1     134.293 135.813 147.966  1.00  0.00     0.142 A 
ATOM      7  C   UNL     1     134.197 137.103 148.499  1.00  0.00     0.098 A 
ATOM      8  C   UNL     1     134.876 138.169 147.899  1.00  0.00     0.161 A 
ATOM      9  C   UNL     1     135.663 137.945 146.753  1.00  0.00     0.158 A 
ATOM     10  C   UNL     1     135.763 136.653 146.216  1.00  0.00     0.062 A 
ATOM     11  C   UNL     1     135.082 135.587 146.817  1.00  0.00     0.022 A 
ENDROOT
BRANCH   9  12
ATOM     12  O   UNL     1     136.340 139.006 146.155  1.00  0.00    -0.504 OA
ATOM     13  H   UNL     1     136.621 138.975 145.181  1.00  0.00     0.293 HD
ENDBRANCH   9  12
BRANCH   8  14
ATOM     14  O   UNL     1     134.761 139.443 148.454  1.00  0.00    -0.504 OA
ATOM     15  H   UNL     1     134.389 139.594 149.384  1.00  0.00     0.293 HD
ENDBRANCH   8  14
TORSDOF 2
ENDMDL
MODEL 5
REMARK VINA RESULT:    -5.483      9.588     11.058
REMARK INTER + INTRA:          -5.803
REMARK INTER:                  -5.803
REMARK INTRA:                   0.000
REMARK UNBOUND:                 0.000
REMARK SMILES O=c1ccc2cc(O)c(O)cc2o1
REMARK SMILES IDX 4 1 3 2 2 3 1 4 13 5 12 6 11 7 9 8 7 9 6 10 5 11 8 12 10 14
REMARK H PARENT 8 13 10 15
REMARK Flexibility Score: inf
ROOT
ATOM      1  C   UNL     1     133.762 136.870 148.872  1.00  0.00     0.019 A 
ATOM      2  C   UNL     1     134.256 138.043 148.301  1.00  0.00     0.094 A 
ATOM      3  C   UNL     1     134.975 137.963 147.103  1.00  0.00     0.336 A 
ATOM      4  O   UNL     1     135.429 139.011 146.571  1.00  0.00    -0.246 OA
ATOM      5  O   UNL     1     135.183 136.786 146.519  1.00  0.00    -0.423 OA
ATOM      6  C   UNL     1     134.729 135.644 147.030  1.00  0.00     0.142 A 
ATOM      7  C   UNL     1     134.979 134.435 146.372  1.00  0.00     0.098 A 
ATOM      8  C   UNL     1     134.505 133.230 146.902  1.00  0.00     0.161 A 
ATOM      9  C   UNL     1     133.774 133.230 148.105  1.00  0.00     0.158 A 
ATOM     10  C   UNL     1     133.522 134.440 148.769  1.00  0.00     0.062 A 
ATOM     11  C   UNL     1     133.997 135.646 148.236  1.00  0.00     0.022 A 
ENDROOT
BRANCH   9  12
ATOM     12  O   UNL     1     133.302 132.031 148.634  1.00  0.00    -0.504 OA
ATOM     13  H   UNL     1     132.669 132.012 149.427  1.00  0.00     0.293 HD
ENDBRANCH   9  12
BRANCH   8  14
ATOM     14  O   UNL     1     134.770 132.041 146.223  1.00  0.00    -0.504 OA
ATOM     15  H   UNL     1     134.296 131.175 146.448  1.00  0.00     0.293 HD
ENDBRANCH   8  14
TORSDOF 2
ENDMDL
MODEL 6
REMARK VINA RESULT:    -5.428      2.013      3.993
REMARK INTER + INTRA:          -5.745
REMARK INTER:                  -5.745
REMARK INTRA:                   0.000
REMARK UNBOUND:                 0.000
REMARK SMILES O=c1ccc2cc(O)c(O)cc2o1
REMARK SMILES IDX 4 1 3 2 2 3 1 4 13 5 12 6 11 7 9 8 7 9 6 10 5 11 8 12 10 14
REMARK H PARENT 8 13 10 15
REMARK Flexibility Score: inf
ROOT
ATOM      1  C   UNL     1     139.005 140.361 141.311  1.00  0.00     0.019 A 
ATOM      2  C   UNL     1     139.656 140.871 142.435  1.00  0.00     0.094 A 
ATOM      3  C   UNL     1     139.228 142.091 142.970  1.00  0.00     0.336 A 
ATOM      4  O   UNL     1     139.801 142.568 143.985  1.00  0.00    -0.246 OA
ATOM      5  O   UNL     1     138.216 142.753 142.414  1.00  0.00    -0.423 OA
ATOM      6  C   UNL     1     137.570 142.302 141.342  1.00  0.00     0.142 A 
ATOM      7  C   UNL     1     136.513 143.042 140.800  1.00  0.00     0.098 A 
ATOM      8  C   UNL     1     135.828 142.575 139.673  1.00  0.00     0.161 A 
ATOM      9  C   UNL     1     136.202 141.355 139.078  1.00  0.00     0.158 A 
ATOM     10  C   UNL     1     137.261 140.610 139.618  1.00  0.00     0.062 A 
ATOM     11  C   UNL     1     137.946 141.079 140.747  1.00  0.00     0.022 A 
ENDROOT
BRANCH   9  12
ATOM     12  O   UNL     1     135.520 140.889 137.956  1.00  0.00    -0.504 OA
ATOM     13  H   UNL     1     134.623 140.423 138.035  1.00  0.00     0.293 HD
ENDBRANCH   9  12
BRANCH   8  14
ATOM     14  O   UNL     1     134.779 143.335 139.156  1.00  0.00    -0.504 OA
ATOM     15  H   UNL     1     134.444 143.216 138.208  1.00  0.00     0.293 HD
ENDBRANCH   8  14
TORSDOF 2
ENDMDL
MODEL 7
REMARK VINA RESULT:    -5.396      9.327      9.871
REMARK INTER + INTRA:          -5.712
REMARK INTER:                  -5.712
REMARK INTRA:                   0.000
REMARK UNBOUND:                 0.000
REMARK SMILES O=c1ccc2cc(O)c(O)cc2o1
REMARK SMILES IDX 4 1 3 2 2 3 1 4 13 5 12 6 11 7 9 8 7 9 6 10 5 11 8 12 10 14
REMARK H PARENT 8 13 10 15
REMARK Flexibility Score: inf
ROOT
ATOM      1  C   UNL     1     133.367 134.859 148.968  1.00  0.00     0.019 A 
ATOM      2  C   UNL     1     133.441 133.544 148.507  1.00  0.00     0.094 A 
ATOM      3  C   UNL     1     134.236 133.262 147.391  1.00  0.00     0.336 A 
ATOM      4  O   UNL     1     134.316 132.082 146.958  1.00  0.00    -0.246 OA
ATOM      5  O   UNL     1     134.911 134.233 146.781  1.00  0.00    -0.423 OA
ATOM      6  C   UNL     1     134.869 135.499 147.189  1.00  0.00     0.142 A 
ATOM      7  C   UNL     1     135.599 136.478 146.508  1.00  0.00     0.098 A 
ATOM      8  C   UNL     1     135.561 137.812 146.932  1.00  0.00     0.161 A 
ATOM      9  C   UNL     1     134.781 138.173 148.047  1.00  0.00     0.158 A 
ATOM     10  C   UNL     1     134.046 137.194 148.732  1.00  0.00     0.062 A 
ATOM     11  C   UNL     1     134.087 135.859 148.308  1.00  0.00     0.022 A 
ENDROOT
BRANCH   9  12
ATOM     12  O   UNL     1     134.742 139.500 148.469  1.00  0.00    -0.504 OA
ATOM     13  H   UNL     1     135.479 140.155 148.232  1.00  0.00     0.293 HD
ENDBRANCH   9  12
BRANCH   8  14
ATOM     14  O   UNL     1     136.300 138.765 146.232  1.00  0.00    -0.504 OA
ATOM     15  H   UNL     1     136.759 139.539 146.698  1.00  0.00     0.293 HD
ENDBRANCH   8  14
TORSDOF 2
ENDMDL
MODEL 8
REMARK VINA RESULT:    -5.344     10.336     11.917
REMARK INTER + INTRA:          -5.657
REMARK INTER:                  -5.657
REMARK INTRA:                   0.000
REMARK UNBOUND:                 0.000
REMARK SMILES O=c1ccc2cc(O)c(O)cc2o1
REMARK SMILES IDX 4 1 3 2 2 3 1 4 13 5 12 6 11 7 9 8 7 9 6 10 5 11 8 12 10 14
REMARK H PARENT 8 13 10 15
REMARK Flexibility Score: inf
ROOT
ATOM      1  C   UNL     1     133.401 135.467 149.251  1.00  0.00     0.019 A 
ATOM      2  C   UNL     1     133.681 136.747 148.775  1.00  0.00     0.094 A 
ATOM      3  C   UNL     1     134.094 136.901 147.446  1.00  0.00     0.336 A 
ATOM      4  O   UNL     1     134.352 138.049 146.996  1.00  0.00    -0.246 OA
ATOM      5  O   UNL     1     134.215 135.840 146.651  1.00  0.00    -0.423 OA
ATOM      6  C   UNL     1     133.957 134.603 147.066  1.00  0.00     0.142 A 
ATOM      7  C   UNL     1     134.103 133.525 146.186  1.00  0.00     0.098 A 
ATOM      8  C   UNL     1     133.833 132.220 146.614  1.00  0.00     0.161 A 
ATOM      9  C   UNL     1     133.414 131.987 147.938  1.00  0.00     0.158 A 
ATOM     10  C   UNL     1     133.268 133.065 148.824  1.00  0.00     0.062 A 
ATOM     11  C   UNL     1     133.537 134.371 148.394  1.00  0.00     0.022 A 
ENDROOT
BRANCH   9  12
ATOM     12  O   UNL     1     133.146 130.688 148.365  1.00  0.00    -0.504 OA
ATOM     13  H   UNL     1     133.699 129.900 148.048  1.00  0.00     0.293 HD
ENDBRANCH   9  12
BRANCH   8  14
ATOM     14  O   UNL     1     133.987 131.168 145.713  1.00  0.00    -0.504 OA
ATOM     15  H   UNL     1     134.839 130.622 145.662  1.00  0.00     0.293 HD
ENDBRANCH   8  14
TORSDOF 2
ENDMDL
MODEL 9
REMARK VINA RESULT:    -5.266     10.608     12.384
REMARK INTER + INTRA:          -5.573
REMARK INTER:                  -5.573
REMARK INTRA:                   0.000
REMARK UNBOUND:                 0.000
REMARK SMILES O=c1ccc2cc(O)c(O)cc2o1
REMARK SMILES IDX 4 1 3 2 2 3 1 4 13 5 12 6 11 7 9 8 7 9 6 10 5 11 8 12 10 14
REMARK H PARENT 8 13 10 15
REMARK Flexibility Score: inf
ROOT
ATOM      1  C   UNL     1     134.346 134.953 145.980  1.00  0.00     0.019 A 
ATOM      2  C   UNL     1     134.330 136.067 146.819  1.00  0.00     0.094 A 
ATOM      3  C   UNL     1     133.940 135.905 148.153  1.00  0.00     0.336 A 
ATOM      4  O   UNL     1     133.918 136.898 148.928  1.00  0.00    -0.246 OA
ATOM      5  O   UNL     1     133.591 134.705 148.612  1.00  0.00    -0.423 OA
ATOM      6  C   UNL     1     133.593 133.617 147.846  1.00  0.00     0.142 A 
ATOM      7  C   UNL     1     133.216 132.382 148.383  1.00  0.00     0.098 A 
ATOM      8  C   UNL     1     133.216 131.234 147.584  1.00  0.00     0.161 A 
ATOM      9  C   UNL     1     133.595 131.318 146.230  1.00  0.00     0.158 A 
ATOM     10  C   UNL     1     133.974 132.555 145.688  1.00  0.00     0.062 A 
ATOM     11  C   UNL     1     133.974 133.705 146.489  1.00  0.00     0.022 A 
ENDROOT
BRANCH   9  12
ATOM     12  O   UNL     1     133.596 130.175 145.434  1.00  0.00    -0.504 OA
ATOM     13  H   UNL     1     134.293 130.031 144.712  1.00  0.00     0.293 HD
ENDBRANCH   9  12
BRANCH   8  14
ATOM     14  O   UNL     1     132.835 130.017 148.148  1.00  0.00    -0.504 OA
ATOM     15  H   UNL     1     131.934 129.888 148.594  1.00  0.00     0.293 HD
ENDBRANCH   8  14
TORSDOF 2
ENDMDL
